data_PCOD8243724
_publ_section_title
;
Structure prediction by ZEFSAII (Michael W. Deem and Ramdas Pophale) SiO2 
 PCOD8243724
Probable space group: P M M N
;
_chemical_formula_sum "Si O2"
_cell_formula_units_Z 40
_cell_length_a 15.546702
_cell_length_b 8.807872
_cell_length_c 14.353655
_cell_angle_alpha 90.000000
_cell_angle_beta 90.000000
_cell_angle_gamma 90.000000
_cell_volume 1965.494225
_symmetry_space_group_name_H-M "P M M N"
_symmetry_group_IT_number 59
_space_group.IT_coordinate_system_code '2'
_symmetry_cell_setting 'orthorhombic'
loop_
_space_group_symop_operation_xyz
x,y,z
1/2-x,1/2-y,z
1/2+x,-y,-z
-x,1/2+y,-z
-x,-y,-z
1/2+x,1/2+y,-z
1/2-x,y,z
x,1/2-y,z
loop_
_atom_site_type_symbol
_atom_site_label
_atom_site_fract_x
_atom_site_fract_y
_atom_site_fract_z
Si Si1 0.846894 0.575593 0.785066
Si Si2 0.904595 0.074912 0.607092
Si Si3 0.413748 0.925818 0.601253
Si Si4 0.502270 0.071258 0.899165
Si Si5 0.845140 0.575087 0.227044
O O1 0.750000 0.553435 0.823203
O O2 0.875450 0.750000 0.792297
O O3 0.847966 0.524630 0.677199
O O4 0.911625 0.476093 0.845701
O O5 0.894210 0.250000 0.635257
O O6 0.873439 0.045345 0.501156
O O7 0.003808 0.030581 0.617563
O O8 0.439966 0.750000 0.612089
O O9 0.345477 0.975168 0.678878
O O10 0.501225 0.250000 0.910279
O O11 0.417367 0.014616 0.844240
O O12 0.500000 0.000000 0.000000
O O13 0.750000 0.555673 0.182163
O O14 0.862910 0.750000 0.252766
#
# Coordination Sequence:
#
# PCOD8243724 Si02
#       5
#     8   8   8   8   8
#     4  11  24  41  63  92 125 162 205 254 306 361
#     4  10  20  35  57  87 123 164 205 248 299 357
#     4  10  20  34  57  88 123 162 205 249 297 356
#     4  11  24  43  67  92 121 159 200 251 313 367
#     4  10  22  40  62  89 122 160 201 245 299 363
#
# _framework density 20.351116000000001
#
# number of rings (size 3 to 8) (size 9 to 14) (size 15 to 20)
#    0.000    1.600    2.000    2.400    0.000    6.800 
#    0.000    6.000    0.000    0.000    0.000    0.000 
#    0.000    0.000    0.000    0.000    0.000    0.000 
#
# Total GULP energy -496082.917211 kJ/mol
# GULP energy per Si atom -12402.072930 kJ/mol
# Density = 2.030480 g / cm^3
# Si number density = 20.351116 Si / 1000 Ang^3
#
#
#
# Elastic Constant Matrix: (Units=GPa)
#
#
# Indices 1 2 3 4 5 6 
#
# 1 110.5964 30.2252 57.4753 0.0000 0.0000 0.0000
# 2 30.2252 62.9551 42.3005 0.0000 0.0000 0.0000
# 3 57.4753 42.3005 134.8369 0.0000 0.0000 0.0000
# 4 0.0000 0.0000 0.0000 38.4632 0.0000 0.0000
# 5 0.0000 0.0000 0.0000 0.0000 11.6462 0.0000
# 6 0.0000 0.0000 0.0000 0.0000 0.0000 29.2236
#
#
#
# Elastic Compliance Matrix: (Units=1/GPa)
#
#
# Indices 1 2 3 4 5 6 
#
# 1 0.012033 -0.002953 -0.004203 0.000000 0.000000 0.000000
# 2 -0.002953 0.020852 -0.005283 0.000000 0.000000 0.000000
# 3 -0.004203 -0.005283 0.010865 0.000000 0.000000 0.000000
# 4 0.000000 0.000000 0.000000 0.025999 0.000000 0.000000
# 5 0.000000 0.000000 0.000000 0.000000 0.085865 0.000000
# 6 0.000000 0.000000 0.000000 0.000000 0.000000 0.034219
#
#
# Mechanical properties :
#
#
# Convention : Reuss Voigt Hill
#
# Bulk Modulus (GPa) = 52.98702 63.15449 58.07076
# Shear Modulus (GPa) = 22.62435 27.75909 25.19172
#
# Velocity S-wave (km/s) = 3.33783 3.69725 3.52213
# Velocity P-wave (km/s) = 6.39905 7.02325 6.71840
#
# Compressibility (1/GPa) = 0.01887255
#
# Stress axis : x y z
#
# Youngs Moduli (GPa) = 83.10425 47.95768 92.03816
#
# Poissons Ratio (x) = 0.14163 0.38681
# Poissons Ratio (y) = 0.24543 0.48621
# Poissons Ratio (z) = 0.34926 0.25334
#
# Static dielectric constant tensor:
#      x y z
#    x 3.590980 0.000000 0.000000 
#    y 0.000000 3.699460 0.000000 
#    z 0.000000 0.000000 3.803450 
# 
# 
# High freq. dielectric constant tensor:
#      x y z
#    x 1.789690 0.000000 0.000000 
#    y 0.000000 1.801910 0.000000 
#    z 0.000000 0.000000 1.792580 
# 
# From -- ./inp_files/19837.got.cif
#   From: 2010.03.12/outbox.cif.g09.slc.cpg/sg59_10_cif.got.tgz:19837.got - 2010.04.16 16:29:54.
