data_PCOD8243732
_publ_section_title
;
Structure prediction by ZEFSAII (Michael W. Deem and Ramdas Pophale) SiO2 
 PCOD8243732
Probable space group: P M M N
;
_chemical_formula_sum "Si O2"
_cell_formula_units_Z 48
_cell_length_a 9.651820
_cell_length_b 10.114312
_cell_length_c 26.645327
_cell_angle_alpha 90.000000
_cell_angle_beta 90.000000
_cell_angle_gamma 90.000000
_cell_volume 2601.157292
_symmetry_space_group_name_H-M "P M M N"
_symmetry_group_IT_number 59
_space_group.IT_coordinate_system_code '2'
_symmetry_cell_setting 'orthorhombic'
loop_
_space_group_symop_operation_xyz
x,y,z
1/2-x,1/2-y,z
1/2+x,-y,-z
-x,1/2+y,-z
-x,-y,-z
1/2+x,1/2+y,-z
1/2-x,y,z
x,1/2-y,z
loop_
_atom_site_type_symbol
_atom_site_label
_atom_site_fract_x
_atom_site_fract_y
_atom_site_fract_z
Si Si1 0.410921 0.594899 0.293379
Si Si2 0.405313 0.099855 0.800063
Si Si3 0.407223 0.750000 0.554673
Si Si4 0.462902 0.599711 0.888060
Si Si5 0.410910 0.250000 0.543685
Si Si6 0.250000 0.100096 0.064801
Si Si7 0.089985 0.487838 0.615441
Si Si8 0.750000 0.099779 0.026614
O O1 0.250000 0.552790 0.291553
O O2 0.428374 0.750000 0.303425
O O3 0.483066 0.554716 0.241193
O O4 0.489353 0.517042 0.337033
O O5 0.250000 0.092483 0.777151
O O6 0.437278 0.250000 0.817925
O O7 0.411872 0.002097 0.846741
O O8 0.250000 0.750000 0.534602
O O9 0.506176 0.750000 0.507471
O O10 0.437595 0.625891 0.589335
O O11 0.433049 0.750000 0.869705
O O12 0.622845 0.574771 0.898364
O O13 0.385000 0.572450 0.940109
O O14 0.250000 0.250000 0.529529
O O15 0.453021 0.122873 0.575645
O O16 0.250000 0.250000 0.043243
O O17 0.250000 0.999705 0.019211
O O18 0.250000 0.469799 0.632508
O O19 0.750000 0.250000 0.005893
#
# Coordination Sequence:
#
# PCOD8243732 Si02
#       8
#     8   8   4   8   4   4   8   4
#     4  10  21  37  59  86 111 141 185 237 288 336
#     4  10  21  37  59  84 108 142 187 235 280 336
#     4  10  22  36  54  84 120 150 190 236 277 332
#     4  10  21  38  57  82 117 152 187 229 283 336
#     4  10  20  34  58  84 110 156 196 228 279 334
#     4  10  22  36  56  84 118 154 186 232 281 324
#     4  10  20  37  58  81 115 152 190 233 281 336
#     4  10  20  36  58  82 114 152 196 230 269 336
#
# _framework density 18.453325
#
# number of rings (size 3 to 8) (size 9 to 14) (size 15 to 20)
#    0.000    2.000    1.667    1.500    1.167    3.333 
#    1.500    0.000    0.000    0.000    0.000    0.000 
#    0.000    0.000    0.000    0.000    0.000    0.000 
#
# Total GULP energy -595309.399280 kJ/mol
# GULP energy per Si atom -12402.279152 kJ/mol
# Density = 1.841132 g / cm^3
# Si number density = 18.453325 Si / 1000 Ang^3
#
#
#
# Elastic Constant Matrix: (Units=GPa)
#
#
# Indices 1 2 3 4 5 6 
#
# 1 109.9182 36.4091 46.0158 0.0000 0.0000 0.0000
# 2 36.4091 110.6786 59.0019 0.0000 0.0000 0.0000
# 3 46.0158 59.0019 95.2722 0.0000 0.0000 0.0000
# 4 0.0000 0.0000 0.0000 10.1073 0.0000 0.0000
# 5 0.0000 0.0000 0.0000 0.0000 36.8034 0.0000
# 6 0.0000 0.0000 0.0000 0.0000 0.0000 29.4609
#
#
#
# Elastic Compliance Matrix: (Units=1/GPa)
#
#
# Indices 1 2 3 4 5 6 
#
# 1 0.011514 -0.001229 -0.004800 0.000000 0.000000 0.000000
# 2 -0.001229 0.013619 -0.007841 0.000000 0.000000 0.000000
# 3 -0.004800 -0.007841 0.017671 0.000000 0.000000 0.000000
# 4 0.000000 0.000000 0.000000 0.098939 0.000000 0.000000
# 5 0.000000 0.000000 0.000000 0.000000 0.027171 0.000000
# 6 0.000000 0.000000 0.000000 0.000000 0.000000 0.033943
#
#
# Mechanical properties :
#
#
# Convention : Reuss Voigt Hill
#
# Bulk Modulus (GPa) = 66.38263 66.52472 66.45367
# Shear Modulus (GPa) = 21.22069 26.90381 24.06225
#
# Velocity S-wave (km/s) = 3.39479 3.82244 3.61495
# Velocity P-wave (km/s) = 7.17060 7.45720 7.31531
#
# Compressibility (1/GPa) = 0.01506418
#
# Stress axis : x y z
#
# Youngs Moduli (GPa) = 86.84859 73.42512 56.59092
#
# Poissons Ratio (x) = 0.09022 0.27166
# Poissons Ratio (y) = 0.10671 0.44373
# Poissons Ratio (z) = 0.41691 0.57572
#
# Static dielectric constant tensor:
#      x y z
#    x 3.661930 0.000000 0.000000 
#    y 0.000000 3.437190 0.000000 
#    z 0.000000 0.000000 3.137830 
# 
# 
# High freq. dielectric constant tensor:
#      x y z
#    x 1.730150 0.000000 0.000000 
#    y 0.000000 1.716500 0.000000 
#    z 0.000000 0.000000 1.706520 
# 
# From -- ./inp_files/33119.got.cif
#   From: 2010.03.12/outbox.cif.g09.slc.cpg/sg59_17_cif.got.tgz:33119.got - 2010.04.16 16:29:54.
