data_PCOD8243860
_publ_section_title
;
Structure prediction by ZEFSAII (Michael W. Deem and Ramdas Pophale) SiO2 
 PCOD8243860
Probable space group: P M M N
;
_chemical_formula_sum "Si O2"
_cell_formula_units_Z 64
_cell_length_a 9.024169
_cell_length_b 24.078927
_cell_length_c 16.016836
_cell_angle_alpha 90.000000
_cell_angle_beta 90.000000
_cell_angle_gamma 90.000000
_cell_volume 3480.335239
_symmetry_space_group_name_H-M "P M M N"
_symmetry_group_IT_number 59
_space_group.IT_coordinate_system_code '2'
_symmetry_cell_setting 'orthorhombic'
loop_
_space_group_symop_operation_xyz
x,y,z
1/2-x,1/2-y,z
1/2+x,-y,-z
-x,1/2+y,-z
-x,-y,-z
1/2+x,1/2+y,-z
1/2-x,y,z
x,1/2-y,z
loop_
_atom_site_type_symbol
_atom_site_label
_atom_site_fract_x
_atom_site_fract_y
_atom_site_fract_z
Si Si1 0.573945 0.581227 0.779511
Si Si2 0.078162 0.418779 0.540856
Si Si3 0.589610 0.344419 0.985450
Si Si4 0.084102 0.185717 0.828300
Si Si5 0.078892 0.535939 0.618084
Si Si6 0.413256 0.962985 0.936206
Si Si7 0.423833 0.688587 0.839371
Si Si8 0.426288 0.188084 0.643592
O O1 0.750000 0.581752 0.785833
O O2 0.524532 0.554146 0.693347
O O3 0.507391 0.542933 0.851988
O O4 0.514849 0.644505 0.784756
O O5 0.250000 0.413883 0.513068
O O6 0.059363 0.469822 0.605179
O O7 0.021075 0.361082 0.582280
O O8 0.974111 0.429439 0.462089
O O9 0.750000 0.318929 0.962058
O O10 0.495178 0.347174 0.901726
O O11 0.608509 0.405626 0.018373
O O12 0.520361 0.310329 0.063719
O O13 0.250000 0.162582 0.826209
O O14 0.079355 0.250000 0.852245
O O15 0.010452 0.176125 0.736968
O O16 0.250000 0.550880 0.635778
O O17 0.250000 0.987781 0.914856
O O18 0.500000 0.000000 0.000000
O O19 0.250000 0.671841 0.837418
O O20 0.449676 0.750000 0.801220
O O21 0.250000 0.188601 0.650054
O O22 0.479467 0.250000 0.613387
#
# Coordination Sequence:
#
# PCOD8243860 Si02
#       8
#     8   8   8   8   8   8   8   8
#     4  11  22  36  55  79 107 139 177 220 264 314
#     4   9  18  34  57  81 101 130 172 213 260 318
#     4   9  18  31  47  69  97 130 168 209 253 300
#     4   9  17  28  44  69  99 130 165 203 243 292
#     4  10  20  35  55  79 107 136 170 215 263 313
#     4  10  21  37  53  72 101 136 174 215 262 312
#     4   9  18  34  54  74 101 138 177 220 272 322
#     4   8  15  30  51  75 104 134 165 207 258 309
#
# _framework density 18.389033999999999
#
# number of rings (size 3 to 8) (size 9 to 14) (size 15 to 20)
#    0.000    2.625    0.000    3.750    0.000    5.000 
#    0.000    2.500    0.000    3.375    0.000    0.000 
#    0.000    0.000    0.000    0.000    0.000    0.000 
#
# Total GULP energy -793210.538197 kJ/mol
# GULP energy per Si atom -12393.914659 kJ/mol
# Density = 1.834718 g / cm^3
# Si number density = 18.389034 Si / 1000 Ang^3
#
#
#
# Elastic Constant Matrix: (Units=GPa)
#
#
# Indices 1 2 3 4 5 6 
#
# 1 97.8931 35.8996 43.3851 0.0000 0.0000 0.0000
# 2 35.8996 79.1779 52.3444 0.0000 0.0000 0.0000
# 3 43.3851 52.3444 94.2480 0.0000 0.0000 0.0000
# 4 0.0000 0.0000 0.0000 7.2108 0.0000 0.0000
# 5 0.0000 0.0000 0.0000 0.0000 29.2148 0.0000
# 6 0.0000 0.0000 0.0000 0.0000 0.0000 23.3182
#
#
#
# Elastic Compliance Matrix: (Units=1/GPa)
#
#
# Indices 1 2 3 4 5 6 
#
# 1 0.013308 -0.003135 -0.004385 0.000000 0.000000 0.000000
# 2 -0.003135 0.020696 -0.010051 0.000000 0.000000 0.000000
# 3 -0.004385 -0.010051 0.018211 0.000000 0.000000 0.000000
# 4 0.000000 0.000000 0.000000 0.138681 0.000000 0.000000
# 5 0.000000 0.000000 0.000000 0.000000 0.034229 0.000000
# 6 0.000000 0.000000 0.000000 0.000000 0.000000 0.042885
#
#
# Mechanical properties :
#
#
# Convention : Reuss Voigt Hill
#
# Bulk Modulus (GPa) = 58.57222 59.39746 58.98484
# Shear Modulus (GPa) = 16.18937 21.26143 18.72540
#
# Velocity S-wave (km/s) = 2.97034 3.40398 3.19453
# Velocity P-wave (km/s) = 6.60945 6.91521 6.76405
#
# Compressibility (1/GPa) = 0.01707294
#
# Stress axis : x y z
#
# Youngs Moduli (GPa) = 75.14092 48.31826 54.91131
#
# Poissons Ratio (x) = 0.15148 0.24078
# Poissons Ratio (y) = 0.23558 0.55193
# Poissons Ratio (z) = 0.32949 0.48566
#
# Static dielectric constant tensor:
#      x y z
#    x 3.329900 0.000000 0.000000 
#    y 0.000000 3.336270 0.000000 
#    z 0.000000 0.000000 3.265850 
# 
# 
# High freq. dielectric constant tensor:
#      x y z
#    x 1.700110 0.000000 0.000000 
#    y 0.000000 1.711660 0.000000 
#    z 0.000000 0.000000 1.704570 
# 
# From -- ./inp_files/21468.got.cif
#   From: 2010.03.12/outbox.cif.g09.slc.cpg/sg59_11_cif.got.tgz:21468.got - 2010.04.16 16:29:54.
