data_PCOD8243466
_publ_section_title
;
Structure prediction by ZEFSAII (Michael W. Deem and Ramdas Pophale) SiO2 
 PCOD8243466
Probable space group: P M M N
;
_chemical_formula_sum "Si O2"
_cell_formula_units_Z 40
_cell_length_a 10.051109
_cell_length_b 8.827229
_cell_length_c 23.835436
_cell_angle_alpha 90.000000
_cell_angle_beta 90.000000
_cell_angle_gamma 90.000000
_cell_volume 2114.761896
_symmetry_space_group_name_H-M "P M M N"
_symmetry_group_IT_number 59
_space_group.IT_coordinate_system_code '2'
_symmetry_cell_setting 'orthorhombic'
loop_
_space_group_symop_operation_xyz
x,y,z
1/2-x,1/2-y,z
1/2+x,-y,-z
-x,1/2+y,-z
-x,-y,-z
1/2+x,1/2+y,-z
1/2-x,y,z
x,1/2-y,z
loop_
_atom_site_type_symbol
_atom_site_label
_atom_site_fract_x
_atom_site_fract_y
_atom_site_fract_z
Si Si1 0.250000 0.429638 0.455943
Si Si2 0.016271 0.428921 0.376516
Si Si3 0.750000 0.929675 0.417577
Si Si4 0.400711 0.428207 0.956324
Si Si5 0.098236 0.924845 0.262804
Si Si6 0.898042 0.929925 0.168770
O O1 0.250000 0.250000 0.455872
O O2 0.381865 0.487895 0.424231
O O3 0.250000 0.494913 0.518964
O O4 0.995126 0.250000 0.379883
O O5 0.877397 0.512097 0.384538
O O6 0.076433 0.472173 0.316825
O O7 0.750000 0.750000 0.417615
O O8 0.250000 0.473467 0.972321
O O9 0.419381 0.250000 0.958345
O O10 0.433637 0.489263 0.893627
O O11 0.500000 0.500000 0.000000
O O12 0.250000 0.940127 0.242495
O O13 0.063356 0.750000 0.276869
O O14 0.005102 0.990912 0.213375
O O15 0.750000 0.986191 0.186083
O O16 0.900501 0.750000 0.167737
#
# Coordination Sequence:
#
# PCOD8243466 Si02
#       6
#     4   8   4   8   8   8
#     4   9  20  39  61  81 111 147 180 219 272 331
#     4  11  22  39  58  82 114 147 178 221 280 333
#     4  11  23  39  59  85 109 141 188 229 264 321
#     4   9  18  33  53  79 111 146 184 226 272 321
#     4  10  20  34  54  81 108 139 183 229 271 324
#     4   8  16  32  53  76 105 142 183 228 272 314
#
# _framework density 18.914659
#
# number of rings (size 3 to 8) (size 9 to 14) (size 15 to 20)
#    0.000    2.400    1.000    2.700    1.400    1.200 
#    0.000    6.000    0.000    1.200    0.000    0.000 
#    0.000    0.000    0.000    0.000    0.000    0.000 
#
# Total GULP energy -495989.685916 kJ/mol
# GULP energy per Si atom -12399.742148 kJ/mol
# Density = 1.887161 g / cm^3
# Si number density = 18.914659 Si / 1000 Ang^3
#
#
#
# Elastic Constant Matrix: (Units=GPa)
#
#
# Indices 1 2 3 4 5 6 
#
# 1 131.2451 26.9366 60.2663 0.0000 0.0000 0.0000
# 2 26.9366 39.6773 20.4940 0.0000 0.0000 0.0000
# 3 60.2663 20.4940 110.2866 0.0000 0.0000 0.0000
# 4 0.0000 0.0000 0.0000 28.4364 0.0000 0.0000
# 5 0.0000 0.0000 0.0000 0.0000 44.3058 0.0000
# 6 0.0000 0.0000 0.0000 0.0000 0.0000 20.8024
#
#
#
# Elastic Compliance Matrix: (Units=1/GPa)
#
#
# Indices 1 2 3 4 5 6 
#
# 1 0.010940 -0.004800 -0.005086 0.000000 0.000000 0.000000
# 2 -0.004800 0.029985 -0.002949 0.000000 0.000000 0.000000
# 3 -0.005086 -0.002949 0.012395 0.000000 0.000000 0.000000
# 4 0.000000 0.000000 0.000000 0.035166 0.000000 0.000000
# 5 0.000000 0.000000 0.000000 0.000000 0.022570 0.000000
# 6 0.000000 0.000000 0.000000 0.000000 0.000000 0.048071
#
#
# Mechanical properties :
#
#
# Convention : Reuss Voigt Hill
#
# Bulk Modulus (GPa) = 36.16717 55.17807 45.67262
# Shear Modulus (GPa) = 25.77121 30.27639 28.02380
#
# Velocity S-wave (km/s) = 3.69521 4.00519 3.85332
# Velocity P-wave (km/s) = 6.11301 7.11507 6.63299
#
# Compressibility (1/GPa) = 0.02764939
#
# Stress axis : x y z
#
# Youngs Moduli (GPa) = 91.40755 33.34979 80.67980
#
# Poissons Ratio (x) = 0.16008 0.41036
# Poissons Ratio (y) = 0.43875 0.23793
# Poissons Ratio (z) = 0.46492 0.09835
#
# Static dielectric constant tensor:
#      x y z
#    x 3.779170 0.000000 0.000000 
#    y 0.000000 3.125000 0.000000 
#    z 0.000000 0.000000 3.225810 
# 
# 
# High freq. dielectric constant tensor:
#      x y z
#    x 1.748030 0.000000 0.000000 
#    y 0.000000 1.702540 0.000000 
#    z 0.000000 0.000000 1.741210 
# 
# From -- ./inp_files/32422.got.cif
#   From: 2010.03.12/outbox.cif.g09.slc.cpg/sg59_17_cif.got.tgz:32422.got - 2010.04.16 16:29:54.
