data_PCOD8243180
_publ_section_title
;
Structure prediction by ZEFSAII (Michael W. Deem and Ramdas Pophale) SiO2 
 PCOD8243180
Probable space group: P M M N
;
_chemical_formula_sum "Si O2"
_cell_formula_units_Z 64
_cell_length_a 8.599235
_cell_length_b 23.154218
_cell_length_c 15.882027
_cell_angle_alpha 90.000000
_cell_angle_beta 90.000000
_cell_angle_gamma 90.000000
_cell_volume 3162.247555
_symmetry_space_group_name_H-M "P M M N"
_symmetry_group_IT_number 59
_space_group.IT_coordinate_system_code '2'
_symmetry_cell_setting 'orthorhombic'
loop_
_space_group_symop_operation_xyz
x,y,z
1/2-x,1/2-y,z
1/2+x,-y,-z
-x,1/2+y,-z
-x,-y,-z
1/2+x,1/2+y,-z
1/2-x,y,z
x,1/2-y,z
loop_
_atom_site_type_symbol
_atom_site_label
_atom_site_fract_x
_atom_site_fract_y
_atom_site_fract_z
Si Si1 0.066724 0.815593 0.827970
Si Si2 0.570042 0.185355 0.669785
Si Si3 0.426944 0.423907 0.717288
Si Si4 0.426093 0.315575 0.494899
Si Si5 0.931712 0.994291 0.593374
Si Si6 0.573780 0.468438 0.879006
Si Si7 0.070775 0.917731 0.945446
Si Si8 0.433600 0.619029 0.659382
O O1 0.250000 0.809107 0.822738
O O2 0.995136 0.750000 0.833452
O O3 0.020251 0.854497 0.909702
O O4 0.007706 0.850351 0.745288
O O5 0.750000 0.176941 0.690046
O O6 0.514302 0.250000 0.690551
O O7 0.468927 0.143506 0.728683
O O8 0.539342 0.171209 0.572104
O O9 0.250000 0.433063 0.690147
O O10 0.538688 0.446158 0.642398
O O11 0.454338 0.454466 0.805735
O O12 0.250000 0.331074 0.521806
O O13 0.440558 0.250000 0.464876
O O14 0.476070 0.353702 0.417547
O O15 0.750000 0.980074 0.587096
O O16 0.019706 0.948100 0.653733
O O17 0.000000 0.000000 0.500000
O O18 0.750000 0.465780 0.845181
O O19 0.540100 0.533565 0.907306
O O20 0.551177 0.421457 0.953752
O O21 0.250000 0.930356 0.919770
O O22 0.250000 0.626508 0.649013
#
# Coordination Sequence:
#
# PCOD8243180 Si02
#       8
#     8   8   8   8   8   8   8   8
#     4   9  18  33  55  83 114 149 189 234 284 341
#     4  10  21  38  59  81 106 138 179 227 277 328
#     4  12  24  39  59  83 113 147 185 228 277 334
#     4  10  20  34  52  75 106 146 191 234 276 324
#     4  12  25  41  59  82 115 152 192 238 290 344
#     4  10  20  35  58  87 115 146 187 235 288 342
#     4   9  18  35  59  85 113 145 186 234 285 343
#     4  11  21  34  54  81 113 149 191 235 284 342
#
# _framework density 20.238769999999999
#
# number of rings (size 3 to 8) (size 9 to 14) (size 15 to 20)
#    0.000    1.625    0.000    5.625    0.000    3.500 
#    0.000    1.250    0.000    4.125    0.000    0.000 
#    0.000    0.000    0.000    0.000    0.000    0.000 
#
# Total GULP energy -793577.204080 kJ/mol
# GULP energy per Si atom -12399.643814 kJ/mol
# Density = 2.019271 g / cm^3
# Si number density = 20.238770 Si / 1000 Ang^3
#
#
#
# Elastic Constant Matrix: (Units=GPa)
#
#
# Indices 1 2 3 4 5 6 
#
# 1 52.7306 20.8600 19.9285 0.0000 0.0000 0.0000
# 2 20.8600 111.7150 43.6646 0.0000 0.0000 0.0000
# 3 19.9285 43.6646 79.1077 0.0000 0.0000 0.0000
# 4 0.0000 0.0000 0.0000 35.4676 0.0000 0.0000
# 5 0.0000 0.0000 0.0000 0.0000 26.8960 0.0000
# 6 0.0000 0.0000 0.0000 0.0000 0.0000 30.3721
#
#
#
# Elastic Compliance Matrix: (Units=1/GPa)
#
#
# Indices 1 2 3 4 5 6 
#
# 1 0.021459 -0.002415 -0.004073 0.000000 0.000000 0.000000
# 2 -0.002415 0.011686 -0.005842 0.000000 0.000000 0.000000
# 3 -0.004073 -0.005842 0.016891 0.000000 0.000000 0.000000
# 4 0.000000 0.000000 0.000000 0.028195 0.000000 0.000000
# 5 0.000000 0.000000 0.000000 0.000000 0.037180 0.000000
# 6 0.000000 0.000000 0.000000 0.000000 0.000000 0.032925
#
#
# Mechanical properties :
#
#
# Convention : Reuss Voigt Hill
#
# Bulk Modulus (GPa) = 39.40594 45.82884 42.61739
# Shear Modulus (GPa) = 27.55521 29.15379 28.35450
#
# Velocity S-wave (km/s) = 3.69386 3.79950 3.74705
# Velocity P-wave (km/s) = 6.14049 6.47623 6.31059
#
# Compressibility (1/GPa) = 0.02537689
#
# Stress axis : x y z
#
# Youngs Moduli (GPa) = 46.60060 85.57587 59.20183
#
# Poissons Ratio (x) = 0.20667 0.24112
# Poissons Ratio (y) = 0.11254 0.34583
# Poissons Ratio (z) = 0.18980 0.49990
#
# Static dielectric constant tensor:
#      x y z
#    x 3.544710 0.000000 0.000000 
#    y 0.000000 4.149070 0.000000 
#    z 0.000000 0.000000 3.590300 
# 
# 
# High freq. dielectric constant tensor:
#      x y z
#    x 1.783150 0.000000 0.000000 
#    y 0.000000 1.799230 0.000000 
#    z 0.000000 0.000000 1.778710 
# 
# From -- ./inp_files/21554.got.cif
#   From: 2010.03.12/outbox.cif.g09.slc.cpg/sg59_11_cif.got.tgz:21554.got - 2010.04.16 16:29:54.
