data_PCOD8243439
_publ_section_title
;
Structure prediction by ZEFSAII (Michael W. Deem and Ramdas Pophale) SiO2 
 PCOD8243439
Probable space group: P M M N
;
_chemical_formula_sum "Si O2"
_cell_formula_units_Z 56
_cell_length_a 14.273757
_cell_length_b 8.768374
_cell_length_c 23.192266
_cell_angle_alpha 90.000000
_cell_angle_beta 90.000000
_cell_angle_gamma 90.000000
_cell_volume 2902.689273
_symmetry_space_group_name_H-M "P M M N"
_symmetry_group_IT_number 59
_space_group.IT_coordinate_system_code '2'
_symmetry_cell_setting 'orthorhombic'
loop_
_space_group_symop_operation_xyz
x,y,z
1/2-x,1/2-y,z
1/2+x,-y,-z
-x,1/2+y,-z
-x,-y,-z
1/2+x,1/2+y,-z
1/2-x,y,z
x,1/2-y,z
loop_
_atom_site_type_symbol
_atom_site_label
_atom_site_fract_x
_atom_site_fract_y
_atom_site_fract_z
Si Si1 0.640675 0.075446 0.028949
Si Si2 0.143652 0.931819 0.745607
Si Si3 0.646749 0.570310 0.909994
Si Si4 0.641660 0.925807 0.466139
Si Si5 0.970676 0.070368 0.364782
Si Si6 0.539929 0.430922 0.141953
Si Si7 0.856058 0.427800 0.588524
O O1 0.750000 0.058336 0.040460
O O2 0.610999 0.250000 0.019686
O O3 0.590165 0.004151 0.084852
O O4 0.609927 0.984919 0.972030
O O5 0.250000 0.995053 0.745488
O O6 0.145076 0.750000 0.746799
O O7 0.090145 0.990912 0.688876
O O8 0.088079 0.999394 0.800861
O O9 0.750000 0.500678 0.895171
O O10 0.654221 0.750000 0.913279
O O11 0.570443 0.522577 0.861442
O O12 0.750000 0.948686 0.450555
O O13 0.611080 0.750000 0.460621
O O14 0.582207 0.028720 0.423282
O O15 0.620779 0.981277 0.530407
O O16 0.985942 0.250000 0.360906
O O17 0.072378 0.988880 0.362955
O O18 0.552241 0.250000 0.143289
O O19 0.750000 0.460804 0.609429
O O20 0.871582 0.250000 0.576791
#
# Coordination Sequence:
#
# PCOD8243439 Si02
#       7
#     8   8   8   8   8   8   8
#     4   9  16  26  44  69  93 119 154 196 240 287
#     4   9  18  32  50  73  99 127 163 206 247 289
#     4   9  17  28  43  66  96 125 153 191 241 294
#     4  10  20  34  54  80 109 139 171 209 252 299
#     4  11  21  33  52  77 105 135 168 209 256 304
#     4   9  16  28  46  67  92 124 162 201 240 282
#     4  10  21  37  56  77 103 135 170 208 250 299
#
# _framework density 19.292453999999999
#
# number of rings (size 3 to 8) (size 9 to 14) (size 15 to 20)
#    0.000    2.429    0.000    3.000    0.000    4.000 
#    0.000    0.714    0.000    6.000    0.000    4.000 
#    0.000    0.000    0.000    0.000    0.000    0.000 
#
# Total GULP energy -694301.415192 kJ/mol
# GULP energy per Si atom -12398.239557 kJ/mol
# Density = 1.924854 g / cm^3
# Si number density = 19.292454 Si / 1000 Ang^3
#
#
#
# Elastic Constant Matrix: (Units=GPa)
#
#
# Indices 1 2 3 4 5 6 
#
# 1 142.0692 24.5834 83.0449 0.0000 0.0000 0.0000
# 2 24.5834 29.3780 12.8182 0.0000 0.0000 0.0000
# 3 83.0449 12.8182 86.4009 0.0000 0.0000 0.0000
# 4 0.0000 0.0000 0.0000 18.7965 0.0000 0.0000
# 5 0.0000 0.0000 0.0000 0.0000 37.1601 0.0000
# 6 0.0000 0.0000 0.0000 0.0000 0.0000 24.5558
#
#
#
# Elastic Compliance Matrix: (Units=1/GPa)
#
#
# Indices 1 2 3 4 5 6 
#
# 1 0.017613 -0.007861 -0.015763 0.000000 0.000000 0.000000
# 2 -0.007861 0.039903 0.001636 0.000000 0.000000 0.000000
# 3 -0.015763 0.001636 0.026482 0.000000 0.000000 0.000000
# 4 0.000000 0.000000 0.000000 0.053202 0.000000 0.000000
# 5 0.000000 0.000000 0.000000 0.000000 0.026911 0.000000
# 6 0.000000 0.000000 0.000000 0.000000 0.000000 0.040724
#
#
# Mechanical properties :
#
#
# Convention : Reuss Voigt Hill
#
# Bulk Modulus (GPa) = 24.98616 55.41569 40.20092
# Shear Modulus (GPa) = 19.07307 25.26258 22.16782
#
# Velocity S-wave (km/s) = 3.14766 3.62256 3.39343
# Velocity P-wave (km/s) = 5.11759 6.80321 6.01969
#
# Compressibility (1/GPa) = 0.04002215
#
# Stress axis : x y z
#
# Youngs Moduli (GPa) = 56.77669 25.06056 37.76208
#
# Poissons Ratio (x) = 0.19700 0.59523
# Poissons Ratio (y) = 0.44631 -0.06176
# Poissons Ratio (z) = 0.89494 -0.04099
#
# Static dielectric constant tensor:
#      x y z
#    x 3.973490 0.000000 0.000000 
#    y 0.000000 3.220280 0.000000 
#    z 0.000000 0.000000 3.489450 
# 
# 
# High freq. dielectric constant tensor:
#      x y z
#    x 1.772580 0.000000 0.000000 
#    y 0.000000 1.718740 0.000000 
#    z 0.000000 0.000000 1.729740 
# 
# From -- ./inp_files/29042.got.cif
#   From: 2010.03.12/outbox.cif.g09.slc.cpg/sg59_15_cif.got.tgz:29042.got - 2010.04.16 16:29:54.
