data_PCOD8243513
_publ_section_title
;
Structure prediction by ZEFSAII (Michael W. Deem and Ramdas Pophale) SiO2 
 PCOD8243513
Probable space group: P M M N
;
_chemical_formula_sum "Si O2"
_cell_formula_units_Z 48
_cell_length_a 9.359992
_cell_length_b 9.254908
_cell_length_c 28.541838
_cell_angle_alpha 90.000000
_cell_angle_beta 90.000000
_cell_angle_gamma 90.000000
_cell_volume 2472.461401
_symmetry_space_group_name_H-M "P M M N"
_symmetry_group_IT_number 59
_space_group.IT_coordinate_system_code '2'
_symmetry_cell_setting 'orthorhombic'
loop_
_space_group_symop_operation_xyz
x,y,z
1/2-x,1/2-y,z
1/2+x,-y,-z
-x,1/2+y,-z
-x,-y,-z
1/2+x,1/2+y,-z
1/2-x,y,z
x,1/2-y,z
loop_
_atom_site_type_symbol
_atom_site_label
_atom_site_fract_x
_atom_site_fract_y
_atom_site_fract_z
Si Si1 0.587740 0.921339 0.132480
Si Si2 0.584222 0.420275 0.777137
Si Si3 0.250000 0.914779 0.432737
Si Si4 0.416800 0.579031 0.041091
Si Si5 0.408795 0.916255 0.701436
Si Si6 0.042290 0.083078 0.609168
Si Si7 0.250000 0.415664 0.528356
O O1 0.750000 0.983934 0.129939
O O2 0.593886 0.750000 0.133258
O O3 0.507204 0.977833 0.178760
O O4 0.493772 0.973665 0.088547
O O5 0.750000 0.459872 0.784972
O O6 0.564716 0.250000 0.770125
O O7 0.525664 0.498037 0.731194
O O8 0.250000 0.750000 0.449037
O O9 0.377899 0.951515 0.398054
O O10 0.250000 0.000515 0.480409
O O11 0.250000 0.533316 0.042209
O O12 0.431644 0.750000 0.034205
O O13 0.500000 0.500000 0.000000
O O14 0.250000 0.930548 0.723861
O O15 0.456145 0.750000 0.698557
O O16 0.399123 0.981465 0.649662
O O17 0.073725 0.250000 0.622568
O O18 0.113230 0.043985 0.559548
O O19 0.250000 0.250000 0.513804
#
# Coordination Sequence:
#
# PCOD8243513 Si02
#       7
#     8   8   4   8   8   8   4
#     4   9  17  32  56  84 113 148 191 236 283 338
#     4  10  21  37  60  87 113 144 183 230 283 339
#     4  10  22  36  56  84 114 144 180 226 275 326
#     4  10  20  34  54  82 117 155 197 244 291 341
#     4  11  24  40  58  82 112 147 186 231 283 335
#     4  10  21  38  58  82 112 146 186 229 272 327
#     4  10  20  36  58  82 110 148 186 224 271 324
#
# _framework density 19.413851000000001
#
# number of rings (size 3 to 8) (size 9 to 14) (size 15 to 20)
#    0.000    2.000    0.833    2.500    1.167    6.333 
#    0.000    0.833    0.000    5.000    0.000    0.000 
#    0.000    0.000    0.000    0.000    0.000    0.000 
#
# Total GULP energy -595183.608602 kJ/mol
# GULP energy per Si atom -12399.658513 kJ/mol
# Density = 1.936966 g / cm^3
# Si number density = 19.413851 Si / 1000 Ang^3
#
#
#
# Elastic Constant Matrix: (Units=GPa)
#
#
# Indices 1 2 3 4 5 6 
#
# 1 156.7333 42.6956 49.4618 0.0000 0.0000 0.0000
# 2 42.6956 54.7799 42.5488 0.0000 0.0000 0.0000
# 3 49.4618 42.5488 106.2960 0.0000 0.0000 0.0000
# 4 0.0000 0.0000 0.0000 31.9837 0.0000 0.0000
# 5 0.0000 0.0000 0.0000 0.0000 -33.6054 0.0000
# 6 0.0000 0.0000 0.0000 0.0000 0.0000 27.1185
#
#
#
# Elastic Compliance Matrix: (Units=1/GPa)
#
#
# Indices 1 2 3 4 5 6 
#
# 1 0.008345 -0.005062 -0.001857 0.000000 0.000000 0.000000
# 2 -0.005062 0.029562 -0.009478 0.000000 0.000000 0.000000
# 3 -0.001857 -0.009478 0.014066 0.000000 0.000000 0.000000
# 4 0.000000 0.000000 0.000000 0.031266 0.000000 0.000000
# 5 0.000000 0.000000 0.000000 0.000000 -0.029757 0.000000
# 6 0.000000 0.000000 0.000000 0.000000 0.000000 0.036875
#
#
# Mechanical properties :
#
#
# Convention : Reuss Voigt Hill
#
# Bulk Modulus (GPa) = 52.13966 65.24683 58.69324
# Shear Modulus (GPa) = 38.59729 17.30623 27.95176
#
# Velocity S-wave (km/s) = 4.46368 2.98893 3.79857
# Velocity P-wave (km/s) = 7.31309 6.75226 7.03826
#
# Compressibility (1/GPa) = 0.01917926
#
# Stress axis : x y z
#
# Youngs Moduli (GPa) = 119.82936 33.82758 71.09553
#
# Poissons Ratio (x) = 0.17123 0.13202
# Poissons Ratio (y) = 0.60656 0.67382
# Poissons Ratio (z) = 0.22252 0.32061
#
# Static dielectric constant tensor:
#      x y z
#    x 3.945560 0.000000 0.000000 
#    y 0.000000 3.271220 0.000000 
#    z 0.000000 0.000000 3.487220 
# 
# 
# High freq. dielectric constant tensor:
#      x y z
#    x 1.778750 0.000000 0.000000 
#    y 0.000000 1.726910 0.000000 
#    z 0.000000 0.000000 1.759850 
# 
# From -- ./inp_files/33064.got.cif
#   From: 2010.03.12/outbox.cif.g09.slc.cpg/sg59_17_cif.got.tgz:33064.got - 2010.04.16 16:29:54.
