data_PCOD8243524
_publ_section_title
;
Structure prediction by ZEFSAII (Michael W. Deem and Ramdas Pophale) SiO2 
 PCOD8243524
Probable space group: P M M N
;
_chemical_formula_sum "Si O2"
_cell_formula_units_Z 64
_cell_length_a 14.008175
_cell_length_b 8.849470
_cell_length_c 26.604691
_cell_angle_alpha 90.000000
_cell_angle_beta 90.000000
_cell_angle_gamma 90.000000
_cell_volume 3298.048509
_symmetry_space_group_name_H-M "P M M N"
_symmetry_group_IT_number 59
_space_group.IT_coordinate_system_code '2'
_symmetry_cell_setting 'orthorhombic'
loop_
_space_group_symop_operation_xyz
x,y,z
1/2-x,1/2-y,z
1/2+x,-y,-z
-x,1/2+y,-z
-x,-y,-z
1/2+x,1/2+y,-z
1/2-x,y,z
x,1/2-y,z
loop_
_atom_site_type_symbol
_atom_site_label
_atom_site_fract_x
_atom_site_fract_y
_atom_site_fract_z
Si Si1 0.487142 0.073440 0.446157
Si Si2 0.358325 0.428604 0.976741
Si Si3 0.141752 0.925273 0.161616
Si Si4 0.358641 0.928616 0.364538
Si Si5 0.972037 0.927507 0.925259
Si Si6 0.856582 0.919794 0.386294
Si Si7 0.854613 0.076286 0.281219
Si Si8 0.538023 0.425039 0.737682
O O1 0.469415 0.250000 0.452510
O O2 0.500000 0.000000 0.500000
O O3 0.399176 0.003852 0.415042
O O4 0.584684 0.041685 0.417116
O O5 0.250000 0.489482 0.971897
O O6 0.361062 0.250000 0.970975
O O7 0.423526 0.499592 0.933011
O O8 0.399829 0.479755 0.030718
O O9 0.250000 0.980216 0.152908
O O10 0.130443 0.750000 0.147737
O O11 0.116616 0.955087 0.219710
O O12 0.070481 0.020413 0.127437
O O13 0.250000 0.982827 0.357212
O O14 0.363714 0.750000 0.370788
O O15 0.419415 0.980498 0.315780
O O16 0.985586 0.750000 0.924819
O O17 0.750000 0.920710 0.408187
O O18 0.900498 0.750000 0.390568
O O19 0.857514 0.967382 0.328811
O O20 0.750000 0.057822 0.254694
O O21 0.869953 0.250000 0.297003
O O22 0.942812 0.020037 0.247106
O O23 0.510259 0.250000 0.735478
#
# Coordination Sequence:
#
# PCOD8243524 Si02
#       8
#     8   8   8   8   8   8   8   8
#     4  12  25  40  59  83 114 148 184 227 277 334
#     4   9  18  34  56  81 112 152 197 242 291 349
#     4  10  21  37  57  83 115 153 196 239 284 338
#     4  10  21  39  62  86 114 148 185 228 279 333
#     4  10  20  34  54  83 117 151 191 242 296 347
#     4  10  20  36  59  84 109 139 177 221 269 324
#     4  10  20  34  55  84 114 143 177 221 274 329
#     4  10  20  36  60  86 114 149 191 234 277 330
#
# _framework density 19.405415999999999
#
# number of rings (size 3 to 8) (size 9 to 14) (size 15 to 20)
#    0.000    1.875    1.250    3.000    0.000    5.750 
#    0.000    0.625    0.000    3.000    0.000    0.000 
#    0.000    0.000    0.000    0.000    0.000    0.000 
#
# Total GULP energy -793591.954747 kJ/mol
# GULP energy per Si atom -12399.874293 kJ/mol
# Density = 1.936125 g / cm^3
# Si number density = 19.405416 Si / 1000 Ang^3
#
#
#
# Elastic Constant Matrix: (Units=GPa)
#
#
# Indices 1 2 3 4 5 6 
#
# 1 151.6134 43.5630 38.2287 0.0000 0.0000 0.0000
# 2 43.5630 60.5358 25.8473 0.0000 0.0000 0.0000
# 3 38.2287 25.8473 75.2582 0.0000 0.0000 0.0000
# 4 0.0000 0.0000 0.0000 28.1086 0.0000 0.0000
# 5 0.0000 0.0000 0.0000 0.0000 26.2416 0.0000
# 6 0.0000 0.0000 0.0000 0.0000 0.0000 30.1832
#
#
#
# Elastic Compliance Matrix: (Units=1/GPa)
#
#
# Indices 1 2 3 4 5 6 
#
# 1 0.008752 -0.005156 -0.002675 0.000000 0.000000 0.000000
# 2 -0.005156 0.022395 -0.005073 0.000000 0.000000 0.000000
# 3 -0.002675 -0.005073 0.016388 0.000000 0.000000 0.000000
# 4 0.000000 0.000000 0.000000 0.035576 0.000000 0.000000
# 5 0.000000 0.000000 0.000000 0.000000 0.038107 0.000000
# 6 0.000000 0.000000 0.000000 0.000000 0.000000 0.033131
#
#
# Mechanical properties :
#
#
# Convention : Reuss Voigt Hill
#
# Bulk Modulus (GPa) = 46.02162 55.85394 50.93778
# Shear Modulus (GPa) = 26.68098 28.89124 27.78611
#
# Velocity S-wave (km/s) = 3.71202 3.86271 3.78812
# Velocity P-wave (km/s) = 6.49149 6.98135 6.74087
#
# Compressibility (1/GPa) = 0.02172892
#
# Stress axis : x y z
#
# Youngs Moduli (GPa) = 114.26543 44.65228 61.01846
#
# Poissons Ratio (x) = 0.23022 0.16321
# Poissons Ratio (y) = 0.58913 0.30953
# Poissons Ratio (z) = 0.30563 0.22651
#
# Static dielectric constant tensor:
#      x y z
#    x 4.001060 0.000000 0.000000 
#    y 0.000000 3.436420 0.000000 
#    z 0.000000 0.000000 3.447320 
# 
# 
# High freq. dielectric constant tensor:
#      x y z
#    x 1.770990 0.000000 0.000000 
#    y 0.000000 1.753120 0.000000 
#    z 0.000000 0.000000 1.733150 
# 
# From -- ./inp_files/32243.got.cif
#   From: 2010.03.12/outbox.cif.g09.slc.cpg/sg59_17_cif.got.tgz:32243.got - 2010.04.16 16:29:54.
