data_PCOD8243875
_publ_section_title
;
Structure prediction by ZEFSAII (Michael W. Deem and Ramdas Pophale) SiO2 
 PCOD8243875
Probable space group: P M M N
;
_chemical_formula_sum "Si O2"
_cell_formula_units_Z 56
_cell_length_a 14.524974
_cell_length_b 8.955620
_cell_length_c 22.426201
_cell_angle_alpha 90.000000
_cell_angle_beta 90.000000
_cell_angle_gamma 90.000000
_cell_volume 2917.203537
_symmetry_space_group_name_H-M "P M M N"
_symmetry_group_IT_number 59
_space_group.IT_coordinate_system_code '2'
_symmetry_cell_setting 'orthorhombic'
loop_
_space_group_symop_operation_xyz
x,y,z
1/2-x,1/2-y,z
1/2+x,-y,-z
-x,1/2+y,-z
-x,-y,-z
1/2+x,1/2+y,-z
1/2-x,y,z
x,1/2-y,z
loop_
_atom_site_type_symbol
_atom_site_label
_atom_site_fract_x
_atom_site_fract_y
_atom_site_fract_z
Si Si1 0.388501 0.576090 0.868054
Si Si2 0.459740 0.573482 0.292348
Si Si3 0.089144 0.073700 0.171110
Si Si4 0.347809 0.418936 0.751489
Si Si5 0.642629 0.924000 0.471839
Si Si6 0.750000 0.071964 0.901370
Si Si7 0.750000 0.073047 0.035294
Si Si8 0.525294 0.576058 0.588200
O O1 0.371892 0.750000 0.864017
O O2 0.495595 0.535291 0.864009
O O3 0.336517 0.509859 0.811763
O O4 0.341487 0.516761 0.929189
O O5 0.440546 0.750000 0.291145
O O6 0.407545 0.495895 0.237366
O O7 0.567896 0.528077 0.289135
O O8 0.428049 0.504279 0.354887
O O9 0.107657 0.250000 0.176156
O O10 0.162445 0.991715 0.131415
O O11 0.250000 0.434093 0.716277
O O12 0.367547 0.250000 0.770884
O O13 0.750000 0.978312 0.469341
O O14 0.637327 0.750000 0.455270
O O15 0.600175 0.954329 0.536924
O O16 0.576649 0.010985 0.425720
O O17 0.750000 0.250000 0.898853
O O18 0.750000 0.007259 0.968756
O O19 0.750000 0.250000 0.029927
O O20 0.512873 0.750000 0.601168
#
# Coordination Sequence:
#
# PCOD8243875 Si02
#       8
#     8   8   8   8   8   4   4   8
#     4   9  17  32  55  79 105 138 175 218 273 333
#     4  10  20  35  55  79 111 150 188 226 274 334
#     4  10  21  38  58  80 108 143 185 236 283 324
#     4   9  17  29  47  74 106 139 176 220 271 326
#     4   9  19  37  59  81 111 151 187 225 278 332
#     4  11  23  39  57  77 107 147 186 227 282 339
#     4   9  18  33  55  83 111 141 178 221 274 341
#     4  10  20  35  56  84 115 145 186 235 277 325
#
# _framework density 19.196466999999998
#
# number of rings (size 3 to 8) (size 9 to 14) (size 15 to 20)
#    0.000    2.429    0.714    1.500    0.000    3.143 
#    1.286    2.857    0.000    0.000    0.000    0.000 
#    0.000    0.000    0.000    0.000    0.000    0.000 
#
# Total GULP energy -694047.914592 kJ/mol
# GULP energy per Si atom -12393.712761 kJ/mol
# Density = 1.915277 g / cm^3
# Si number density = 19.196467 Si / 1000 Ang^3
#
#
#
# Elastic Constant Matrix: (Units=GPa)
#
#
# Indices 1 2 3 4 5 6 
#
# 1 69.7557 30.2894 25.8459 0.0000 0.0000 0.0000
# 2 30.2894 67.1853 45.1347 0.0000 0.0000 0.0000
# 3 25.8459 45.1347 119.0984 0.0000 0.0000 0.0000
# 4 0.0000 0.0000 0.0000 29.5605 0.0000 0.0000
# 5 0.0000 0.0000 0.0000 0.0000 18.9809 0.0000
# 6 0.0000 0.0000 0.0000 0.0000 0.0000 22.6555
#
#
#
# Elastic Compliance Matrix: (Units=1/GPa)
#
#
# Indices 1 2 3 4 5 6 
#
# 1 0.017934 -0.007339 -0.001111 0.000000 0.000000 0.000000
# 2 -0.007339 0.022971 -0.007113 0.000000 0.000000 0.000000
# 3 -0.001111 -0.007113 0.011333 0.000000 0.000000 0.000000
# 4 0.000000 0.000000 0.000000 0.033829 0.000000 0.000000
# 5 0.000000 0.000000 0.000000 0.000000 0.052685 0.000000
# 6 0.000000 0.000000 0.000000 0.000000 0.000000 0.044139
#
#
# Mechanical properties :
#
#
# Convention : Reuss Voigt Hill
#
# Bulk Modulus (GPa) = 47.36362 50.95328 49.15845
# Shear Modulus (GPa) = 22.61891 24.55734 23.58812
#
# Velocity S-wave (km/s) = 3.43634 3.58056 3.50919
# Velocity P-wave (km/s) = 6.36170 6.61019 6.48713
#
# Compressibility (1/GPa) = 0.02111325
#
# Stress axis : x y z
#
# Youngs Moduli (GPa) = 55.75968 43.53264 88.23841
#
# Poissons Ratio (x) = 0.31950 0.09800
# Poissons Ratio (y) = 0.40923 0.62761
# Poissons Ratio (z) = 0.06193 0.30964
#
# Static dielectric constant tensor:
#      x y z
#    x 3.317860 0.000000 0.000000 
#    y 0.000000 3.473090 0.000000 
#    z 0.000000 0.000000 3.591710 
# 
# 
# High freq. dielectric constant tensor:
#      x y z
#    x 1.747220 0.000000 0.000000 
#    y 0.000000 1.742570 0.000000 
#    z 0.000000 0.000000 1.742150 
# 
# From -- ./inp_files/30509.got.cif
#   From: 2010.03.12/outbox.cif.g09.slc.cpg/sg59_16_cif.got.tgz:30509.got - 2010.04.16 16:29:54.
