data_PCOD8243952
_publ_section_title
;
Structure prediction by ZEFSAII (Michael W. Deem and Ramdas Pophale) SiO2 
 PCOD8243952
Probable space group: P M M N
;
_chemical_formula_sum "Si O2"
_cell_formula_units_Z 56
_cell_length_a 19.993330
_cell_length_b 9.739345
_cell_length_c 14.388394
_cell_angle_alpha 90.000000
_cell_angle_beta 90.000000
_cell_angle_gamma 90.000000
_cell_volume 2801.735973
_symmetry_space_group_name_H-M "P M M N"
_symmetry_group_IT_number 59
_space_group.IT_coordinate_system_code '2'
_symmetry_cell_setting 'orthorhombic'
loop_
_space_group_symop_operation_xyz
x,y,z
1/2-x,1/2-y,z
1/2+x,-y,-z
-x,1/2+y,-z
-x,-y,-z
1/2+x,1/2+y,-z
1/2-x,y,z
x,1/2-y,z
loop_
_atom_site_type_symbol
_atom_site_label
_atom_site_fract_x
_atom_site_fract_y
_atom_site_fract_z
Si Si1 0.418614 0.591393 0.861125
Si Si2 0.944499 0.603578 0.481796
Si Si3 0.250000 0.584974 0.382224
Si Si4 0.863456 0.903875 0.657929
Si Si5 0.750000 0.912339 0.430059
Si Si6 0.670675 0.090730 0.957447
Si Si7 0.871215 0.598052 0.300926
Si Si8 0.070244 0.407152 0.156188
O O1 0.420712 0.750000 0.831930
O O2 0.384023 0.508614 0.779505
O O3 0.496039 0.541405 0.876214
O O4 0.370502 0.566010 0.948078
O O5 0.973607 0.750000 0.511917
O O6 0.882137 0.573945 0.549477
O O7 0.932226 0.602707 0.372266
O O8 0.000000 0.500000 0.500000
O O9 0.250000 0.750000 0.388658
O O10 0.187827 0.527703 0.322163
O O11 0.250000 0.512457 0.482249
O O12 0.832232 0.750000 0.669231
O O13 0.924573 0.918753 0.731319
O O14 0.750000 0.750000 0.459292
O O15 0.688967 0.951613 0.364550
O O16 0.750000 0.049357 0.967021
O O17 0.665773 0.250000 0.927668
O O18 0.631419 0.997474 0.883510
O O19 0.858701 0.750000 0.257813
O O20 0.080566 0.250000 0.122761
#
# Coordination Sequence:
#
# PCOD8243952 Si02
#       8
#     8   8   4   8   4   8   8   8
#     4  10  22  41  64  90 123 159 197 246 304 363
#     4  10  20  35  56  81 115 157 196 240 293 349
#     4  12  24  36  56  87 116 153 206 255 298 350
#     4  10  21  39  59  80 117 161 197 241 302 357
#     4  10  20  40  60  79 118 163 202 245 300 360
#     4  10  23  42  63  90 126 160 189 240 311 365
#     4  10  21  36  59  87 116 157 202 244 294 351
#     4  10  22  40  65  92 116 157 208 248 294 355
#
# _framework density 19.987608000000002
#
# number of rings (size 3 to 8) (size 9 to 14) (size 15 to 20)
#    0.000    1.857    1.429    1.929    2.000    4.857 
#    0.000    0.000    0.000    0.000    0.000    0.000 
#    0.000    0.000    0.000    0.000    0.000    0.000 
#
# Total GULP energy -693767.676886 kJ/mol
# GULP energy per Si atom -12388.708516 kJ/mol
# Density = 1.994212 g / cm^3
# Si number density = 19.987608 Si / 1000 Ang^3
#
#
#
# Elastic Constant Matrix: (Units=GPa)
#
#
# Indices 1 2 3 4 5 6 
#
# 1 88.3961 48.0667 18.5776 0.0000 0.0000 0.0000
# 2 48.0667 89.3223 33.2851 0.0000 0.0000 0.0000
# 3 18.5776 33.2851 78.7074 0.0000 0.0000 0.0000
# 4 0.0000 0.0000 0.0000 36.5679 0.0000 0.0000
# 5 0.0000 0.0000 0.0000 0.0000 -6.3938 0.0000
# 6 0.0000 0.0000 0.0000 0.0000 0.0000 33.9825
#
#
#
# Elastic Compliance Matrix: (Units=1/GPa)
#
#
# Indices 1 2 3 4 5 6 
#
# 1 0.015994 -0.008547 -0.000161 0.000000 0.000000 0.000000
# 2 -0.008547 0.017857 -0.005534 0.000000 0.000000 0.000000
# 3 -0.000161 -0.005534 0.015084 0.000000 0.000000 0.000000
# 4 0.000000 0.000000 0.000000 0.027346 0.000000 0.000000
# 5 0.000000 0.000000 0.000000 0.000000 -0.156401 0.000000
# 6 0.000000 0.000000 0.000000 0.000000 0.000000 0.029427
#
#
# Mechanical properties :
#
#
# Convention : Reuss Voigt Hill
#
# Bulk Modulus (GPa) = 48.89763 50.69829 49.79796
# Shear Modulus (GPa) = -324.84613 23.26440 -150.79087
#
# Velocity S-wave (km/s) = -12.76231 3.41536 -8.69517
# Velocity P-wave (km/s) = 13.87990 6.40100 8.70858
#
# Compressibility (1/GPa) = 0.02045089
#
# Stress axis : x y z
#
# Youngs Moduli (GPa) = 62.52344 56.00026 66.29695
#
# Poissons Ratio (x) = 0.47863 0.01065
# Poissons Ratio (y) = 0.53438 0.36691
# Poissons Ratio (z) = 0.01004 0.30992
#
# Static dielectric constant tensor:
#      x y z
#    x 3.706940 0.000000 0.000000 
#    y 0.000000 3.633790 0.000000 
#    z 0.000000 0.000000 3.487660 
# 
# 
# High freq. dielectric constant tensor:
#      x y z
#    x 1.784050 0.000000 0.000000 
#    y 0.000000 1.775250 0.000000 
#    z 0.000000 0.000000 1.778010 
# 
# From -- ./inp_files/21118.got.cif
#   From: 2010.03.12/outbox.cif.g09.slc.cpg/sg59_11_cif.got.tgz:21118.got - 2010.04.16 16:29:54.
