data_PCOD8243231
_publ_section_title
;
Structure prediction by ZEFSAII (Michael W. Deem and Ramdas Pophale) SiO2 
 PCOD8243231
Probable space group: P M M N
;
_chemical_formula_sum "Si O2"
_cell_formula_units_Z 64
_cell_length_a 19.080385
_cell_length_b 8.965381
_cell_length_c 20.438000
_cell_angle_alpha 90.000000
_cell_angle_beta 90.000000
_cell_angle_gamma 90.000000
_cell_volume 3496.183982
_symmetry_space_group_name_H-M "P M M N"
_symmetry_group_IT_number 59
_space_group.IT_coordinate_system_code '2'
_symmetry_cell_setting 'orthorhombic'
loop_
_space_group_symop_operation_xyz
x,y,z
1/2-x,1/2-y,z
1/2+x,-y,-z
-x,1/2+y,-z
-x,-y,-z
1/2+x,1/2+y,-z
1/2-x,y,z
x,1/2-y,z
loop_
_atom_site_type_symbol
_atom_site_label
_atom_site_fract_x
_atom_site_fract_y
_atom_site_fract_z
Si Si1 0.567955 0.425014 0.607003
Si Si2 0.830713 0.074396 0.495247
Si Si3 0.410485 0.072673 0.618921
Si Si4 0.575472 0.072687 0.244523
Si Si5 0.833322 0.915870 0.998138
Si Si6 0.569915 0.425566 0.753799
Si Si7 0.828929 0.074491 0.125471
Si Si8 0.167797 0.422439 0.146487
O O1 0.572465 0.250000 0.599463
O O2 0.621598 0.493617 0.553974
O O3 0.487941 0.477845 0.594149
O O4 0.591419 0.472197 0.679925
O O5 0.750000 0.039198 0.511628
O O6 0.842762 0.250000 0.485088
O O7 0.851794 0.990175 0.429232
O O8 0.405063 0.250000 0.624115
O O9 0.395974 0.003423 0.689822
O O10 0.575482 0.250000 0.253289
O O11 0.625812 0.018107 0.186334
O O12 0.498648 0.016253 0.225383
O O13 0.750000 0.917236 0.996979
O O14 0.861628 0.750000 0.011078
O O15 0.862170 0.017926 0.056913
O O16 0.858614 0.969994 0.926271
O O17 0.553874 0.250000 0.757558
O O18 0.632395 0.469191 0.801444
O O19 0.750000 0.012576 0.134556
O O20 0.829155 0.250000 0.121965
O O21 0.250000 0.447459 0.153675
O O22 0.148316 0.250000 0.159877
#
# Coordination Sequence:
#
# PCOD8243231 Si02
#       8
#     8   8   8   8   8   8   8   8
#     4   8  17  34  53  73  98 131 170 208 247 296
#     4  10  20  34  53  76 102 132 165 203 250 303
#     4  10  20  35  54  75 101 132 169 211 250 295
#     4  10  20  35  54  75 103 138 171 205 253 310
#     4   8  15  29  49  72  99 132 168 206 251 304
#     4  10  20  34  53  78 105 133 172 218 258 298
#     4   9  18  32  51  75 100 127 165 212 255 300
#     4   9  18  33  52  75 104 137 172 209 253 308
#
# _framework density 18.305672000000001
#
# number of rings (size 3 to 8) (size 9 to 14) (size 15 to 20)
#    0.000    2.750    0.000    3.000    0.000    3.000 
#    0.000    7.500    0.000    0.000    0.000    0.000 
#    0.000    0.000    0.000    0.000    0.000    0.000 
#
# Total GULP energy -793420.665022 kJ/mol
# GULP energy per Si atom -12397.197891 kJ/mol
# Density = 1.826401 g / cm^3
# Si number density = 18.305672 Si / 1000 Ang^3
#
#
#
# Elastic Constant Matrix: (Units=GPa)
#
#
# Indices 1 2 3 4 5 6 
#
# 1 61.2918 27.3048 52.4068 0.0000 0.0000 0.0000
# 2 27.3048 48.3492 38.5706 0.0000 0.0000 0.0000
# 3 52.4068 38.5706 121.8641 0.0000 0.0000 0.0000
# 4 0.0000 0.0000 0.0000 31.5564 0.0000 0.0000
# 5 0.0000 0.0000 0.0000 0.0000 32.9862 0.0000
# 6 0.0000 0.0000 0.0000 0.0000 0.0000 24.1866
#
#
#
# Elastic Compliance Matrix: (Units=1/GPa)
#
#
# Indices 1 2 3 4 5 6 
#
# 1 0.028109 -0.008336 -0.009450 0.000000 0.000000 0.000000
# 2 -0.008336 0.030141 -0.005955 0.000000 0.000000 0.000000
# 3 -0.009450 -0.005955 0.014154 0.000000 0.000000 0.000000
# 4 0.000000 0.000000 0.000000 0.031689 0.000000 0.000000
# 5 0.000000 0.000000 0.000000 0.000000 0.030316 0.000000
# 6 0.000000 0.000000 0.000000 0.000000 0.000000 0.041345
#
#
# Mechanical properties :
#
#
# Convention : Reuss Voigt Hill
#
# Bulk Modulus (GPa) = 40.12306 52.00773 46.06540
# Shear Modulus (GPa) = 21.59427 25.29404 23.44416
#
# Velocity S-wave (km/s) = 3.43833 3.72124 3.58258
# Velocity P-wave (km/s) = 6.14237 6.85097 6.50633
#
# Compressibility (1/GPa) = 0.02492333
#
# Stress axis : x y z
#
# Youngs Moduli (GPa) = 35.57627 33.17730 70.64921
#
# Poissons Ratio (x) = 0.27655 0.66761
# Poissons Ratio (y) = 0.29655 0.42072
# Poissons Ratio (z) = 0.33618 0.19757
#
# Static dielectric constant tensor:
#      x y z
#    x 3.312720 0.000000 0.000000 
#    y 0.000000 3.247920 0.000000 
#    z 0.000000 0.000000 3.628620 
# 
# 
# High freq. dielectric constant tensor:
#      x y z
#    x 1.690760 0.000000 0.000000 
#    y 0.000000 1.697890 0.000000 
#    z 0.000000 0.000000 1.722780 
# 
# From -- ./inp_files/30714.got.cif
#   From: 2010.03.12/outbox.cif.g09.slc.cpg/sg59_16_cif.got.tgz:30714.got - 2010.04.16 16:29:54.
