data_PCOD8243073
_publ_section_title
;
Structure prediction by ZEFSAII (Michael W. Deem and Ramdas Pophale) SiO2 
 PCOD8243073
Probable space group: P M M N
;
_chemical_formula_sum "Si O2"
_cell_formula_units_Z 48
_cell_length_a 14.639918
_cell_length_b 8.676216
_cell_length_c 19.650127
_cell_angle_alpha 90.000000
_cell_angle_beta 90.000000
_cell_angle_gamma 90.000000
_cell_volume 2495.941265
_symmetry_space_group_name_H-M "P M M N"
_symmetry_group_IT_number 59
_space_group.IT_coordinate_system_code '2'
_symmetry_cell_setting 'orthorhombic'
loop_
_space_group_symop_operation_xyz
x,y,z
1/2-x,1/2-y,z
1/2+x,-y,-z
-x,1/2+y,-z
-x,-y,-z
1/2+x,1/2+y,-z
1/2-x,y,z
x,1/2-y,z
loop_
_atom_site_type_symbol
_atom_site_label
_atom_site_fract_x
_atom_site_fract_y
_atom_site_fract_z
Si Si1 0.144273 0.428003 0.095404
Si Si2 0.986108 0.931222 0.169942
Si Si3 0.648500 0.566243 0.056298
Si Si4 0.441596 0.431621 0.438608
Si Si5 0.443688 0.069772 0.679775
Si Si6 0.750000 0.573253 0.383027
Si Si7 0.250000 0.569021 0.472083
O O1 0.250000 0.454900 0.111236
O O2 0.117780 0.250000 0.102567
O O3 0.089224 0.524119 0.151468
O O4 0.120110 0.489237 0.019446
O O5 0.973915 0.750000 0.170055
O O6 0.919421 0.004376 0.112624
O O7 0.960026 0.993931 0.244256
O O8 0.750000 0.506113 0.073645
O O9 0.648048 0.750000 0.056761
O O10 0.500000 0.500000 0.500000
O O11 0.436937 0.250000 0.448712
O O12 0.489753 0.473225 0.368195
O O13 0.339425 0.497457 0.437428
O O14 0.467718 0.250000 0.672435
O O15 0.338333 0.037930 0.662285
O O16 0.750000 0.750000 0.408837
O O17 0.750000 0.462563 0.447629
O O18 0.250000 0.750000 0.459224
#
# Coordination Sequence:
#
# PCOD8243073 Si02
#       7
#     8   8   8   8   8   4   4
#     4   9  18  34  54  75 104 147 192 235 281 335
#     4  10  20  33  54  83 112 145 184 232 284 334
#     4   8  15  29  52  81 110 141 184 231 279 336
#     4  12  24  41  64  90 120 155 196 240 287 342
#     4  10  22  38  57  86 120 152 188 235 289 347
#     4  10  20  36  60  86 118 153 188 229 284 349
#     4  12  24  40  66  94 118 149 192 243 292 345
#
# _framework density 19.231221000000001
#
# number of rings (size 3 to 8) (size 9 to 14) (size 15 to 20)
#    0.000    2.000    1.667    3.750    1.167    1.000 
#    1.500    0.000    0.000    1.500    0.000    0.000 
#    0.000    0.000    0.000    0.000    0.000    0.000 
#
# Total GULP energy -595262.236650 kJ/mol
# GULP energy per Si atom -12401.296597 kJ/mol
# Density = 1.918745 g / cm^3
# Si number density = 19.231221 Si / 1000 Ang^3
#
#
#
# Elastic Constant Matrix: (Units=GPa)
#
#
# Indices 1 2 3 4 5 6 
#
# 1 141.0403 42.0708 75.9658 0.0000 0.0000 0.0000
# 2 42.0708 68.9309 33.8040 0.0000 0.0000 0.0000
# 3 75.9658 33.8040 131.7459 0.0000 0.0000 0.0000
# 4 0.0000 0.0000 0.0000 23.9459 0.0000 0.0000
# 5 0.0000 0.0000 0.0000 0.0000 25.2897 0.0000
# 6 0.0000 0.0000 0.0000 0.0000 0.0000 29.0501
#
#
#
# Elastic Compliance Matrix: (Units=1/GPa)
#
#
# Indices 1 2 3 4 5 6 
#
# 1 0.011264 -0.004221 -0.005412 0.000000 0.000000 0.000000
# 2 -0.004221 0.018177 -0.002230 0.000000 0.000000 0.000000
# 3 -0.005412 -0.002230 0.011283 0.000000 0.000000 0.000000
# 4 0.000000 0.000000 0.000000 0.041761 0.000000 0.000000
# 5 0.000000 0.000000 0.000000 0.000000 0.039542 0.000000
# 6 0.000000 0.000000 0.000000 0.000000 0.000000 0.034423
#
#
# Mechanical properties :
#
#
# Convention : Reuss Voigt Hill
#
# Bulk Modulus (GPa) = 58.82906 71.71090 65.26998
# Shear Modulus (GPa) = 26.90451 28.31559 27.61005
#
# Velocity S-wave (km/s) = 3.74438 3.84132 3.79316
# Velocity P-wave (km/s) = 7.02500 7.55275 7.29365
#
# Compressibility (1/GPa) = 0.01699840
#
# Stress axis : x y z
#
# Youngs Moduli (GPa) = 88.77719 55.01436 88.62719
#
# Poissons Ratio (x) = 0.23220 0.47965
# Poissons Ratio (y) = 0.37471 0.19766
# Poissons Ratio (z) = 0.48046 0.12269
#
# Static dielectric constant tensor:
#      x y z
#    x 3.694170 0.000000 0.000000 
#    y 0.000000 3.256950 0.000000 
#    z 0.000000 0.000000 3.659120 
# 
# 
# High freq. dielectric constant tensor:
#      x y z
#    x 1.761320 0.000000 0.000000 
#    y 0.000000 1.724390 0.000000 
#    z 0.000000 0.000000 1.746670 
# 
# From -- ./inp_files/25624.got.cif
#   From: 2010.03.12/outbox.cif.g09.slc.cpg/sg59_13_cif.got.tgz:25624.got - 2010.04.16 16:29:54.
