data_PCOD8243243
_publ_section_title
;
Structure prediction by ZEFSAII (Michael W. Deem and Ramdas Pophale) SiO2 
 PCOD8243243
Probable space group: P M M N
;
_chemical_formula_sum "Si O2"
_cell_formula_units_Z 56
_cell_length_a 8.950724
_cell_length_b 21.645134
_cell_length_c 16.964765
_cell_angle_alpha 90.000000
_cell_angle_beta 90.000000
_cell_angle_gamma 90.000000
_cell_volume 3286.747131
_symmetry_space_group_name_H-M "P M M N"
_symmetry_group_IT_number 59
_space_group.IT_coordinate_system_code '2'
_symmetry_cell_setting 'orthorhombic'
loop_
_space_group_symop_operation_xyz
x,y,z
1/2-x,1/2-y,z
1/2+x,-y,-z
-x,1/2+y,-z
-x,-y,-z
1/2+x,1/2+y,-z
1/2-x,y,z
x,1/2-y,z
loop_
_atom_site_type_symbol
_atom_site_label
_atom_site_fract_x
_atom_site_fract_y
_atom_site_fract_z
Si Si1 0.928195 0.681986 0.855954
Si Si2 0.424359 0.413544 0.020281
Si Si3 0.572816 0.625923 0.695991
Si Si4 0.924987 0.033719 0.880718
Si Si5 0.925400 0.010746 0.707884
Si Si6 0.926632 0.820709 0.532272
Si Si7 0.426713 0.940347 0.457763
O O1 0.750000 0.680567 0.850334
O O2 0.993147 0.750000 0.864289
O O3 0.981799 0.646498 0.933707
O O4 0.995911 0.653097 0.776189
O O5 0.250000 0.413049 0.004151
O O6 0.469082 0.469651 0.077727
O O7 0.502543 0.413263 0.934850
O O8 0.750000 0.624334 0.701369
O O9 0.508591 0.556651 0.685572
O O10 0.524719 0.668645 0.622786
O O11 0.750000 0.044981 0.879068
O O12 0.991573 0.035218 0.791453
O O13 0.750000 0.003056 0.720640
O O14 0.962079 0.056360 0.635841
O O15 0.750000 0.829859 0.520998
O O16 0.972687 0.750000 0.508431
O O17 0.008910 0.873605 0.481917
O O18 0.250000 0.942979 0.474397
O O19 0.500000 0.000000 0.500000
#
# Coordination Sequence:
#
# PCOD8243243 Si02
#       7
#     8   8   8   8   8   8   8
#     4   9  15  23  40  67  96 125 156 188 226 278
#     4   9  16  26  42  66  93 117 145 186 232 275
#     4   9  14  25  45  71  99 126 158 194 235 287
#     4   9  16  28  46  65  87 118 153 190 230 274
#     4   9  16  28  48  70  95 125 159 200 240 285
#     4  10  20  34  53  76 103 135 171 209 251 304
#     4  11  21  34  53  76 103 134 170 212 256 301
#
# _framework density 17.038122000000001
#
# number of rings (size 3 to 8) (size 9 to 14) (size 15 to 20)
#    0.000    2.571    2.857    0.857    0.000    2.000 
#    0.000    1.429    0.000    2.143    0.000    4.000 
#    0.000    0.000    0.000    0.000    0.000    0.000 
#
# Total GULP energy -693915.865973 kJ/mol
# GULP energy per Si atom -12391.354750 kJ/mol
# Density = 1.699934 g / cm^3
# Si number density = 17.038122 Si / 1000 Ang^3
#
#
#
# Elastic Constant Matrix: (Units=GPa)
#
#
# Indices 1 2 3 4 5 6 
#
# 1 27.8756 29.7498 34.2514 0.0000 0.0000 0.0000
# 2 29.7498 130.1980 74.5839 0.0000 0.0000 0.0000
# 3 34.2514 74.5839 142.0811 0.0000 0.0000 0.0000
# 4 0.0000 0.0000 0.0000 28.1323 0.0000 0.0000
# 5 0.0000 0.0000 0.0000 0.0000 22.9276 0.0000
# 6 0.0000 0.0000 0.0000 0.0000 0.0000 20.1985
#
#
#
# Elastic Compliance Matrix: (Units=1/GPa)
#
#
# Indices 1 2 3 4 5 6 
#
# 1 0.055258 -0.007143 -0.009571 0.000000 0.000000 0.000000
# 2 -0.007143 0.011907 -0.004528 0.000000 0.000000 0.000000
# 3 -0.009571 -0.004528 0.011723 0.000000 0.000000 0.000000
# 4 0.000000 0.000000 0.000000 0.035546 0.000000 0.000000
# 5 0.000000 0.000000 0.000000 0.000000 0.043616 0.000000
# 6 0.000000 0.000000 0.000000 0.000000 0.000000 0.049509
#
#
# Mechanical properties :
#
#
# Convention : Reuss Voigt Hill
#
# Bulk Modulus (GPa) = 27.47140 64.14722 45.80931
# Shear Modulus (GPa) = 19.07107 25.02297 22.04702
#
# Velocity S-wave (km/s) = 3.34925 3.83645 3.60110
# Velocity P-wave (km/s) = 5.57809 7.57334 6.65096
#
# Compressibility (1/GPa) = 0.03640149
#
# Stress axis : x y z
#
# Youngs Moduli (GPa) = 18.09706 83.98482 85.30504
#
# Poissons Ratio (x) = 0.59994 0.81646
# Poissons Ratio (y) = 0.12927 0.38629
# Poissons Ratio (z) = 0.17321 0.38031
#
# Static dielectric constant tensor:
#      x y z
#    x 2.812000 0.000000 0.000000 
#    y 0.000000 3.227870 0.000000 
#    z 0.000000 0.000000 3.432500 
# 
# 
# High freq. dielectric constant tensor:
#      x y z
#    x 1.613300 0.000000 0.000000 
#    y 0.000000 1.642920 0.000000 
#    z 0.000000 0.000000 1.664160 
# 
# From -- ./inp_files/26097.got.cif
#   From: 2010.03.12/outbox.cif.g09.slc.cpg/sg59_14_cif.got.tgz:26097.got - 2010.04.16 16:29:54.
