data_PCOD8243207
_publ_section_title
;
Structure prediction by ZEFSAII (Michael W. Deem and Ramdas Pophale) SiO2 
 PCOD8243207
Probable space group: P M M N
;
_chemical_formula_sum "Si O2"
_cell_formula_units_Z 56
_cell_length_a 9.240141
_cell_length_b 13.502707
_cell_length_c 23.578534
_cell_angle_alpha 90.000000
_cell_angle_beta 90.000000
_cell_angle_gamma 90.000000
_cell_volume 2941.820984
_symmetry_space_group_name_H-M "P M M N"
_symmetry_group_IT_number 59
_space_group.IT_coordinate_system_code '2'
_symmetry_cell_setting 'orthorhombic'
loop_
_space_group_symop_operation_xyz
x,y,z
1/2-x,1/2-y,z
1/2+x,-y,-z
-x,1/2+y,-z
-x,-y,-z
1/2+x,1/2+y,-z
1/2-x,y,z
x,1/2-y,z
loop_
_atom_site_type_symbol
_atom_site_label
_atom_site_fract_x
_atom_site_fract_y
_atom_site_fract_z
Si Si1 0.079314 0.141677 0.353218
Si Si2 0.411335 0.368256 0.477545
Si Si3 0.418465 0.551303 0.084829
Si Si4 0.414406 0.360916 0.016701
Si Si5 0.920744 0.444556 0.701036
Si Si6 0.410384 0.866668 0.417860
Si Si7 0.080485 0.365322 0.809734
O O1 0.250000 0.153493 0.359518
O O2 0.012394 0.250000 0.337539
O O3 0.024845 0.102729 0.415169
O O4 0.042618 0.062018 0.304320
O O5 0.250000 0.409250 0.485898
O O6 0.412570 0.250000 0.481536
O O7 0.505422 0.414986 0.528946
O O8 0.250000 0.574870 0.094316
O O9 0.445272 0.436781 0.067842
O O10 0.504464 0.569830 0.142205
O O11 0.477615 0.621896 0.035347
O O12 0.250000 0.375358 0.994298
O O13 0.438388 0.250000 0.040215
O O14 0.750000 0.425913 0.712085
O O15 0.976694 0.393635 0.643217
O O16 0.013342 0.396483 0.750298
O O17 0.250000 0.912495 0.419823
O O18 0.408379 0.750000 0.424561
O O19 0.250000 0.388822 0.809483
O O20 0.050227 0.250000 0.821235
#
# Coordination Sequence:
#
# PCOD8243207 Si02
#       7
#     8   8   8   8   8   8   8
#     4   8  15  30  51  73  96 124 162 208 255 305
#     4   8  14  26  45  67  92 124 159 194 240 304
#     4  10  20  34  56  85 113 145 185 220 252 297
#     4   9  18  34  56  84 119 152 179 213 257 300
#     4  10  20  34  53  74  96 128 171 214 255 302
#     4   9  17  28  42  65  97 126 155 200 255 303
#     4  11  24  40  56  75 103 138 173 212 259 308
#
# _framework density 19.035829
#
# number of rings (size 3 to 8) (size 9 to 14) (size 15 to 20)
#    0.000    2.714    0.000    2.571    0.000    5.429 
#    0.000    2.857    0.000    5.571    0.000    0.000 
#    0.000    0.000    0.000    0.000    0.000    0.000 
#
# Total GULP energy -694194.163958 kJ/mol
# GULP energy per Si atom -12396.324356 kJ/mol
# Density = 1.899250 g / cm^3
# Si number density = 19.035829 Si / 1000 Ang^3
#
#
#
# Elastic Constant Matrix: (Units=GPa)
#
#
# Indices 1 2 3 4 5 6 
#
# 1 82.7359 36.7694 53.2009 0.0000 0.0000 0.0000
# 2 36.7694 73.5709 38.7165 0.0000 0.0000 0.0000
# 3 53.2009 38.7165 100.5351 0.0000 0.0000 0.0000
# 4 0.0000 0.0000 0.0000 26.0248 0.0000 0.0000
# 5 0.0000 0.0000 0.0000 0.0000 25.2187 0.0000
# 6 0.0000 0.0000 0.0000 0.0000 0.0000 17.7055
#
#
#
# Elastic Compliance Matrix: (Units=1/GPa)
#
#
# Indices 1 2 3 4 5 6 
#
# 1 0.019974 -0.005544 -0.008435 0.000000 0.000000 0.000000
# 2 -0.005544 0.018586 -0.004224 0.000000 0.000000 0.000000
# 3 -0.008435 -0.004224 0.016037 0.000000 0.000000 0.000000
# 4 0.000000 0.000000 0.000000 0.038425 0.000000 0.000000
# 5 0.000000 0.000000 0.000000 0.000000 0.039653 0.000000
# 6 0.000000 0.000000 0.000000 0.000000 0.000000 0.056479
#
#
# Mechanical properties :
#
#
# Convention : Reuss Voigt Hill
#
# Bulk Modulus (GPa) = 54.96985 57.13507 56.05246
# Shear Modulus (GPa) = 21.58673 22.33349 21.96011
#
# Velocity S-wave (km/s) = 3.37115 3.42897 3.40018
# Velocity P-wave (km/s) = 6.64023 6.76437 6.70259
#
# Compressibility (1/GPa) = 0.01819179
#
# Stress axis : x y z
#
# Youngs Moduli (GPa) = 50.06430 53.80442 62.35604
#
# Poissons Ratio (x) = 0.29829 0.52597
# Poissons Ratio (y) = 0.27755 0.26338
# Poissons Ratio (z) = 0.42229 0.22726
#
# Static dielectric constant tensor:
#      x y z
#    x 3.493330 0.000000 0.000000 
#    y 0.000000 3.686420 0.000000 
#    z 0.000000 0.000000 3.378560 
# 
# 
# High freq. dielectric constant tensor:
#      x y z
#    x 1.718920 0.000000 0.000000 
#    y 0.000000 1.754700 0.000000 
#    z 0.000000 0.000000 1.725840 
# 
# From -- ./inp_files/29108.got.cif
#   From: 2010.03.12/outbox.cif.g09.slc.cpg/sg59_15_cif.got.tgz:29108.got - 2010.04.16 16:29:54.
