data_PCOD8243910
_publ_section_title
;
Structure prediction by ZEFSAII (Michael W. Deem and Ramdas Pophale) SiO2 
 PCOD8243910
Probable space group: P M M N
;
_chemical_formula_sum "Si O2"
_cell_formula_units_Z 64
_cell_length_a 20.701256
_cell_length_b 9.757188
_cell_length_c 16.475394
_cell_angle_alpha 90.000000
_cell_angle_beta 90.000000
_cell_angle_gamma 90.000000
_cell_volume 3327.799701
_symmetry_space_group_name_H-M "P M M N"
_symmetry_group_IT_number 59
_space_group.IT_coordinate_system_code '2'
_symmetry_cell_setting 'orthorhombic'
loop_
_space_group_symop_operation_xyz
x,y,z
1/2-x,1/2-y,z
1/2+x,-y,-z
-x,1/2+y,-z
-x,-y,-z
1/2+x,1/2+y,-z
1/2-x,y,z
x,1/2-y,z
loop_
_atom_site_type_symbol
_atom_site_label
_atom_site_fract_x
_atom_site_fract_y
_atom_site_fract_z
Si Si1 0.821074 0.401081 0.707509
Si Si2 0.891109 0.903353 0.809634
Si Si3 0.001908 0.406053 0.327695
Si Si4 0.079234 0.907678 0.435587
Si Si5 0.676009 0.908800 0.113283
Si Si6 0.864932 0.091025 0.263538
Si Si7 0.936374 0.910808 0.986225
Si Si8 0.819617 0.090471 0.439069
O O1 0.750000 0.424985 0.671944
O O2 0.829751 0.250000 0.744064
O O3 0.832033 0.502328 0.782741
O O4 0.868637 0.425299 0.634228
O O5 0.864455 0.750000 0.814840
O O6 0.946807 0.918350 0.743424
O O7 0.915946 0.951858 0.896157
O O8 0.993552 0.250000 0.358894
O O9 0.936432 0.459546 0.286945
O O10 0.019184 0.496060 0.408176
O O11 0.055759 0.750000 0.445360
O O12 0.116205 0.967886 0.515584
O O13 0.750000 0.934552 0.082455
O O14 0.667115 0.750000 0.137026
O O15 0.623324 0.950357 0.045181
O O16 0.663669 0.999778 0.192225
O O17 0.864844 0.250000 0.235899
O O18 0.821746 0.067919 0.342916
O O19 0.953742 0.750000 0.993945
O O20 0.000000 0.000000 0.000000
O O21 0.750000 0.028117 0.467932
O O22 0.820264 0.250000 0.461679
#
# Coordination Sequence:
#
# PCOD8243910 Si02
#       8
#     8   8   8   8   8   8   8   8
#     4   9  17  29  46  69  97 128 162 202 247 295
#     4   9  18  32  49  70  97 130 165 200 245 303
#     4   9  18  32  49  73 105 134 165 211 260 305
#     4   9  17  30  49  72  99 133 170 207 253 310
#     4  10  22  39  57  80 112 146 180 223 275 325
#     4  10  20  35  56  78 101 135 179 222 263 311
#     4  10  21  37  58  82 107 138 176 217 262 314
#     4   9  17  30  50  75 100 129 171 219 260 304
#
# _framework density 19.231926999999999
#
# number of rings (size 3 to 8) (size 9 to 14) (size 15 to 20)
#    0.000    2.625    0.000    1.500    0.000    6.000 
#    0.000    4.375    0.000    1.875    0.000    0.000 
#    0.000    0.000    0.000    0.000    0.000    0.000 
#
# Total GULP energy -793167.325395 kJ/mol
# GULP energy per Si atom -12393.239459 kJ/mol
# Density = 1.918815 g / cm^3
# Si number density = 19.231927 Si / 1000 Ang^3
#
#
#
# Elastic Constant Matrix: (Units=GPa)
#
#
# Indices 1 2 3 4 5 6 
#
# 1 78.1954 23.0538 -3.8602 0.0000 0.0000 0.0000
# 2 23.0538 45.5803 15.0024 0.0000 0.0000 0.0000
# 3 -3.8602 15.0024 49.3769 0.0000 0.0000 0.0000
# 4 0.0000 0.0000 0.0000 26.1908 0.0000 0.0000
# 5 0.0000 0.0000 0.0000 0.0000 14.8161 0.0000
# 6 0.0000 0.0000 0.0000 0.0000 0.0000 28.4376
#
#
#
# Elastic Compliance Matrix: (Units=1/GPa)
#
#
# Indices 1 2 3 4 5 6 
#
# 1 0.015727 -0.009288 0.004051 0.000000 0.000000 0.000000
# 2 -0.009288 0.029862 -0.009799 0.000000 0.000000 0.000000
# 3 0.004051 -0.009799 0.023546 0.000000 0.000000 0.000000
# 4 0.000000 0.000000 0.000000 0.038181 0.000000 0.000000
# 5 0.000000 0.000000 0.000000 0.000000 0.067494 0.000000
# 6 0.000000 0.000000 0.000000 0.000000 0.000000 0.035165
#
#
# Mechanical properties :
#
#
# Convention : Reuss Voigt Hill
#
# Bulk Modulus (GPa) = 25.59891 26.83828 26.21860
# Shear Modulus (GPa) = 19.75751 23.15267 21.45509
#
# Velocity S-wave (km/s) = 3.20867 3.47344 3.34368
# Velocity P-wave (km/s) = 5.20259 5.48377 5.34503
#
# Compressibility (1/GPa) = 0.03906416
#
# Stress axis : x y z
#
# Youngs Moduli (GPa) = 63.58601 33.48708 42.46926
#
# Poissons Ratio (x) = 0.31102 -0.17206
# Poissons Ratio (y) = 0.59057 0.41617
# Poissons Ratio (z) = -0.25761 0.32815
#
# Static dielectric constant tensor:
#      x y z
#    x 4.424120 0.000000 0.000000 
#    y 0.000000 3.537410 0.000000 
#    z 0.000000 0.000000 3.580470 
# 
# 
# High freq. dielectric constant tensor:
#      x y z
#    x 1.760100 0.000000 0.000000 
#    y 0.000000 1.724500 0.000000 
#    z 0.000000 0.000000 1.748980 
# 
# From -- ./inp_files/26267.got.cif
#   From: 2010.03.12/outbox.cif.g09.slc.cpg/sg59_14_cif.got.tgz:26267.got - 2010.04.16 16:29:54.
