data_PCOD8243546
_publ_section_title
;
Structure prediction by ZEFSAII (Michael W. Deem and Ramdas Pophale) SiO2 
 PCOD8243546
Probable space group: P M M N
;
_chemical_formula_sum "Si O2"
_cell_formula_units_Z 56
_cell_length_a 8.885912
_cell_length_b 19.621005
_cell_length_c 17.225419
_cell_angle_alpha 90.000000
_cell_angle_beta 90.000000
_cell_angle_gamma 90.000000
_cell_volume 3003.260825
_symmetry_space_group_name_H-M "P M M N"
_symmetry_group_IT_number 59
_space_group.IT_coordinate_system_code '2'
_symmetry_cell_setting 'orthorhombic'
loop_
_space_group_symop_operation_xyz
x,y,z
1/2-x,1/2-y,z
1/2+x,-y,-z
-x,1/2+y,-z
-x,-y,-z
1/2+x,1/2+y,-z
1/2-x,y,z
x,1/2-y,z
loop_
_atom_site_type_symbol
_atom_site_label
_atom_site_fract_x
_atom_site_fract_y
_atom_site_fract_z
Si Si1 0.923931 0.172891 0.670283
Si Si2 0.423069 0.672581 0.893286
Si Si3 0.426204 0.557415 0.772577
Si Si4 0.076344 0.088351 0.553152
Si Si5 0.923748 0.545213 0.613661
Si Si6 0.572065 0.082910 0.815259
Si Si7 0.426366 0.172008 0.946459
O O1 0.750000 0.160549 0.650168
O O2 0.953771 0.250000 0.696584
O O3 0.979903 0.124669 0.739656
O O4 0.023192 0.158153 0.593479
O O5 0.250000 0.662121 0.918199
O O6 0.452242 0.750000 0.865601
O O7 0.467694 0.623565 0.822730
O O8 0.526950 0.653891 0.966083
O O9 0.250000 0.542661 0.770902
O O10 0.481995 0.573428 0.685695
O O11 0.506921 0.492688 0.810465
O O12 0.250000 0.072212 0.570916
O O13 0.049670 0.094170 0.460605
O O14 0.974200 0.030363 0.591321
O O15 0.750000 0.541806 0.638288
O O16 0.750000 0.078969 0.821061
O O17 0.511862 0.120486 0.890848
O O18 0.250000 0.160661 0.936891
O O19 0.472394 0.250000 0.926886
#
# Coordination Sequence:
#
# PCOD8243546 Si02
#       7
#     8   8   8   8   8   8   8
#     4  10  21  36  54  79 113 152 191 231 278 333
#     4   9  20  40  62  82 108 144 185 230 283 340
#     4  11  22  36  58  87 114 143 185 235 283 331
#     4  10  20  34  55  80 107 144 188 230 273 324
#     4  10  20  35  55  80 110 144 182 225 276 332
#     4  11  22  36  56  82 114 152 190 228 278 336
#     4  10  21  37  58  84 113 147 189 233 277 330
#
# _framework density 18.646398999999999
#
# number of rings (size 3 to 8) (size 9 to 14) (size 15 to 20)
#    0.000    1.857    1.429    2.571    0.000    5.714 
#    0.000    0.714    0.000    2.571    0.000    0.000 
#    0.000    0.000    0.000    0.000    0.000    0.000 
#
# Total GULP energy -694584.662244 kJ/mol
# GULP energy per Si atom -12403.297540 kJ/mol
# Density = 1.860396 g / cm^3
# Si number density = 18.646399 Si / 1000 Ang^3
#
#
#
# Elastic Constant Matrix: (Units=GPa)
#
#
# Indices 1 2 3 4 5 6 
#
# 1 74.4708 43.8458 54.1547 0.0000 0.0000 0.0000
# 2 43.8458 102.6668 68.8615 0.0000 0.0000 0.0000
# 3 54.1547 68.8615 127.3990 0.0000 0.0000 0.0000
# 4 0.0000 0.0000 0.0000 26.3123 0.0000 0.0000
# 5 0.0000 0.0000 0.0000 0.0000 35.0647 0.0000
# 6 0.0000 0.0000 0.0000 0.0000 0.0000 28.2200
#
#
#
# Elastic Compliance Matrix: (Units=1/GPa)
#
#
# Indices 1 2 3 4 5 6 
#
# 1 0.020745 -0.004620 -0.006321 0.000000 0.000000 0.000000
# 2 -0.004620 0.016309 -0.006851 0.000000 0.000000 0.000000
# 3 -0.006321 -0.006851 0.014240 0.000000 0.000000 0.000000
# 4 0.000000 0.000000 0.000000 0.038005 0.000000 0.000000
# 5 0.000000 0.000000 0.000000 0.000000 0.028519 0.000000
# 6 0.000000 0.000000 0.000000 0.000000 0.000000 0.035436
#
#
# Mechanical properties :
#
#
# Convention : Reuss Voigt Hill
#
# Bulk Modulus (GPa) = 63.65949 70.91783 67.28866
# Shear Modulus (GPa) = 25.76352 27.09771 26.43061
#
# Velocity S-wave (km/s) = 3.72114 3.81628 3.76901
# Velocity P-wave (km/s) = 7.25789 7.58513 7.42331
#
# Compressibility (1/GPa) = 0.01570858
#
# Stress axis : x y z
#
# Youngs Moduli (GPa) = 48.20522 61.31750 70.22671
#
# Poissons Ratio (x) = 0.28327 0.44391
# Poissons Ratio (y) = 0.22269 0.48115
# Poissons Ratio (z) = 0.30471 0.42011
#
# Static dielectric constant tensor:
#      x y z
#    x 3.477650 0.000000 0.000000 
#    y 0.000000 3.350790 0.000000 
#    z 0.000000 0.000000 3.542800 
# 
# 
# High freq. dielectric constant tensor:
#      x y z
#    x 1.733970 0.000000 0.000000 
#    y 0.000000 1.710650 0.000000 
#    z 0.000000 0.000000 1.728390 
# 
# From -- ./inp_files/21006.got.cif
#   From: 2010.03.12/outbox.cif.g09.slc.cpg/sg59_11_cif.got.tgz:21006.got - 2010.04.16 16:29:54.
