data_PCOD8243287
_publ_section_title
;
Structure prediction by ZEFSAII (Michael W. Deem and Ramdas Pophale) SiO2 
 PCOD8243287
Probable space group: P M M N
;
_chemical_formula_sum "Si O2"
_cell_formula_units_Z 64
_cell_length_a 9.039658
_cell_length_b 22.529873
_cell_length_c 16.634605
_cell_angle_alpha 90.000000
_cell_angle_beta 90.000000
_cell_angle_gamma 90.000000
_cell_volume 3387.842691
_symmetry_space_group_name_H-M "P M M N"
_symmetry_group_IT_number 59
_space_group.IT_coordinate_system_code '2'
_symmetry_cell_setting 'orthorhombic'
loop_
_space_group_symop_operation_xyz
x,y,z
1/2-x,1/2-y,z
1/2+x,-y,-z
-x,1/2+y,-z
-x,-y,-z
1/2+x,1/2+y,-z
1/2-x,y,z
x,1/2-y,z
loop_
_atom_site_type_symbol
_atom_site_label
_atom_site_fract_x
_atom_site_fract_y
_atom_site_fract_z
Si Si1 0.919846 0.510946 0.917246
Si Si2 0.073599 0.430570 0.786275
Si Si3 0.923777 0.318457 0.373775
Si Si4 0.422487 0.535700 0.379269
Si Si5 0.592963 0.183332 0.201037
Si Si6 0.083580 0.146455 0.057275
Si Si7 0.578310 0.916681 0.532882
Si Si8 0.425519 0.317320 0.884043
O O1 0.750000 0.488938 0.920112
O O2 0.928512 0.581154 0.905743
O O3 0.005898 0.479315 0.845778
O O4 0.000000 0.500000 0.000000
O O5 0.250000 0.437180 0.787859
O O6 0.024946 0.364040 0.815021
O O7 0.013010 0.443278 0.698223
O O8 0.750000 0.330945 0.388721
O O9 0.963423 0.250000 0.387906
O O10 0.969761 0.343477 0.284512
O O11 0.026663 0.353524 0.435115
O O12 0.250000 0.549016 0.364721
O O13 0.450240 0.466388 0.398554
O O14 0.480150 0.572706 0.454519
O O15 0.750000 0.152362 0.177417
O O16 0.627393 0.250000 0.227579
O O17 0.488111 0.186765 0.124780
O O18 0.250000 0.167921 0.048216
O O19 0.010562 0.157250 0.969292
O O20 0.750000 0.915398 0.508038
O O21 0.250000 0.315832 0.886923
O O22 0.486024 0.250000 0.867704
#
# Coordination Sequence:
#
# PCOD8243287 Si02
#       8
#     8   8   8   8   8   8   8   8
#     4  11  22  37  55  80 113 147 185 230 280 333
#     4  11  22  38  59  85 114 149 190 232 285 339
#     4   9  19  36  56  80 115 155 188 226 282 343
#     4  10  22  40  61  86 116 148 184 233 286 343
#     4   9  19  34  50  75 111 147 185 226 271 326
#     4  10  20  34  53  77 106 144 190 230 274 328
#     4  10  21  38  61  88 114 144 186 232 283 343
#     4   9  18  35  57  79 107 145 189 236 280 324
#
# _framework density 18.891076999999999
#
# number of rings (size 3 to 8) (size 9 to 14) (size 15 to 20)
#    0.000    2.125    1.250    2.625    1.750    4.000 
#    0.000    1.875    0.000    4.500    0.000    0.000 
#    0.000    0.000    0.000    0.000    0.000    0.000 
#
# Total GULP energy -793125.530533 kJ/mol
# GULP energy per Si atom -12392.586415 kJ/mol
# Density = 1.884808 g / cm^3
# Si number density = 18.891077 Si / 1000 Ang^3
#
#
#
# Elastic Constant Matrix: (Units=GPa)
#
#
# Indices 1 2 3 4 5 6 
#
# 1 77.7317 40.1364 45.4218 0.0000 0.0000 0.0000
# 2 40.1364 91.2542 56.2117 0.0000 0.0000 0.0000
# 3 45.4218 56.2117 109.5933 0.0000 0.0000 0.0000
# 4 0.0000 0.0000 0.0000 28.1558 0.0000 0.0000
# 5 0.0000 0.0000 0.0000 0.0000 37.5770 0.0000
# 6 0.0000 0.0000 0.0000 0.0000 0.0000 25.6214
#
#
#
# Elastic Compliance Matrix: (Units=1/GPa)
#
#
# Indices 1 2 3 4 5 6 
#
# 1 0.018395 -0.004962 -0.005079 0.000000 0.000000 0.000000
# 2 -0.004962 0.017358 -0.006847 0.000000 0.000000 0.000000
# 3 -0.005079 -0.006847 0.014741 0.000000 0.000000 0.000000
# 4 0.000000 0.000000 0.000000 0.035517 0.000000 0.000000
# 5 0.000000 0.000000 0.000000 0.000000 0.026612 0.000000
# 6 0.000000 0.000000 0.000000 0.000000 0.000000 0.039030
#
#
# Mechanical properties :
#
#
# Convention : Reuss Voigt Hill
#
# Bulk Modulus (GPa) = 59.81113 62.45764 61.13439
# Shear Modulus (GPa) = 26.17788 27.39147 26.78468
#
# Velocity S-wave (km/s) = 3.72657 3.81198 3.76952
# Velocity P-wave (km/s) = 7.08846 7.24628 7.16781
#
# Compressibility (1/GPa) = 0.01671930
#
# Stress axis : x y z
#
# Youngs Moduli (GPa) = 54.36381 57.60894 67.83653
#
# Poissons Ratio (x) = 0.28586 0.34452
# Poissons Ratio (y) = 0.26976 0.46446
# Poissons Ratio (z) = 0.27610 0.39443
#
# Static dielectric constant tensor:
#      x y z
#    x 3.388920 0.000000 0.000000 
#    y 0.000000 2.853940 0.000000 
#    z 0.000000 0.000000 3.331910 
# 
# 
# High freq. dielectric constant tensor:
#      x y z
#    x 1.726380 0.000000 0.000000 
#    y 0.000000 1.731470 0.000000 
#    z 0.000000 0.000000 1.733720 
# 
# From -- ./inp_files/21484.got.cif
#   From: 2010.03.12/outbox.cif.g09.slc.cpg/sg59_11_cif.got.tgz:21484.got - 2010.04.16 16:29:54.
