data_PCOD8243423
_publ_section_title
;
Structure prediction by ZEFSAII (Michael W. Deem and Ramdas Pophale) SiO2 
 PCOD8243423
Probable space group: P M M N
;
_chemical_formula_sum "Si O2"
_cell_formula_units_Z 40
_cell_length_a 9.021018
_cell_length_b 18.799217
_cell_length_c 12.811514
_cell_angle_alpha 90.000000
_cell_angle_beta 90.000000
_cell_angle_gamma 90.000000
_cell_volume 2172.679996
_symmetry_space_group_name_H-M "P M M N"
_symmetry_group_IT_number 59
_space_group.IT_coordinate_system_code '2'
_symmetry_cell_setting 'orthorhombic'
loop_
_space_group_symop_operation_xyz
x,y,z
1/2-x,1/2-y,z
1/2+x,-y,-z
-x,1/2+y,-z
-x,-y,-z
1/2+x,1/2+y,-z
1/2-x,y,z
x,1/2-y,z
loop_
_atom_site_type_symbol
_atom_site_label
_atom_site_fract_x
_atom_site_fract_y
_atom_site_fract_z
Si Si1 0.082421 0.417896 0.280722
Si Si2 0.422041 0.166888 0.897054
Si Si3 0.921670 0.331848 0.108633
Si Si4 0.921256 0.925517 0.488940
Si Si5 0.577903 0.085638 0.711878
O O1 0.250000 0.403135 0.242126
O O2 0.062660 0.386872 0.398632
O O3 0.049103 0.501741 0.277607
O O4 0.966618 0.378380 0.207653
O O5 0.250000 0.147041 0.892003
O O6 0.450274 0.250000 0.878361
O O7 0.509211 0.123923 0.810538
O O8 0.484147 0.143093 0.009132
O O9 0.750000 0.344554 0.083354
O O10 0.955119 0.250000 0.135364
O O11 0.750000 0.937306 0.460662
O O12 0.999735 0.883751 0.393539
O O13 0.000000 0.000000 0.500000
O O14 0.750000 0.104191 0.704683
#
# Coordination Sequence:
#
# PCOD8243423 Si02
#       5
#     8   8   8   8   8
#     4   9  19  34  53  78 105 135 171 209 252 303
#     4  10  21  37  56  76 101 136 174 211 257 311
#     4  10  21  36  54  76 102 134 172 213 258 306
#     4   9  17  31  51  76 106 138 172 210 255 306
#     4  10  20  34  54  80 107 135 171 214 258 305
#
# _framework density 18.410442
#
# number of rings (size 3 to 8) (size 9 to 14) (size 15 to 20)
#    0.000    2.400    0.000    3.600    0.000    8.000 
#    0.000    1.000    0.000    1.200    0.000    0.000 
#    0.000    0.000    0.000    0.000    0.000    0.000 
#
# Total GULP energy -495946.407721 kJ/mol
# GULP energy per Si atom -12398.660193 kJ/mol
# Density = 1.836854 g / cm^3
# Si number density = 18.410442 Si / 1000 Ang^3
#
#
#
# Elastic Constant Matrix: (Units=GPa)
#
#
# Indices 1 2 3 4 5 6 
#
# 1 135.4932 40.4446 79.2776 0.0000 0.0000 0.0000
# 2 40.4446 38.2256 46.7314 0.0000 0.0000 0.0000
# 3 79.2776 46.7314 142.8645 0.0000 0.0000 0.0000
# 4 0.0000 0.0000 0.0000 -315.4602 0.0000 0.0000
# 5 0.0000 0.0000 0.0000 0.0000 42.8458 0.0000
# 6 0.0000 0.0000 0.0000 0.0000 0.0000 26.3559
#
#
#
# Elastic Compliance Matrix: (Units=1/GPa)
#
#
# Indices 1 2 3 4 5 6 
#
# 1 0.012148 -0.007685 -0.004227 0.000000 0.000000 0.000000
# 2 -0.007685 0.048455 -0.011585 0.000000 0.000000 0.000000
# 3 -0.004227 -0.011585 0.013135 0.000000 0.000000 0.000000
# 4 0.000000 0.000000 0.000000 -0.003170 0.000000 0.000000
# 5 0.000000 0.000000 0.000000 0.000000 0.023339 0.000000
# 6 0.000000 0.000000 0.000000 0.000000 0.000000 0.037942
#
#
# Mechanical properties :
#
#
# Convention : Reuss Voigt Hill
#
# Bulk Modulus (GPa) = 37.39361 72.16560 54.77961
# Shear Modulus (GPa) = 26.63006 -39.24304 -6.30649
#
# Velocity S-wave (km/s) = 3.80737 -4.62190 -1.85282
# Velocity P-wave (km/s) = 6.29946 3.28645 5.02414
#
# Compressibility (1/GPa) = 0.02674254
#
# Stress axis : x y z
#
# Youngs Moduli (GPa) = 82.31965 20.63785 76.13354
#
# Poissons Ratio (x) = 0.15861 0.32183
# Poissons Ratio (y) = 0.63264 0.88201
# Poissons Ratio (z) = 0.34797 0.23909
#
# Static dielectric constant tensor:
#      x y z
#    x 3.687270 0.000000 0.000000 
#    y 0.000000 3.053870 0.000000 
#    z 0.000000 0.000000 3.717060 
# 
# 
# High freq. dielectric constant tensor:
#      x y z
#    x 1.731670 0.000000 0.000000 
#    y 0.000000 1.676490 0.000000 
#    z 0.000000 0.000000 1.731500 
# 
# From -- ./inp_files/13857.got.cif
#   From: 2010.03.12/outbox.cif.g09.slc.cpg/sg59_7_cif.got.tgz:13857.got - 2010.04.16 16:29:54.
