data_PCOD8243464
_publ_section_title
;
Structure prediction by ZEFSAII (Michael W. Deem and Ramdas Pophale) SiO2 
 PCOD8243464
Probable space group: P M M N
;
_chemical_formula_sum "Si O2"
_cell_formula_units_Z 64
_cell_length_a 20.019524
_cell_length_b 17.994878
_cell_length_c 8.781743
_cell_angle_alpha 90.000000
_cell_angle_beta 90.000000
_cell_angle_gamma 90.000000
_cell_volume 3163.613186
_symmetry_space_group_name_H-M "P M M N"
_symmetry_group_IT_number 59
_space_group.IT_coordinate_system_code '2'
_symmetry_cell_setting 'orthorhombic'
loop_
_space_group_symop_operation_xyz
x,y,z
1/2-x,1/2-y,z
1/2+x,-y,-z
-x,1/2+y,-z
-x,-y,-z
1/2+x,1/2+y,-z
1/2-x,y,z
x,1/2-y,z
loop_
_atom_site_type_symbol
_atom_site_label
_atom_site_fract_x
_atom_site_fract_y
_atom_site_fract_z
Si Si1 0.674326 0.027525 0.327835
Si Si2 0.421136 0.908440 0.250125
Si Si3 0.049482 0.338327 0.659133
Si Si4 0.176076 0.543799 0.013223
Si Si5 0.175547 0.164551 0.851311
Si Si6 0.826196 0.333611 0.507728
Si Si7 0.090469 0.056926 0.420844
Si Si8 0.822724 0.609240 0.831100
O O1 0.750000 0.002897 0.355244
O O2 0.664964 0.115720 0.357828
O O3 0.632765 0.980229 0.446241
O O4 0.652925 0.013407 0.152373
O O5 0.489235 0.861771 0.228715
O O6 0.383458 0.907261 0.086185
O O7 0.372477 0.864539 0.360699
O O8 0.440234 0.991442 0.314934
O O9 0.047444 0.250000 0.627396
O O10 0.120434 0.364540 0.731942
O O11 0.038048 0.387247 0.504215
O O12 0.250000 0.583205 0.999243
O O13 0.184308 0.477223 0.131004
O O14 0.250000 0.125865 0.831937
O O15 0.185196 0.250000 0.820046
O O16 0.147724 0.152162 0.022366
O O17 0.750000 0.336836 0.567484
O O18 0.847308 0.250000 0.463912
O O19 0.131714 0.115447 0.317625
O O20 0.750000 0.642982 0.791478
#
# Coordination Sequence:
#
# PCOD8243464 Si02
#       8
#     8   8   8   8   8   8   8   8
#     4   9  17  31  54  82 111 141 175 218 263 308
#     4  10  20  36  54  76 106 141 179 218 262 315
#     4  11  23  38  55  76 105 140 177 220 268 315
#     4   9  17  31  53  81 108 136 173 214 255 304
#     4   9  19  36  55  75 103 140 178 216 264 319
#     4   9  17  31  52  77 106 141 178 217 264 316
#     4  10  20  34  54  81 107 138 176 217 262 316
#     4   9  17  31  54  81 106 132 167 214 262 310
#
# _framework density 20.230032000000001
#
# number of rings (size 3 to 8) (size 9 to 14) (size 15 to 20)
#    0.000    2.500    0.000    2.250    0.000    5.500 
#    0.000    9.375    0.000    4.500    0.000    0.000 
#    0.000    0.000    0.000    0.000    0.000    0.000 
#
# Total GULP energy -792917.652857 kJ/mol
# GULP energy per Si atom -12389.338326 kJ/mol
# Density = 2.018399 g / cm^3
# Si number density = 20.230032 Si / 1000 Ang^3
#
#
#
# Elastic Constant Matrix: (Units=GPa)
#
#
# Indices 1 2 3 4 5 6 
#
# 1 72.0777 20.8391 23.4900 0.0000 0.0000 0.0000
# 2 20.8391 56.9611 12.8772 0.0000 0.0000 0.0000
# 3 23.4900 12.8772 73.6532 0.0000 0.0000 0.0000
# 4 0.0000 0.0000 0.0000 22.9182 0.0000 0.0000
# 5 0.0000 0.0000 0.0000 0.0000 15.1553 0.0000
# 6 0.0000 0.0000 0.0000 0.0000 0.0000 17.4780
#
#
#
# Elastic Compliance Matrix: (Units=1/GPa)
#
#
# Indices 1 2 3 4 5 6 
#
# 1 0.016816 -0.005143 -0.004464 0.000000 0.000000 0.000000
# 2 -0.005143 0.019851 -0.001831 0.000000 0.000000 0.000000
# 3 -0.004464 -0.001831 0.015321 0.000000 0.000000 0.000000
# 4 0.000000 0.000000 0.000000 0.043633 0.000000 0.000000
# 5 0.000000 0.000000 0.000000 0.000000 0.065984 0.000000
# 6 0.000000 0.000000 0.000000 0.000000 0.000000 0.057215
#
#
# Mechanical properties :
#
#
# Convention : Reuss Voigt Hill
#
# Bulk Modulus (GPa) = 34.34859 35.23386 34.79122
# Shear Modulus (GPa) = 19.88878 20.80933 20.34905
#
# Velocity S-wave (km/s) = 3.13889 3.21071 3.17501
# Velocity P-wave (km/s) = 5.49115 5.58564 5.53860
#
# Compressibility (1/GPa) = 0.02911328
#
# Stress axis : x y z
#
# Youngs Moduli (GPa) = 59.46875 50.37492 65.27073
#
# Poissons Ratio (x) = 0.25907 0.29135
# Poissons Ratio (y) = 0.30584 0.11948
# Poissons Ratio (z) = 0.26546 0.09221
#
# Static dielectric constant tensor:
#      x y z
#    x 3.820530 0.000000 0.000000 
#    y 0.000000 3.708930 0.000000 
#    z 0.000000 0.000000 3.634310 
# 
# 
# High freq. dielectric constant tensor:
#      x y z
#    x 1.777750 0.000000 0.000000 
#    y 0.000000 1.781160 0.000000 
#    z 0.000000 0.000000 1.777890 
# 
# From -- ./inp_files/11650.got.cif
#   From: 2010.03.12/outbox.cif.g09.slc.cpg/sg59_6_cif.got.tgz:11650.got - 2010.04.16 16:29:54.
