data_PCOD8243685
_publ_section_title
;
Structure prediction by ZEFSAII (Michael W. Deem and Ramdas Pophale) SiO2 
 PCOD8243685
Probable space group: P M M N
;
_chemical_formula_sum "Si O2"
_cell_formula_units_Z 56
_cell_length_a 9.068302
_cell_length_b 21.300262
_cell_length_c 14.356644
_cell_angle_alpha 90.000000
_cell_angle_beta 90.000000
_cell_angle_gamma 90.000000
_cell_volume 2773.089278
_symmetry_space_group_name_H-M "P M M N"
_symmetry_group_IT_number 59
_space_group.IT_coordinate_system_code '2'
_symmetry_cell_setting 'orthorhombic'
loop_
_space_group_symop_operation_xyz
x,y,z
1/2-x,1/2-y,z
1/2+x,-y,-z
-x,1/2+y,-z
-x,-y,-z
1/2+x,1/2+y,-z
1/2-x,y,z
x,1/2-y,z
loop_
_atom_site_type_symbol
_atom_site_label
_atom_site_fract_x
_atom_site_fract_y
_atom_site_fract_z
Si Si1 0.576209 0.584234 0.749870
Si Si2 0.409893 0.180115 0.749330
Si Si3 0.414782 0.647826 0.421933
Si Si4 0.423533 0.675651 0.071263
Si Si5 0.413436 0.506802 0.406112
Si Si6 0.919847 0.323114 0.373106
Si Si7 0.426715 0.436297 0.039074
O O1 0.750000 0.590372 0.745949
O O2 0.514479 0.530636 0.679807
O O3 0.508283 0.649571 0.714477
O O4 0.526215 0.566583 0.853055
O O5 0.250000 0.144311 0.748760
O O6 0.377617 0.250000 0.782272
O O7 0.477950 0.185089 0.646089
O O8 0.524121 0.153340 0.825633
O O9 0.250000 0.677835 0.422115
O O10 0.410396 0.579034 0.377680
O O11 0.475731 0.648302 0.527972
O O12 0.250000 0.662549 0.063751
O O13 0.456046 0.750000 0.049596
O O14 0.510333 0.628786 0.002703
O O15 0.500000 0.500000 0.500000
O O16 0.250000 0.480718 0.424731
O O17 0.750000 0.340073 0.358063
O O18 0.950360 0.250000 0.375378
O O19 0.250000 0.438854 0.024571
O O20 0.500000 0.500000 0.000000
#
# Coordination Sequence:
#
# PCOD8243685 Si02
#       7
#     8   8   8   8   8   8   8
#     4  10  23  41  60  86 120 155 195 244 301 361
#     4  10  21  36  56  87 123 157 197 243 292 354
#     4  10  20  34  56  84 118 160 199 241 293 347
#     4  10  22  42  67  92 121 161 208 260 320 384
#     4  10  20  36  58  84 114 151 192 238 287 346
#     4  10  21  37  58  86 120 159 205 250 292 349
#     4  11  25  44  66  94 126 162 206 262 320 378
#
# _framework density 20.194085000000001
#
# number of rings (size 3 to 8) (size 9 to 14) (size 15 to 20)
#    0.000    1.857    1.429    1.714    2.000    5.429 
#    0.000    2.857    0.000    0.000    0.000    0.000 
#    0.000    0.000    0.000    0.000    0.000    0.000 
#
# Total GULP energy -694053.394941 kJ/mol
# GULP energy per Si atom -12393.810624 kJ/mol
# Density = 2.014812 g / cm^3
# Si number density = 20.194085 Si / 1000 Ang^3
#
#
#
# Elastic Constant Matrix: (Units=GPa)
#
#
# Indices 1 2 3 4 5 6 
#
# 1 87.8955 37.0751 62.6811 0.0000 0.0000 0.0000
# 2 37.0751 87.2645 51.4540 0.0000 0.0000 0.0000
# 3 62.6811 51.4540 157.2415 0.0000 0.0000 0.0000
# 4 0.0000 0.0000 0.0000 35.1375 0.0000 0.0000
# 5 0.0000 0.0000 0.0000 0.0000 32.7605 0.0000
# 6 0.0000 0.0000 0.0000 0.0000 0.0000 31.6903
#
#
#
# Elastic Compliance Matrix: (Units=1/GPa)
#
#
# Indices 1 2 3 4 5 6 
#
# 1 0.016945 -0.003985 -0.005451 0.000000 0.000000 0.000000
# 2 -0.003985 0.015136 -0.003364 0.000000 0.000000 0.000000
# 3 -0.005451 -0.003364 0.009633 0.000000 0.000000 0.000000
# 4 0.000000 0.000000 0.000000 0.028460 0.000000 0.000000
# 5 0.000000 0.000000 0.000000 0.000000 0.030525 0.000000
# 6 0.000000 0.000000 0.000000 0.000000 0.000000 0.031555
#
#
# Mechanical properties :
#
#
# Convention : Reuss Voigt Hill
#
# Bulk Modulus (GPa) = 62.05775 70.53577 66.29676
# Shear Modulus (GPa) = 30.63216 31.99709 31.31462
#
# Velocity S-wave (km/s) = 3.89895 3.98487 3.94214
# Velocity P-wave (km/s) = 7.14608 7.49513 7.32269
#
# Compressibility (1/GPa) = 0.01611402
#
# Stress axis : x y z
#
# Youngs Moduli (GPa) = 59.01324 66.06599 103.80560
#
# Poissons Ratio (x) = 0.26330 0.56582
# Poissons Ratio (y) = 0.23519 0.34924
# Poissons Ratio (z) = 0.32167 0.22227
#
# Static dielectric constant tensor:
#      x y z
#    x 3.743840 0.000000 0.000000 
#    y 0.000000 3.747730 0.000000 
#    z 0.000000 0.000000 3.732080 
# 
# 
# High freq. dielectric constant tensor:
#      x y z
#    x 1.788140 0.000000 0.000000 
#    y 0.000000 1.787030 0.000000 
#    z 0.000000 0.000000 1.789160 
# 
# From -- ./inp_files/21038.got.cif
#   From: 2010.03.12/outbox.cif.g09.slc.cpg/sg59_11_cif.got.tgz:21038.got - 2010.04.16 16:29:54.
