data_PCOD8243137
_publ_section_title
;
Structure prediction by ZEFSAII (Michael W. Deem and Ramdas Pophale) SiO2 
 PCOD8243137
Probable space group: P M M N
;
_chemical_formula_sum "Si O2"
_cell_formula_units_Z 40
_cell_length_a 17.974885
_cell_length_b 9.502239
_cell_length_c 12.751512
_cell_angle_alpha 90.000000
_cell_angle_beta 90.000000
_cell_angle_gamma 90.000000
_cell_volume 2177.979331
_symmetry_space_group_name_H-M "P M M N"
_symmetry_group_IT_number 59
_space_group.IT_coordinate_system_code '2'
_symmetry_cell_setting 'orthorhombic'
loop_
_space_group_symop_operation_xyz
x,y,z
1/2-x,1/2-y,z
1/2+x,-y,-z
-x,1/2+y,-z
-x,-y,-z
1/2+x,1/2+y,-z
1/2-x,y,z
x,1/2-y,z
loop_
_atom_site_type_symbol
_atom_site_label
_atom_site_fract_x
_atom_site_fract_y
_atom_site_fract_z
Si Si1 0.335944 0.087842 0.980104
Si Si2 0.336423 0.086165 0.382320
Si Si3 0.335626 0.588022 0.582436
Si Si4 0.407087 0.915218 0.800634
Si Si5 0.423819 0.416773 0.181182
O O1 0.250000 0.072001 0.010615
O O2 0.356378 0.250000 0.957357
O O3 0.383980 0.025904 0.076617
O O4 0.352593 0.997907 0.877347
O O5 0.250000 0.057684 0.359457
O O6 0.352703 0.250000 0.400804
O O7 0.382360 0.024423 0.284135
O O8 0.363683 0.005114 0.485607
O O9 0.250000 0.555333 0.609891
O O10 0.346662 0.750000 0.551324
O O11 0.385102 0.547109 0.682172
O O12 0.397622 0.750000 0.822491
O O13 0.491118 0.967250 0.819357
O O14 0.417262 0.250000 0.183552
#
# Coordination Sequence:
#
# PCOD8243137 Si02
#       5
#     8   8   8   8   8
#     4  10  20  34  53  75  99 128 163 204 247 290
#     4   9  17  31  52  74  96 127 167 205 241 288
#     4   9  18  32  48  68  97 130 162 199 244 290
#     4  10  20  34  52  73 100 133 165 199 243 294
#     4   9  18  33  52  74 100 129 162 202 248 293
#
# _framework density 18.365646999999999
#
# number of rings (size 3 to 8) (size 9 to 14) (size 15 to 20)
#    0.000    2.600    0.000    1.800    0.000    5.200 
#    0.000    4.000    0.000    2.400    0.000    0.000 
#    0.000    0.000    0.000    0.000    0.000    0.000 
#
# Total GULP energy -496116.078203 kJ/mol
# GULP energy per Si atom -12402.901955 kJ/mol
# Density = 1.832385 g / cm^3
# Si number density = 18.365647 Si / 1000 Ang^3
#
#
#
# Elastic Constant Matrix: (Units=GPa)
#
#
# Indices 1 2 3 4 5 6 
#
# 1 68.3668 23.1025 35.5337 0.0000 0.0000 0.0000
# 2 23.1025 42.4576 44.8210 0.0000 0.0000 0.0000
# 3 35.5337 44.8210 113.7111 0.0000 0.0000 0.0000
# 4 0.0000 0.0000 0.0000 26.9730 0.0000 0.0000
# 5 0.0000 0.0000 0.0000 0.0000 32.7768 0.0000
# 6 0.0000 0.0000 0.0000 0.0000 0.0000 20.2643
#
#
#
# Elastic Compliance Matrix: (Units=1/GPa)
#
#
# Indices 1 2 3 4 5 6 
#
# 1 0.018544 -0.006804 -0.003113 0.000000 0.000000 0.000000
# 2 -0.006804 0.042834 -0.014758 0.000000 0.000000 0.000000
# 3 -0.003113 -0.014758 0.015584 0.000000 0.000000 0.000000
# 4 0.000000 0.000000 0.000000 0.037074 0.000000 0.000000
# 5 0.000000 0.000000 0.000000 0.000000 0.030509 0.000000
# 6 0.000000 0.000000 0.000000 0.000000 0.000000 0.049348
#
#
# Mechanical properties :
#
#
# Convention : Reuss Voigt Hill
#
# Bulk Modulus (GPa) = 36.21486 47.93889 42.07687
# Shear Modulus (GPa) = 19.80609 24.07470 21.94040
#
# Velocity S-wave (km/s) = 3.28751 3.62450 3.46011
# Velocity P-wave (km/s) = 5.84568 6.60872 6.23887
#
# Compressibility (1/GPa) = 0.02761297
#
# Stress axis : x y z
#
# Youngs Moduli (GPa) = 53.92522 23.34576 64.16882
#
# Poissons Ratio (x) = 0.15885 0.19975
# Poissons Ratio (y) = 0.36692 0.94697
# Poissons Ratio (z) = 0.16786 0.34453
#
# Static dielectric constant tensor:
#      x y z
#    x 3.428780 0.000000 0.000000 
#    y 0.000000 3.130150 0.000000 
#    z 0.000000 0.000000 3.466410 
# 
# 
# High freq. dielectric constant tensor:
#      x y z
#    x 1.716330 0.000000 0.000000 
#    y 0.000000 1.683220 0.000000 
#    z 0.000000 0.000000 1.722490 
# 
# From -- ./inp_files/7127.got.cif
#   From: 2010.03.12/outbox.cif.g09.slc.cpg/sg59_4_cif.got.tgz:7127.got - 2010.04.16 16:29:54.
