data_PCOD8243021
_publ_section_title
;
Structure prediction by ZEFSAII (Michael W. Deem and Ramdas Pophale) SiO2 
 PCOD8243021
Probable space group: P M M N
;
_chemical_formula_sum "Si O2"
_cell_formula_units_Z 48
_cell_length_a 23.602707
_cell_length_b 8.669734
_cell_length_c 11.576259
_cell_angle_alpha 90.000000
_cell_angle_beta 90.000000
_cell_angle_gamma 90.000000
_cell_volume 2368.840518
_symmetry_space_group_name_H-M "P M M N"
_symmetry_group_IT_number 59
_space_group.IT_coordinate_system_code '2'
_symmetry_cell_setting 'orthorhombic'
loop_
_space_group_symop_operation_xyz
x,y,z
1/2-x,1/2-y,z
1/2+x,-y,-z
-x,1/2+y,-z
-x,-y,-z
1/2+x,1/2+y,-z
1/2-x,y,z
x,1/2-y,z
loop_
_atom_site_type_symbol
_atom_site_label
_atom_site_fract_x
_atom_site_fract_y
_atom_site_fract_z
Si Si1 0.314900 0.075574 0.325601
Si Si2 0.527424 0.067886 0.758574
Si Si3 0.314216 0.932260 0.868126
Si Si4 0.407920 0.930370 0.465221
Si Si5 0.094200 0.069446 0.711451
Si Si6 0.865164 0.066617 0.892145
O O1 0.250000 0.072711 0.360612
O O2 0.338942 0.250000 0.332154
O O3 0.345405 0.964430 0.416919
O O4 0.321885 0.010801 0.196454
O O5 0.529804 0.250000 0.751889
O O6 0.548464 0.008740 0.632941
O O7 0.462631 0.014150 0.781246
O O8 0.570311 0.012366 0.860170
O O9 0.250000 0.999458 0.863266
O O10 0.311141 0.750000 0.869093
O O11 0.349896 0.984738 0.757166
O O12 0.347527 0.993233 0.981289
O O13 0.414237 0.750000 0.493564
O O14 0.417648 0.029729 0.579081
O O15 0.104224 0.250000 0.725381
O O16 0.859066 0.250000 0.882537
#
# Coordination Sequence:
#
# PCOD8243021 Si02
#       6
#     8   8   8   8   8   8
#     4  10  20  33  52  81 113 141 175 224 278 326
#     4   8  17  34  57  85 111 135 170 220 274 324
#     4  10  22  39  57  78 107 146 189 226 261 310
#     4  10  20  36  57  79 107 144 184 223 265 320
#     4  11  22  36  55  80 112 145 177 219 271 324
#     4   9  18  36  60  82 106 139 181 225 268 318
#
# _framework density 20.263079000000001
#
# number of rings (size 3 to 8) (size 9 to 14) (size 15 to 20)
#    0.000    2.333    0.000    3.500    0.000    4.333 
#    0.000    7.500    0.000    0.000    0.000    0.000 
#    0.000    0.000    0.000    0.000    0.000    0.000 
#
# Total GULP energy -595030.013719 kJ/mol
# GULP energy per Si atom -12396.458619 kJ/mol
# Density = 2.021696 g / cm^3
# Si number density = 20.263079 Si / 1000 Ang^3
#
#
#
# Elastic Constant Matrix: (Units=GPa)
#
#
# Indices 1 2 3 4 5 6 
#
# 1 140.9247 21.1634 49.4021 0.0000 0.0000 0.0000
# 2 21.1634 23.8168 8.6775 0.0000 0.0000 0.0000
# 3 49.4021 8.6775 70.4415 0.0000 0.0000 0.0000
# 4 0.0000 0.0000 0.0000 23.9897 0.0000 0.0000
# 5 0.0000 0.0000 0.0000 0.0000 17.7607 0.0000
# 6 0.0000 0.0000 0.0000 0.0000 0.0000 24.2616
#
#
#
# Elastic Compliance Matrix: (Units=1/GPa)
#
#
# Indices 1 2 3 4 5 6 
#
# 1 0.010386 -0.006884 -0.006436 0.000000 0.000000 0.000000
# 2 -0.006884 0.048523 -0.001149 0.000000 0.000000 0.000000
# 3 -0.006436 -0.001149 0.018851 0.000000 0.000000 0.000000
# 4 0.000000 0.000000 0.000000 0.041685 0.000000 0.000000
# 5 0.000000 0.000000 0.000000 0.000000 0.056304 0.000000
# 6 0.000000 0.000000 0.000000 0.000000 0.000000 0.041217
#
#
# Mechanical properties :
#
#
# Convention : Reuss Voigt Hill
#
# Bulk Modulus (GPa) = 20.48270 43.74099 32.11184
# Shear Modulus (GPa) = 19.07095 23.59842 21.33468
#
# Velocity S-wave (km/s) = 3.07117 3.41633 3.24834
# Velocity P-wave (km/s) = 4.76513 6.09878 5.47273
#
# Compressibility (1/GPa) = 0.04882170
#
# Stress axis : x y z
#
# Youngs Moduli (GPa) = 96.28414 20.60874 53.04655
#
# Poissons Ratio (x) = 0.14187 0.34140
# Poissons Ratio (y) = 0.66282 0.06098
# Poissons Ratio (z) = 0.61967 0.02369
#
# Static dielectric constant tensor:
#      x y z
#    x 3.982260 0.000000 0.000000 
#    y 0.000000 3.470630 0.000000 
#    z 0.000000 0.000000 3.592470 
# 
# 
# High freq. dielectric constant tensor:
#      x y z
#    x 1.801210 0.000000 0.000000 
#    y 0.000000 1.773360 0.000000 
#    z 0.000000 0.000000 1.780540 
# 
# From -- ./inp_files/14382.got.cif
#   From: 2010.03.12/outbox.cif.g09.slc.cpg/sg59_8_cif.got.tgz:14382.got - 2010.04.16 16:29:54.
