data_PCOD8243217
_publ_section_title
;
Structure prediction by ZEFSAII (Michael W. Deem and Ramdas Pophale) SiO2 
 PCOD8243217
Probable space group: P M M N
;
_chemical_formula_sum "Si O2"
_cell_formula_units_Z 56
_cell_length_a 8.927380
_cell_length_b 14.333129
_cell_length_c 23.855225
_cell_angle_alpha 90.000000
_cell_angle_beta 90.000000
_cell_angle_gamma 90.000000
_cell_volume 3052.449924
_symmetry_space_group_name_H-M "P M M N"
_symmetry_group_IT_number 59
_space_group.IT_coordinate_system_code '2'
_symmetry_cell_setting 'orthorhombic'
loop_
_space_group_symop_operation_xyz
x,y,z
1/2-x,1/2-y,z
1/2+x,-y,-z
-x,1/2+y,-z
-x,-y,-z
1/2+x,1/2+y,-z
1/2-x,y,z
x,1/2-y,z
loop_
_atom_site_type_symbol
_atom_site_label
_atom_site_fract_x
_atom_site_fract_y
_atom_site_fract_z
Si Si1 0.928939 0.750000 0.035239
Si Si2 0.422112 0.143556 0.476175
Si Si3 0.925936 0.353372 0.590884
Si Si4 0.924910 0.927685 0.846166
Si Si5 0.572987 0.057389 0.948337
Si Si6 0.572385 0.750000 0.909660
Si Si7 0.925325 0.543766 0.636994
Si Si8 0.926831 0.357440 0.259997
O O1 0.750000 0.750000 0.041855
O O2 0.998824 0.842425 0.061778
O O3 0.988133 0.750000 0.972084
O O4 0.250000 0.127719 0.491236
O O5 0.455400 0.250000 0.459517
O O6 0.513854 0.113935 0.530805
O O7 0.471461 0.081035 0.423941
O O8 0.750000 0.348045 0.584354
O O9 0.989051 0.250000 0.608204
O O10 0.966077 0.432626 0.637232
O O11 0.750000 0.918644 0.832958
O O12 0.991238 0.839218 0.878634
O O13 0.010010 0.928590 0.787084
O O14 0.958543 0.013211 0.887362
O O15 0.750000 0.062765 0.960541
O O16 0.500000 0.000000 0.000000
O O17 0.750000 0.750000 0.911419
O O18 0.750000 0.560663 0.649507
O O19 0.021460 0.600564 0.681350
O O20 0.750000 0.358940 0.257211
O O21 0.985476 0.250000 0.253042
#
# Coordination Sequence:
#
# PCOD8243217 Si02
#       8
#     4   8   8   8   8   4   8   8
#     4  11  21  37  57  85 121 153 187 230 277 328
#     4   9  17  29  47  74 105 136 173 213 259 318
#     4   9  18  32  51  76 104 135 175 219 262 309
#     4  10  20  37  59  80 109 147 185 220 263 327
#     4  11  22  36  57  87 118 151 189 229 277 332
#     4   9  16  31  55  83 111 145 183 216 259 322
#     4  10  20  34  53  75 103 142 180 214 260 320
#     4  11  24  38  54  81 110 135 172 224 275 321
#
# _framework density 18.345918999999999
#
# number of rings (size 3 to 8) (size 9 to 14) (size 15 to 20)
#    0.000    2.000    2.143    1.929    0.000    3.714 
#    0.000    1.429    1.571    0.000    0.000    0.000 
#    0.000    0.000    0.000    0.000    0.000    0.000 
#
# Total GULP energy -694130.941316 kJ/mol
# GULP energy per Si atom -12395.195381 kJ/mol
# Density = 1.830416 g / cm^3
# Si number density = 18.345919 Si / 1000 Ang^3
#
#
#
# Elastic Constant Matrix: (Units=GPa)
#
#
# Indices 1 2 3 4 5 6 
#
# 1 59.3207 46.7222 35.1986 0.0000 0.0000 0.0000
# 2 46.7222 122.2083 50.7990 0.0000 0.0000 0.0000
# 3 35.1986 50.7990 77.2936 0.0000 0.0000 0.0000
# 4 0.0000 0.0000 0.0000 28.2100 0.0000 0.0000
# 5 0.0000 0.0000 0.0000 0.0000 31.5754 0.0000
# 6 0.0000 0.0000 0.0000 0.0000 0.0000 27.4588
#
#
#
# Elastic Compliance Matrix: (Units=1/GPa)
#
#
# Indices 1 2 3 4 5 6 
#
# 1 0.027007 -0.007172 -0.007585 0.000000 0.000000 0.000000
# 2 -0.007172 0.013163 -0.005385 0.000000 0.000000 0.000000
# 3 -0.007585 -0.005385 0.019931 0.000000 0.000000 0.000000
# 4 0.000000 0.000000 0.000000 0.035448 0.000000 0.000000
# 5 0.000000 0.000000 0.000000 0.000000 0.031670 0.000000
# 6 0.000000 0.000000 0.000000 0.000000 0.000000 0.036418
#
#
# Mechanical properties :
#
#
# Convention : Reuss Voigt Hill
#
# Bulk Modulus (GPa) = 50.46220 58.25135 54.35677
# Shear Modulus (GPa) = 23.74976 25.85571 24.80273
#
# Velocity S-wave (km/s) = 3.60189 3.75820 3.68087
# Velocity P-wave (km/s) = 6.69805 7.11707 6.91073
#
# Compressibility (1/GPa) = 0.01981682
#
# Stress axis : x y z
#
# Youngs Moduli (GPa) = 37.02701 75.96888 50.17343
#
# Poissons Ratio (x) = 0.54488 0.38056
# Poissons Ratio (y) = 0.26557 0.27018
# Poissons Ratio (z) = 0.28085 0.40909
#
# Static dielectric constant tensor:
#      x y z
#    x 3.264910 0.000000 0.000000 
#    y 0.000000 3.745960 0.000000 
#    z 0.000000 0.000000 3.296820 
# 
# 
# High freq. dielectric constant tensor:
#      x y z
#    x 1.702830 0.000000 0.000000 
#    y 0.000000 1.720220 0.000000 
#    z 0.000000 0.000000 1.695340 
# 
# From -- ./inp_files/29191.got.cif
#   From: 2010.03.12/outbox.cif.g09.slc.cpg/sg59_15_cif.got.tgz:29191.got - 2010.04.16 16:29:54.
