data_PCOD8243035
_publ_section_title
;
Structure prediction by ZEFSAII (Michael W. Deem and Ramdas Pophale) SiO2 
 PCOD8243035
Probable space group: P M M N
;
_chemical_formula_sum "Si O2"
_cell_formula_units_Z 56
_cell_length_a 18.302610
_cell_length_b 8.637757
_cell_length_c 19.093419
_cell_angle_alpha 90.000000
_cell_angle_beta 90.000000
_cell_angle_gamma 90.000000
_cell_volume 3018.545392
_symmetry_space_group_name_H-M "P M M N"
_symmetry_group_IT_number 59
_space_group.IT_coordinate_system_code '2'
_symmetry_cell_setting 'orthorhombic'
loop_
_space_group_symop_operation_xyz
x,y,z
1/2-x,1/2-y,z
1/2+x,-y,-z
-x,1/2+y,-z
-x,-y,-z
1/2+x,1/2+y,-z
1/2-x,y,z
x,1/2-y,z
loop_
_atom_site_type_symbol
_atom_site_label
_atom_site_fract_x
_atom_site_fract_y
_atom_site_fract_z
Si Si1 0.580600 0.431576 0.405225
Si Si2 0.571518 0.066352 0.650597
Si Si3 0.329640 0.071260 0.874318
Si Si4 0.518757 0.931697 0.780246
Si Si5 0.125918 0.072553 0.726890
Si Si6 0.834150 0.567723 0.534697
Si Si7 0.473579 0.572512 0.929035
O O1 0.571614 0.250000 0.417273
O O2 0.501945 0.504737 0.387400
O O3 0.637766 0.465954 0.341612
O O4 0.612894 0.508384 0.474061
O O5 0.567945 0.250000 0.657789
O O6 0.583513 0.986658 0.728138
O O7 0.641854 0.016211 0.606138
O O8 0.250000 0.038965 0.908315
O O9 0.352499 0.250000 0.881896
O O10 0.321525 0.029223 0.791595
O O11 0.390156 0.971710 0.913180
O O12 0.500446 0.750000 0.768607
O O13 0.528383 0.965491 0.863528
O O14 0.454795 0.044238 0.755576
O O15 0.135850 0.250000 0.703306
O O16 0.750000 0.524114 0.518841
O O17 0.844379 0.750000 0.543320
O O18 0.474110 0.750000 0.944812
O O19 0.500000 0.500000 0.000000
#
# Coordination Sequence:
#
# PCOD8243035 Si02
#       7
#     8   8   8   8   8   8   8
#     4  11  21  34  53  77 106 137 174 217 259 307
#     4  11  21  35  57  80 103 133 172 216 260 309
#     4   9  18  32  50  73 104 141 176 210 252 306
#     4   9  17  31  51  76 102 129 165 205 248 297
#     4   9  16  28  47  72 101 133 169 205 247 299
#     4  11  24  40  55  72  99 135 174 219 271 320
#     4  10  20  33  53  80 109 140 173 213 256 302
#
# _framework density 18.551981999999999
#
# number of rings (size 3 to 8) (size 9 to 14) (size 15 to 20)
#    0.000    2.000    0.000    6.429    0.000    4.286 
#    0.000    1.429    0.000    0.857    0.000    6.000 
#    0.000    0.000    0.000    0.000    0.000    0.000 
#
# Total GULP energy -693884.647139 kJ/mol
# GULP energy per Si atom -12390.797270 kJ/mol
# Density = 1.850976 g / cm^3
# Si number density = 18.551982 Si / 1000 Ang^3
#
#
#
# Elastic Constant Matrix: (Units=GPa)
#
#
# Indices 1 2 3 4 5 6 
#
# 1 45.8529 32.1362 37.1768 0.0000 0.0000 0.0000
# 2 32.1362 83.0850 49.2273 0.0000 0.0000 0.0000
# 3 37.1768 49.2273 133.1384 0.0000 0.0000 0.0000
# 4 0.0000 0.0000 0.0000 34.3592 0.0000 0.0000
# 5 0.0000 0.0000 0.0000 0.0000 15.3566 0.0000
# 6 0.0000 0.0000 0.0000 0.0000 0.0000 21.7908
#
#
#
# Elastic Compliance Matrix: (Units=1/GPa)
#
#
# Indices 1 2 3 4 5 6 
#
# 1 0.033048 -0.009367 -0.005765 0.000000 0.000000 0.000000
# 2 -0.009367 0.018067 -0.004065 0.000000 0.000000 0.000000
# 3 -0.005765 -0.004065 0.010624 0.000000 0.000000 0.000000
# 4 0.000000 0.000000 0.000000 0.029104 0.000000 0.000000
# 5 0.000000 0.000000 0.000000 0.000000 0.065118 0.000000
# 6 0.000000 0.000000 0.000000 0.000000 0.000000 0.045891
#
#
# Mechanical properties :
#
#
# Convention : Reuss Voigt Hill
#
# Bulk Modulus (GPa) = 42.83411 55.46186 49.14799
# Shear Modulus (GPa) = 20.15916 23.87039 22.01478
#
# Velocity S-wave (km/s) = 3.29998 3.59092 3.44852
# Velocity P-wave (km/s) = 6.13667 6.86682 6.51199
#
# Compressibility (1/GPa) = 0.02334588
#
# Stress axis : x y z
#
# Youngs Moduli (GPa) = 30.25943 55.34908 94.13022
#
# Poissons Ratio (x) = 0.51845 0.54263
# Poissons Ratio (y) = 0.28343 0.38261
# Poissons Ratio (z) = 0.17444 0.22498
#
# Static dielectric constant tensor:
#      x y z
#    x 3.214270 0.000000 0.000000 
#    y 0.000000 3.485440 0.000000 
#    z 0.000000 0.000000 3.852590 
# 
# 
# High freq. dielectric constant tensor:
#      x y z
#    x 1.681370 0.000000 0.000000 
#    y 0.000000 1.733230 0.000000 
#    z 0.000000 0.000000 1.722220 
# 
# From -- ./inp_files/30633.got.cif
#   From: 2010.03.12/outbox.cif.g09.slc.cpg/sg59_16_cif.got.tgz:30633.got - 2010.04.16 16:29:54.
