data_PCOD8243288
_publ_section_title
;
Structure prediction by ZEFSAII (Michael W. Deem and Ramdas Pophale) SiO2 
 PCOD8243288
Probable space group: P M M N
;
_chemical_formula_sum "Si O2"
_cell_formula_units_Z 64
_cell_length_a 22.294133
_cell_length_b 9.294118
_cell_length_c 16.440048
_cell_angle_alpha 90.000000
_cell_angle_beta 90.000000
_cell_angle_gamma 90.000000
_cell_volume 3406.448684
_symmetry_space_group_name_H-M "P M M N"
_symmetry_group_IT_number 59
_space_group.IT_coordinate_system_code '2'
_symmetry_cell_setting 'orthorhombic'
loop_
_space_group_symop_operation_xyz
x,y,z
1/2-x,1/2-y,z
1/2+x,-y,-z
-x,1/2+y,-z
-x,-y,-z
1/2+x,1/2+y,-z
1/2-x,y,z
x,1/2-y,z
loop_
_atom_site_type_symbol
_atom_site_label
_atom_site_fract_x
_atom_site_fract_y
_atom_site_fract_z
Si Si1 0.916743 0.419418 0.712503
Si Si2 0.820830 0.583760 0.140159
Si Si3 0.353134 0.087775 0.564498
Si Si4 0.583127 0.083307 0.054230
Si Si5 0.989672 0.911443 0.420311
Si Si6 0.319666 0.418479 0.383651
Si Si7 0.682407 0.407160 0.291657
Si Si8 0.473164 0.584331 0.118443
O O1 0.905534 0.250000 0.706346
O O2 0.855446 0.498137 0.686685
O O3 0.934386 0.464916 0.803796
O O4 0.971388 0.471299 0.654636
O O5 0.750000 0.566692 0.126938
O O6 0.839717 0.750000 0.141121
O O7 0.854394 0.500170 0.067716
O O8 0.845515 0.513711 0.224306
O O9 0.327124 0.250000 0.571730
O O10 0.419825 0.080603 0.600900
O O11 0.347968 0.037586 0.470915
O O12 0.315738 0.979411 0.619654
O O13 0.590038 0.250000 0.078072
O O14 0.531758 0.014432 0.110956
O O15 0.568668 0.063278 0.959649
O O16 0.009877 0.750000 0.439986
O O17 0.000000 0.000000 0.500000
O O18 0.250000 0.463901 0.380682
O O19 0.327584 0.250000 0.367936
O O20 0.750000 0.380843 0.264561
O O21 0.649743 0.250000 0.293761
O O22 0.494106 0.750000 0.127438
#
# Coordination Sequence:
#
# PCOD8243288 Si02
#       8
#     8   8   8   8   8   8   8   8
#     4  10  21  37  57  82 110 143 182 227 276 325
#     4  10  21  37  57  80 110 149 186 223 274 336
#     4  10  20  34  53  77 106 145 186 221 270 328
#     4  10  20  36  59  87 113 142 181 226 278 331
#     4  10  20  34  53  78 107 140 178 221 268 320
#     4  10  21  37  56  77 106 147 191 234 277 323
#     4  10  21  35  51  77 111 143 181 226 265 312
#     4   9  20  38  59  83 114 147 181 225 278 338
#
# _framework density 18.787894999999999
#
# number of rings (size 3 to 8) (size 9 to 14) (size 15 to 20)
#    0.000    2.125    1.250    1.500    1.750    4.250 
#    0.000    0.625    0.000    3.750    0.000    0.000 
#    0.000    0.000    0.000    0.000    0.000    0.000 
#
# Total GULP energy -793580.928436 kJ/mol
# GULP energy per Si atom -12399.702007 kJ/mol
# Density = 1.874513 g / cm^3
# Si number density = 18.787895 Si / 1000 Ang^3
#
#
#
# Elastic Constant Matrix: (Units=GPa)
#
#
# Indices 1 2 3 4 5 6 
#
# 1 89.0665 46.8990 52.2693 0.0000 0.0000 0.0000
# 2 46.8990 110.3251 57.8009 0.0000 0.0000 0.0000
# 3 52.2693 57.8009 113.4480 0.0000 0.0000 0.0000
# 4 0.0000 0.0000 0.0000 31.3862 0.0000 0.0000
# 5 0.0000 0.0000 0.0000 0.0000 28.9249 0.0000
# 6 0.0000 0.0000 0.0000 0.0000 0.0000 32.6911
#
#
#
# Elastic Compliance Matrix: (Units=1/GPa)
#
#
# Indices 1 2 3 4 5 6 
#
# 1 0.016693 -0.004183 -0.005560 0.000000 0.000000 0.000000
# 2 -0.004183 0.013413 -0.004906 0.000000 0.000000 0.000000
# 3 -0.005560 -0.004906 0.013876 0.000000 0.000000 0.000000
# 4 0.000000 0.000000 0.000000 0.031861 0.000000 0.000000
# 5 0.000000 0.000000 0.000000 0.000000 0.034572 0.000000
# 6 0.000000 0.000000 0.000000 0.000000 0.000000 0.030589
#
#
# Mechanical properties :
#
#
# Convention : Reuss Voigt Hill
#
# Bulk Modulus (GPa) = 68.10555 69.64202 68.87378
# Shear Modulus (GPa) = 28.53913 28.99182 28.76547
#
# Velocity S-wave (km/s) = 3.90169 3.93251 3.91713
# Velocity P-wave (km/s) = 7.52502 7.60049 7.56285
#
# Compressibility (1/GPa) = 0.01468309
#
# Stress axis : x y z
#
# Youngs Moduli (GPa) = 59.90493 74.55448 72.06739
#
# Poissons Ratio (x) = 0.31189 0.40067
# Poissons Ratio (y) = 0.25061 0.35359
# Poissons Ratio (z) = 0.33305 0.36579
#
# Static dielectric constant tensor:
#      x y z
#    x 3.464010 0.000000 0.000000 
#    y 0.000000 3.557800 0.000000 
#    z 0.000000 0.000000 3.366060 
# 
# 
# High freq. dielectric constant tensor:
#      x y z
#    x 1.722160 0.000000 0.000000 
#    y 0.000000 1.734180 0.000000 
#    z 0.000000 0.000000 1.721890 
# 
# From -- ./inp_files/24669.got.cif
#   From: 2010.03.12/outbox.cif.g09.slc.cpg/sg59_13_cif.got.tgz:24669.got - 2010.04.16 16:29:54.
