data_PCOD8243725
_publ_section_title
;
Structure prediction by ZEFSAII (Michael W. Deem and Ramdas Pophale) SiO2 
 PCOD8243725
Probable space group: P M M N
;
_chemical_formula_sum "Si O2"
_cell_formula_units_Z 48
_cell_length_a 27.771195
_cell_length_b 8.942989
_cell_length_c 10.189134
_cell_angle_alpha 90.000000
_cell_angle_beta 90.000000
_cell_angle_gamma 90.000000
_cell_volume 2530.547760
_symmetry_space_group_name_H-M "P M M N"
_symmetry_group_IT_number 59
_space_group.IT_coordinate_system_code '2'
_symmetry_cell_setting 'orthorhombic'
loop_
_space_group_symop_operation_xyz
x,y,z
1/2-x,1/2-y,z
1/2+x,-y,-z
-x,1/2+y,-z
-x,-y,-z
1/2+x,1/2+y,-z
1/2-x,y,z
x,1/2-y,z
loop_
_atom_site_type_symbol
_atom_site_label
_atom_site_fract_x
_atom_site_fract_y
_atom_site_fract_z
Si Si1 0.355352 0.425812 0.266685
Si Si2 0.946252 0.575811 0.363079
Si Si3 0.862550 0.076883 0.232088
Si Si4 0.694174 0.421882 0.493949
Si Si5 0.694458 0.424173 0.974743
Si Si6 0.055604 0.924144 0.360968
O O1 0.360034 0.250000 0.257235
O O2 0.331985 0.470620 0.404421
O O3 0.322052 0.482968 0.150189
O O4 0.408991 0.496096 0.257434
O O5 0.938613 0.750000 0.392554
O O6 0.911100 0.520106 0.248024
O O7 0.933713 0.485096 0.493883
O O8 0.000887 0.542983 0.317774
O O9 0.877185 0.250000 0.225333
O O10 0.825896 0.045228 0.349893
O O11 0.836634 0.024535 0.099446
O O12 0.750000 0.461983 0.492427
O O13 0.685417 0.250000 0.535422
O O14 0.750000 0.460071 0.004377
O O15 0.687075 0.250000 0.944238
O O16 0.067478 0.750000 0.362869
#
# Coordination Sequence:
#
# PCOD8243725 Si02
#       6
#     8   8   8   8   8   8
#     4  12  24  37  56  85 117 151 194 242 293 341
#     4  10  20  34  57  89 120 149 185 235 293 346
#     4  10  20  36  60  87 115 151 194 237 284 344
#     4  10  20  35  57  84 113 147 189 237 287 344
#     4  10  22  41  62  83 113 157 201 237 282 345
#     4  10  20  36  58  84 116 154 193 233 284 346
#
# _framework density 18.968223999999999
#
# number of rings (size 3 to 8) (size 9 to 14) (size 15 to 20)
#    0.000    1.667    1.667    3.500    0.000    7.333 
#    0.000    0.833    0.000    3.000    0.000    0.000 
#    0.000    0.000    0.000    0.000    0.000    0.000 
#
# Total GULP energy -595421.540001 kJ/mol
# GULP energy per Si atom -12404.615417 kJ/mol
# Density = 1.892505 g / cm^3
# Si number density = 18.968224 Si / 1000 Ang^3
#
#
#
# Elastic Constant Matrix: (Units=GPa)
#
#
# Indices 1 2 3 4 5 6 
#
# 1 110.9055 46.9305 23.1981 0.0000 0.0000 0.0000
# 2 46.9305 93.4402 33.3444 0.0000 0.0000 0.0000
# 3 23.1981 33.3444 61.8054 0.0000 0.0000 0.0000
# 4 0.0000 0.0000 0.0000 12.2798 0.0000 0.0000
# 5 0.0000 0.0000 0.0000 0.0000 35.5290 0.0000
# 6 0.0000 0.0000 0.0000 0.0000 0.0000 29.7175
#
#
#
# Elastic Compliance Matrix: (Units=1/GPa)
#
#
# Indices 1 2 3 4 5 6 
#
# 1 0.011561 -0.005273 -0.001494 0.000000 0.000000 0.000000
# 2 -0.005273 0.015659 -0.006469 0.000000 0.000000 0.000000
# 3 -0.001494 -0.006469 0.020231 0.000000 0.000000 0.000000
# 4 0.000000 0.000000 0.000000 0.081435 0.000000 0.000000
# 5 0.000000 0.000000 0.000000 0.000000 0.028146 0.000000
# 6 0.000000 0.000000 0.000000 0.000000 0.000000 0.033650
#
#
# Mechanical properties :
#
#
# Convention : Reuss Voigt Hill
#
# Bulk Modulus (GPa) = 47.66977 52.56636 50.11806
# Shear Modulus (GPa) = 22.30688 26.35046 24.32867
#
# Velocity S-wave (km/s) = 3.43302 3.73123 3.58523
# Velocity P-wave (km/s) = 6.39532 6.80704 6.60439
#
# Compressibility (1/GPa) = 0.02097766
#
# Stress axis : x y z
#
# Youngs Moduli (GPa) = 86.50074 63.86151 49.42990
#
# Poissons Ratio (x) = 0.33675 0.07386
# Poissons Ratio (y) = 0.45613 0.31976
# Poissons Ratio (z) = 0.12926 0.41311
#
# Static dielectric constant tensor:
#      x y z
#    x 3.770080 0.000000 0.000000 
#    y 0.000000 3.462420 0.000000 
#    z 0.000000 0.000000 3.301210 
# 
# 
# High freq. dielectric constant tensor:
#      x y z
#    x 1.756940 0.000000 0.000000 
#    y 0.000000 1.735230 0.000000 
#    z 0.000000 0.000000 1.717110 
# 
# From -- ./inp_files/12927.got.cif
#   From: 2010.03.12/outbox.cif.g09.slc.cpg/sg59_7_cif.got.tgz:12927.got - 2010.04.16 16:29:54.
