data_PCOD8243241
_publ_section_title
;
Structure prediction by ZEFSAII (Michael W. Deem and Ramdas Pophale) SiO2 
 PCOD8243241
Probable space group: P M M N
;
_chemical_formula_sum "Si O2"
_cell_formula_units_Z 48
_cell_length_a 30.253242
_cell_length_b 9.196160
_cell_length_c 9.456574
_cell_angle_alpha 90.000000
_cell_angle_beta 90.000000
_cell_angle_gamma 90.000000
_cell_volume 2630.948006
_symmetry_space_group_name_H-M "P M M N"
_symmetry_group_IT_number 59
_space_group.IT_coordinate_system_code '2'
_symmetry_cell_setting 'orthorhombic'
loop_
_space_group_symop_operation_xyz
x,y,z
1/2-x,1/2-y,z
1/2+x,-y,-z
-x,1/2+y,-z
-x,-y,-z
1/2+x,1/2+y,-z
1/2-x,y,z
x,1/2-y,z
loop_
_atom_site_type_symbol
_atom_site_label
_atom_site_fract_x
_atom_site_fract_y
_atom_site_fract_z
Si Si1 0.542061 0.579323 0.330857
Si Si2 0.869160 0.922307 0.832511
Si Si3 0.198438 0.581997 0.354808
Si Si4 0.199444 0.080570 0.639770
Si Si5 0.875862 0.922084 0.151992
Si Si6 0.454322 0.080713 0.344278
O O1 0.535719 0.750000 0.309779
O O2 0.581237 0.516000 0.233247
O O3 0.554294 0.541045 0.492399
O O4 0.496725 0.503347 0.284210
O O5 0.861242 0.750000 0.825596
O O6 0.911942 0.969985 0.743849
O O7 0.826474 0.002333 0.771888
O O8 0.875362 0.979629 0.992152
O O9 0.250000 0.561574 0.324481
O O10 0.184723 0.750000 0.361167
O O11 0.185041 0.508654 0.502431
O O12 0.250000 0.048799 0.683094
O O13 0.191902 0.250000 0.604711
O O14 0.168853 0.027663 0.768962
O O15 0.878709 0.750000 0.153069
O O16 0.463615 0.250000 0.323506
#
# Coordination Sequence:
#
# PCOD8243241 Si02
#       6
#     8   8   8   8   8   8
#     4   9  17  31  50  70  97 133 169 207 250 294
#     4  10  20  34  53  76 103 135 169 207 251 299
#     4  10  21  36  53  75 103 133 167 208 251 297
#     4   9  17  32  55  78  99 128 167 208 249 295
#     4   9  18  32  51  77 105 132 167 210 252 296
#     4   9  18  32  50  73  99 128 167 211 249 290
#
# _framework density 18.244374000000001
#
# number of rings (size 3 to 8) (size 9 to 14) (size 15 to 20)
#    0.000    2.667    0.000    1.500    0.000    5.667 
#    0.000    7.500    0.000    2.000    0.000    0.000 
#    0.000    0.000    0.000    0.000    0.000    0.000 
#
# Total GULP energy -595301.100469 kJ/mol
# GULP energy per Si atom -12402.106260 kJ/mol
# Density = 1.820285 g / cm^3
# Si number density = 18.244374 Si / 1000 Ang^3
#
#
#
# Elastic Constant Matrix: (Units=GPa)
#
#
# Indices 1 2 3 4 5 6 
#
# 1 114.0592 41.5355 78.9189 0.0000 0.0000 0.0000
# 2 41.5355 44.7433 40.1132 0.0000 0.0000 0.0000
# 3 78.9189 40.1132 132.3024 0.0000 0.0000 0.0000
# 4 0.0000 0.0000 0.0000 12.3878 0.0000 0.0000
# 5 0.0000 0.0000 0.0000 0.0000 21.2576 0.0000
# 6 0.0000 0.0000 0.0000 0.0000 0.0000 29.6968
#
#
#
# Elastic Compliance Matrix: (Units=1/GPa)
#
#
# Indices 1 2 3 4 5 6 
#
# 1 0.017401 -0.009404 -0.007529 0.000000 0.000000 0.000000
# 2 -0.009404 0.035775 -0.005237 0.000000 0.000000 0.000000
# 3 -0.007529 -0.005237 0.013637 0.000000 0.000000 0.000000
# 4 0.000000 0.000000 0.000000 0.080725 0.000000 0.000000
# 5 0.000000 0.000000 0.000000 0.000000 0.047042 0.000000
# 6 0.000000 0.000000 0.000000 0.000000 0.000000 0.033674
#
#
# Mechanical properties :
#
#
# Convention : Reuss Voigt Hill
#
# Bulk Modulus (GPa) = 44.49686 68.02665 56.26176
# Shear Modulus (GPa) = 17.85183 21.37094 19.61138
#
# Velocity S-wave (km/s) = 3.13147 3.42624 3.28217
# Velocity P-wave (km/s) = 6.12512 7.28145 6.72817
#
# Compressibility (1/GPa) = 0.02247349
#
# Stress axis : x y z
#
# Youngs Moduli (GPa) = 57.46808 27.95274 73.32945
#
# Poissons Ratio (x) = 0.26287 0.55206
# Poissons Ratio (y) = 0.54043 0.38404
# Poissons Ratio (z) = 0.43265 0.14639
#
# Static dielectric constant tensor:
#      x y z
#    x 3.485490 0.000000 0.000000 
#    y 0.000000 3.147900 0.000000 
#    z 0.000000 0.000000 3.471340 
# 
# 
# High freq. dielectric constant tensor:
#      x y z
#    x 1.718000 0.000000 0.000000 
#    y 0.000000 1.682430 0.000000 
#    z 0.000000 0.000000 1.704380 
# 
# From -- ./inp_files/6244.got.cif
#   From: 2010.03.12/outbox.cif.g09.slc.cpg/sg59_4_cif.got.tgz:6244.got - 2010.04.16 16:29:54.
