data_PCOD8243676
_publ_section_title
;
Structure prediction by ZEFSAII (Michael W. Deem and Ramdas Pophale) SiO2 
 PCOD8243676
Probable space group: P M M N
;
_chemical_formula_sum "Si O2"
_cell_formula_units_Z 40
_cell_length_a 18.421913
_cell_length_b 8.727029
_cell_length_c 12.642863
_cell_angle_alpha 90.000000
_cell_angle_beta 90.000000
_cell_angle_gamma 90.000000
_cell_volume 2032.574992
_symmetry_space_group_name_H-M "P M M N"
_symmetry_group_IT_number 59
_space_group.IT_coordinate_system_code '2'
_symmetry_cell_setting 'orthorhombic'
loop_
_space_group_symop_operation_xyz
x,y,z
1/2-x,1/2-y,z
1/2+x,-y,-z
-x,1/2+y,-z
-x,-y,-z
1/2+x,1/2+y,-z
1/2-x,y,z
x,1/2-y,z
loop_
_atom_site_type_symbol
_atom_site_label
_atom_site_fract_x
_atom_site_fract_y
_atom_site_fract_z
Si Si1 0.420940 0.931133 0.988310
Si Si2 0.833463 0.929144 0.200827
Si Si3 0.067557 0.570883 0.375528
Si Si4 0.169194 0.931899 0.187620
Si Si5 0.414864 0.572017 0.615737
O O1 0.427514 0.750000 0.992327
O O2 0.384575 0.979525 0.878944
O O3 0.372223 0.994796 0.084620
O O4 0.500000 0.000000 0.000000
O O5 0.750000 0.974560 0.181188
O O6 0.846186 0.750000 0.184870
O O7 0.855367 0.976466 0.319545
O O8 0.048967 0.750000 0.362690
O O9 0.128193 0.514614 0.293409
O O10 0.097479 0.534605 0.492308
O O11 0.995435 0.476358 0.349761
O O12 0.250000 0.002599 0.189021
O O13 0.173177 0.750000 0.183619
O O14 0.404081 0.750000 0.640415
#
# Coordination Sequence:
#
# PCOD8243676 Si02
#       5
#     8   8   8   8   8
#     4  11  22  37  60  86 112 144 184 229 279 341
#     4  11  24  40  57  79 112 152 192 238 289 336
#     4   9  18  34  57  83 112 146 183 225 274 333
#     4   9  18  33  54  80 108 138 174 219 271 325
#     4  10  20  34  56  84 112 145 186 231 277 332
#
# _framework density 19.679470999999999
#
# number of rings (size 3 to 8) (size 9 to 14) (size 15 to 20)
#    0.000    2.000    0.000    3.600    0.000    5.600 
#    0.000    3.000    0.000    3.000    0.000    0.000 
#    0.000    0.000    0.000    0.000    0.000    0.000 
#
# Total GULP energy -496162.978624 kJ/mol
# GULP energy per Si atom -12404.074466 kJ/mol
# Density = 1.963468 g / cm^3
# Si number density = 19.679471 Si / 1000 Ang^3
#
#
#
# Elastic Constant Matrix: (Units=GPa)
#
#
# Indices 1 2 3 4 5 6 
#
# 1 131.0334 38.9055 61.8864 0.0000 0.0000 0.0000
# 2 38.9055 50.2869 27.2364 0.0000 0.0000 0.0000
# 3 61.8864 27.2364 112.3155 0.0000 0.0000 0.0000
# 4 0.0000 0.0000 0.0000 26.5942 0.0000 0.0000
# 5 0.0000 0.0000 0.0000 0.0000 34.8047 0.0000
# 6 0.0000 0.0000 0.0000 0.0000 0.0000 29.8347
#
#
#
# Elastic Compliance Matrix: (Units=1/GPa)
#
#
# Indices 1 2 3 4 5 6 
#
# 1 0.011925 -0.006524 -0.004989 0.000000 0.000000 0.000000
# 2 -0.006524 0.026462 -0.002822 0.000000 0.000000 0.000000
# 3 -0.004989 -0.002822 0.012337 0.000000 0.000000 0.000000
# 4 0.000000 0.000000 0.000000 0.037602 0.000000 0.000000
# 5 0.000000 0.000000 0.000000 0.000000 0.028732 0.000000
# 6 0.000000 0.000000 0.000000 0.000000 0.000000 0.033518
#
#
# Mechanical properties :
#
#
# Convention : Reuss Voigt Hill
#
# Bulk Modulus (GPa) = 45.34378 61.07694 53.21036
# Shear Modulus (GPa) = 26.79586 29.28721 28.04153
#
# Velocity S-wave (km/s) = 3.69401 3.86192 3.77890
# Velocity P-wave (km/s) = 6.42538 7.14067 6.79244
#
# Compressibility (1/GPa) = 0.02205374
#
# Stress axis : x y z
#
# Youngs Moduli (GPa) = 83.85913 37.79020 81.05962
#
# Poissons Ratio (x) = 0.24654 0.40437
# Poissons Ratio (y) = 0.54709 0.22877
# Poissons Ratio (z) = 0.41834 0.10665
#
# Static dielectric constant tensor:
#      x y z
#    x 3.441520 0.000000 0.000000 
#    y 0.000000 3.408500 0.000000 
#    z 0.000000 0.000000 3.801380 
# 
# 
# High freq. dielectric constant tensor:
#      x y z
#    x 1.771010 0.000000 0.000000 
#    y 0.000000 1.751390 0.000000 
#    z 0.000000 0.000000 1.781630 
# 
# From -- ./inp_files/13839.got.cif
#   From: 2010.03.12/outbox.cif.g09.slc.cpg/sg59_7_cif.got.tgz:13839.got - 2010.04.16 16:29:54.
