data_PCOD8243273
_publ_section_title
;
Structure prediction by ZEFSAII (Michael W. Deem and Ramdas Pophale) SiO2 
 PCOD8243273
Probable space group: P M M N
;
_chemical_formula_sum "Si O2"
_cell_formula_units_Z 64
_cell_length_a 9.184738
_cell_length_b 18.488979
_cell_length_c 20.610877
_cell_angle_alpha 90.000000
_cell_angle_beta 90.000000
_cell_angle_gamma 90.000000
_cell_volume 3500.065510
_symmetry_space_group_name_H-M "P M M N"
_symmetry_group_IT_number 59
_space_group.IT_coordinate_system_code '2'
_symmetry_cell_setting 'orthorhombic'
loop_
_space_group_symop_operation_xyz
x,y,z
1/2-x,1/2-y,z
1/2+x,-y,-z
-x,1/2+y,-z
-x,-y,-z
1/2+x,1/2+y,-z
1/2-x,y,z
x,1/2-y,z
loop_
_atom_site_type_symbol
_atom_site_label
_atom_site_fract_x
_atom_site_fract_y
_atom_site_fract_z
Si Si1 0.588020 0.663889 0.945560
Si Si2 0.577385 0.580319 0.320943
Si Si3 0.920867 0.929111 0.686050
Si Si4 0.923256 0.669556 0.803121
Si Si5 0.583711 0.667048 0.561961
Si Si6 0.581502 0.165367 0.566726
Si Si7 0.919789 0.667026 0.193714
Si Si8 0.913209 0.163794 0.932460
O O1 0.750000 0.632303 0.956017
O O2 0.594031 0.750000 0.949173
O O3 0.526314 0.641669 0.874466
O O4 0.486262 0.632012 0.002274
O O5 0.750000 0.578504 0.329629
O O6 0.515060 0.500465 0.318954
O O7 0.509230 0.622449 0.380666
O O8 0.530955 0.620754 0.255299
O O9 0.750000 0.947707 0.691523
O O10 0.978927 0.885698 0.748762
O O11 0.954734 0.881339 0.623381
O O12 0.750000 0.674244 0.801884
O O13 0.986522 0.750000 0.789150
O O14 0.750000 0.655344 0.539366
O O15 0.557137 0.750000 0.582152
O O16 0.478141 0.643486 0.503820
O O17 0.750000 0.143005 0.570763
O O18 0.558275 0.250000 0.579492
O O19 0.750000 0.659687 0.179214
O O20 0.963084 0.750000 0.207622
O O21 0.002589 0.635832 0.131009
O O22 0.750000 0.133744 0.929168
O O23 0.917233 0.250000 0.934394
#
# Coordination Sequence:
#
# PCOD8243273 Si02
#       8
#     8   8   8   8   8   8   8   8
#     4   8  13  23  42  68  97 128 162 201 245 295
#     4  11  23  37  53  74 103 138 172 207 250 303
#     4  10  20  34  53  77 105 136 171 212 253 294
#     4   8  14  27  50  77 101 130 171 213 251 296
#     4   9  18  34  57  82 106 134 168 206 250 300
#     4  10  21  37  58  82 105 130 164 208 254 299
#     4   9  18  33  52  71  92 124 166 207 247 296
#     4   9  16  25  41  69 101 127 154 197 252 301
#
# _framework density 18.285371999999999
#
# number of rings (size 3 to 8) (size 9 to 14) (size 15 to 20)
#    0.000    2.750    0.000    2.625    0.000    6.250 
#    0.000    1.875    0.000    2.625    0.000    0.000 
#    0.000    0.000    0.000    0.000    0.000    0.000 
#
# Total GULP energy -793534.457635 kJ/mol
# GULP energy per Si atom -12398.975901 kJ/mol
# Density = 1.824375 g / cm^3
# Si number density = 18.285372 Si / 1000 Ang^3
#
#
#
# Elastic Constant Matrix: (Units=GPa)
#
#
# Indices 1 2 3 4 5 6 
#
# 1 83.3681 45.0868 75.0248 0.0000 0.0000 0.0000
# 2 45.0868 66.7183 72.3261 0.0000 0.0000 0.0000
# 3 75.0248 72.3261 174.8493 0.0000 0.0000 0.0000
# 4 0.0000 0.0000 0.0000 -1.4656 0.0000 0.0000
# 5 0.0000 0.0000 0.0000 0.0000 18.6812 0.0000
# 6 0.0000 0.0000 0.0000 0.0000 0.0000 21.3272
#
#
#
# Elastic Compliance Matrix: (Units=1/GPa)
#
#
# Indices 1 2 3 4 5 6 
#
# 1 0.021829 -0.008336 -0.005918 0.000000 0.000000 0.000000
# 2 -0.008336 0.030357 -0.008980 0.000000 0.000000 0.000000
# 3 -0.005918 -0.008980 0.011973 0.000000 0.000000 0.000000
# 4 0.000000 0.000000 0.000000 -0.682333 0.000000 0.000000
# 5 0.000000 0.000000 0.000000 0.000000 0.053530 0.000000
# 6 0.000000 0.000000 0.000000 0.000000 0.000000 0.046888
#
#
# Mechanical properties :
#
#
# Convention : Reuss Voigt Hill
#
# Bulk Modulus (GPa) = 56.52831 78.86789 67.69810
# Shear Modulus (GPa) = -10.74369 16.54178 2.89905
#
# Velocity S-wave (km/s) = -2.42659 3.01100 1.26051
# Velocity P-wave (km/s) = 4.80942 7.43730 6.26275
#
# Compressibility (1/GPa) = 0.01769025
#
# Stress axis : x y z
#
# Youngs Moduli (GPa) = 45.80993 32.94182 83.51877
#
# Poissons Ratio (x) = 0.27460 0.49430
# Poissons Ratio (y) = 0.38186 0.75001
# Poissons Ratio (z) = 0.27113 0.29582
#
# Static dielectric constant tensor:
#      x y z
#    x 3.313240 0.000000 0.000000 
#    y 0.000000 3.124550 0.000000 
#    z 0.000000 0.000000 3.664770 
# 
# 
# High freq. dielectric constant tensor:
#      x y z
#    x 1.696110 0.000000 0.000000 
#    y 0.000000 1.675760 0.000000 
#    z 0.000000 0.000000 1.726810 
# 
# From -- ./inp_files/29459.got.cif
#   From: 2010.03.12/outbox.cif.g09.slc.cpg/sg59_15_cif.got.tgz:29459.got - 2010.04.16 16:29:54.
