data_PCOD8243563
_publ_section_title
;
Structure prediction by ZEFSAII (Michael W. Deem and Ramdas Pophale) SiO2 
 PCOD8243563
Probable space group: P M M N
;
_chemical_formula_sum "Si O2"
_cell_formula_units_Z 56
_cell_length_a 8.939916
_cell_length_b 19.258827
_cell_length_c 17.314295
_cell_angle_alpha 90.000000
_cell_angle_beta 90.000000
_cell_angle_gamma 90.000000
_cell_volume 2981.041918
_symmetry_space_group_name_H-M "P M M N"
_symmetry_group_IT_number 59
_space_group.IT_coordinate_system_code '2'
_symmetry_cell_setting 'orthorhombic'
loop_
_space_group_symop_operation_xyz
x,y,z
1/2-x,1/2-y,z
1/2+x,-y,-z
-x,1/2+y,-z
-x,-y,-z
1/2+x,1/2+y,-z
1/2-x,y,z
x,1/2-y,z
loop_
_atom_site_type_symbol
_atom_site_label
_atom_site_fract_x
_atom_site_fract_y
_atom_site_fract_z
Si Si1 0.924336 0.588156 0.818395
Si Si2 0.075065 0.566305 0.228623
Si Si3 0.579545 0.670734 0.669412
Si Si4 0.425970 0.670695 0.953692
Si Si5 0.424007 0.330555 0.886848
Si Si6 0.422963 0.901736 0.538476
Si Si7 0.076302 0.051618 0.608235
O O1 0.750000 0.604186 0.832223
O O2 0.958121 0.506599 0.813363
O O3 0.980183 0.623721 0.739447
O O4 0.018730 0.619215 0.887928
O O5 0.250000 0.581713 0.231506
O O6 0.993955 0.626975 0.182902
O O7 0.014421 0.566857 0.314975
O O8 0.750000 0.650377 0.649107
O O9 0.565953 0.750000 0.696014
O O10 0.478883 0.659657 0.593829
O O11 0.250000 0.663110 0.962956
O O12 0.471884 0.750000 0.933552
O O13 0.500050 0.646548 0.033365
O O14 0.250000 0.347573 0.893243
O O15 0.454388 0.250000 0.869612
O O16 0.250000 0.891660 0.518448
O O17 0.515449 0.898186 0.459078
O O18 0.454319 0.972884 0.583578
O O19 0.250000 0.067006 0.622222
#
# Coordination Sequence:
#
# PCOD8243563 Si02
#       7
#     8   8   8   8   8   8   8
#     4  10  21  36  56  83 116 153 192 230 279 340
#     4  11  22  37  60  88 117 147 186 237 285 334
#     4  10  20  35  55  80 115 156 194 234 280 335
#     4  10  21  37  58  84 114 150 193 238 282 331
#     4  10  22  41  63  84 110 147 188 231 286 349
#     4  10  20  34  55  81 110 146 188 233 278 329
#     4  10  20  35  57  82 111 146 185 229 279 335
#
# _framework density 18.785378000000001
#
# number of rings (size 3 to 8) (size 9 to 14) (size 15 to 20)
#    0.000    1.857    1.429    2.571    0.000    6.000 
#    0.000    0.714    0.000    4.286    0.000    0.000 
#    0.000    0.000    0.000    0.000    0.000    0.000 
#
# Total GULP energy -694698.001522 kJ/mol
# GULP energy per Si atom -12405.321456 kJ/mol
# Density = 1.874262 g / cm^3
# Si number density = 18.785378 Si / 1000 Ang^3
#
#
#
# Elastic Constant Matrix: (Units=GPa)
#
#
# Indices 1 2 3 4 5 6 
#
# 1 60.6243 35.1658 33.7166 0.0000 0.0000 0.0000
# 2 35.1658 60.4900 36.7728 0.0000 0.0000 0.0000
# 3 33.7166 36.7728 93.1029 0.0000 0.0000 0.0000
# 4 0.0000 0.0000 0.0000 26.0377 0.0000 0.0000
# 5 0.0000 0.0000 0.0000 0.0000 40.5802 0.0000
# 6 0.0000 0.0000 0.0000 0.0000 0.0000 29.1278
#
#
#
# Elastic Compliance Matrix: (Units=1/GPa)
#
#
# Indices 1 2 3 4 5 6 
#
# 1 0.026296 -0.012499 -0.004586 0.000000 0.000000 0.000000
# 2 -0.012499 0.027696 -0.006413 0.000000 0.000000 0.000000
# 3 -0.004586 -0.006413 0.014934 0.000000 0.000000 0.000000
# 4 0.000000 0.000000 0.000000 0.038406 0.000000 0.000000
# 5 0.000000 0.000000 0.000000 0.000000 0.024643 0.000000
# 6 0.000000 0.000000 0.000000 0.000000 0.000000 0.034332
#
#
# Mechanical properties :
#
#
# Convention : Reuss Voigt Hill
#
# Bulk Modulus (GPa) = 45.59798 47.28086 46.43942
# Shear Modulus (GPa) = 22.66412 26.38659 24.52535
#
# Velocity S-wave (km/s) = 3.47721 3.75191 3.61717
# Velocity P-wave (km/s) = 6.35980 6.63270 6.49769
#
# Compressibility (1/GPa) = 0.02193079
#
# Stress axis : x y z
#
# Youngs Moduli (GPa) = 38.02873 36.10576 66.95913
#
# Poissons Ratio (x) = 0.45129 0.30708
# Poissons Ratio (y) = 0.47533 0.42939
# Poissons Ratio (z) = 0.17440 0.23154
#
# Static dielectric constant tensor:
#      x y z
#    x 3.489850 0.000000 0.000000 
#    y 0.000000 3.355460 0.000000 
#    z 0.000000 0.000000 3.464250 
# 
# 
# High freq. dielectric constant tensor:
#      x y z
#    x 1.739460 0.000000 0.000000 
#    y 0.000000 1.716290 0.000000 
#    z 0.000000 0.000000 1.736320 
# 
# From -- ./inp_files/20894.got.cif
#   From: 2010.03.12/outbox.cif.g09.slc.cpg/sg59_11_cif.got.tgz:20894.got - 2010.04.16 16:29:54.
