data_PCOD8243637
_publ_section_title
;
Structure prediction by ZEFSAII (Michael W. Deem and Ramdas Pophale) SiO2 
 PCOD8243637
Probable space group: P M M N
;
_chemical_formula_sum "Si O2"
_cell_formula_units_Z 56
_cell_length_a 13.552254
_cell_length_b 9.174508
_cell_length_c 23.459267
_cell_angle_alpha 90.000000
_cell_angle_beta 90.000000
_cell_angle_gamma 90.000000
_cell_volume 2916.814126
_symmetry_space_group_name_H-M "P M M N"
_symmetry_group_IT_number 59
_space_group.IT_coordinate_system_code '2'
_symmetry_cell_setting 'orthorhombic'
loop_
_space_group_symop_operation_xyz
x,y,z
1/2-x,1/2-y,z
1/2+x,-y,-z
-x,1/2+y,-z
-x,-y,-z
1/2+x,1/2+y,-z
1/2-x,y,z
x,1/2-y,z
loop_
_atom_site_type_symbol
_atom_site_label
_atom_site_fract_x
_atom_site_fract_y
_atom_site_fract_z
Si Si1 0.634982 0.419054 0.637007
Si Si2 0.136284 0.918857 0.585242
Si Si3 0.867558 0.915765 0.524245
Si Si4 0.039728 0.079437 0.915677
Si Si5 0.864576 0.418813 0.188848
Si Si6 0.020673 0.920240 0.697699
Si Si7 0.637155 0.579938 0.964965
O O1 0.750000 0.445127 0.647019
O O2 0.609714 0.250000 0.629842
O O3 0.595262 0.503310 0.581086
O O4 0.579906 0.486787 0.692045
O O5 0.250000 0.959789 0.591404
O O6 0.120801 0.750000 0.571655
O O7 0.088536 0.965314 0.644612
O O8 0.088291 0.006340 0.532108
O O9 0.750000 0.925180 0.521902
O O10 0.905427 0.750000 0.526806
O O11 0.024772 0.250000 0.907212
O O12 0.097636 0.016312 0.862454
O O13 0.105685 0.042472 0.970695
O O14 0.931582 0.007497 0.920981
O O15 0.750000 0.450476 0.200036
O O16 0.882424 0.250000 0.173906
O O17 0.923695 0.465800 0.245013
O O18 0.994819 0.750000 0.697623
O O19 0.750000 0.530194 0.956077
O O20 0.623987 0.750000 0.952197
#
# Coordination Sequence:
#
# PCOD8243637 Si02
#       7
#     8   8   8   8   8   8   8
#     4  10  21  37  55  74  98 130 169 215 267 320
#     4   9  17  31  51  75 104 134 164 205 258 312
#     4   9  17  30  50  75 101 130 166 208 256 314
#     4  10  20  34  55  85 118 150 187 229 273 320
#     4  10  21  38  59  82 110 145 183 220 261 316
#     4  10  21  36  55  78 102 133 175 218 260 309
#     4   9  18  34  56  83 117 154 190 229 272 318
#
# _framework density 19.199028999999999
#
# number of rings (size 3 to 8) (size 9 to 14) (size 15 to 20)
#    0.000    2.429    0.000    2.143    0.000    7.714 
#    0.000    0.714    0.000    3.429    0.000    0.000 
#    0.000    0.000    0.000    0.000    0.000    0.000 
#
# Total GULP energy -694563.802842 kJ/mol
# GULP energy per Si atom -12402.925051 kJ/mol
# Density = 1.915533 g / cm^3
# Si number density = 19.199029 Si / 1000 Ang^3
#
#
#
# Elastic Constant Matrix: (Units=GPa)
#
#
# Indices 1 2 3 4 5 6 
#
# 1 68.5752 40.0039 29.6528 0.0000 0.0000 0.0000
# 2 40.0039 86.1239 46.5612 0.0000 0.0000 0.0000
# 3 29.6528 46.5612 85.2084 0.0000 0.0000 0.0000
# 4 0.0000 0.0000 0.0000 33.7029 0.0000 0.0000
# 5 0.0000 0.0000 0.0000 0.0000 33.9851 0.0000
# 6 0.0000 0.0000 0.0000 0.0000 0.0000 27.9164
#
#
#
# Elastic Compliance Matrix: (Units=1/GPa)
#
#
# Indices 1 2 3 4 5 6 
#
# 1 0.020441 -0.008017 -0.002733 0.000000 0.000000 0.000000
# 2 -0.008017 0.019624 -0.007933 0.000000 0.000000 0.000000
# 3 -0.002733 -0.007933 0.017022 0.000000 0.000000 0.000000
# 4 0.000000 0.000000 0.000000 0.029671 0.000000 0.000000
# 5 0.000000 0.000000 0.000000 0.000000 0.029425 0.000000
# 6 0.000000 0.000000 0.000000 0.000000 0.000000 0.035821
#
#
# Mechanical properties :
#
#
# Convention : Reuss Voigt Hill
#
# Bulk Modulus (GPa) = 50.70826 52.48260 51.59543
# Shear Modulus (GPa) = 25.51743 27.36686 26.44214
#
# Velocity S-wave (km/s) = 3.64964 3.77958 3.71518
# Velocity P-wave (km/s) = 6.65049 6.81487 6.73318
#
# Compressibility (1/GPa) = 0.01972065
#
# Stress axis : x y z
#
# Youngs Moduli (GPa) = 48.92090 50.95741 58.74770
#
# Poissons Ratio (x) = 0.40855 0.16053
# Poissons Ratio (y) = 0.39222 0.46607
# Poissons Ratio (z) = 0.13368 0.40426
#
# Static dielectric constant tensor:
#      x y z
#    x 3.634370 0.000000 0.000000 
#    y 0.000000 3.487630 0.000000 
#    z 0.000000 0.000000 3.421720 
# 
# 
# High freq. dielectric constant tensor:
#      x y z
#    x 1.758810 0.000000 0.000000 
#    y 0.000000 1.744760 0.000000 
#    z 0.000000 0.000000 1.732250 
# 
# From -- ./inp_files/29139.got.cif
#   From: 2010.03.12/outbox.cif.g09.slc.cpg/sg59_15_cif.got.tgz:29139.got - 2010.04.16 16:29:54.
