data_PCOD8243163
_publ_section_title
;
Structure prediction by ZEFSAII (Michael W. Deem and Ramdas Pophale) SiO2 
 PCOD8243163
Probable space group: P M M N
;
_chemical_formula_sum "Si O2"
_cell_formula_units_Z 56
_cell_length_a 15.835200
_cell_length_b 9.217654
_cell_length_c 21.041124
_cell_angle_alpha 90.000000
_cell_angle_beta 90.000000
_cell_angle_gamma 90.000000
_cell_volume 3071.233886
_symmetry_space_group_name_H-M "P M M N"
_symmetry_group_IT_number 59
_space_group.IT_coordinate_system_code '2'
_symmetry_cell_setting 'orthorhombic'
loop_
_space_group_symop_operation_xyz
x,y,z
1/2-x,1/2-y,z
1/2+x,-y,-z
-x,1/2+y,-z
-x,-y,-z
1/2+x,1/2+y,-z
1/2-x,y,z
x,1/2-y,z
loop_
_atom_site_type_symbol
_atom_site_label
_atom_site_fract_x
_atom_site_fract_y
_atom_site_fract_z
Si Si1 0.658881 0.579175 0.128497
Si Si2 0.750000 0.577518 0.906019
Si Si3 0.750000 0.577477 0.759061
Si Si4 0.653846 0.586887 0.369261
Si Si5 0.415174 0.079075 0.310818
Si Si6 0.409299 0.079443 0.007509
Si Si7 0.509681 0.079370 0.433958
Si Si8 0.940814 0.585741 0.244557
O O1 0.750000 0.509319 0.142902
O O2 0.663233 0.750000 0.139500
O O3 0.636166 0.540716 0.057421
O O4 0.590679 0.517999 0.178046
O O5 0.750000 0.750000 0.910316
O O6 0.750000 0.520878 0.832439
O O7 0.660555 0.525353 0.939310
O O8 0.750000 0.750000 0.761653
O O9 0.672247 0.518061 0.716967
O O10 0.750000 0.545377 0.382116
O O11 0.633791 0.750000 0.394515
O O12 0.598951 0.468534 0.405690
O O13 0.636185 0.580234 0.294260
O O14 0.418438 0.250000 0.305428
O O15 0.434699 0.033874 0.384292
O O16 0.484749 0.017528 0.264499
O O17 0.427554 0.250000 0.016574
O O18 0.500000 0.000000 0.000000
O O19 0.510039 0.250000 0.445750
O O20 0.500000 0.000000 0.500000
O O21 0.975111 0.750000 0.237716
#
# Coordination Sequence:
#
# PCOD8243163 Si02
#       8
#     8   4   4   8   8   8   8   8
#     4   9  16  29  49  72 100 133 170 209 253 310
#     4   9  18  34  55  77 103 142 185 222 266 325
#     4   9  18  34  55  75  99 134 181 224 254 297
#     4   9  17  31  51  76 102 131 169 205 244 301
#     4   9  19  35  54  76 101 133 173 215 256 304
#     4  10  20  34  52  75 102 136 178 222 268 319
#     4  10  20  35  54  77 106 137 169 208 259 309
#     4   9  17  29  50  76 102 131 164 207 256 305
#
# _framework density 18.233713999999999
#
# number of rings (size 3 to 8) (size 9 to 14) (size 15 to 20)
#    0.000    2.714    0.714    0.857    2.000    2.571 
#    1.286    0.714    0.000    3.000    0.000    0.000 
#    0.000    0.000    0.000    0.000    0.000    0.000 
#
# Total GULP energy -693757.831763 kJ/mol
# GULP energy per Si atom -12388.532710 kJ/mol
# Density = 1.819221 g / cm^3
# Si number density = 18.233714 Si / 1000 Ang^3
#
#
#
# Elastic Constant Matrix: (Units=GPa)
#
#
# Indices 1 2 3 4 5 6 
#
# 1 137.6012 29.5633 72.6774 0.0000 0.0000 0.0000
# 2 29.5633 21.7169 34.2935 0.0000 0.0000 0.0000
# 3 72.6774 34.2935 141.2945 0.0000 0.0000 0.0000
# 4 0.0000 0.0000 0.0000 17.8608 0.0000 0.0000
# 5 0.0000 0.0000 0.0000 0.0000 9.6824 0.0000
# 6 0.0000 0.0000 0.0000 0.0000 0.0000 25.7074
#
#
#
# Elastic Compliance Matrix: (Units=1/GPa)
#
#
# Indices 1 2 3 4 5 6 
#
# 1 0.011160 -0.009936 -0.003329 0.000000 0.000000 0.000000
# 2 -0.009936 0.083508 -0.015158 0.000000 0.000000 0.000000
# 3 -0.003329 -0.015158 0.012469 0.000000 0.000000 0.000000
# 4 0.000000 0.000000 0.000000 0.055989 0.000000 0.000000
# 5 0.000000 0.000000 0.000000 0.000000 0.103280 0.000000
# 6 0.000000 0.000000 0.000000 0.000000 0.000000 0.038899
#
#
# Mechanical properties :
#
#
# Convention : Reuss Voigt Hill
#
# Bulk Modulus (GPa) = 19.88371 63.74236 41.81304
# Shear Modulus (GPa) = 13.19561 21.58868 17.39214
#
# Velocity S-wave (km/s) = 2.69307 3.44466 3.09179
# Velocity P-wave (km/s) = 4.53859 7.13129 5.97721
#
# Compressibility (1/GPa) = 0.05029242
#
# Stress axis : x y z
#
# Youngs Moduli (GPa) = 89.60286 11.97489 80.20096
#
# Poissons Ratio (x) = 0.11898 0.26699
# Poissons Ratio (y) = 0.89026 1.21566
# Poissons Ratio (z) = 0.29829 0.18151
#
# Static dielectric constant tensor:
#      x y z
#    x 3.550660 0.000000 0.000000 
#    y 0.000000 3.204310 0.000000 
#    z 0.000000 0.000000 3.713550 
# 
# 
# High freq. dielectric constant tensor:
#      x y z
#    x 1.711140 0.000000 0.000000 
#    y 0.000000 1.670780 0.000000 
#    z 0.000000 0.000000 1.714600 
# 
# From -- ./inp_files/30518.got.cif
#   From: 2010.03.12/outbox.cif.g09.slc.cpg/sg59_16_cif.got.tgz:30518.got - 2010.04.16 16:29:54.
