data_PCOD8243998
_publ_section_title
;
Structure prediction by ZEFSAII (Michael W. Deem and Ramdas Pophale) SiO2 
 PCOD8243998
Probable space group: P M M N
;
_chemical_formula_sum "Si O2"
_cell_formula_units_Z 64
_cell_length_a 23.952027
_cell_length_b 8.883540
_cell_length_c 15.048495
_cell_angle_alpha 90.000000
_cell_angle_beta 90.000000
_cell_angle_gamma 90.000000
_cell_volume 3202.000556
_symmetry_space_group_name_H-M "P M M N"
_symmetry_group_IT_number 59
_space_group.IT_coordinate_system_code '2'
_symmetry_cell_setting 'orthorhombic'
loop_
_space_group_symop_operation_xyz
x,y,z
1/2-x,1/2-y,z
1/2+x,-y,-z
-x,1/2+y,-z
-x,-y,-z
1/2+x,1/2+y,-z
1/2-x,y,z
x,1/2-y,z
loop_
_atom_site_type_symbol
_atom_site_label
_atom_site_fract_x
_atom_site_fract_y
_atom_site_fract_z
Si Si1 0.187295 0.928870 0.015880
Si Si2 0.114418 0.573422 0.179786
Si Si3 0.186142 0.422403 0.697453
Si Si4 0.003718 0.072197 0.903537
Si Si5 0.632772 0.426879 0.455034
Si Si6 0.383937 0.571339 0.848531
Si Si7 0.601944 0.926644 0.641712
Si Si8 0.985649 0.422016 0.410808
O O1 0.250000 0.995341 0.010698
O O2 0.188908 0.750000 0.012828
O O3 0.158135 0.984499 0.106125
O O4 0.151041 0.987979 0.933161
O O5 0.120280 0.750000 0.195676
O O6 0.131729 0.490539 0.270858
O O7 0.052286 0.530566 0.149215
O O8 0.250000 0.435241 0.728048
O O9 0.165654 0.250000 0.700359
O O10 0.181889 0.486871 0.596677
O O11 0.149085 0.525009 0.761116
O O12 0.010739 0.250000 0.914282
O O13 0.055343 0.004727 0.848495
O O14 0.000000 0.000000 0.000000
O O15 0.645668 0.250000 0.463110
O O16 0.625408 0.492155 0.553876
O O17 0.578820 0.460019 0.389499
O O18 0.392187 0.750000 0.849708
O O19 0.613822 0.750000 0.632252
O O20 0.535243 0.963337 0.658012
O O21 0.990249 0.250000 0.434656
O O22 0.000000 0.500000 0.500000
#
# Coordination Sequence:
#
# PCOD8243998 Si02
#       8
#     8   8   8   8   8   8   8   8
#     4   9  18  36  61  85 112 150 198 249 294 343
#     4  10  21  37  56  85 121 158 203 250 297 358
#     4  11  25  43  61  87 123 160 202 255 312 367
#     4  11  22  38  59  89 126 164 203 250 311 371
#     4  10  20  37  60  85 113 150 199 246 294 355
#     4  11  22  39  63  91 121 157 203 250 305 372
#     4  10  20  35  56  84 118 156 195 240 300 355
#     4   8  16  30  49  76 106 138 179 228 277 337
#
# _framework density 19.987504999999999
#
# number of rings (size 3 to 8) (size 9 to 14) (size 15 to 20)
#    0.000    2.000    1.250    2.250    1.750    3.500 
#    0.000    0.625    0.000    4.125    0.000    0.000 
#    0.000    0.000    0.000    0.000    0.000    0.000 
#
# Total GULP energy -793232.378889 kJ/mol
# GULP energy per Si atom -12394.255920 kJ/mol
# Density = 1.994201 g / cm^3
# Si number density = 19.987505 Si / 1000 Ang^3
#
#
#
# Elastic Constant Matrix: (Units=GPa)
#
#
# Indices 1 2 3 4 5 6 
#
# 1 89.4348 26.3210 28.8889 0.0000 0.0000 0.0000
# 2 26.3210 62.8989 30.0364 0.0000 0.0000 0.0000
# 3 28.8889 30.0364 103.8859 0.0000 0.0000 0.0000
# 4 0.0000 0.0000 0.0000 33.5544 0.0000 0.0000
# 5 0.0000 0.0000 0.0000 0.0000 27.3723 0.0000
# 6 0.0000 0.0000 0.0000 0.0000 0.0000 23.1568
#
#
#
# Elastic Compliance Matrix: (Units=1/GPa)
#
#
# Indices 1 2 3 4 5 6 
#
# 1 0.013255 -0.004393 -0.002416 0.000000 0.000000 0.000000
# 2 -0.004393 0.019901 -0.004532 0.000000 0.000000 0.000000
# 3 -0.002416 -0.004532 0.011608 0.000000 0.000000 0.000000
# 4 0.000000 0.000000 0.000000 0.029802 0.000000 0.000000
# 5 0.000000 0.000000 0.000000 0.000000 0.036533 0.000000
# 6 0.000000 0.000000 0.000000 0.000000 0.000000 0.043184
#
#
# Mechanical properties :
#
#
# Convention : Reuss Voigt Hill
#
# Bulk Modulus (GPa) = 45.28635 47.41248 46.34942
# Shear Modulus (GPa) = 27.12582 28.21491 27.67036
#
# Velocity S-wave (km/s) = 3.68793 3.76124 3.72477
# Velocity P-wave (km/s) = 6.39070 6.52956 6.46050
#
# Compressibility (1/GPa) = 0.02208171
#
# Stress axis : x y z
#
# Youngs Moduli (GPa) = 75.44600 50.24818 86.14628
#
# Poissons Ratio (x) = 0.22074 0.20811
# Poissons Ratio (y) = 0.33143 0.39045
# Poissons Ratio (z) = 0.18226 0.22774
#
# Static dielectric constant tensor:
#      x y z
#    x 3.894290 0.000000 0.000000 
#    y 0.000000 3.509630 0.000000 
#    z 0.000000 0.000000 3.543690 
# 
# 
# High freq. dielectric constant tensor:
#      x y z
#    x 1.775530 0.000000 0.000000 
#    y 0.000000 1.773820 0.000000 
#    z 0.000000 0.000000 1.781330 
# 
# From -- ./inp_files/24664.got.cif
#   From: 2010.03.12/outbox.cif.g09.slc.cpg/sg59_13_cif.got.tgz:24664.got - 2010.04.16 16:29:54.
