data_PCOD8243970
_publ_section_title
;
Structure prediction by ZEFSAII (Michael W. Deem and Ramdas Pophale) SiO2 
 PCOD8243970
Probable space group: P M M N
;
_chemical_formula_sum "Si O2"
_cell_formula_units_Z 48
_cell_length_a 8.662536
_cell_length_b 16.195371
_cell_length_c 17.937756
_cell_angle_alpha 90.000000
_cell_angle_beta 90.000000
_cell_angle_gamma 90.000000
_cell_volume 2516.541321
_symmetry_space_group_name_H-M "P M M N"
_symmetry_group_IT_number 59
_space_group.IT_coordinate_system_code '2'
_symmetry_cell_setting 'orthorhombic'
loop_
_space_group_symop_operation_xyz
x,y,z
1/2-x,1/2-y,z
1/2+x,-y,-z
-x,1/2+y,-z
-x,-y,-z
1/2+x,1/2+y,-z
1/2-x,y,z
x,1/2-y,z
loop_
_atom_site_type_symbol
_atom_site_label
_atom_site_fract_x
_atom_site_fract_y
_atom_site_fract_z
Si Si1 0.072409 0.155939 0.664783
Si Si2 0.071123 0.984909 0.420414
Si Si3 0.433401 0.422856 0.275529
Si Si4 0.929215 0.565453 0.185151
Si Si5 0.432071 0.586573 0.028985
Si Si6 0.067760 0.250000 0.216843
Si Si7 0.065804 0.250000 0.047894
O O1 0.250000 0.138474 0.644809
O O2 0.026337 0.250000 0.654564
O O3 0.038605 0.130926 0.749637
O O4 0.967182 0.106919 0.606735
O O5 0.250000 0.996741 0.430246
O O6 0.009253 0.049147 0.357667
O O7 0.000000 0.000000 0.500000
O O8 0.250000 0.434560 0.267119
O O9 0.516259 0.475516 0.211508
O O10 0.488997 0.329429 0.262932
O O11 0.750000 0.561922 0.162299
O O12 0.030259 0.595342 0.115991
O O13 0.250000 0.586421 0.015610
O O14 0.500000 0.500000 0.000000
O O15 0.503942 0.666147 0.988869
O O16 0.250000 0.250000 0.211956
O O17 0.004101 0.250000 0.132800
O O18 0.250000 0.250000 0.042018
#
# Coordination Sequence:
#
# PCOD8243970 Si02
#       7
#     8   8   8   8   8   4   4
#     4   9  19  36  58  84 111 146 188 231 284 344
#     4  10  20  35  56  82 116 151 186 231 281 337
#     4   9  18  35  58  83 109 147 192 235 283 342
#     4  10  20  35  58  84 113 149 189 237 291 350
#     4  12  25  41  59  85 119 159 203 250 301 357
#     4   9  18  35  59  81 104 137 188 237 279 334
#     4  11  23  39  61  89 120 155 192 247 309 364
#
# _framework density 19.073796999999999
#
# number of rings (size 3 to 8) (size 9 to 14) (size 15 to 20)
#    0.000    2.000    0.000    3.750    1.167    3.000 
#    1.500    1.250    0.000    0.000    0.000    0.000 
#    0.000    0.000    0.000    0.000    0.000    0.000 
#
# Total GULP energy -595231.781246 kJ/mol
# GULP energy per Si atom -12400.662109 kJ/mol
# Density = 1.903038 g / cm^3
# Si number density = 19.073797 Si / 1000 Ang^3
#
#
#
# Elastic Constant Matrix: (Units=GPa)
#
#
# Indices 1 2 3 4 5 6 
#
# 1 69.9481 38.6197 35.7844 0.0000 0.0000 0.0000
# 2 38.6197 155.2234 77.6438 0.0000 0.0000 0.0000
# 3 35.7844 77.6438 137.6200 0.0000 0.0000 0.0000
# 4 0.0000 0.0000 0.0000 16.4699 0.0000 0.0000
# 5 0.0000 0.0000 0.0000 0.0000 32.9622 0.0000
# 6 0.0000 0.0000 0.0000 0.0000 0.0000 33.0766
#
#
#
# Elastic Compliance Matrix: (Units=1/GPa)
#
#
# Indices 1 2 3 4 5 6 
#
# 1 0.017363 -0.002872 -0.002894 0.000000 0.000000 0.000000
# 2 -0.002872 0.009450 -0.004585 0.000000 0.000000 0.000000
# 3 -0.002894 -0.004585 0.010606 0.000000 0.000000 0.000000
# 4 0.000000 0.000000 0.000000 0.060717 0.000000 0.000000
# 5 0.000000 0.000000 0.000000 0.000000 0.030338 0.000000
# 6 0.000000 0.000000 0.000000 0.000000 0.000000 0.030233
#
#
# Mechanical properties :
#
#
# Convention : Reuss Voigt Hill
#
# Bulk Modulus (GPa) = 59.82263 74.09860 66.96062
# Shear Modulus (GPa) = 27.02978 30.55132 28.79055
#
# Velocity S-wave (km/s) = 3.76854 4.00652 3.88935
# Velocity P-wave (km/s) = 7.09703 7.76760 7.43987
#
# Compressibility (1/GPa) = 0.01671608
#
# Stress axis : x y z
#
# Youngs Moduli (GPa) = 57.59458 105.81619 94.28829
#
# Poissons Ratio (x) = 0.30392 0.27290
# Poissons Ratio (y) = 0.16542 0.43231
# Poissons Ratio (z) = 0.16670 0.48516
#
# Static dielectric constant tensor:
#      x y z
#    x 3.505380 0.000000 0.000000 
#    y 0.000000 3.440830 0.000000 
#    z 0.000000 0.000000 3.605490 
# 
# 
# High freq. dielectric constant tensor:
#      x y z
#    x 1.738640 0.000000 0.000000 
#    y 0.000000 1.748090 0.000000 
#    z 0.000000 0.000000 1.746080 
# 
# From -- ./inp_files/25594.got.cif
#   From: 2010.03.12/outbox.cif.g09.slc.cpg/sg59_13_cif.got.tgz:25594.got - 2010.04.16 16:29:54.
