data_PCOD8243846
_publ_section_title
;
Structure prediction by ZEFSAII (Michael W. Deem and Ramdas Pophale) SiO2 
 PCOD8243846
Probable space group: P M M N
;
_chemical_formula_sum "Si O2"
_cell_formula_units_Z 48
_cell_length_a 14.166406
_cell_length_b 8.968143
_cell_length_c 20.968635
_cell_angle_alpha 90.000000
_cell_angle_beta 90.000000
_cell_angle_gamma 90.000000
_cell_volume 2663.988642
_symmetry_space_group_name_H-M "P M M N"
_symmetry_group_IT_number 59
_space_group.IT_coordinate_system_code '2'
_symmetry_cell_setting 'orthorhombic'
loop_
_space_group_symop_operation_xyz
x,y,z
1/2-x,1/2-y,z
1/2+x,-y,-z
-x,1/2+y,-z
-x,-y,-z
1/2+x,1/2+y,-z
1/2-x,y,z
x,1/2-y,z
loop_
_atom_site_type_symbol
_atom_site_label
_atom_site_fract_x
_atom_site_fract_y
_atom_site_fract_z
Si Si1 0.641368 0.421596 0.491228
Si Si2 0.000330 0.073663 0.265450
Si Si3 0.995236 0.922516 0.399512
Si Si4 0.857944 0.076706 0.826509
Si Si5 0.997735 0.578368 0.067108
Si Si6 0.358152 0.426185 0.825030
O O1 0.750000 0.465621 0.501674
O O2 0.630185 0.250000 0.469887
O O3 0.598790 0.525449 0.436178
O O4 0.587351 0.450040 0.557356
O O5 0.994302 0.250000 0.262401
O O6 0.009515 0.021595 0.337588
O O7 0.905130 0.006029 0.235341
O O8 0.092839 0.019383 0.228083
O O9 0.983621 0.750000 0.380727
O O10 0.750000 0.026724 0.831620
O O11 0.868983 0.250000 0.808010
O O12 0.905572 0.045638 0.894961
O O13 0.984690 0.750000 0.051938
O O14 0.909993 0.521598 0.110092
O O15 0.000000 0.500000 0.000000
O O16 0.250000 0.475634 0.829527
O O17 0.370373 0.250000 0.815331
#
# Coordination Sequence:
#
# PCOD8243846 Si02
#       6
#     8   8   8   8   8   8
#     4   9  19  36  56  78 104 134 171 215 258 300
#     4  11  22  35  53  79 109 137 170 217 266 309
#     4  10  20  35  55  78 105 139 175 209 253 310
#     4   9  19  37  57  75 101 139 179 216 256 307
#     4   9  18  32  51  77 106 136 170 210 258 310
#     4   9  19  37  57  75 100 137 179 218 257 307
#
# _framework density 18.018094000000001
#
# number of rings (size 3 to 8) (size 9 to 14) (size 15 to 20)
#    0.000    2.500    0.000    3.000    0.000    6.333 
#    0.000    1.667    0.000    0.000    0.000    0.000 
#    0.000    0.000    0.000    0.000    0.000    0.000 
#
# Total GULP energy -595290.733420 kJ/mol
# GULP energy per Si atom -12401.890280 kJ/mol
# Density = 1.797708 g / cm^3
# Si number density = 18.018094 Si / 1000 Ang^3
#
#
#
# Elastic Constant Matrix: (Units=GPa)
#
#
# Indices 1 2 3 4 5 6 
#
# 1 151.9462 43.9778 47.9013 0.0000 0.0000 0.0000
# 2 43.9778 69.7629 44.9521 0.0000 0.0000 0.0000
# 3 47.9013 44.9521 108.7168 0.0000 0.0000 0.0000
# 4 0.0000 0.0000 0.0000 38.3109 0.0000 0.0000
# 5 0.0000 0.0000 0.0000 0.0000 12.5474 0.0000
# 6 0.0000 0.0000 0.0000 0.0000 0.0000 16.3925
#
#
#
# Elastic Compliance Matrix: (Units=1/GPa)
#
#
# Indices 1 2 3 4 5 6 
#
# 1 0.008374 -0.003955 -0.002054 0.000000 0.000000 0.000000
# 2 -0.003955 0.021408 -0.007109 0.000000 0.000000 0.000000
# 3 -0.002054 -0.007109 0.013043 0.000000 0.000000 0.000000
# 4 0.000000 0.000000 0.000000 0.026102 0.000000 0.000000
# 5 0.000000 0.000000 0.000000 0.000000 0.079698 0.000000
# 6 0.000000 0.000000 0.000000 0.000000 0.000000 0.061003
#
#
# Mechanical properties :
#
#
# Convention : Reuss Voigt Hill
#
# Bulk Modulus (GPa) = 60.28506 67.12092 63.70299
# Shear Modulus (GPa) = 20.71297 26.35646 23.53472
#
# Velocity S-wave (km/s) = 3.39420 3.82878 3.61802
# Velocity P-wave (km/s) = 6.99225 7.54181 7.27222
#
# Compressibility (1/GPa) = 0.01658786
#
# Stress axis : x y z
#
# Youngs Moduli (GPa) = 119.42381 46.71064 76.67053
#
# Poissons Ratio (x) = 0.18474 0.15749
# Poissons Ratio (y) = 0.47232 0.54508
# Poissons Ratio (z) = 0.24531 0.33208
#
# Static dielectric constant tensor:
#      x y z
#    x 3.572980 0.000000 0.000000 
#    y 0.000000 3.375060 0.000000 
#    z 0.000000 0.000000 3.285980 
# 
# 
# High freq. dielectric constant tensor:
#      x y z
#    x 1.702110 0.000000 0.000000 
#    y 0.000000 1.695120 0.000000 
#    z 0.000000 0.000000 1.698230 
# 
# From -- ./inp_files/27370.got.cif
#   From: 2010.03.12/outbox.cif.g09.slc.cpg/sg59_14_cif.got.tgz:27370.got - 2010.04.16 16:29:54.
