data_PCOD8243164
_publ_section_title
;
Structure prediction by ZEFSAII (Michael W. Deem and Ramdas Pophale) SiO2 
 PCOD8243164
Probable space group: P M M N
;
_chemical_formula_sum "Si O2"
_cell_formula_units_Z 48
_cell_length_a 8.943317
_cell_length_b 15.019950
_cell_length_c 19.169807
_cell_angle_alpha 90.000000
_cell_angle_beta 90.000000
_cell_angle_gamma 90.000000
_cell_volume 2575.045174
_symmetry_space_group_name_H-M "P M M N"
_symmetry_group_IT_number 59
_space_group.IT_coordinate_system_code '2'
_symmetry_cell_setting 'orthorhombic'
loop_
_space_group_symop_operation_xyz
x,y,z
1/2-x,1/2-y,z
1/2+x,-y,-z
-x,1/2+y,-z
-x,-y,-z
1/2+x,1/2+y,-z
1/2-x,y,z
x,1/2-y,z
loop_
_atom_site_type_symbol
_atom_site_label
_atom_site_fract_x
_atom_site_fract_y
_atom_site_fract_z
Si Si1 0.071934 0.506240 0.241793
Si Si2 0.427184 0.153464 0.150836
Si Si3 0.418721 0.849017 0.135247
Si Si4 0.573544 0.146177 0.491541
Si Si5 0.573438 0.502189 0.601608
Si Si6 0.426845 0.404956 0.000432
O O1 0.250000 0.505489 0.244372
O O2 0.005350 0.418842 0.203800
O O3 0.013837 0.589448 0.196294
O O4 0.010250 0.511653 0.320331
O O5 0.250000 0.145110 0.151655
O O6 0.480700 0.250000 0.177291
O O7 0.482085 0.141568 0.071450
O O8 0.250000 0.880446 0.116272
O O9 0.418882 0.750000 0.165948
O O10 0.517738 0.849824 0.065886
O O11 0.750000 0.145977 0.480221
O O12 0.517437 0.250000 0.497261
O O13 0.498971 0.093439 0.427323
O O14 0.529381 0.088176 0.560033
O O15 0.750000 0.517109 0.599798
O O16 0.250000 0.412910 0.997218
O O17 0.500000 0.500000 0.000000
#
# Coordination Sequence:
#
# PCOD8243164 Si02
#       6
#     8   8   8   8   8   8
#     4   9  17  31  49  74 104 130 163 207 252 298
#     4   9  17  29  47  70  96 126 161 205 255 299
#     4  10  20  34  52  75 103 134 169 212 260 306
#     4   9  18  33  52  75 105 136 165 203 254 304
#     4   9  18  32  53  78 102 132 173 211 244 296
#     4  11  20  33  53  73  98 132 175 218 259 304
#
# _framework density 18.640447999999999
#
# number of rings (size 3 to 8) (size 9 to 14) (size 15 to 20)
#    0.000    2.500    1.667    1.000    0.000    2.667 
#    0.000    5.833    0.000    0.000    0.000    2.333 
#    0.000    0.000    0.000    0.000    0.000    0.000 
#
# Total GULP energy -594931.033258 kJ/mol
# GULP energy per Si atom -12394.396526 kJ/mol
# Density = 1.859802 g / cm^3
# Si number density = 18.640448 Si / 1000 Ang^3
#
#
#
# Elastic Constant Matrix: (Units=GPa)
#
#
# Indices 1 2 3 4 5 6 
#
# 1 27.3441 18.4809 20.4959 0.0000 0.0000 0.0000
# 2 18.4809 158.2463 69.4280 0.0000 0.0000 0.0000
# 3 20.4959 69.4280 158.6182 0.0000 0.0000 0.0000
# 4 0.0000 0.0000 0.0000 12.1437 0.0000 0.0000
# 5 0.0000 0.0000 0.0000 0.0000 22.5997 0.0000
# 6 0.0000 0.0000 0.0000 0.0000 0.0000 20.4739
#
#
#
# Elastic Compliance Matrix: (Units=1/GPa)
#
#
# Indices 1 2 3 4 5 6 
#
# 1 0.041687 -0.003101 -0.004029 0.000000 0.000000 0.000000
# 2 -0.003101 0.008052 -0.003124 0.000000 0.000000 0.000000
# 3 -0.004029 -0.003124 0.008192 0.000000 0.000000 0.000000
# 4 0.000000 0.000000 0.000000 0.082347 0.000000 0.000000
# 5 0.000000 0.000000 0.000000 0.000000 0.044248 0.000000
# 6 0.000000 0.000000 0.000000 0.000000 0.000000 0.048843
#
#
# Mechanical properties :
#
#
# Convention : Reuss Voigt Hill
#
# Bulk Modulus (GPa) = 26.72106 62.33533 44.52819
# Shear Modulus (GPa) = 18.77221 26.76373 22.76797
#
# Velocity S-wave (km/s) = 3.17688 3.79329 3.49869
# Velocity P-wave (km/s) = 5.27474 7.25940 6.34514
#
# Compressibility (1/GPa) = 0.03742367
#
# Stress axis : x y z
#
# Youngs Moduli (GPa) = 23.98838 124.19534 122.06493
#
# Poissons Ratio (x) = 0.38508 0.49185
# Poissons Ratio (y) = 0.07438 0.38129
# Poissons Ratio (z) = 0.09666 0.38795
#
# Static dielectric constant tensor:
#      x y z
#    x 3.238940 0.000000 0.000000 
#    y 0.000000 3.562000 0.000000 
#    z 0.000000 0.000000 3.837730 
# 
# 
# High freq. dielectric constant tensor:
#      x y z
#    x 1.681190 0.000000 0.000000 
#    y 0.000000 1.738080 0.000000 
#    z 0.000000 0.000000 1.722790 
# 
# From -- ./inp_files/25496.got.cif
#   From: 2010.03.12/outbox.cif.g09.slc.cpg/sg59_13_cif.got.tgz:25496.got - 2010.04.16 16:29:54.
