data_PCOD8243321
_publ_section_title
;
Structure prediction by ZEFSAII (Michael W. Deem and Ramdas Pophale) SiO2 
 PCOD8243321
Probable space group: P M M N
;
_chemical_formula_sum "Si O2"
_cell_formula_units_Z 48
_cell_length_a 13.662466
_cell_length_b 14.073596
_cell_length_c 12.910708
_cell_angle_alpha 90.000000
_cell_angle_beta 90.000000
_cell_angle_gamma 90.000000
_cell_volume 2482.471281
_symmetry_space_group_name_H-M "P M M N"
_symmetry_group_IT_number 59
_space_group.IT_coordinate_system_code '2'
_symmetry_cell_setting 'orthorhombic'
loop_
_space_group_symop_operation_xyz
x,y,z
1/2-x,1/2-y,z
1/2+x,-y,-z
-x,1/2+y,-z
-x,-y,-z
1/2+x,1/2+y,-z
1/2-x,y,z
x,1/2-y,z
loop_
_atom_site_type_symbol
_atom_site_label
_atom_site_fract_x
_atom_site_fract_y
_atom_site_fract_z
Si Si1 0.137682 0.852159 0.612959
Si Si2 0.861718 0.947649 0.297463
Si Si3 0.861245 0.856647 0.904004
Si Si4 0.637709 0.459534 0.781346
Si Si5 0.962714 0.639342 0.114722
Si Si6 0.968166 0.416758 0.573898
O O1 0.250000 0.866955 0.582982
O O2 0.121585 0.750000 0.670742
O O3 0.080750 0.841660 0.503275
O O4 0.106989 0.941255 0.685334
O O5 0.750000 0.927414 0.327025
O O6 0.882998 0.921428 0.179161
O O7 0.932201 0.881233 0.368986
O O8 0.750000 0.865448 0.946941
O O9 0.879652 0.750000 0.861308
O O10 0.878661 0.930026 0.810761
O O11 0.938194 0.880166 0.995090
O O12 0.750000 0.428232 0.796954
O O13 0.572546 0.393713 0.857161
O O14 0.608956 0.448697 0.661578
O O15 0.951058 0.750000 0.141640
O O16 0.000000 0.500000 0.500000
#
# Coordination Sequence:
#
# PCOD8243321 Si02
#       6
#     8   8   8   8   8   8
#     4   9  17  31  52  75 100 133 172 214 264 323
#     4   9  18  32  50  74 102 132 172 219 263 310
#     4   9  18  34  57  83 110 141 175 212 261 322
#     4  10  20  34  54  80 108 138 177 224 270 315
#     4  10  20  34  53  78 108 143 181 217 259 311
#     4   9  18  32  48  71 100 133 171 213 263 318
#
# _framework density 19.335570000000001
#
# number of rings (size 3 to 8) (size 9 to 14) (size 15 to 20)
#    0.000    2.667    0.000    1.500    0.000    4.667 
#    0.000    7.500    0.000    2.000    0.000   16.333 
#    0.000    0.000    0.000    0.000    0.000    0.000 
#
# Total GULP energy -594702.365035 kJ/mol
# GULP energy per Si atom -12389.632605 kJ/mol
# Density = 1.929156 g / cm^3
# Si number density = 19.335570 Si / 1000 Ang^3
#
#
#
# Elastic Constant Matrix: (Units=GPa)
#
#
# Indices 1 2 3 4 5 6 
#
# 1 99.5243 27.9307 20.5905 0.0000 0.0000 0.0000
# 2 27.9307 93.5633 33.6015 0.0000 0.0000 0.0000
# 3 20.5905 33.6015 55.2162 0.0000 0.0000 0.0000
# 4 0.0000 0.0000 0.0000 25.5184 0.0000 0.0000
# 5 0.0000 0.0000 0.0000 0.0000 23.7181 0.0000
# 6 0.0000 0.0000 0.0000 0.0000 0.0000 23.3362
#
#
#
# Elastic Compliance Matrix: (Units=1/GPa)
#
#
# Indices 1 2 3 4 5 6 
#
# 1 0.011286 -0.002377 -0.002762 0.000000 0.000000 0.000000
# 2 -0.002377 0.014178 -0.007741 0.000000 0.000000 0.000000
# 3 -0.002762 -0.007741 0.023852 0.000000 0.000000 0.000000
# 4 0.000000 0.000000 0.000000 0.039187 0.000000 0.000000
# 5 0.000000 0.000000 0.000000 0.000000 0.042162 0.000000
# 6 0.000000 0.000000 0.000000 0.000000 0.000000 0.042852
#
#
# Mechanical properties :
#
#
# Convention : Reuss Voigt Hill
#
# Bulk Modulus (GPa) = 42.45493 45.83878 44.14685
# Shear Modulus (GPa) = 24.13946 25.59327 24.86637
#
# Velocity S-wave (km/s) = 3.53717 3.64213 3.59003
# Velocity P-wave (km/s) = 6.21986 6.43780 6.32977
#
# Compressibility (1/GPa) = 0.02355439
#
# Stress axis : x y z
#
# Youngs Moduli (GPa) = 88.60213 70.53302 41.92598
#
# Poissons Ratio (x) = 0.16768 0.11580
# Poissons Ratio (y) = 0.21063 0.32456
# Poissons Ratio (z) = 0.24473 0.54602
#
# Static dielectric constant tensor:
#      x y z
#    x 3.911140 0.000000 0.000000 
#    y 0.000000 3.571770 0.000000 
#    z 0.000000 0.000000 3.584040 
# 
# 
# High freq. dielectric constant tensor:
#      x y z
#    x 1.760350 0.000000 0.000000 
#    y 0.000000 1.745390 0.000000 
#    z 0.000000 0.000000 1.735450 
# 
# From -- ./inp_files/16803.got.cif
#   From: 2010.03.12/outbox.cif.g09.slc.cpg/sg59_9_cif.got.tgz:16803.got - 2010.04.16 16:29:54.
