data_PCOD8243947
_publ_section_title
;
Structure prediction by ZEFSAII (Michael W. Deem and Ramdas Pophale) SiO2 
 PCOD8243947
Probable space group: P M M N
;
_chemical_formula_sum "Si O2"
_cell_formula_units_Z 64
_cell_length_a 14.632311
_cell_length_b 8.677803
_cell_length_c 24.912539
_cell_angle_alpha 90.000000
_cell_angle_beta 90.000000
_cell_angle_gamma 90.000000
_cell_volume 3163.302332
_symmetry_space_group_name_H-M "P M M N"
_symmetry_group_IT_number 59
_space_group.IT_coordinate_system_code '2'
_symmetry_cell_setting 'orthorhombic'
loop_
_space_group_symop_operation_xyz
x,y,z
1/2-x,1/2-y,z
1/2+x,-y,-z
-x,1/2+y,-z
-x,-y,-z
1/2+x,1/2+y,-z
1/2-x,y,z
x,1/2-y,z
loop_
_atom_site_type_symbol
_atom_site_label
_atom_site_fract_x
_atom_site_fract_y
_atom_site_fract_z
Si Si1 0.349427 0.927322 0.776974
Si Si2 0.649440 0.576322 0.110580
Si Si3 0.350885 0.068083 0.579745
Si Si4 0.466795 0.931675 0.251193
Si Si5 0.512295 0.926214 0.942448
Si Si6 0.530941 0.068087 0.630953
Si Si7 0.144126 0.066936 0.151175
Si Si8 0.855768 0.071879 0.532103
O O1 0.250000 0.940801 0.747221
O O2 0.367113 0.750000 0.794028
O O3 0.344915 0.039557 0.827398
O O4 0.433768 0.989970 0.743114
O O5 0.750000 0.563495 0.084069
O O6 0.610777 0.750000 0.102478
O O7 0.584920 0.448809 0.085050
O O8 0.250000 0.995908 0.592229
O O9 0.343076 0.250000 0.581050
O O10 0.425940 0.008853 0.622955
O O11 0.385922 0.019243 0.520910
O O12 0.476584 0.750000 0.241518
O O13 0.426900 0.972036 0.310283
O O14 0.403399 0.998992 0.204280
O O15 0.534975 0.750000 0.952163
O O16 0.591904 0.993639 0.902815
O O17 0.500000 0.000000 0.000000
O O18 0.530541 0.250000 0.624426
O O19 0.593544 0.998439 0.583862
O O20 0.250000 0.013545 0.148584
O O21 0.135878 0.250000 0.154820
O O22 0.750000 0.048640 0.543997
O O23 0.881102 0.250000 0.523423
#
# Coordination Sequence:
#
# PCOD8243947 Si02
#       8
#     8   8   8   8   8   8   8   8
#     4  10  20  35  56  81 111 148 186 226 280 343
#     4  10  20  35  58  87 117 148 184 229 281 337
#     4   9  17  31  51  74 103 139 178 222 274 333
#     4  11  22  36  58  86 115 149 195 244 287 338
#     4  11  23  39  62  90 122 157 192 238 291 341
#     4   9  19  33  50  76 107 141 180 225 279 336
#     4  10  23  44  65  84 114 158 199 236 286 342
#     4   9  17  31  51  73 101 137 178 226 279 333
#
# _framework density 20.232022000000001
#
# number of rings (size 3 to 8) (size 9 to 14) (size 15 to 20)
#    0.000    2.125    1.250    1.875    0.000    3.750 
#    0.000    6.250    0.000    3.000    0.000    0.000 
#    0.000    0.000    0.000    0.000    0.000    0.000 
#
# Total GULP energy -792967.785783 kJ/mol
# GULP energy per Si atom -12390.121653 kJ/mol
# Density = 2.018597 g / cm^3
# Si number density = 20.232022 Si / 1000 Ang^3
#
#
#
# Elastic Constant Matrix: (Units=GPa)
#
#
# Indices 1 2 3 4 5 6 
#
# 1 104.9484 25.7117 56.5883 0.0000 0.0000 0.0000
# 2 25.7117 39.4156 18.7379 0.0000 0.0000 0.0000
# 3 56.5883 18.7379 123.6537 0.0000 0.0000 0.0000
# 4 0.0000 0.0000 0.0000 27.6443 0.0000 0.0000
# 5 0.0000 0.0000 0.0000 0.0000 17.3413 0.0000
# 6 0.0000 0.0000 0.0000 0.0000 0.0000 25.1738
#
#
#
# Elastic Compliance Matrix: (Units=1/GPa)
#
#
# Indices 1 2 3 4 5 6 
#
# 1 0.014080 -0.006597 -0.005444 0.000000 0.000000 0.000000
# 2 -0.006597 0.030431 -0.001592 0.000000 0.000000 0.000000
# 3 -0.005444 -0.001592 0.010820 0.000000 0.000000 0.000000
# 4 0.000000 0.000000 0.000000 0.036174 0.000000 0.000000
# 5 0.000000 0.000000 0.000000 0.000000 0.057666 0.000000
# 6 0.000000 0.000000 0.000000 0.000000 0.000000 0.039724
#
#
# Mechanical properties :
#
#
# Convention : Reuss Voigt Hill
#
# Bulk Modulus (GPa) = 35.63220 52.23260 43.93240
# Shear Modulus (GPa) = 22.17147 25.16386 23.66766
#
# Velocity S-wave (km/s) = 3.31397 3.53053 3.42396
# Velocity P-wave (km/s) = 5.68271 6.51862 6.11496
#
# Compressibility (1/GPa) = 0.02806451
#
# Stress axis : x y z
#
# Youngs Moduli (GPa) = 71.02282 32.86134 92.42385
#
# Poissons Ratio (x) = 0.21678 0.50314
# Poissons Ratio (y) = 0.46852 0.14718
# Poissons Ratio (z) = 0.38664 0.05233
#
# Static dielectric constant tensor:
#      x y z
#    x 2.185900 0.000000 0.000000 
#    y 0.000000 3.505860 0.000000 
#    z 0.000000 0.000000 4.169540 
# 
# 
# High freq. dielectric constant tensor:
#      x y z
#    x 1.797560 0.000000 0.000000 
#    y 0.000000 1.772060 0.000000 
#    z 0.000000 0.000000 1.784570 
# 
# From -- ./inp_files/32116.got.cif
#   From: 2010.03.12/outbox.cif.g09.slc.cpg/sg59_17_cif.got.tgz:32116.got - 2010.04.16 16:29:54.
