data_PCOD8243045
_publ_section_title
;
Structure prediction by ZEFSAII (Michael W. Deem and Ramdas Pophale) SiO2 
 PCOD8243045
Probable space group: P M M N
;
_chemical_formula_sum "Si O2"
_cell_formula_units_Z 64
_cell_length_a 9.172459
_cell_length_b 18.398796
_cell_length_c 21.233859
_cell_angle_alpha 90.000000
_cell_angle_beta 90.000000
_cell_angle_gamma 90.000000
_cell_volume 3583.472801
_symmetry_space_group_name_H-M "P M M N"
_symmetry_group_IT_number 59
_space_group.IT_coordinate_system_code '2'
_symmetry_cell_setting 'orthorhombic'
loop_
_space_group_symop_operation_xyz
x,y,z
1/2-x,1/2-y,z
1/2+x,-y,-z
-x,1/2+y,-z
-x,-y,-z
1/2+x,1/2+y,-z
1/2-x,y,z
x,1/2-y,z
loop_
_atom_site_type_symbol
_atom_site_label
_atom_site_fract_x
_atom_site_fract_y
_atom_site_fract_z
Si Si1 0.923039 0.575894 0.512085
Si Si2 0.420603 0.831116 0.267559
Si Si3 0.582107 0.668994 0.870561
Si Si4 0.920690 0.030649 0.806115
Si Si5 0.581506 0.972298 0.939374
Si Si6 0.919827 0.334600 0.381004
Si Si7 0.420870 0.603942 0.756177
Si Si8 0.417403 0.333458 0.608985
O O1 0.750000 0.565622 0.519280
O O2 0.966439 0.623839 0.452334
O O3 0.000000 0.500000 0.500000
O O4 0.983679 0.615835 0.573549
O O5 0.250000 0.829090 0.279424
O O6 0.478657 0.750000 0.250230
O O7 0.461561 0.886593 0.211712
O O8 0.491606 0.861056 0.331411
O O9 0.750000 0.656631 0.850422
O O10 0.555354 0.750000 0.896946
O O11 0.541685 0.612070 0.925730
O O12 0.484332 0.657174 0.809228
O O13 0.750000 0.014697 0.797000
O O14 0.966733 0.019253 0.878581
O O15 0.006046 0.975429 0.760608
O O16 0.750000 0.982743 0.953712
O O17 0.500000 0.000000 0.000000
O O18 0.750000 0.346647 0.396691
O O19 0.962841 0.250000 0.388560
O O20 0.955933 0.359997 0.310566
O O21 0.250000 0.595126 0.767345
O O22 0.250000 0.347365 0.625478
O O23 0.451307 0.250000 0.594706
#
# Coordination Sequence:
#
# PCOD8243045 Si02
#       8
#     8   8   8   8   8   8   8   8
#     4  11  24  39  55  76 104 138 179 222 266 317
#     4   9  18  33  55  80 103 131 171 217 263 311
#     4   9  18  34  55  78 106 140 177 217 262 313
#     4   9  19  35  53  76 107 141 177 216 260 312
#     4   9  18  33  52  75 105 139 175 213 253 302
#     4  10  22  39  56  77 108 141 173 216 269 320
#     4  10  20  33  53  81 110 138 172 217 266 313
#     4   9  19  36  55  74  99 131 168 214 265 314
#
# _framework density 17.859770000000001
#
# number of rings (size 3 to 8) (size 9 to 14) (size 15 to 20)
#    0.000    2.500    0.000    2.250    1.750    6.000 
#    0.000    1.875    0.000    0.750    0.000    0.000 
#    0.000    0.000    0.000    0.000    0.000    0.000 
#
# Total GULP energy -793570.694293 kJ/mol
# GULP energy per Si atom -12399.542098 kJ/mol
# Density = 1.781912 g / cm^3
# Si number density = 17.859770 Si / 1000 Ang^3
#
#
#
# Elastic Constant Matrix: (Units=GPa)
#
#
# Indices 1 2 3 4 5 6 
#
# 1 61.9672 52.3008 54.0934 0.0000 0.0000 0.0000
# 2 52.3008 129.7552 81.6613 0.0000 0.0000 0.0000
# 3 54.0934 81.6613 119.0688 0.0000 0.0000 0.0000
# 4 0.0000 0.0000 0.0000 27.8701 0.0000 0.0000
# 5 0.0000 0.0000 0.0000 0.0000 33.9639 0.0000
# 6 0.0000 0.0000 0.0000 0.0000 0.0000 27.0161
#
#
#
# Elastic Compliance Matrix: (Units=1/GPa)
#
#
# Indices 1 2 3 4 5 6 
#
# 1 0.029189 -0.006017 -0.009134 0.000000 0.000000 0.000000
# 2 -0.006017 0.014800 -0.007417 0.000000 0.000000 0.000000
# 3 -0.009134 -0.007417 0.017635 0.000000 0.000000 0.000000
# 4 0.000000 0.000000 0.000000 0.035881 0.000000 0.000000
# 5 0.000000 0.000000 0.000000 0.000000 0.029443 0.000000
# 6 0.000000 0.000000 0.000000 0.000000 0.000000 0.037015
#
#
# Mechanical properties :
#
#
# Convention : Reuss Voigt Hill
#
# Bulk Modulus (GPa) = 60.64869 76.32247 68.48558
# Shear Modulus (GPa) = 23.29976 25.95242 24.62609
#
# Velocity S-wave (km/s) = 3.61584 3.81612 3.71733
# Velocity P-wave (km/s) = 7.17387 7.88949 7.54017
#
# Compressibility (1/GPa) = 0.01648840
#
# Stress axis : x y z
#
# Youngs Moduli (GPa) = 34.25891 67.56901 56.70577
#
# Poissons Ratio (x) = 0.40655 0.51797
# Poissons Ratio (y) = 0.20613 0.42057
# Poissons Ratio (z) = 0.31293 0.50114
#
# Static dielectric constant tensor:
#      x y z
#    x 3.235870 0.000000 0.000000 
#    y 0.000000 3.612230 0.000000 
#    z 0.000000 0.000000 3.248960 
# 
# 
# High freq. dielectric constant tensor:
#      x y z
#    x 1.690600 0.000000 0.000000 
#    y 0.000000 1.702120 0.000000 
#    z 0.000000 0.000000 1.680520 
# 
# From -- ./inp_files/29595.got.cif
#   From: 2010.03.12/outbox.cif.g09.slc.cpg/sg59_15_cif.got.tgz:29595.got - 2010.04.16 16:29:54.
