data_PCOD8243699
_publ_section_title
;
Structure prediction by ZEFSAII (Michael W. Deem and Ramdas Pophale) SiO2 
 PCOD8243699
Probable space group: P M M N
;
_chemical_formula_sum "Si O2"
_cell_formula_units_Z 64
_cell_length_a 14.533491
_cell_length_b 8.674481
_cell_length_c 24.399118
_cell_angle_alpha 90.000000
_cell_angle_beta 90.000000
_cell_angle_gamma 90.000000
_cell_volume 3076.008799
_symmetry_space_group_name_H-M "P M M N"
_symmetry_group_IT_number 59
_space_group.IT_coordinate_system_code '2'
_symmetry_cell_setting 'orthorhombic'
loop_
_space_group_symop_operation_xyz
x,y,z
1/2-x,1/2-y,z
1/2+x,-y,-z
-x,1/2+y,-z
-x,-y,-z
1/2+x,1/2+y,-z
1/2-x,y,z
x,1/2-y,z
loop_
_atom_site_type_symbol
_atom_site_label
_atom_site_fract_x
_atom_site_fract_y
_atom_site_fract_z
Si Si1 0.349320 0.924841 0.774868
Si Si2 0.648488 0.576353 0.111995
Si Si3 0.355101 0.930588 0.583123
Si Si4 0.472192 0.926971 0.254663
Si Si5 0.515499 0.927552 0.941062
Si Si6 0.529832 0.074047 0.623976
Si Si7 0.144943 0.932791 0.149886
Si Si8 0.855054 0.926942 0.530572
O O1 0.250000 0.937456 0.743550
O O2 0.362418 0.750000 0.796219
O O3 0.347194 0.046393 0.823913
O O4 0.435519 0.971902 0.738233
O O5 0.750000 0.559304 0.085574
O O6 0.610459 0.750000 0.101976
O O7 0.582380 0.447833 0.087601
O O8 0.250000 0.985513 0.593425
O O9 0.365531 0.750000 0.593972
O O10 0.422613 0.022633 0.623804
O O11 0.384843 0.967857 0.520649
O O12 0.497672 0.750000 0.242386
O O13 0.426623 0.942874 0.314802
O O14 0.406716 0.989911 0.205566
O O15 0.541394 0.750000 0.947375
O O16 0.595496 0.005607 0.904854
O O17 0.500000 0.000000 0.000000
O O18 0.537729 0.250000 0.604314
O O19 0.585461 0.964958 0.583602
O O20 0.250000 0.994453 0.151354
O O21 0.144043 0.750000 0.147465
O O22 0.750000 0.959997 0.546505
O O23 0.871183 0.750000 0.514020
#
# Coordination Sequence:
#
# PCOD8243699 Si02
#       8
#     8   8   8   8   8   8   8   8
#     4  10  20  34  56  86 117 151 190 235 291 352
#     4  10  20  36  60  88 119 153 190 236 289 348
#     4  10  21  38  60  85 116 157 201 248 305 367
#     4  10  22  39  60  86 119 161 205 247 296 354
#     4  12  25  41  64  93 125 160 199 247 300 356
#     4  11  23  37  57  87 121 158 201 251 300 356
#     4  10  22  43  68  91 120 161 207 253 300 353
#     4  10  21  38  60  85 115 153 198 251 308 365
#
# _framework density 20.806183999999998
#
# number of rings (size 3 to 8) (size 9 to 14) (size 15 to 20)
#    0.000    1.625    1.250    3.375    0.000    5.750 
#    0.000    3.750    0.000    0.000    0.000    0.000 
#    0.000    0.000    0.000    0.000    0.000    0.000 
#
# Total GULP energy -793391.443426 kJ/mol
# GULP energy per Si atom -12396.741304 kJ/mol
# Density = 2.075883 g / cm^3
# Si number density = 20.806184 Si / 1000 Ang^3
#
#
#
# Elastic Constant Matrix: (Units=GPa)
#
#
# Indices 1 2 3 4 5 6 
#
# 1 106.8467 25.8183 42.2928 0.0000 0.0000 0.0000
# 2 25.8183 59.6300 15.6870 0.0000 0.0000 0.0000
# 3 42.2928 15.6870 98.5964 0.0000 0.0000 0.0000
# 4 0.0000 0.0000 0.0000 28.4714 0.0000 0.0000
# 5 0.0000 0.0000 0.0000 0.0000 14.8990 0.0000
# 6 0.0000 0.0000 0.0000 0.0000 0.0000 29.7475
#
#
#
# Elastic Compliance Matrix: (Units=1/GPa)
#
#
# Indices 1 2 3 4 5 6 
#
# 1 0.012147 -0.004058 -0.004565 0.000000 0.000000 0.000000
# 2 -0.004058 0.018859 -0.001260 0.000000 0.000000 0.000000
# 3 -0.004565 -0.001260 0.012301 0.000000 0.000000 0.000000
# 4 0.000000 0.000000 0.000000 0.035123 0.000000 0.000000
# 5 0.000000 0.000000 0.000000 0.000000 0.067119 0.000000
# 6 0.000000 0.000000 0.000000 0.000000 0.000000 0.033616
#
#
# Mechanical properties :
#
#
# Convention : Reuss Voigt Hill
#
# Bulk Modulus (GPa) = 42.47941 48.07439 45.27690
# Shear Modulus (GPa) = 24.18074 26.70858 25.44466
#
# Velocity S-wave (km/s) = 3.41279 3.58674 3.50085
# Velocity P-wave (km/s) = 5.99921 6.34893 6.17655
#
# Compressibility (1/GPa) = 0.02354082
#
# Stress axis : x y z
#
# Youngs Moduli (GPa) = 82.32721 53.02609 81.29590
#
# Poissons Ratio (x) = 0.21520 0.37108
# Poissons Ratio (y) = 0.33412 0.10240
# Poissons Ratio (z) = 0.37579 0.06679
#
# Static dielectric constant tensor:
#      x y z
#    x 12.037270 0.000000 0.000000 
#    y 0.000000 3.690530 0.000000 
#    z 0.000000 0.000000 4.802800 
# 
# 
# High freq. dielectric constant tensor:
#      x y z
#    x 1.817570 0.000000 0.000000 
#    y 0.000000 1.814550 0.000000 
#    z 0.000000 0.000000 1.805210 
# 
# From -- ./inp_files/32255.got.cif
#   From: 2010.03.12/outbox.cif.g09.slc.cpg/sg59_17_cif.got.tgz:32255.got - 2010.04.16 16:29:54.
