data_PCOD8243941
_publ_section_title
;
Structure prediction by ZEFSAII (Michael W. Deem and Ramdas Pophale) SiO2 
 PCOD8243941
Probable space group: P M M N
;
_chemical_formula_sum "Si O2"
_cell_formula_units_Z 48
_cell_length_a 13.715272
_cell_length_b 8.843182
_cell_length_c 20.858104
_cell_angle_alpha 90.000000
_cell_angle_beta 90.000000
_cell_angle_gamma 90.000000
_cell_volume 2529.809486
_symmetry_space_group_name_H-M "P M M N"
_symmetry_group_IT_number 59
_space_group.IT_coordinate_system_code '2'
_symmetry_cell_setting 'orthorhombic'
loop_
_space_group_symop_operation_xyz
x,y,z
1/2-x,1/2-y,z
1/2+x,-y,-z
-x,1/2+y,-z
-x,-y,-z
1/2+x,1/2+y,-z
1/2-x,y,z
x,1/2-y,z
loop_
_atom_site_type_symbol
_atom_site_label
_atom_site_fract_x
_atom_site_fract_y
_atom_site_fract_z
Si Si1 0.635856 0.573999 0.725644
Si Si2 0.140507 0.428908 0.534809
Si Si3 0.036231 0.072291 0.406129
Si Si4 0.134483 0.078522 0.033434
Si Si5 0.638952 0.428776 0.097869
Si Si6 0.536833 0.428434 0.845671
O O1 0.750000 0.540203 0.721915
O O2 0.615981 0.750000 0.740246
O O3 0.588127 0.522051 0.659047
O O4 0.588522 0.472498 0.780119
O O5 0.250000 0.490529 0.545421
O O6 0.138417 0.250000 0.539836
O O7 0.070340 0.496327 0.589564
O O8 0.103790 0.483115 0.464905
O O9 0.021289 0.250000 0.408656
O O10 0.250000 0.078000 0.035415
O O11 0.093876 0.250000 0.032254
O O12 0.098674 0.993808 0.096024
O O13 0.098413 0.990947 0.969987
O O14 0.750000 0.480202 0.110172
O O15 0.629061 0.250000 0.098319
O O16 0.572169 0.501241 0.153294
O O17 0.530383 0.250000 0.851515
#
# Coordination Sequence:
#
# PCOD8243941 Si02
#       6
#     8   8   8   8   8   8
#     4  10  21  38  58  78 104 140 180 220 263 313
#     4   9  17  31  53  81 112 143 175 214 261 311
#     4   9  18  33  54  80 108 140 179 220 262 309
#     4  10  20  35  56  81 109 140 175 217 265 316
#     4  10  21  38  59  80 103 134 175 222 269 317
#     4  12  24  36  53  78 109 141 175 218 266 318
#
# _framework density 18.973759999999999
#
# number of rings (size 3 to 8) (size 9 to 14) (size 15 to 20)
#    0.000    2.000    0.000    4.000    0.000    7.333 
#    0.000    0.833    0.000    4.000    0.000    0.000 
#    0.000    0.000    0.000    0.000    0.000    0.000 
#
# Total GULP energy -595344.861339 kJ/mol
# GULP energy per Si atom -12403.017945 kJ/mol
# Density = 1.893057 g / cm^3
# Si number density = 18.973760 Si / 1000 Ang^3
#
#
#
# Elastic Constant Matrix: (Units=GPa)
#
#
# Indices 1 2 3 4 5 6 
#
# 1 110.0674 43.8979 60.7732 0.0000 0.0000 0.0000
# 2 43.8979 85.5343 44.5808 0.0000 0.0000 0.0000
# 3 60.7732 44.5808 97.7986 0.0000 0.0000 0.0000
# 4 0.0000 0.0000 0.0000 23.5817 0.0000 0.0000
# 5 0.0000 0.0000 0.0000 0.0000 23.1876 0.0000
# 6 0.0000 0.0000 0.0000 0.0000 0.0000 31.8599
#
#
#
# Elastic Compliance Matrix: (Units=1/GPa)
#
#
# Indices 1 2 3 4 5 6 
#
# 1 0.014645 -0.003637 -0.007443 0.000000 0.000000 0.000000
# 2 -0.003637 0.016238 -0.005142 0.000000 0.000000 0.000000
# 3 -0.007443 -0.005142 0.017194 0.000000 0.000000 0.000000
# 4 0.000000 0.000000 0.000000 0.042406 0.000000 0.000000
# 5 0.000000 0.000000 0.000000 0.000000 0.043126 0.000000
# 6 0.000000 0.000000 0.000000 0.000000 0.000000 0.031387
#
#
# Mechanical properties :
#
#
# Convention : Reuss Voigt Hill
#
# Bulk Modulus (GPa) = 63.96409 65.76711 64.86560
# Shear Modulus (GPa) = 24.67286 25.33573 25.00429
#
# Velocity S-wave (km/s) = 3.60997 3.65814 3.63414
# Velocity P-wave (km/s) = 7.15269 7.25121 7.20212
#
# Compressibility (1/GPa) = 0.01563377
#
# Stress axis : x y z
#
# Youngs Moduli (GPa) = 68.28039 61.58496 58.15957
#
# Poissons Ratio (x) = 0.22399 0.43288
# Poissons Ratio (y) = 0.24834 0.29904
# Poissons Ratio (z) = 0.50821 0.31665
#
# Static dielectric constant tensor:
#      x y z
#    x 3.751450 0.000000 0.000000 
#    y 0.000000 3.455680 0.000000 
#    z 0.000000 0.000000 3.418950 
# 
# 
# High freq. dielectric constant tensor:
#      x y z
#    x 1.754100 0.000000 0.000000 
#    y 0.000000 1.737010 0.000000 
#    z 0.000000 0.000000 1.721390 
# 
# From -- ./inp_files/27379.got.cif
#   From: 2010.03.12/outbox.cif.g09.slc.cpg/sg59_14_cif.got.tgz:27379.got - 2010.04.16 16:29:54.
