data_PCOD8243558
_publ_section_title
;
Structure prediction by ZEFSAII (Michael W. Deem and Ramdas Pophale) SiO2 
 PCOD8243558
Probable space group: P M M N
;
_chemical_formula_sum "Si O2"
_cell_formula_units_Z 56
_cell_length_a 14.915161
_cell_length_b 8.961431
_cell_length_c 21.542266
_cell_angle_alpha 90.000000
_cell_angle_beta 90.000000
_cell_angle_gamma 90.000000
_cell_volume 2879.364826
_symmetry_space_group_name_H-M "P M M N"
_symmetry_group_IT_number 59
_space_group.IT_coordinate_system_code '2'
_symmetry_cell_setting 'orthorhombic'
loop_
_space_group_symop_operation_xyz
x,y,z
1/2-x,1/2-y,z
1/2+x,-y,-z
-x,1/2+y,-z
-x,-y,-z
1/2+x,1/2+y,-z
1/2-x,y,z
x,1/2-y,z
loop_
_atom_site_type_symbol
_atom_site_label
_atom_site_fract_x
_atom_site_fract_y
_atom_site_fract_z
Si Si1 0.146035 0.573951 0.995851
Si Si2 0.909972 0.577124 0.566415
Si Si3 0.493344 0.426058 0.909190
Si Si4 0.496137 0.073445 0.769197
Si Si5 0.348081 0.919782 0.319188
Si Si6 0.850131 0.417104 0.310113
Si Si7 0.597700 0.577933 0.428597
O O1 0.250000 0.517764 0.002661
O O2 0.145868 0.750000 0.985734
O O3 0.086035 0.529370 0.055930
O O4 0.096323 0.499996 0.937287
O O5 0.936869 0.750000 0.574764
O O6 0.842885 0.523903 0.619836
O O7 0.865193 0.552890 0.498567
O O8 0.995300 0.471934 0.574475
O O9 0.478546 0.250000 0.911948
O O10 0.502952 0.487040 0.839225
O O11 0.493365 0.250000 0.769920
O O12 0.581780 0.015476 0.730583
O O13 0.407081 0.015619 0.736660
O O14 0.250000 0.925614 0.287982
O O15 0.372895 0.750000 0.338079
O O16 0.750000 0.416168 0.283454
O O17 0.889778 0.250000 0.312882
O O18 0.846144 0.482937 0.379634
O O19 0.604169 0.750000 0.409013
#
# Coordination Sequence:
#
# PCOD8243558 Si02
#       7
#     8   8   8   8   8   8   8
#     4   9  18  34  57  85 116 148 182 222 268 318
#     4  10  20  34  55  81 108 140 179 227 284 340
#     4   9  19  35  56  83 113 147 186 226 269 317
#     4  10  21  38  58  80 110 148 187 227 273 326
#     4  10  21  36  55  80 109 143 184 229 278 333
#     4  11  24  39  56  80 109 144 186 232 282 333
#     4  10  20  35  56  80 106 139 181 229 283 338
#
# _framework density 19.448734999999999
#
# number of rings (size 3 to 8) (size 9 to 14) (size 15 to 20)
#    0.000    2.143    1.429    1.286    0.000    5.714 
#    0.000    8.571    0.000    0.000    0.000    4.000 
#    0.000    0.000    0.000    0.000    0.000    0.000 
#
# Total GULP energy -694261.973197 kJ/mol
# GULP energy per Si atom -12397.535236 kJ/mol
# Density = 1.940447 g / cm^3
# Si number density = 19.448735 Si / 1000 Ang^3
#
#
#
# Elastic Constant Matrix: (Units=GPa)
#
#
# Indices 1 2 3 4 5 6 
#
# 1 118.5947 15.2126 57.0498 0.0000 0.0000 0.0000
# 2 15.2126 20.0440 29.5992 0.0000 0.0000 0.0000
# 3 57.0498 29.5992 148.1638 0.0000 0.0000 0.0000
# 4 0.0000 0.0000 0.0000 28.0754 0.0000 0.0000
# 5 0.0000 0.0000 0.0000 0.0000 4.6807 0.0000
# 6 0.0000 0.0000 0.0000 0.0000 0.0000 25.7105
#
#
#
# Elastic Compliance Matrix: (Units=1/GPa)
#
#
# Indices 1 2 3 4 5 6 
#
# 1 0.010461 -0.002824 -0.003464 0.000000 0.000000 0.000000
# 2 -0.002824 0.071530 -0.013202 0.000000 0.000000 0.000000
# 3 -0.003464 -0.013202 0.010720 0.000000 0.000000 0.000000
# 4 0.000000 0.000000 0.000000 0.035618 0.000000 0.000000
# 5 0.000000 0.000000 0.000000 0.000000 0.213642 0.000000
# 6 0.000000 0.000000 0.000000 0.000000 0.000000 0.038895
#
#
# Mechanical properties :
#
#
# Convention : Reuss Voigt Hill
#
# Bulk Modulus (GPa) = 18.61151 54.50285 36.55718
# Shear Modulus (GPa) = 11.42189 24.02272 17.72231
#
# Velocity S-wave (km/s) = 2.42602 3.51833 3.02194
# Velocity P-wave (km/s) = 4.17585 6.67754 5.56899
#
# Compressibility (1/GPa) = 0.05373020
#
# Stress axis : x y z
#
# Youngs Moduli (GPa) = 95.59769 13.98020 93.28049
#
# Poissons Ratio (x) = 0.03949 0.32308
# Poissons Ratio (y) = 0.27001 1.23151
# Poissons Ratio (z) = 0.33110 0.18457
#
# Static dielectric constant tensor:
#      x y z
#    x 3.473630 0.000000 0.000000 
#    y 0.000000 3.484930 0.000000 
#    z 0.000000 0.000000 3.736340 
# 
# 
# High freq. dielectric constant tensor:
#      x y z
#    x 1.754550 0.000000 0.000000 
#    y 0.000000 1.752590 0.000000 
#    z 0.000000 0.000000 1.753440 
# 
# From -- ./inp_files/30359.got.cif
#   From: 2010.03.12/outbox.cif.g09.slc.cpg/sg59_16_cif.got.tgz:30359.got - 2010.04.16 16:29:54.
