data_PCOD8243335
_publ_section_title
;
Structure prediction by ZEFSAII (Michael W. Deem and Ramdas Pophale) SiO2 
 PCOD8243335
Probable space group: P M M N
;
_chemical_formula_sum "Si O2"
_cell_formula_units_Z 64
_cell_length_a 8.982031
_cell_length_b 13.797101
_cell_length_c 25.883617
_cell_angle_alpha 90.000000
_cell_angle_beta 90.000000
_cell_angle_gamma 90.000000
_cell_volume 3207.652833
_symmetry_space_group_name_H-M "P M M N"
_symmetry_group_IT_number 59
_space_group.IT_coordinate_system_code '2'
_symmetry_cell_setting 'orthorhombic'
loop_
_space_group_symop_operation_xyz
x,y,z
1/2-x,1/2-y,z
1/2+x,-y,-z
-x,1/2+y,-z
-x,-y,-z
1/2+x,1/2+y,-z
1/2-x,y,z
x,1/2-y,z
loop_
_atom_site_type_symbol
_atom_site_label
_atom_site_fract_x
_atom_site_fract_y
_atom_site_fract_z
Si Si1 0.583199 0.635135 0.916570
Si Si2 0.921260 0.858907 0.119485
Si Si3 0.417052 0.136263 0.468737
Si Si4 0.574226 0.855502 0.416761
Si Si5 0.918014 0.365606 0.983004
Si Si6 0.074316 0.139085 0.274557
Si Si7 0.422429 0.955155 0.820974
Si Si8 0.924170 0.051866 0.373191
O O1 0.750000 0.593605 0.910116
O O2 0.586758 0.750000 0.920541
O O3 0.484260 0.608178 0.867722
O O4 0.512630 0.591002 0.969165
O O5 0.750000 0.859146 0.101892
O O6 0.971300 0.750000 0.135431
O O7 0.015314 0.900944 0.071512
O O8 0.947155 0.930376 0.167825
O O9 0.250000 0.092878 0.460482
O O10 0.409039 0.250000 0.459901
O O11 0.482158 0.113716 0.526050
O O12 0.535141 0.093273 0.428903
O O13 0.750000 0.846035 0.422257
O O14 0.508265 0.750000 0.399984
O O15 0.533734 0.937026 0.374305
O O16 0.750000 0.403599 0.988018
O O17 0.925211 0.250000 0.984501
O O18 0.250000 0.128971 0.272333
O O19 0.025042 0.250000 0.264744
O O20 0.005421 0.069625 0.231594
O O21 0.019419 0.105478 0.330180
O O22 0.250000 0.929771 0.814253
O O23 0.750000 0.068140 0.362103
#
# Coordination Sequence:
#
# PCOD8243335 Si02
#       8
#     8   8   8   8   8   8   8   8
#     4  10  20  34  53  78 111 149 182 215 265 327
#     4   9  19  37  58  80 109 142 174 211 262 324
#     4   9  17  31  52  78 112 153 188 219 265 325
#     4   8  16  32  53  79 113 151 187 221 263 319
#     4   9  17  30  51  80 111 143 181 223 262 304
#     4  11  25  44  62  79 105 142 178 215 267 328
#     4  11  23  38  59  84 106 134 176 226 273 314
#     4  11  21  33  55  84 110 141 184 232 274 311
#
# _framework density 19.952283000000001
#
# number of rings (size 3 to 8) (size 9 to 14) (size 15 to 20)
#    0.000    2.250    0.000    3.750    0.000    8.000 
#    0.000    1.250    0.000    6.750    0.000    0.000 
#    0.000    0.000    0.000    0.000    0.000    0.000 
#
# Total GULP energy -793575.978745 kJ/mol
# GULP energy per Si atom -12399.624668 kJ/mol
# Density = 1.990687 g / cm^3
# Si number density = 19.952283 Si / 1000 Ang^3
#
#
#
# Elastic Constant Matrix: (Units=GPa)
#
#
# Indices 1 2 3 4 5 6 
#
# 1 85.2184 44.1905 44.4003 0.0000 0.0000 0.0000
# 2 44.1905 65.2067 43.5442 0.0000 0.0000 0.0000
# 3 44.4003 43.5442 63.4455 0.0000 0.0000 0.0000
# 4 0.0000 0.0000 0.0000 31.0996 0.0000 0.0000
# 5 0.0000 0.0000 0.0000 0.0000 32.9205 0.0000
# 6 0.0000 0.0000 0.0000 0.0000 0.0000 20.0498
#
#
#
# Elastic Compliance Matrix: (Units=1/GPa)
#
#
# Indices 1 2 3 4 5 6 
#
# 1 0.020484 -0.007955 -0.008875 0.000000 0.000000 0.000000
# 2 -0.007955 0.031401 -0.015984 0.000000 0.000000 0.000000
# 3 -0.008875 -0.015984 0.032943 0.000000 0.000000 0.000000
# 4 0.000000 0.000000 0.000000 0.032155 0.000000 0.000000
# 5 0.000000 0.000000 0.000000 0.000000 0.030376 0.000000
# 6 0.000000 0.000000 0.000000 0.000000 0.000000 0.049876
#
#
# Mechanical properties :
#
#
# Convention : Reuss Voigt Hill
#
# Bulk Modulus (GPa) = 52.08641 53.12671 52.60656
# Shear Modulus (GPa) = 18.56922 22.26304 20.41613
#
# Velocity S-wave (km/s) = 3.05402 3.34400 3.20229
# Velocity P-wave (km/s) = 6.21274 6.44938 6.33217
#
# Compressibility (1/GPa) = 0.01919887
#
# Stress axis : x y z
#
# Youngs Moduli (GPa) = 48.81895 31.84610 30.35560
#
# Poissons Ratio (x) = 0.25334 0.26941
# Poissons Ratio (y) = 0.38836 0.48521
# Poissons Ratio (z) = 0.43328 0.50903
#
# Static dielectric constant tensor:
#      x y z
#    x 3.669410 0.000000 0.000000 
#    y 0.000000 3.912270 0.000000 
#    z 0.000000 0.000000 3.480510 
# 
# 
# High freq. dielectric constant tensor:
#      x y z
#    x 1.773190 0.000000 0.000000 
#    y 0.000000 1.789120 0.000000 
#    z 0.000000 0.000000 1.760410 
# 
# From -- ./inp_files/31400.got.cif
#   From: 2010.03.12/outbox.cif.g09.slc.cpg/sg59_16_cif.got.tgz:31400.got - 2010.04.16 16:29:54.
