data_PCOD8243803
_publ_section_title
;
Structure prediction by ZEFSAII (Michael W. Deem and Ramdas Pophale) SiO2 
 PCOD8243803
Probable space group: P M M N
;
_chemical_formula_sum "Si O2"
_cell_formula_units_Z 64
_cell_length_a 9.161961
_cell_length_b 18.387977
_cell_length_c 21.070513
_cell_angle_alpha 90.000000
_cell_angle_beta 90.000000
_cell_angle_gamma 90.000000
_cell_volume 3549.747811
_symmetry_space_group_name_H-M "P M M N"
_symmetry_group_IT_number 59
_space_group.IT_coordinate_system_code '2'
_symmetry_cell_setting 'orthorhombic'
loop_
_space_group_symop_operation_xyz
x,y,z
1/2-x,1/2-y,z
1/2+x,-y,-z
-x,1/2+y,-z
-x,-y,-z
1/2+x,1/2+y,-z
1/2-x,y,z
x,1/2-y,z
loop_
_atom_site_type_symbol
_atom_site_label
_atom_site_fract_x
_atom_site_fract_y
_atom_site_fract_z
Si Si1 0.076695 0.076234 0.989955
Si Si2 0.420966 0.834311 0.118050
Si Si3 0.919007 0.101463 0.747496
Si Si4 0.579957 0.028355 0.307595
Si Si5 0.917420 0.833566 0.887816
Si Si6 0.921212 0.331067 0.237641
Si Si7 0.419092 0.666959 0.385936
Si Si8 0.577715 0.963907 0.440928
O O1 0.250000 0.066764 0.983044
O O2 0.015840 0.116160 0.928145
O O3 0.032042 0.122853 0.050900
O O4 0.000000 0.000000 0.000000
O O5 0.250000 0.848702 0.105951
O O6 0.460070 0.750000 0.107245
O O7 0.466146 0.855788 0.189500
O O8 0.750000 0.081910 0.749436
O O9 0.957185 0.152571 0.687663
O O10 0.001940 0.024962 0.742087
O O11 0.750000 0.014999 0.297978
O O12 0.536276 0.111971 0.292848
O O13 0.533534 0.011705 0.379624
O O14 0.750000 0.848543 0.871180
O O15 0.947993 0.750000 0.903453
O O16 0.009640 0.859498 0.827582
O O17 0.750000 0.328874 0.226832
O O18 0.979260 0.250000 0.255878
O O19 0.250000 0.649303 0.399554
O O20 0.456388 0.750000 0.401988
O O21 0.518217 0.617717 0.431673
O O22 0.750000 0.961443 0.452324
O O23 0.500000 0.000000 0.500000
#
# Coordination Sequence:
#
# PCOD8243803 Si02
#       8
#     8   8   8   8   8   8   8   8
#     4  11  24  39  54  74 103 138 179 223 268 319
#     4  10  21  37  56  79 108 140 175 217 266 320
#     4   9  18  32  53  80 108 139 174 214 261 316
#     4   9  19  34  52  77 107 138 173 217 264 310
#     4   9  19  36  55  73  96 129 169 214 263 314
#     4   9  18  33  54  78 102 130 168 214 263 313
#     4   9  17  32  55  81 108 140 179 219 263 317
#     4  10  20  35  54  77 109 145 182 221 261 310
#
# _framework density 18.029450000000001
#
# number of rings (size 3 to 8) (size 9 to 14) (size 15 to 20)
#    0.000    2.500    0.000    1.500    1.750    5.000 
#    0.000    1.875    0.000    4.500    0.000    0.000 
#    0.000    0.000    0.000    0.000    0.000    0.000 
#
# Total GULP energy -793652.934415 kJ/mol
# GULP energy per Si atom -12400.827100 kJ/mol
# Density = 1.798841 g / cm^3
# Si number density = 18.029450 Si / 1000 Ang^3
#
#
#
# Elastic Constant Matrix: (Units=GPa)
#
#
# Indices 1 2 3 4 5 6 
#
# 1 59.2801 55.4256 49.3571 0.0000 0.0000 0.0000
# 2 55.4256 126.4032 75.3817 0.0000 0.0000 0.0000
# 3 49.3571 75.3817 105.8282 0.0000 0.0000 0.0000
# 4 0.0000 0.0000 0.0000 30.2452 0.0000 0.0000
# 5 0.0000 0.0000 0.0000 0.0000 30.2218 0.0000
# 6 0.0000 0.0000 0.0000 0.0000 0.0000 31.6182
#
#
#
# Elastic Compliance Matrix: (Units=1/GPa)
#
#
# Indices 1 2 3 4 5 6 
#
# 1 0.032669 -0.009107 -0.008750 0.000000 0.000000 0.000000
# 2 -0.009107 0.016292 -0.007358 0.000000 0.000000 0.000000
# 3 -0.008750 -0.007358 0.018771 0.000000 0.000000 0.000000
# 4 0.000000 0.000000 0.000000 0.033063 0.000000 0.000000
# 5 0.000000 0.000000 0.000000 0.000000 0.033089 0.000000
# 6 0.000000 0.000000 0.000000 0.000000 0.000000 0.031627
#
#
# Mechanical properties :
#
#
# Convention : Reuss Voigt Hill
#
# Bulk Modulus (GPa) = 57.79100 72.42671 65.10885
# Shear Modulus (GPa) = 22.55234 25.84018 24.19626
#
# Velocity S-wave (km/s) = 3.54059 3.78990 3.66736
# Velocity P-wave (km/s) = 6.98839 7.70776 7.35688
#
# Compressibility (1/GPa) = 0.01730373
#
# Stress axis : x y z
#
# Youngs Moduli (GPa) = 30.61046 61.37923 53.27408
#
# Poissons Ratio (x) = 0.55896 0.46612
# Poissons Ratio (y) = 0.27876 0.39197
# Poissons Ratio (z) = 0.26783 0.45161
#
# Static dielectric constant tensor:
#      x y z
#    x 3.337780 0.000000 0.000000 
#    y 0.000000 3.571950 0.000000 
#    z 0.000000 0.000000 3.358940 
# 
# 
# High freq. dielectric constant tensor:
#      x y z
#    x 1.696050 0.000000 0.000000 
#    y 0.000000 1.705830 0.000000 
#    z 0.000000 0.000000 1.691120 
# 
# From -- ./inp_files/29382.got.cif
#   From: 2010.03.12/outbox.cif.g09.slc.cpg/sg59_15_cif.got.tgz:29382.got - 2010.04.16 16:29:54.
