data_PCOD8243461
_publ_section_title
;
Structure prediction by ZEFSAII (Michael W. Deem and Ramdas Pophale) SiO2 
 PCOD8243461
Probable space group: P M M N
;
_chemical_formula_sum "Si O2"
_cell_formula_units_Z 48
_cell_length_a 8.916594
_cell_length_b 9.878169
_cell_length_c 29.041749
_cell_angle_alpha 90.000000
_cell_angle_beta 90.000000
_cell_angle_gamma 90.000000
_cell_volume 2557.986287
_symmetry_space_group_name_H-M "P M M N"
_symmetry_group_IT_number 59
_space_group.IT_coordinate_system_code '2'
_symmetry_cell_setting 'orthorhombic'
loop_
_space_group_symop_operation_xyz
x,y,z
1/2-x,1/2-y,z
1/2+x,-y,-z
-x,1/2+y,-z
-x,-y,-z
1/2+x,1/2+y,-z
1/2-x,y,z
x,1/2-y,z
loop_
_atom_site_type_symbol
_atom_site_label
_atom_site_fract_x
_atom_site_fract_y
_atom_site_fract_z
Si Si1 0.073321 0.906727 0.038225
Si Si2 0.572050 0.250000 0.568431
Si Si3 0.421590 0.096605 0.305822
Si Si4 0.425573 0.905618 0.223133
Si Si5 0.572379 0.250000 0.464803
Si Si6 0.081873 0.089454 0.868888
Si Si7 0.927139 0.016799 0.397868
O O1 0.250000 0.925998 0.037068
O O2 0.028199 0.750000 0.029732
O O3 0.013871 0.959391 0.087418
O O4 0.000000 0.000000 0.000000
O O5 0.750000 0.250000 0.568164
O O6 0.506374 0.250000 0.516400
O O7 0.513461 0.122350 0.596190
O O8 0.250000 0.062971 0.319928
O O9 0.434556 0.250000 0.287465
O O10 0.477793 0.995442 0.266181
O O11 0.530071 0.080091 0.349110
O O12 0.250000 0.919930 0.213915
O O13 0.469927 0.750000 0.233399
O O14 0.508113 0.964411 0.178121
O O15 0.750000 0.250000 0.465731
O O16 0.515895 0.383114 0.438160
O O17 0.250000 0.031381 0.873182
O O18 0.082083 0.250000 0.867206
O O19 0.750000 0.993294 0.400097
#
# Coordination Sequence:
#
# PCOD8243461 Si02
#       7
#     8   4   8   8   4   8   8
#     4  10  20  34  54  80 111 148 189 232 279 331
#     4  11  23  39  59  85 113 145 185 229 270 321
#     4  10  21  37  56  80 110 146 184 222 273 334
#     4   9  18  33  54  78 104 137 179 228 275 323
#     4   9  20  39  61  83 113 147 183 223 272 329
#     4   9  17  31  52  78 107 140 181 229 279 329
#     4  11  22  39  59  84 114 146 181 226 278 328
#
# _framework density 18.764759999999999
#
# number of rings (size 3 to 8) (size 9 to 14) (size 15 to 20)
#    0.000    2.167    0.833    2.250    1.167    3.667 
#    0.000    3.333    0.000    3.000    0.000    0.000 
#    0.000    0.000    0.000    0.000    0.000    0.000 
#
# Total GULP energy -595312.408226 kJ/mol
# GULP energy per Si atom -12402.341838 kJ/mol
# Density = 1.872205 g / cm^3
# Si number density = 18.764760 Si / 1000 Ang^3
#
#
#
# Elastic Constant Matrix: (Units=GPa)
#
#
# Indices 1 2 3 4 5 6 
#
# 1 74.5494 30.1594 40.1948 0.0000 0.0000 0.0000
# 2 30.1594 90.1989 42.5592 0.0000 0.0000 0.0000
# 3 40.1948 42.5592 122.0036 0.0000 0.0000 0.0000
# 4 0.0000 0.0000 0.0000 34.3338 0.0000 0.0000
# 5 0.0000 0.0000 0.0000 0.0000 36.8352 0.0000
# 6 0.0000 0.0000 0.0000 0.0000 0.0000 18.2386
#
#
#
# Elastic Compliance Matrix: (Units=1/GPa)
#
#
# Indices 1 2 3 4 5 6 
#
# 1 0.017286 -0.003702 -0.004404 0.000000 0.000000 0.000000
# 2 -0.003702 0.014064 -0.003686 0.000000 0.000000 0.000000
# 3 -0.004404 -0.003686 0.010933 0.000000 0.000000 0.000000
# 4 0.000000 0.000000 0.000000 0.029126 0.000000 0.000000
# 5 0.000000 0.000000 0.000000 0.000000 0.027148 0.000000
# 6 0.000000 0.000000 0.000000 0.000000 0.000000 0.054829
#
#
# Mechanical properties :
#
#
# Convention : Reuss Voigt Hill
#
# Bulk Modulus (GPa) = 53.47855 56.95317 55.21586
# Shear Modulus (GPa) = 27.29229 29.47077 28.38153
#
# Velocity S-wave (km/s) = 3.81785 3.96730 3.89329
# Velocity P-wave (km/s) = 6.92792 7.16959 7.04979
#
# Compressibility (1/GPa) = 0.01869909
#
# Stress axis : x y z
#
# Youngs Moduli (GPa) = 57.85075 71.10465 91.46485
#
# Poissons Ratio (x) = 0.26323 0.40277
# Poissons Ratio (y) = 0.21417 0.33717
# Poissons Ratio (z) = 0.25475 0.26211
#
# Static dielectric constant tensor:
#      x y z
#    x 3.434470 0.000000 0.000000 
#    y 0.000000 3.396600 0.000000 
#    z 0.000000 0.000000 3.593170 
# 
# 
# High freq. dielectric constant tensor:
#      x y z
#    x 1.726940 0.000000 0.000000 
#    y 0.000000 1.714890 0.000000 
#    z 0.000000 0.000000 1.736570 
# 
# From -- ./inp_files/33012.got.cif
#   From: 2010.03.12/outbox.cif.g09.slc.cpg/sg59_17_cif.got.tgz:33012.got - 2010.04.16 16:29:54.
