data_PCOD8243265
_publ_section_title
;
Structure prediction by ZEFSAII (Michael W. Deem and Ramdas Pophale) SiO2 
 PCOD8243265
Probable space group: P M M N
;
_chemical_formula_sum "Si O2"
_cell_formula_units_Z 48
_cell_length_a 14.165277
_cell_length_b 8.890082
_cell_length_c 21.342613
_cell_angle_alpha 90.000000
_cell_angle_beta 90.000000
_cell_angle_gamma 90.000000
_cell_volume 2687.685373
_symmetry_space_group_name_H-M "P M M N"
_symmetry_group_IT_number 59
_space_group.IT_coordinate_system_code '2'
_symmetry_cell_setting 'orthorhombic'
loop_
_space_group_symop_operation_xyz
x,y,z
1/2-x,1/2-y,z
1/2+x,-y,-z
-x,1/2+y,-z
-x,-y,-z
1/2+x,1/2+y,-z
1/2-x,y,z
x,1/2-y,z
loop_
_atom_site_type_symbol
_atom_site_label
_atom_site_fract_x
_atom_site_fract_y
_atom_site_fract_z
Si Si1 0.139489 0.074532 0.664108
Si Si2 0.005670 0.928273 0.567591
Si Si3 0.010137 0.571645 0.761919
Si Si4 0.356355 0.072660 0.999331
Si Si5 0.854227 0.572699 0.666979
Si Si6 0.986827 0.427393 0.095639
O O1 0.250000 0.042993 0.664323
O O2 0.115636 0.250000 0.659395
O O3 0.096422 0.990979 0.603952
O O4 0.097828 0.008802 0.728556
O O5 0.015236 0.750000 0.562384
O O6 0.910963 0.976318 0.604866
O O7 0.000000 0.000000 0.500000
O O8 0.025182 0.750000 0.756338
O O9 0.004558 0.515870 0.833285
O O10 0.912662 0.521811 0.728335
O O11 0.250000 0.016515 0.011410
O O12 0.360501 0.250000 0.990775
O O13 0.419475 0.020188 0.058367
O O14 0.394475 0.999750 0.935436
O O15 0.750000 0.497043 0.667340
O O16 0.842765 0.750000 0.667769
O O17 0.975033 0.250000 0.092994
#
# Coordination Sequence:
#
# PCOD8243265 Si02
#       6
#     8   8   8   8   8   8
#     4  10  21  36  53  73  99 133 171 209 249 294
#     4  10  20  34  53  77 104 134 167 204 248 295
#     4   9  18  32  51  74  98 126 161 203 252 301
#     4   9  18  32  49  70  97 129 165 203 242 289
#     4   8  15  29  49  72  96 122 155 196 240 288
#     4   9  18  32  49  71  98 127 161 202 248 297
#
# _framework density 17.859231999999999
#
# number of rings (size 3 to 8) (size 9 to 14) (size 15 to 20)
#    0.000    2.833    0.000    2.000    0.000    4.333 
#    0.000    8.333    0.000   12.000    0.000    7.000 
#    0.000    0.000    0.000    0.000    0.000    0.000 
#
# Total GULP energy -595152.307280 kJ/mol
# GULP energy per Si atom -12399.006402 kJ/mol
# Density = 1.781858 g / cm^3
# Si number density = 17.859232 Si / 1000 Ang^3
#
#
#
# Elastic Constant Matrix: (Units=GPa)
#
#
# Indices 1 2 3 4 5 6 
#
# 1 144.1230 44.0735 78.7587 0.0000 0.0000 0.0000
# 2 44.0735 47.3684 44.9112 0.0000 0.0000 0.0000
# 3 78.7587 44.9112 178.9243 0.0000 0.0000 0.0000
# 4 0.0000 0.0000 0.0000 30.2931 0.0000 0.0000
# 5 0.0000 0.0000 0.0000 0.0000 14.0712 0.0000
# 6 0.0000 0.0000 0.0000 0.0000 0.0000 24.3332
#
#
#
# Elastic Compliance Matrix: (Units=1/GPa)
#
#
# Indices 1 2 3 4 5 6 
#
# 1 0.010742 -0.007233 -0.002913 0.000000 0.000000 0.000000
# 2 -0.007233 0.032575 -0.004993 0.000000 0.000000 0.000000
# 3 -0.002913 -0.004993 0.008124 0.000000 0.000000 0.000000
# 4 0.000000 0.000000 0.000000 0.033011 0.000000 0.000000
# 5 0.000000 0.000000 0.000000 0.000000 0.071067 0.000000
# 6 0.000000 0.000000 0.000000 0.000000 0.000000 0.041096
#
#
# Mechanical properties :
#
#
# Convention : Reuss Voigt Hill
#
# Bulk Modulus (GPa) = 47.25020 78.43362 62.84191
# Shear Modulus (GPa) = 21.37230 27.25100 24.31165
#
# Velocity S-wave (km/s) = 3.46310 3.91049 3.69357
# Velocity P-wave (km/s) = 6.51960 8.02510 7.31121
#
# Compressibility (1/GPa) = 0.02116393
#
# Stress axis : x y z
#
# Youngs Moduli (GPa) = 93.08974 30.69855 123.08692
#
# Poissons Ratio (x) = 0.22205 0.35855
# Poissons Ratio (y) = 0.67334 0.61452
# Poissons Ratio (z) = 0.27117 0.15326
#
# Static dielectric constant tensor:
#      x y z
#    x 3.569850 0.000000 0.000000 
#    y 0.000000 3.154920 0.000000 
#    z 0.000000 0.000000 3.450160 
# 
# 
# High freq. dielectric constant tensor:
#      x y z
#    x 1.694810 0.000000 0.000000 
#    y 0.000000 1.675350 0.000000 
#    z 0.000000 0.000000 1.695210 
# 
# From -- ./inp_files/30200.got.cif
#   From: 2010.03.12/outbox.cif.g09.slc.cpg/sg59_16_cif.got.tgz:30200.got - 2010.04.16 16:29:54.
