data_PCOD8243177
_publ_section_title
;
Structure prediction by ZEFSAII (Michael W. Deem and Ramdas Pophale) SiO2 
 PCOD8243177
Probable space group: P M M N
;
_chemical_formula_sum "Si O2"
_cell_formula_units_Z 56
_cell_length_a 9.067410
_cell_length_b 13.320472
_cell_length_c 23.385405
_cell_angle_alpha 90.000000
_cell_angle_beta 90.000000
_cell_angle_gamma 90.000000
_cell_volume 2824.540220
_symmetry_space_group_name_H-M "P M M N"
_symmetry_group_IT_number 59
_space_group.IT_coordinate_system_code '2'
_symmetry_cell_setting 'orthorhombic'
loop_
_space_group_symop_operation_xyz
x,y,z
1/2-x,1/2-y,z
1/2+x,-y,-z
-x,1/2+y,-z
-x,-y,-z
1/2+x,1/2+y,-z
1/2-x,y,z
x,1/2-y,z
loop_
_atom_site_type_symbol
_atom_site_label
_atom_site_fract_x
_atom_site_fract_y
_atom_site_fract_z
Si Si1 0.414084 0.132242 0.907985
Si Si2 0.578697 0.866268 0.306335
Si Si3 0.078392 0.548569 0.415143
Si Si4 0.583267 0.370006 0.017668
Si Si5 0.417848 0.362229 0.129006
Si Si6 0.079192 0.635344 0.538518
Si Si7 0.919823 0.050033 0.801179
O O1 0.250000 0.086371 0.900021
O O2 0.402538 0.250000 0.917306
O O3 0.512712 0.114470 0.852420
O O4 0.488728 0.084359 0.964911
O O5 0.750000 0.893238 0.310042
O O6 0.553379 0.750000 0.291677
O O7 0.504375 0.891341 0.366179
O O8 0.506166 0.932568 0.257108
O O9 0.250000 0.542913 0.400208
O O10 0.046497 0.610127 0.472674
O O11 0.017227 0.435291 0.420408
O O12 0.750000 0.408447 0.011365
O O13 0.575188 0.250000 0.016477
O O14 0.518375 0.407295 0.078309
O O15 0.250000 0.362886 0.106601
O O16 0.466955 0.250000 0.146625
O O17 0.435908 0.431990 0.184505
O O18 0.250000 0.616687 0.552643
O O19 0.033248 0.750000 0.550318
O O20 0.750000 0.081974 0.793505
#
# Coordination Sequence:
#
# PCOD8243177 Si02
#       7
#     8   8   8   8   8   8   8
#     4  10  20  34  52  75 106 141 173 212 267 327
#     4  11  24  41  60  82 111 148 187 227 274 330
#     4  10  20  35  58  88 120 155 196 238 280 328
#     4   9  17  30  51  78 104 132 170 215 263 319
#     4   9  19  37  57  76 101 133 170 215 269 328
#     4   9  18  34  57  87 124 161 195 235 282 329
#     4  11  23  37  56  80 104 136 179 226 274 323
#
# _framework density 19.826236000000002
#
# number of rings (size 3 to 8) (size 9 to 14) (size 15 to 20)
#    0.000    2.143    0.000    3.000    0.000    8.571 
#    0.000    0.714    0.000    2.571    0.000    0.000 
#    0.000    0.000    0.000    0.000    0.000    0.000 
#
# Total GULP energy -694619.332400 kJ/mol
# GULP energy per Si atom -12403.916650 kJ/mol
# Density = 1.978111 g / cm^3
# Si number density = 19.826236 Si / 1000 Ang^3
#
#
#
# Elastic Constant Matrix: (Units=GPa)
#
#
# Indices 1 2 3 4 5 6 
#
# 1 129.8917 37.6001 50.0848 0.0000 0.0000 0.0000
# 2 37.6001 62.6653 15.9669 0.0000 0.0000 0.0000
# 3 50.0848 15.9669 75.3008 0.0000 0.0000 0.0000
# 4 0.0000 0.0000 0.0000 29.9241 0.0000 0.0000
# 5 0.0000 0.0000 0.0000 0.0000 39.8502 0.0000
# 6 0.0000 0.0000 0.0000 0.0000 0.0000 27.5781
#
#
#
# Elastic Compliance Matrix: (Units=1/GPa)
#
#
# Indices 1 2 3 4 5 6 
#
# 1 0.011862 -0.005399 -0.006745 0.000000 0.000000 0.000000
# 2 -0.005399 0.019326 -0.000507 0.000000 0.000000 0.000000
# 3 -0.006745 -0.000507 0.017874 0.000000 0.000000 0.000000
# 4 0.000000 0.000000 0.000000 0.033418 0.000000 0.000000
# 5 0.000000 0.000000 0.000000 0.000000 0.025094 0.000000
# 6 0.000000 0.000000 0.000000 0.000000 0.000000 0.036261
#
#
# Mechanical properties :
#
#
# Convention : Reuss Voigt Hill
#
# Bulk Modulus (GPa) = 42.08670 52.79571 47.44121
# Shear Modulus (GPa) = 28.23929 30.41753 29.32841
#
# Velocity S-wave (km/s) = 3.77814 3.92114 3.85030
# Velocity P-wave (km/s) = 6.34872 6.86932 6.61414
#
# Compressibility (1/GPa) = 0.02376047
#
# Stress axis : x y z
#
# Youngs Moduli (GPa) = 84.29937 51.74259 55.94700
#
# Poissons Ratio (x) = 0.27936 0.37738
# Poissons Ratio (y) = 0.45513 0.02836
# Poissons Ratio (z) = 0.56862 0.02623
#
# Static dielectric constant tensor:
#      x y z
#    x 3.802890 0.000000 0.000000 
#    y 0.000000 3.665450 0.000000 
#    z 0.000000 0.000000 3.402460 
# 
# 
# High freq. dielectric constant tensor:
#      x y z
#    x 1.784770 0.000000 0.000000 
#    y 0.000000 1.783000 0.000000 
#    z 0.000000 0.000000 1.753880 
# 
# From -- ./inp_files/29025.got.cif
#   From: 2010.03.12/outbox.cif.g09.slc.cpg/sg59_15_cif.got.tgz:29025.got - 2010.04.16 16:29:54.
