data_PCOD8243357
_publ_section_title
;
Structure prediction by ZEFSAII (Michael W. Deem and Ramdas Pophale) SiO2 
 PCOD8243357
Probable space group: P M M N
;
_chemical_formula_sum "Si O2"
_cell_formula_units_Z 64
_cell_length_a 14.127163
_cell_length_b 9.240201
_cell_length_c 26.210516
_cell_angle_alpha 90.000000
_cell_angle_beta 90.000000
_cell_angle_gamma 90.000000
_cell_volume 3421.463769
_symmetry_space_group_name_H-M "P M M N"
_symmetry_group_IT_number 59
_space_group.IT_coordinate_system_code '2'
_symmetry_cell_setting 'orthorhombic'
loop_
_space_group_symop_operation_xyz
x,y,z
1/2-x,1/2-y,z
1/2+x,-y,-z
-x,1/2+y,-z
-x,-y,-z
1/2+x,1/2+y,-z
1/2-x,y,z
x,1/2-y,z
loop_
_atom_site_type_symbol
_atom_site_label
_atom_site_fract_x
_atom_site_fract_y
_atom_site_fract_z
Si Si1 0.015269 0.918159 0.175799
Si Si2 0.637330 0.086886 0.997620
Si Si3 0.012263 0.081993 0.709419
Si Si4 0.988887 0.920159 0.553001
Si Si5 0.637834 0.914581 0.899697
Si Si6 0.142334 0.083924 0.904552
Si Si7 0.357628 0.581803 0.636227
Si Si8 0.358853 0.917105 0.373249
O O1 0.044610 0.750000 0.174564
O O2 0.002073 0.974477 0.233263
O O3 0.917621 0.946398 0.146020
O O4 0.099267 0.010201 0.151151
O O5 0.750000 0.083731 0.997075
O O6 0.598107 0.250000 0.994908
O O7 0.597901 0.999754 0.948969
O O8 0.600707 0.011707 0.049276
O O9 0.037945 0.250000 0.709205
O O10 0.916183 0.049221 0.678410
O O11 0.101446 0.001160 0.684974
O O12 0.975184 0.750000 0.544203
O O13 0.082445 0.955670 0.585808
O O14 0.896516 0.982570 0.581204
O O15 0.000000 0.000000 0.500000
O O16 0.750000 0.922102 0.897295
O O17 0.601941 0.750000 0.902885
O O18 0.250000 0.040589 0.891511
O O19 0.135817 0.250000 0.922177
O O20 0.250000 0.532304 0.626249
O O21 0.364171 0.750000 0.649105
O O22 0.250000 0.955623 0.362623
O O23 0.371459 0.750000 0.389602
#
# Coordination Sequence:
#
# PCOD8243357 Si02
#       8
#     8   8   8   8   8   8   8   8
#     4  10  21  35  53  78 105 134 169 210 258 308
#     4   9  17  31  52  75  98 127 165 208 253 304
#     4   9  19  35  54  78 105 133 172 221 265 306
#     4  10  20  34  53  80 114 146 178 219 262 306
#     4  10  21  36  53  74 101 133 168 207 254 308
#     4   9  18  33  51  72 101 134 166 203 251 308
#     4   9  19  36  56  77 104 142 182 216 258 310
#     4   9  18  34  55  77 104 141 181 219 263 312
#
# _framework density 18.705445000000001
#
# number of rings (size 3 to 8) (size 9 to 14) (size 15 to 20)
#    0.000    2.625    0.000    1.125    0.000    6.250 
#    0.000    3.750    0.000    1.500    0.000    0.000 
#    0.000    0.000    0.000    0.000    0.000    0.000 
#
# Total GULP energy -793785.451590 kJ/mol
# GULP energy per Si atom -12402.897681 kJ/mol
# Density = 1.866287 g / cm^3
# Si number density = 18.705445 Si / 1000 Ang^3
#
#
#
# Elastic Constant Matrix: (Units=GPa)
#
#
# Indices 1 2 3 4 5 6 
#
# 1 90.8015 43.7931 48.5523 0.0000 0.0000 0.0000
# 2 43.7931 98.0656 72.4122 0.0000 0.0000 0.0000
# 3 48.5523 72.4122 162.1890 0.0000 0.0000 0.0000
# 4 0.0000 0.0000 0.0000 33.1120 0.0000 0.0000
# 5 0.0000 0.0000 0.0000 0.0000 -1.4219 0.0000
# 6 0.0000 0.0000 0.0000 0.0000 0.0000 27.0529
#
#
#
# Elastic Compliance Matrix: (Units=1/GPa)
#
#
# Indices 1 2 3 4 5 6 
#
# 1 0.014529 -0.004888 -0.002167 0.000000 0.000000 0.000000
# 2 -0.004888 0.016857 -0.006063 0.000000 0.000000 0.000000
# 3 -0.002167 -0.006063 0.009521 0.000000 0.000000 0.000000
# 4 0.000000 0.000000 0.000000 0.030201 0.000000 0.000000
# 5 0.000000 0.000000 0.000000 0.000000 -0.703263 0.000000
# 6 0.000000 0.000000 0.000000 0.000000 0.000000 0.036965
#
#
# Mechanical properties :
#
#
# Convention : Reuss Voigt Hill
#
# Bulk Modulus (GPa) = 68.15951 75.61904 71.88927
# Shear Modulus (GPa) = -8.86425 24.16848 7.65212
#
# Velocity S-wave (km/s) = -2.17925 3.59842 2.02478
# Velocity P-wave (km/s) = 5.49411 7.60124 6.63189
#
# Compressibility (1/GPa) = 0.01467147
#
# Stress axis : x y z
#
# Youngs Moduli (GPa) = 68.82640 59.32266 105.02891
#
# Poissons Ratio (x) = 0.28998 0.22760
# Poissons Ratio (y) = 0.33644 0.63677
# Poissons Ratio (z) = 0.14915 0.35966
#
# Static dielectric constant tensor:
#      x y z
#    x 3.434910 0.000000 0.000000 
#    y 0.000000 3.508850 0.000000 
#    z 0.000000 0.000000 3.441130 
# 
# 
# High freq. dielectric constant tensor:
#      x y z
#    x 1.726390 0.000000 0.000000 
#    y 0.000000 1.727010 0.000000 
#    z 0.000000 0.000000 1.722210 
# 
# From -- ./inp_files/31603.got.cif
#   From: 2010.03.12/outbox.cif.g09.slc.cpg/sg59_16_cif.got.tgz:31603.got - 2010.04.16 16:29:54.
