data_PCOD8243010
_publ_section_title
;
Structure prediction by ZEFSAII (Michael W. Deem and Ramdas Pophale) SiO2 
 PCOD8243010
Probable space group: P M M N
;
_chemical_formula_sum "Si O2"
_cell_formula_units_Z 64
_cell_length_a 9.305152
_cell_length_b 13.717723
_cell_length_c 25.928335
_cell_angle_alpha 90.000000
_cell_angle_beta 90.000000
_cell_angle_gamma 90.000000
_cell_volume 3309.635223
_symmetry_space_group_name_H-M "P M M N"
_symmetry_group_IT_number 59
_space_group.IT_coordinate_system_code '2'
_symmetry_cell_setting 'orthorhombic'
loop_
_space_group_symop_operation_xyz
x,y,z
1/2-x,1/2-y,z
1/2+x,-y,-z
-x,1/2+y,-z
-x,-y,-z
1/2+x,1/2+y,-z
1/2-x,y,z
x,1/2-y,z
loop_
_atom_site_type_symbol
_atom_site_label
_atom_site_fract_x
_atom_site_fract_y
_atom_site_fract_z
Si Si1 0.587963 0.134123 0.578303
Si Si2 0.419631 0.037166 0.669676
Si Si3 0.917768 0.638495 0.633115
Si Si4 0.083874 0.543997 0.130732
Si Si5 0.409599 0.366269 0.482814
Si Si6 0.081577 0.361181 0.776611
Si Si7 0.912477 0.365258 0.975110
Si Si8 0.084379 0.358329 0.073110
O O1 0.750000 0.093486 0.584837
O O2 0.587368 0.250000 0.576736
O O3 0.488945 0.101564 0.625033
O O4 0.524426 0.092612 0.524167
O O5 0.250000 0.029799 0.660785
O O6 0.459012 0.089942 0.722681
O O7 0.488535 0.928988 0.670975
O O8 0.750000 0.629946 0.646891
O O9 0.969444 0.750000 0.639504
O O10 0.946847 0.597903 0.575082
O O11 0.250000 0.570330 0.140758
O O12 0.026152 0.596711 0.079175
O O13 0.060984 0.427821 0.122567
O O14 0.993324 0.577417 0.179085
O O15 0.250000 0.401566 0.498741
O O16 0.412274 0.250000 0.481446
O O17 0.250000 0.364690 0.786713
O O18 0.025396 0.250000 0.776653
O O19 0.750000 0.403238 0.982155
O O20 0.921559 0.250000 0.974001
O O21 0.004124 0.404071 0.023527
O O22 0.250000 0.354950 0.057348
O O23 0.027321 0.250000 0.087380
#
# Coordination Sequence:
#
# PCOD8243010 Si02
#       8
#     8   8   8   8   8   8   8   8
#     4  10  20  33  52  80 111 142 179 222 267 320
#     4  11  23  38  57  79 105 140 179 221 271 324
#     4   9  19  37  59  82 109 140 176 219 264 313
#     4  10  20  34  54  79 107 141 180 222 267 313
#     4   8  15  30  52  77 107 142 175 211 260 315
#     4  10  23  42  60  79 104 134 172 219 268 318
#     4   9  17  29  47  75 109 142 178 220 266 314
#     4   9  18  32  50  76 111 147 181 216 255 304
#
# _framework density 19.337478000000001
#
# number of rings (size 3 to 8) (size 9 to 14) (size 15 to 20)
#    0.000    2.500    0.000    2.625    0.000    5.250 
#    0.000    3.125    0.000    2.250    0.000    0.000 
#    0.000    0.000    0.000    0.000    0.000    0.000 
#
# Total GULP energy -793601.749762 kJ/mol
# GULP energy per Si atom -12400.027340 kJ/mol
# Density = 1.929347 g / cm^3
# Si number density = 19.337478 Si / 1000 Ang^3
#
#
#
# Elastic Constant Matrix: (Units=GPa)
#
#
# Indices 1 2 3 4 5 6 
#
# 1 74.8629 38.9827 59.7710 0.0000 0.0000 0.0000
# 2 38.9827 68.4220 56.4341 0.0000 0.0000 0.0000
# 3 59.7710 56.4341 119.1601 0.0000 0.0000 0.0000
# 4 0.0000 0.0000 0.0000 29.6659 0.0000 0.0000
# 5 0.0000 0.0000 0.0000 0.0000 36.3292 0.0000
# 6 0.0000 0.0000 0.0000 0.0000 0.0000 27.4424
#
#
#
# Elastic Compliance Matrix: (Units=1/GPa)
#
#
# Indices 1 2 3 4 5 6 
#
# 1 0.023726 -0.006075 -0.009024 0.000000 0.000000 0.000000
# 2 -0.006075 0.025539 -0.009048 0.000000 0.000000 0.000000
# 3 -0.009024 -0.009048 0.017204 0.000000 0.000000 0.000000
# 4 0.000000 0.000000 0.000000 0.033709 0.000000 0.000000
# 5 0.000000 0.000000 0.000000 0.000000 0.027526 0.000000
# 6 0.000000 0.000000 0.000000 0.000000 0.000000 0.036440
#
#
# Mechanical properties :
#
#
# Convention : Reuss Voigt Hill
#
# Bulk Modulus (GPa) = 55.02075 63.64673 59.33374
# Shear Modulus (GPa) = 22.88381 25.83798 24.36089
#
# Velocity S-wave (km/s) = 3.44378 3.65932 3.55318
# Velocity P-wave (km/s) = 6.65789 7.13017 6.89807
#
# Compressibility (1/GPa) = 0.01817496
#
# Stress axis : x y z
#
# Youngs Moduli (GPa) = 42.14841 39.15567 58.12689
#
# Poissons Ratio (x) = 0.23785 0.52453
# Poissons Ratio (y) = 0.25603 0.52595
# Poissons Ratio (z) = 0.38034 0.35429
#
# Static dielectric constant tensor:
#      x y z
#    x 3.571230 0.000000 0.000000 
#    y 0.000000 3.715610 0.000000 
#    z 0.000000 0.000000 3.392370 
# 
# 
# High freq. dielectric constant tensor:
#      x y z
#    x 1.746910 0.000000 0.000000 
#    y 0.000000 1.770140 0.000000 
#    z 0.000000 0.000000 1.733370 
# 
# From -- ./inp_files/31505.got.cif
#   From: 2010.03.12/outbox.cif.g09.slc.cpg/sg59_16_cif.got.tgz:31505.got - 2010.04.16 16:29:54.
