data_PCOD8243316
_publ_section_title
;
Structure prediction by ZEFSAII (Michael W. Deem and Ramdas Pophale) SiO2 
 PCOD8243316
Probable space group: P M M N
;
_chemical_formula_sum "Si O2"
_cell_formula_units_Z 48
_cell_length_a 8.926491
_cell_length_b 9.023699
_cell_length_c 30.861732
_cell_angle_alpha 90.000000
_cell_angle_beta 90.000000
_cell_angle_gamma 90.000000
_cell_volume 2485.911522
_symmetry_space_group_name_H-M "P M M N"
_symmetry_group_IT_number 59
_space_group.IT_coordinate_system_code '2'
_symmetry_cell_setting 'orthorhombic'
loop_
_space_group_symop_operation_xyz
x,y,z
1/2-x,1/2-y,z
1/2+x,-y,-z
-x,1/2+y,-z
-x,-y,-z
1/2+x,1/2+y,-z
1/2-x,y,z
x,1/2-y,z
loop_
_atom_site_type_symbol
_atom_site_label
_atom_site_fract_x
_atom_site_fract_y
_atom_site_fract_z
Si Si1 0.425757 0.579275 0.119744
Si Si2 0.928108 0.417070 0.625935
Si Si3 0.927339 0.579940 0.540393
Si Si4 0.077465 0.076220 0.287735
Si Si5 0.424643 0.080124 0.790560
Si Si6 0.077338 0.575785 0.959556
O O1 0.250000 0.550517 0.119095
O O2 0.464690 0.750000 0.109441
O O3 0.487998 0.532475 0.166384
O O4 0.501824 0.475715 0.084591
O O5 0.750000 0.418801 0.625400
O O6 0.990982 0.250000 0.624927
O O7 0.989377 0.504031 0.584115
O O8 0.985865 0.496870 0.669316
O O9 0.750000 0.563834 0.537020
O O10 0.978069 0.750000 0.540912
O O11 0.000000 0.500000 0.500000
O O12 0.250000 0.032310 0.279049
O O13 0.059454 0.250000 0.294701
O O14 0.978007 0.025273 0.247698
O O15 0.250000 0.055765 0.799011
O O16 0.461084 0.250000 0.778275
O O17 0.250000 0.528726 0.958850
O O18 0.057098 0.750000 0.964386
O O19 0.000000 0.500000 0.000000
#
# Coordination Sequence:
#
# PCOD8243316 Si02
#       6
#     8   8   8   8   8   8
#     4  10  21  38  61  87 113 144 185 230 275 325
#     4   9  17  31  53  78 104 137 177 221 269 321
#     4  10  20  34  53  78 108 141 178 221 269 322
#     4  10  20  34  54  80 108 139 177 221 268 319
#     4  10  21  37  57  81 110 145 182 221 269 323
#     4  11  24  40  59  85 116 150 188 229 275 327
#
# _framework density 19.308814000000002
#
# number of rings (size 3 to 8) (size 9 to 14) (size 15 to 20)
#    0.000    2.000    0.000    3.500    0.000   10.000 
#    0.000    0.833    0.000    5.000    0.000    0.000 
#    0.000    0.000    0.000    0.000    0.000    0.000 
#
# Total GULP energy -595420.103812 kJ/mol
# GULP energy per Si atom -12404.585496 kJ/mol
# Density = 1.926487 g / cm^3
# Si number density = 19.308814 Si / 1000 Ang^3
#
#
#
# Elastic Constant Matrix: (Units=GPa)
#
#
# Indices 1 2 3 4 5 6 
#
# 1 72.9621 43.8263 53.7746 0.0000 0.0000 0.0000
# 2 43.8263 111.1880 72.7660 0.0000 0.0000 0.0000
# 3 53.7746 72.7660 159.7381 0.0000 0.0000 0.0000
# 4 0.0000 0.0000 0.0000 44.6440 0.0000 0.0000
# 5 0.0000 0.0000 0.0000 0.0000 34.1813 0.0000
# 6 0.0000 0.0000 0.0000 0.0000 0.0000 27.8844
#
#
#
# Elastic Compliance Matrix: (Units=1/GPa)
#
#
# Indices 1 2 3 4 5 6 
#
# 1 0.019972 -0.004947 -0.004470 0.000000 0.000000 0.000000
# 2 -0.004947 0.014039 -0.004730 0.000000 0.000000 0.000000
# 3 -0.004470 -0.004730 0.009920 0.000000 0.000000 0.000000
# 4 0.000000 0.000000 0.000000 0.022399 0.000000 0.000000
# 5 0.000000 0.000000 0.000000 0.000000 0.029256 0.000000
# 6 0.000000 0.000000 0.000000 0.000000 0.000000 0.035862
#
#
# Mechanical properties :
#
#
# Convention : Reuss Voigt Hill
#
# Bulk Modulus (GPa) = 63.95069 76.06911 70.00990
# Shear Modulus (GPa) = 30.31157 32.91001 31.61079
#
# Velocity S-wave (km/s) = 3.96641 4.13292 4.05052
# Velocity P-wave (km/s) = 7.35992 7.89027 7.62970
#
# Compressibility (1/GPa) = 0.01563705
#
# Stress axis : x y z
#
# Youngs Moduli (GPa) = 50.07132 71.22938 100.81008
#
# Poissons Ratio (x) = 0.35236 0.45060
# Poissons Ratio (y) = 0.24769 0.47683
# Poissons Ratio (z) = 0.22381 0.33691
#
# Static dielectric constant tensor:
#      x y z
#    x 3.417730 0.000000 0.000000 
#    y 0.000000 3.644650 0.000000 
#    z 0.000000 0.000000 3.748480 
# 
# 
# High freq. dielectric constant tensor:
#      x y z
#    x 1.735940 0.000000 0.000000 
#    y 0.000000 1.759340 0.000000 
#    z 0.000000 0.000000 1.768490 
# 
# From -- ./inp_files/32782.got.cif
#   From: 2010.03.12/outbox.cif.g09.slc.cpg/sg59_17_cif.got.tgz:32782.got - 2010.04.16 16:29:54.
