data_PCOD8243697
_publ_section_title
;
Structure prediction by ZEFSAII (Michael W. Deem and Ramdas Pophale) SiO2 
 PCOD8243697
Probable space group: P M M N
;
_chemical_formula_sum "Si O2"
_cell_formula_units_Z 56
_cell_length_a 15.137545
_cell_length_b 8.836593
_cell_length_c 20.805154
_cell_angle_alpha 90.000000
_cell_angle_beta 90.000000
_cell_angle_gamma 90.000000
_cell_volume 2782.987364
_symmetry_space_group_name_H-M "P M M N"
_symmetry_group_IT_number 59
_space_group.IT_coordinate_system_code '2'
_symmetry_cell_setting 'orthorhombic'
loop_
_space_group_symop_operation_xyz
x,y,z
1/2-x,1/2-y,z
1/2+x,-y,-z
-x,1/2+y,-z
-x,-y,-z
1/2+x,1/2+y,-z
1/2-x,y,z
x,1/2-y,z
loop_
_atom_site_type_symbol
_atom_site_label
_atom_site_fract_x
_atom_site_fract_y
_atom_site_fract_z
Si Si1 0.146414 0.428876 0.981905
Si Si2 0.509665 0.572668 0.908646
Si Si3 0.017083 0.573570 0.223700
Si Si4 0.418891 0.926140 0.589115
Si Si5 0.909476 0.074742 0.643141
Si Si6 0.152661 0.416087 0.470632
Si Si7 0.153891 0.077808 0.702234
O O1 0.250000 0.488089 0.982508
O O2 0.148796 0.250000 0.973384
O O3 0.085560 0.496164 0.924606
O O4 0.092165 0.476902 0.046077
O O5 0.494356 0.750000 0.913094
O O6 0.541223 0.525145 0.837915
O O7 0.020091 0.750000 0.205421
O O8 0.087266 0.536090 0.280697
O O9 0.919282 0.524234 0.246833
O O10 0.441096 0.750000 0.594639
O O11 0.498448 0.032251 0.610621
O O12 0.398343 0.965210 0.515312
O O13 0.341790 0.971914 0.638820
O O14 0.888277 0.250000 0.633783
O O15 0.839062 0.977265 0.602846
O O16 0.250000 0.399709 0.498750
O O17 0.106445 0.250000 0.471235
O O18 0.250000 0.067296 0.735690
O O19 0.132100 0.250000 0.680815
#
# Coordination Sequence:
#
# PCOD8243697 Si02
#       7
#     8   8   8   8   8   8   8
#     4   9  19  37  59  82 112 150 185 216 259 316
#     4  10  20  34  56  86 115 142 179 227 268 307
#     4   9  19  35  54  76 105 144 180 211 258 316
#     4  11  21  33  52  76 102 132 169 215 268 323
#     4  10  21  38  57  75  99 133 175 217 257 309
#     4  11  23  37  53  74 101 132 168 214 268 320
#     4   9  18  33  51  72 101 137 178 221 265 319
#
# _framework density 20.122261000000002
#
# number of rings (size 3 to 8) (size 9 to 14) (size 15 to 20)
#    0.000    2.143    0.000    4.286    0.000    7.429 
#    0.000    2.143    0.000    2.571    0.000    0.000 
#    0.000    0.000    0.000    0.000    0.000    0.000 
#
# Total GULP energy -693872.516018 kJ/mol
# GULP energy per Si atom -12390.580643 kJ/mol
# Density = 2.007646 g / cm^3
# Si number density = 20.122261 Si / 1000 Ang^3
#
#
#
# Elastic Constant Matrix: (Units=GPa)
#
#
# Indices 1 2 3 4 5 6 
#
# 1 68.6333 9.2173 13.5866 0.0000 0.0000 0.0000
# 2 9.2173 53.5307 27.4548 0.0000 0.0000 0.0000
# 3 13.5866 27.4548 109.6941 0.0000 0.0000 0.0000
# 4 0.0000 0.0000 0.0000 36.1489 0.0000 0.0000
# 5 0.0000 0.0000 0.0000 0.0000 18.5519 0.0000
# 6 0.0000 0.0000 0.0000 0.0000 0.0000 20.7757
#
#
#
# Elastic Compliance Matrix: (Units=1/GPa)
#
#
# Indices 1 2 3 4 5 6 
#
# 1 0.015100 -0.001882 -0.001399 0.000000 0.000000 0.000000
# 2 -0.001882 0.021667 -0.005190 0.000000 0.000000 0.000000
# 3 -0.001399 -0.005190 0.010588 0.000000 0.000000 0.000000
# 4 0.000000 0.000000 0.000000 0.027663 0.000000 0.000000
# 5 0.000000 0.000000 0.000000 0.000000 0.053903 0.000000
# 6 0.000000 0.000000 0.000000 0.000000 0.000000 0.048133
#
#
# Mechanical properties :
#
#
# Convention : Reuss Voigt Hill
#
# Bulk Modulus (GPa) = 32.88112 36.93062 34.90587
# Shear Modulus (GPa) = 24.49363 27.20191 25.84777
#
# Velocity S-wave (km/s) = 3.49268 3.68072 3.58793
# Velocity P-wave (km/s) = 5.71325 6.03792 5.87783
#
# Compressibility (1/GPa) = 0.03041259
#
# Stress axis : x y z
#
# Youngs Moduli (GPa) = 66.22532 46.15383 94.44251
#
# Poissons Ratio (x) = 0.08688 0.13214
# Poissons Ratio (y) = 0.12467 0.49013
# Poissons Ratio (z) = 0.09266 0.23952
#
# Static dielectric constant tensor:
#      x y z
#    x 3.885120 0.000000 0.000000 
#    y 0.000000 3.621270 0.000000 
#    z 0.000000 0.000000 3.746520 
# 
# 
# High freq. dielectric constant tensor:
#      x y z
#    x 1.776360 0.000000 0.000000 
#    y 0.000000 1.781260 0.000000 
#    z 0.000000 0.000000 1.777230 
# 
# From -- ./inp_files/30311.got.cif
#   From: 2010.03.12/outbox.cif.g09.slc.cpg/sg59_16_cif.got.tgz:30311.got - 2010.04.16 16:29:54.
