data_PCOD8243894
_publ_section_title
;
Structure prediction by ZEFSAII (Michael W. Deem and Ramdas Pophale) SiO2 
 PCOD8243894
Probable space group: P M M N
;
_chemical_formula_sum "Si O2"
_cell_formula_units_Z 48
_cell_length_a 18.215952
_cell_length_b 8.634028
_cell_length_c 15.876156
_cell_angle_alpha 90.000000
_cell_angle_beta 90.000000
_cell_angle_gamma 90.000000
_cell_volume 2496.954816
_symmetry_space_group_name_H-M "P M M N"
_symmetry_group_IT_number 59
_space_group.IT_coordinate_system_code '2'
_symmetry_cell_setting 'orthorhombic'
loop_
_space_group_symop_operation_xyz
x,y,z
1/2-x,1/2-y,z
1/2+x,-y,-z
-x,1/2+y,-z
-x,-y,-z
1/2+x,1/2+y,-z
1/2-x,y,z
x,1/2-y,z
loop_
_atom_site_type_symbol
_atom_site_label
_atom_site_fract_x
_atom_site_fract_y
_atom_site_fract_z
Si Si1 0.477088 0.927385 0.861954
Si Si2 0.250000 0.567292 0.099434
Si Si3 0.032104 0.431516 0.682232
Si Si4 0.250000 0.933702 0.287396
Si Si5 0.667286 0.566491 0.427583
Si Si6 0.600122 0.070091 0.972253
Si Si7 0.116183 0.433138 0.389775
O O1 0.479633 0.750000 0.831459
O O2 0.411698 0.958405 0.928310
O O3 0.466794 0.035082 0.781333
O O4 0.550622 0.966004 0.912128
O O5 0.250000 0.750000 0.107908
O O6 0.250000 0.498186 0.193088
O O7 0.318913 0.510295 0.046241
O O8 0.021757 0.250000 0.667017
O O9 0.110028 0.489949 0.643949
O O10 0.965416 0.516187 0.635512
O O11 0.250000 0.750000 0.290815
O O12 0.324297 0.993611 0.328517
O O13 0.750000 0.498663 0.412240
O O14 0.672470 0.750000 0.427924
O O15 0.635185 0.507796 0.516556
O O16 0.586529 0.250000 0.949315
O O17 0.121961 0.250000 0.383101
#
# Coordination Sequence:
#
# PCOD8243894 Si02
#       7
#     8   4   8   4   8   8   8
#     4  10  20  35  55  81 111 144 185 229 277 332
#     4   9  18  33  53  78 105 138 176 219 271 327
#     4  11  22  36  58  84 112 148 193 236 278 340
#     4  11  21  33  55  88 121 148 184 229 283 349
#     4   9  19  38  60  81 110 151 190 232 287 337
#     4   9  18  35  58  79 107 146 183 225 279 337
#     4  11  21  37  60  83 114 149 188 237 289 336
#
# _framework density 19.223417000000001
#
# number of rings (size 3 to 8) (size 9 to 14) (size 15 to 20)
#    0.000    2.000    0.833    3.250    0.000    2.000 
#    1.500    3.750    0.000    0.000    0.000    0.000 
#    0.000    0.000    0.000    0.000    0.000    0.000 
#
# Total GULP energy -595141.247839 kJ/mol
# GULP energy per Si atom -12398.775997 kJ/mol
# Density = 1.917966 g / cm^3
# Si number density = 19.223417 Si / 1000 Ang^3
#
#
#
# Elastic Constant Matrix: (Units=GPa)
#
#
# Indices 1 2 3 4 5 6 
#
# 1 130.9412 24.4390 52.0924 0.0000 0.0000 0.0000
# 2 24.4390 45.8223 15.6188 0.0000 0.0000 0.0000
# 3 52.0924 15.6188 88.8999 0.0000 0.0000 0.0000
# 4 0.0000 0.0000 0.0000 11.5984 0.0000 0.0000
# 5 0.0000 0.0000 0.0000 0.0000 -0.5324 0.0000
# 6 0.0000 0.0000 0.0000 0.0000 0.0000 19.0413
#
#
#
# Elastic Compliance Matrix: (Units=1/GPa)
#
#
# Indices 1 2 3 4 5 6 
#
# 1 0.010527 -0.003736 -0.005512 0.000000 0.000000 0.000000
# 2 -0.003736 0.024539 -0.002122 0.000000 0.000000 0.000000
# 3 -0.005512 -0.002122 0.014851 0.000000 0.000000 0.000000
# 4 0.000000 0.000000 0.000000 0.086219 0.000000 0.000000
# 5 0.000000 0.000000 0.000000 0.000000 -1.878189 0.000000
# 6 0.000000 0.000000 0.000000 0.000000 0.000000 0.052518
#
#
# Mechanical properties :
#
#
# Convention : Reuss Voigt Hill
#
# Bulk Modulus (GPa) = 36.79532 49.99600 43.39566
# Shear Modulus (GPa) = -3.01616 17.58899 7.28641
#
# Velocity S-wave (km/s) = -1.25396 3.02814 1.94900
# Velocity P-wave (km/s) = 4.13351 6.18793 5.26196
#
# Compressibility (1/GPa) = 0.02717737
#
# Stress axis : x y z
#
# Youngs Moduli (GPa) = 94.99204 40.75107 67.33341
#
# Poissons Ratio (x) = 0.15223 0.37116
# Poissons Ratio (y) = 0.35486 0.14290
# Poissons Ratio (z) = 0.52362 0.08649
#
# Static dielectric constant tensor:
#      x y z
#    x 4.173150 0.000000 0.000000 
#    y 0.000000 3.331810 0.000000 
#    z 0.000000 0.000000 3.655390 
# 
# 
# High freq. dielectric constant tensor:
#      x y z
#    x 1.756490 0.000000 0.000000 
#    y 0.000000 1.731530 0.000000 
#    z 0.000000 0.000000 1.754050 
# 
# From -- ./inp_files/20524.got.cif
#   From: 2010.03.12/outbox.cif.g09.slc.cpg/sg59_11_cif.got.tgz:20524.got - 2010.04.16 16:29:54.
