data_PCOD8243442
_publ_section_title
;
Structure prediction by ZEFSAII (Michael W. Deem and Ramdas Pophale) SiO2 
 PCOD8243442
Probable space group: P M M N
;
_chemical_formula_sum "Si O2"
_cell_formula_units_Z 48
_cell_length_a 8.916118
_cell_length_b 9.104699
_cell_length_c 30.935077
_cell_angle_alpha 90.000000
_cell_angle_beta 90.000000
_cell_angle_gamma 90.000000
_cell_volume 2511.265333
_symmetry_space_group_name_H-M "P M M N"
_symmetry_group_IT_number 59
_space_group.IT_coordinate_system_code '2'
_symmetry_cell_setting 'orthorhombic'
loop_
_space_group_symop_operation_xyz
x,y,z
1/2-x,1/2-y,z
1/2+x,-y,-z
-x,1/2+y,-z
-x,-y,-z
1/2+x,1/2+y,-z
1/2-x,y,z
x,1/2-y,z
loop_
_atom_site_type_symbol
_atom_site_label
_atom_site_fract_x
_atom_site_fract_y
_atom_site_fract_z
Si Si1 0.073723 0.917436 0.460378
Si Si2 0.422247 0.922991 0.616735
Si Si3 0.427008 0.919393 0.040187
Si Si4 0.571897 0.412804 0.286814
Si Si5 0.571847 0.913802 0.205398
Si Si6 0.074313 0.921346 0.880293
O O1 0.250000 0.928271 0.466051
O O2 0.018151 0.750000 0.460687
O O3 0.000000 0.000000 0.500000
O O4 0.028664 0.990012 0.415315
O O5 0.250000 0.966757 0.607902
O O6 0.443900 0.750000 0.609896
O O7 0.471535 0.968884 0.665305
O O8 0.250000 0.934530 0.036265
O O9 0.477623 0.750000 0.040180
O O10 0.480944 0.994526 0.083850
O O11 0.500000 0.000000 0.000000
O O12 0.750000 0.404277 0.283414
O O13 0.505575 0.250000 0.278937
O O14 0.505993 0.520487 0.250120
O O15 0.750000 0.908851 0.207917
O O16 0.506641 0.750000 0.199033
O O17 0.521155 0.016041 0.165808
O O18 0.250000 0.949524 0.888249
O O19 0.035628 0.750000 0.881975
#
# Coordination Sequence:
#
# PCOD8243442 Si02
#       6
#     8   8   8   8   8   8
#     4  11  24  39  55  77 104 134 171 214 260 312
#     4   9  18  33  54  80 108 138 174 215 259 308
#     4  11  24  40  58  81 108 138 174 216 263 315
#     4   8  14  26  45  71 104 138 171 211 257 304
#     4   9  16  26  44  73 107 141 177 217 260 305
#     4  10  20  34  54  80 109 142 180 220 263 311
#
# _framework density 19.113869000000001
#
# number of rings (size 3 to 8) (size 9 to 14) (size 15 to 20)
#    0.000    2.333    0.000    4.000    0.000   10.667 
#    0.000    1.667    0.000    1.000    0.000    4.667 
#    0.000    0.000    0.000    0.000    0.000    0.000 
#
# Total GULP energy -595206.997358 kJ/mol
# GULP energy per Si atom -12400.145778 kJ/mol
# Density = 1.907037 g / cm^3
# Si number density = 19.113869 Si / 1000 Ang^3
#
#
#
# Elastic Constant Matrix: (Units=GPa)
#
#
# Indices 1 2 3 4 5 6 
#
# 1 36.6150 39.1346 35.7817 0.0000 0.0000 0.0000
# 2 39.1346 140.9753 86.4524 0.0000 0.0000 0.0000
# 3 35.7817 86.4524 165.3965 0.0000 0.0000 0.0000
# 4 0.0000 0.0000 0.0000 40.9930 0.0000 0.0000
# 5 0.0000 0.0000 0.0000 0.0000 26.1145 0.0000
# 6 0.0000 0.0000 0.0000 0.0000 0.0000 24.1085
#
#
#
# Elastic Compliance Matrix: (Units=1/GPa)
#
#
# Indices 1 2 3 4 5 6 
#
# 1 0.040790 -0.008701 -0.004277 0.000000 0.000000 0.000000
# 2 -0.008701 0.012296 -0.004545 0.000000 0.000000 0.000000
# 3 -0.004277 -0.004545 0.009347 0.000000 0.000000 0.000000
# 4 0.000000 0.000000 0.000000 0.024394 0.000000 0.000000
# 5 0.000000 0.000000 0.000000 0.000000 0.038293 0.000000
# 6 0.000000 0.000000 0.000000 0.000000 0.000000 0.041479
#
#
# Mechanical properties :
#
#
# Convention : Reuss Voigt Hill
#
# Bulk Modulus (GPa) = 36.51168 73.96937 55.24052
# Shear Modulus (GPa) = 23.72230 30.35107 27.03669
#
# Velocity S-wave (km/s) = 3.52675 3.98918 3.76507
# Velocity P-wave (km/s) = 5.97726 7.74606 6.91842
#
# Compressibility (1/GPa) = 0.02738850
#
# Stress axis : x y z
#
# Youngs Moduli (GPa) = 24.51592 81.32917 106.98886
#
# Poissons Ratio (x) = 0.70761 0.45755
# Poissons Ratio (y) = 0.21330 0.48623
# Poissons Ratio (z) = 0.10485 0.36961
#
# Static dielectric constant tensor:
#      x y z
#    x 3.165950 0.000000 0.000000 
#    y 0.000000 3.756870 0.000000 
#    z 0.000000 0.000000 3.828740 
# 
# 
# High freq. dielectric constant tensor:
#      x y z
#    x 1.701530 0.000000 0.000000 
#    y 0.000000 1.753460 0.000000 
#    z 0.000000 0.000000 1.763420 
# 
# From -- ./inp_files/32859.got.cif
#   From: 2010.03.12/outbox.cif.g09.slc.cpg/sg59_17_cif.got.tgz:32859.got - 2010.04.16 16:29:54.
