data_PCOD8243492
_publ_section_title
;
Structure prediction by ZEFSAII (Michael W. Deem and Ramdas Pophale) SiO2 
 PCOD8243492
Probable space group: P M M N
;
_chemical_formula_sum "Si O2"
_cell_formula_units_Z 48
_cell_length_a 18.801064
_cell_length_b 7.713747
_cell_length_c 16.746574
_cell_angle_alpha 90.000000
_cell_angle_beta 90.000000
_cell_angle_gamma 90.000000
_cell_volume 2428.699543
_symmetry_space_group_name_H-M "P M M N"
_symmetry_group_IT_number 59
_space_group.IT_coordinate_system_code '2'
_symmetry_cell_setting 'orthorhombic'
loop_
_space_group_symop_operation_xyz
x,y,z
1/2-x,1/2-y,z
1/2+x,-y,-z
-x,1/2+y,-z
-x,-y,-z
1/2+x,1/2+y,-z
1/2-x,y,z
x,1/2-y,z
loop_
_atom_site_type_symbol
_atom_site_label
_atom_site_fract_x
_atom_site_fract_y
_atom_site_fract_z
Si Si1 0.071861 0.547563 0.956290
Si Si2 0.434387 0.954698 0.778902
Si Si3 0.668837 0.455181 0.903442
Si Si4 0.831632 0.556164 0.356824
Si Si5 0.834750 0.250000 0.648384
Si Si6 0.905142 0.554015 0.745666
Si Si7 0.665824 0.250000 0.468526
O O1 0.074985 0.750000 0.943830
O O2 0.075450 0.465001 0.867871
O O3 0.137761 0.485515 0.010873
O O4 0.000000 0.500000 0.000000
O O5 0.421847 0.750000 0.777281
O O6 0.512631 0.002131 0.746947
O O7 0.376370 0.045892 0.723925
O O8 0.750000 0.516062 0.899532
O O9 0.661225 0.250000 0.890515
O O10 0.624787 0.551099 0.835234
O O11 0.750000 0.511320 0.335565
O O12 0.838141 0.750000 0.392525
O O13 0.861556 0.421349 0.422440
O O14 0.750000 0.250000 0.653609
O O15 0.862080 0.424010 0.689816
O O16 0.864574 0.250000 0.558093
O O17 0.896575 0.750000 0.712555
O O18 0.750000 0.250000 0.473756
#
# Coordination Sequence:
#
# PCOD8243492 Si02
#       7
#     8   8   8   8   4   8   4
#     4  10  20  34  54  81 113 157 202 244 291 350
#     4  10  21  37  60  87 123 165 204 245 303 361
#     4  10  20  35  55  81 115 156 202 251 302 351
#     4  10  21  38  65  95 120 156 202 246 301 362
#     4  11  24  42  66  91 118 160 203 243 308 370
#     4  11  23  38  59  89 123 159 204 249 299 362
#     4   9  20  42  66  89 123 156 193 251 305 364
#
# _framework density 19.763663999999999
#
# number of rings (size 3 to 8) (size 9 to 14) (size 15 to 20)
#    0.000    1.833    3.333    0.500    1.167    3.333 
#    0.000    4.167    0.000    0.000    0.000    0.000 
#    0.000    0.000    0.000    0.000    0.000    0.000 
#
# Total GULP energy -595232.537413 kJ/mol
# GULP energy per Si atom -12400.677863 kJ/mol
# Density = 1.971868 g / cm^3
# Si number density = 19.763664 Si / 1000 Ang^3
#
#
#
# Elastic Constant Matrix: (Units=GPa)
#
#
# Indices 1 2 3 4 5 6 
#
# 1 101.0367 40.1717 45.8522 0.0000 0.0000 0.0000
# 2 40.1717 88.2264 59.7852 0.0000 0.0000 0.0000
# 3 45.8522 59.7852 146.5483 0.0000 0.0000 0.0000
# 4 0.0000 0.0000 0.0000 12.0278 0.0000 0.0000
# 5 0.0000 0.0000 0.0000 0.0000 26.3935 0.0000
# 6 0.0000 0.0000 0.0000 0.0000 0.0000 24.9252
#
#
#
# Elastic Compliance Matrix: (Units=1/GPa)
#
#
# Indices 1 2 3 4 5 6 
#
# 1 0.012583 -0.004231 -0.002211 0.000000 0.000000 0.000000
# 2 -0.004231 0.017088 -0.005647 0.000000 0.000000 0.000000
# 3 -0.002211 -0.005647 0.009819 0.000000 0.000000 0.000000
# 4 0.000000 0.000000 0.000000 0.083140 0.000000 0.000000
# 5 0.000000 0.000000 0.000000 0.000000 0.037888 0.000000
# 6 0.000000 0.000000 0.000000 0.000000 0.000000 0.040120
#
#
# Mechanical properties :
#
#
# Convention : Reuss Voigt Hill
#
# Bulk Modulus (GPa) = 65.31027 69.71438 67.51233
# Shear Modulus (GPa) = 21.74661 25.33614 23.54137
#
# Velocity S-wave (km/s) = 3.32073 3.58433 3.45504
# Velocity P-wave (km/s) = 6.91522 7.24434 7.08169
#
# Compressibility (1/GPa) = 0.01531153
#
# Stress axis : x y z
#
# Youngs Moduli (GPa) = 79.47218 58.52140 101.84119
#
# Poissons Ratio (x) = 0.24762 0.22515
# Poissons Ratio (y) = 0.33626 0.57512
# Poissons Ratio (z) = 0.17570 0.33048
#
# Static dielectric constant tensor:
#      x y z
#    x 3.592360 0.000000 0.000000 
#    y 0.000000 3.602470 0.000000 
#    z 0.000000 0.000000 3.775930 
# 
# 
# High freq. dielectric constant tensor:
#      x y z
#    x 1.765630 0.000000 0.000000 
#    y 0.000000 1.773130 0.000000 
#    z 0.000000 0.000000 1.764990 
# 
# From -- ./inp_files/23746.got.cif
#   From: 2010.03.12/outbox.cif.g09.slc.cpg/sg59_12_cif.got.tgz:23746.got - 2010.04.16 16:29:54.
