data_PCOD8243854
_publ_section_title
;
Structure prediction by ZEFSAII (Michael W. Deem and Ramdas Pophale) SiO2 
 PCOD8243854
Probable space group: P M M N
;
_chemical_formula_sum "Si O2"
_cell_formula_units_Z 64
_cell_length_a 18.992731
_cell_length_b 8.966587
_cell_length_c 20.400873
_cell_angle_alpha 90.000000
_cell_angle_beta 90.000000
_cell_angle_gamma 90.000000
_cell_volume 3474.268159
_symmetry_space_group_name_H-M "P M M N"
_symmetry_group_IT_number 59
_space_group.IT_coordinate_system_code '2'
_symmetry_cell_setting 'orthorhombic'
loop_
_space_group_symop_operation_xyz
x,y,z
1/2-x,1/2-y,z
1/2+x,-y,-z
-x,1/2+y,-z
-x,-y,-z
1/2+x,1/2+y,-z
1/2-x,y,z
x,1/2-y,z
loop_
_atom_site_type_symbol
_atom_site_label
_atom_site_fract_x
_atom_site_fract_y
_atom_site_fract_z
Si Si1 0.833900 0.416724 0.954274
Si Si2 0.069377 0.926797 0.529645
Si Si3 0.917766 0.576962 0.698786
Si Si4 0.328402 0.427516 0.776433
Si Si5 0.061954 0.072973 0.667737
Si Si6 0.833683 0.915442 0.080148
Si Si7 0.331650 0.079148 0.431646
Si Si8 0.329634 0.425608 0.175667
O O1 0.750000 0.422850 0.956599
O O2 0.862687 0.250000 0.948926
O O3 0.861439 0.505072 0.890724
O O4 0.865288 0.485782 0.021257
O O5 0.059033 0.750000 0.532089
O O6 0.083001 0.988937 0.601724
O O7 0.135914 0.969087 0.485387
O O8 0.000000 0.000000 0.500000
O O9 0.940652 0.750000 0.702401
O O10 0.866188 0.548948 0.638309
O O11 0.877579 0.524064 0.763809
O O12 0.984910 0.472314 0.691423
O O13 0.250000 0.488303 0.759623
O O14 0.326247 0.250000 0.779249
O O15 0.382495 0.483769 0.721786
O O16 0.353407 0.484698 0.848497
O O17 0.065176 0.250000 0.656642
O O18 0.750000 0.907318 0.075091
O O19 0.865688 0.750000 0.072488
O O20 0.250000 0.041119 0.425200
O O21 0.343993 0.250000 0.453779
O O22 0.250000 0.482669 0.188420
O O23 0.330067 0.250000 0.167191
#
# Coordination Sequence:
#
# PCOD8243854 Si02
#       8
#     8   8   8   8   8   8   8   8
#     4   9  16  25  40  68 104 137 169 212 268 320
#     4  12  24  40  60  82 110 145 185 227 271 322
#     4  10  20  35  55  78 108 144 181 222 265 319
#     4   8  16  32  54  80 107 136 176 221 264 316
#     4  11  22  36  58  84 109 142 179 219 269 328
#     4   8  13  25  47  71  96 130 172 217 260 309
#     4  10  21  38  61  87 113 144 181 223 274 328
#     4   9  17  30  49  73 101 137 181 222 260 311
#
# _framework density 18.421146
#
# number of rings (size 3 to 8) (size 9 to 14) (size 15 to 20)
#    0.000    2.375    1.250    3.000    0.000    4.250 
#    0.000    2.500    0.000    5.625    0.000    0.000 
#    0.000    0.000    0.000    0.000    0.000    0.000 
#
# Total GULP energy -793533.987785 kJ/mol
# GULP energy per Si atom -12398.968559 kJ/mol
# Density = 1.837922 g / cm^3
# Si number density = 18.421146 Si / 1000 Ang^3
#
#
#
# Elastic Constant Matrix: (Units=GPa)
#
#
# Indices 1 2 3 4 5 6 
#
# 1 85.4116 34.3861 60.3499 0.0000 0.0000 0.0000
# 2 34.3861 75.3980 57.5595 0.0000 0.0000 0.0000
# 3 60.3499 57.5595 175.2869 0.0000 0.0000 0.0000
# 4 0.0000 0.0000 0.0000 24.0887 0.0000 0.0000
# 5 0.0000 0.0000 0.0000 0.0000 31.6613 0.0000
# 6 0.0000 0.0000 0.0000 0.0000 0.0000 18.0611
#
#
#
# Elastic Compliance Matrix: (Units=1/GPa)
#
#
# Indices 1 2 3 4 5 6 
#
# 1 0.016427 -0.004236 -0.004265 0.000000 0.000000 0.000000
# 2 -0.004236 0.018792 -0.004713 0.000000 0.000000 0.000000
# 3 -0.004265 -0.004713 0.008721 0.000000 0.000000 0.000000
# 4 0.000000 0.000000 0.000000 0.041513 0.000000 0.000000
# 5 0.000000 0.000000 0.000000 0.000000 0.031584 0.000000
# 6 0.000000 0.000000 0.000000 0.000000 0.000000 0.055368
#
#
# Mechanical properties :
#
#
# Convention : Reuss Voigt Hill
#
# Bulk Modulus (GPa) = 57.09847 71.18749 64.14298
# Shear Modulus (GPa) = 24.42973 27.01563 25.72268
#
# Velocity S-wave (km/s) = 3.64562 3.83372 3.74085
# Velocity P-wave (km/s) = 6.98457 7.63707 7.31810
#
# Compressibility (1/GPa) = 0.01751360
#
# Stress axis : x y z
#
# Youngs Moduli (GPa) = 60.87683 53.21315 114.67024
#
# Poissons Ratio (x) = 0.22541 0.48902
# Poissons Ratio (y) = 0.25787 0.54039
# Poissons Ratio (z) = 0.25961 0.25077
#
# Static dielectric constant tensor:
#      x y z
#    x 3.207850 0.000000 0.000000 
#    y 0.000000 3.317500 0.000000 
#    z 0.000000 0.000000 3.748940 
# 
# 
# High freq. dielectric constant tensor:
#      x y z
#    x 1.683380 0.000000 0.000000 
#    y 0.000000 1.700670 0.000000 
#    z 0.000000 0.000000 1.733590 
# 
# From -- ./inp_files/30679.got.cif
#   From: 2010.03.12/outbox.cif.g09.slc.cpg/sg59_16_cif.got.tgz:30679.got - 2010.04.16 16:29:54.
