data_PCOD8243208
_publ_section_title
;
Structure prediction by ZEFSAII (Michael W. Deem and Ramdas Pophale) SiO2 
 PCOD8243208
Probable space group: P M M N
;
_chemical_formula_sum "Si O2"
_cell_formula_units_Z 64
_cell_length_a 15.194907
_cell_length_b 13.680558
_cell_length_c 16.688264
_cell_angle_alpha 90.000000
_cell_angle_beta 90.000000
_cell_angle_gamma 90.000000
_cell_volume 3469.069650
_symmetry_space_group_name_H-M "P M M N"
_symmetry_group_IT_number 59
_space_group.IT_coordinate_system_code '2'
_symmetry_cell_setting 'orthorhombic'
loop_
_space_group_symop_operation_xyz
x,y,z
1/2-x,1/2-y,z
1/2+x,-y,-z
-x,1/2+y,-z
-x,-y,-z
1/2+x,1/2+y,-z
1/2-x,y,z
x,1/2-y,z
loop_
_atom_site_type_symbol
_atom_site_label
_atom_site_fract_x
_atom_site_fract_y
_atom_site_fract_z
Si Si1 0.928936 0.863518 0.781647
Si Si2 0.849565 0.862327 0.472755
Si Si3 0.407833 0.527356 0.828345
Si Si4 0.154219 0.366186 0.062564
Si Si5 0.653265 0.139504 0.025895
Si Si6 0.983269 0.635361 0.069738
Si Si7 0.151320 0.525043 0.651546
Si Si8 0.523358 0.866336 0.612913
O O1 0.911724 0.750000 0.774762
O O2 0.861206 0.907959 0.847048
O O3 0.924083 0.907570 0.691579
O O4 0.025744 0.883227 0.815533
O O5 0.750000 0.874728 0.506930
O O6 0.869596 0.750000 0.452926
O O7 0.861525 0.920306 0.390321
O O8 0.920363 0.903176 0.537127
O O9 0.345596 0.564973 0.899419
O O10 0.458968 0.427073 0.851722
O O11 0.355159 0.507777 0.746721
O O12 0.250000 0.402496 0.033039
O O13 0.149474 0.250000 0.065596
O O14 0.080268 0.403162 0.001552
O O15 0.750000 0.133120 0.986124
O O16 0.633415 0.250000 0.055949
O O17 0.582570 0.110919 0.957768
O O18 0.969793 0.750000 0.089142
O O19 0.250000 0.566449 0.633275
O O20 0.077410 0.596325 0.614194
O O21 0.518676 0.750000 0.614520
#
# Coordination Sequence:
#
# PCOD8243208 Si02
#       8
#     8   8   8   8   8   8   8   8
#     4   9  17  30  47  70  99 124 156 203 250 298
#     4   9  18  34  55  77 102 135 172 208 247 295
#     4  11  20  33  50  72  98 135 171 207 251 302
#     4   9  17  29  45  65  93 127 158 197 252 301
#     4  10  20  34  53  74  97 130 170 213 262 311
#     4  10  21  36  50  69 100 133 173 218 254 296
#     4  10  21  34  50  76 109 137 166 208 253 302
#     4   9  18  32  53  77 102 133 167 205 253 308
#
# _framework density 18.44875
#
# number of rings (size 3 to 8) (size 9 to 14) (size 15 to 20)
#    0.000    2.375    1.250    1.500    0.000    2.750 
#    0.000    2.500    0.000    0.750    0.000    0.000 
#    0.000    2.000    0.000    0.000    0.000    0.000 
#
# Total GULP energy -793042.941236 kJ/mol
# GULP energy per Si atom -12391.295957 kJ/mol
# Density = 1.840676 g / cm^3
# Si number density = 18.448750 Si / 1000 Ang^3
#
#
#
# Elastic Constant Matrix: (Units=GPa)
#
#
# Indices 1 2 3 4 5 6 
#
# 1 111.4692 15.6152 35.4221 0.0000 0.0000 0.0000
# 2 15.6152 41.9897 23.4130 0.0000 0.0000 0.0000
# 3 35.4221 23.4130 65.9015 0.0000 0.0000 0.0000
# 4 0.0000 0.0000 0.0000 25.3779 0.0000 0.0000
# 5 0.0000 0.0000 0.0000 0.0000 20.7172 0.0000
# 6 0.0000 0.0000 0.0000 0.0000 0.0000 15.7506
#
#
#
# Elastic Compliance Matrix: (Units=1/GPa)
#
#
# Indices 1 2 3 4 5 6 
#
# 1 0.010851 -0.000977 -0.005485 0.000000 0.000000 0.000000
# 2 -0.000977 0.029786 -0.010057 0.000000 0.000000 0.000000
# 3 -0.005485 -0.010057 0.021696 0.000000 0.000000 0.000000
# 4 0.000000 0.000000 0.000000 0.039404 0.000000 0.000000
# 5 0.000000 0.000000 0.000000 0.000000 0.048269 0.000000
# 6 0.000000 0.000000 0.000000 0.000000 0.000000 0.063490
#
#
# Mechanical properties :
#
#
# Convention : Reuss Voigt Hill
#
# Bulk Modulus (GPa) = 34.13643 40.91788 37.52715
# Shear Modulus (GPa) = 19.50839 22.02981 20.76910
#
# Velocity S-wave (km/s) = 3.25535 3.45934 3.35889
# Velocity P-wave (km/s) = 5.71606 6.17927 5.95217
#
# Compressibility (1/GPa) = 0.02929422
#
# Stress axis : x y z
#
# Youngs Moduli (GPa) = 92.15700 33.57239 46.09218
#
# Poissons Ratio (x) = 0.03279 0.25284
# Poissons Ratio (y) = 0.09001 0.46356
# Poissons Ratio (z) = 0.50552 0.33765
#
# Static dielectric constant tensor:
#      x y z
#    x 3.523770 0.000000 0.000000 
#    y 0.000000 3.268110 0.000000 
#    z 0.000000 0.000000 3.480350 
# 
# 
# High freq. dielectric constant tensor:
#      x y z
#    x 1.719560 0.000000 0.000000 
#    y 0.000000 1.701130 0.000000 
#    z 0.000000 0.000000 1.700860 
# 
# From -- ./inp_files/27744.got.cif
#   From: 2010.03.12/outbox.cif.g09.slc.cpg/sg59_14_cif.got.tgz:27744.got - 2010.04.16 16:29:54.
