data_PCOD8243320
_publ_section_title
;
Structure prediction by ZEFSAII (Michael W. Deem and Ramdas Pophale) SiO2 
 PCOD8243320
Probable space group: P M M N
;
_chemical_formula_sum "Si O2"
_cell_formula_units_Z 48
_cell_length_a 8.942288
_cell_length_b 8.790927
_cell_length_c 30.858908
_cell_angle_alpha 90.000000
_cell_angle_beta 90.000000
_cell_angle_gamma 90.000000
_cell_volume 2425.849648
_symmetry_space_group_name_H-M "P M M N"
_symmetry_group_IT_number 59
_space_group.IT_coordinate_system_code '2'
_symmetry_cell_setting 'orthorhombic'
loop_
_space_group_symop_operation_xyz
x,y,z
1/2-x,1/2-y,z
1/2+x,-y,-z
-x,1/2+y,-z
-x,-y,-z
1/2+x,1/2+y,-z
1/2-x,y,z
x,1/2-y,z
loop_
_atom_site_type_symbol
_atom_site_label
_atom_site_fract_x
_atom_site_fract_y
_atom_site_fract_z
Si Si1 0.925579 0.426396 0.216532
Si Si2 0.075460 0.926308 0.621908
Si Si3 0.073351 0.575375 0.958735
Si Si4 0.927468 0.579316 0.128391
Si Si5 0.419625 0.570864 0.459103
Si Si6 0.574837 0.426234 0.702850
O O1 0.750000 0.456790 0.223290
O O2 0.964765 0.250000 0.222895
O O3 0.979325 0.477941 0.168995
O O4 0.017108 0.527521 0.250096
O O5 0.250000 0.962518 0.622384
O O6 0.043768 0.750000 0.612618
O O7 0.000304 0.025728 0.584898
O O8 0.008597 0.970430 0.668022
O O9 0.250000 0.555704 0.962208
O O10 0.025401 0.750000 0.956539
O O11 0.009602 0.494579 0.915618
O O12 0.000000 0.500000 0.000000
O O13 0.750000 0.582067 0.126379
O O14 0.991530 0.750000 0.133124
O O15 0.500000 0.500000 0.500000
O O16 0.250000 0.511001 0.457543
O O17 0.424871 0.750000 0.464208
O O18 0.750000 0.458410 0.699539
O O19 0.538074 0.250000 0.694268
#
# Coordination Sequence:
#
# PCOD8243320 Si02
#       6
#     8   8   8   8   8   8
#     4  10  20  35  57  84 111 141 181 227 274 328
#     4  11  24  41  62  89 118 150 192 238 283 335
#     4  10  20  34  53  78 108 142 181 226 275 328
#     4   9  17  31  53  79 107 141 180 223 273 328
#     4  11  24  41  62  90 122 156 196 239 284 337
#     4  11  24  40  58  83 115 150 188 230 278 333
#
# _framework density 19.786881000000001
#
# number of rings (size 3 to 8) (size 9 to 14) (size 15 to 20)
#    0.000    1.667    0.000    4.500    0.000   14.000 
#    0.000    0.833    0.000    5.000    0.000    0.000 
#    0.000    0.000    0.000    0.000    0.000    0.000 
#
# Total GULP energy -595436.570876 kJ/mol
# GULP energy per Si atom -12404.928560 kJ/mol
# Density = 1.974185 g / cm^3
# Si number density = 19.786881 Si / 1000 Ang^3
#
#
#
# Elastic Constant Matrix: (Units=GPa)
#
#
# Indices 1 2 3 4 5 6 
#
# 1 79.6083 47.1342 43.0083 0.0000 0.0000 0.0000
# 2 47.1342 82.9964 29.8057 0.0000 0.0000 0.0000
# 3 43.0083 29.8057 132.7952 0.0000 0.0000 0.0000
# 4 0.0000 0.0000 0.0000 46.3976 0.0000 0.0000
# 5 0.0000 0.0000 0.0000 0.0000 35.5259 0.0000
# 6 0.0000 0.0000 0.0000 0.0000 0.0000 28.4585
#
#
#
# Elastic Compliance Matrix: (Units=1/GPa)
#
#
# Indices 1 2 3 4 5 6 
#
# 1 0.021156 -0.010391 -0.004519 0.000000 0.000000 0.000000
# 2 -0.010391 0.018209 -0.000722 0.000000 0.000000 0.000000
# 3 -0.004519 -0.000722 0.009156 0.000000 0.000000 0.000000
# 4 0.000000 0.000000 0.000000 0.021553 0.000000 0.000000
# 5 0.000000 0.000000 0.000000 0.000000 0.028148 0.000000
# 6 0.000000 0.000000 0.000000 0.000000 0.000000 0.035139
#
#
# Mechanical properties :
#
#
# Convention : Reuss Voigt Hill
#
# Bulk Modulus (GPa) = 57.95016 59.47737 58.71376
# Shear Modulus (GPa) = 29.34658 33.77318 31.55988
#
# Velocity S-wave (km/s) = 3.85533 4.13588 3.99807
# Velocity P-wave (km/s) = 7.01205 7.27541 7.14494
#
# Compressibility (1/GPa) = 0.01725621
#
# Stress axis : x y z
#
# Youngs Moduli (GPa) = 47.26887 54.91731 109.21788
#
# Poissons Ratio (x) = 0.57067 0.49359
# Poissons Ratio (y) = 0.49119 0.07881
# Poissons Ratio (z) = 0.21362 0.03963
#
# Static dielectric constant tensor:
#      x y z
#    x 3.524300 0.000000 0.000000 
#    y 0.000000 3.723510 0.000000 
#    z 0.000000 0.000000 3.434780 
# 
# 
# High freq. dielectric constant tensor:
#      x y z
#    x 1.754770 0.000000 0.000000 
#    y 0.000000 1.788170 0.000000 
#    z 0.000000 0.000000 1.790860 
# 
# From -- ./inp_files/32864.got.cif
#   From: 2010.03.12/outbox.cif.g09.slc.cpg/sg59_17_cif.got.tgz:32864.got - 2010.04.16 16:29:54.
