data_PCOD8243182
_publ_section_title
;
Structure prediction by ZEFSAII (Michael W. Deem and Ramdas Pophale) SiO2 
 PCOD8243182
Probable space group: P M M N
;
_chemical_formula_sum "Si O2"
_cell_formula_units_Z 48
_cell_length_a 9.616468
_cell_length_b 28.089024
_cell_length_c 10.238375
_cell_angle_alpha 90.000000
_cell_angle_beta 90.000000
_cell_angle_gamma 90.000000
_cell_volume 2765.561192
_symmetry_space_group_name_H-M "P M M N"
_symmetry_group_IT_number 59
_space_group.IT_coordinate_system_code '2'
_symmetry_cell_setting 'orthorhombic'
loop_
_space_group_symop_operation_xyz
x,y,z
1/2-x,1/2-y,z
1/2+x,-y,-z
-x,1/2+y,-z
-x,-y,-z
1/2+x,1/2+y,-z
1/2-x,y,z
x,1/2-y,z
loop_
_atom_site_type_symbol
_atom_site_label
_atom_site_fract_x
_atom_site_fract_y
_atom_site_fract_z
Si Si1 0.912073 0.941154 0.258914
Si Si2 0.411552 0.948388 0.759862
Si Si3 0.911247 0.899691 0.983749
Si Si4 0.090867 0.302772 0.135626
Si Si5 0.090071 0.898504 0.489476
Si Si6 0.591001 0.197033 0.385451
O O1 0.750000 0.932701 0.285078
O O2 0.994360 0.917717 0.376251
O O3 0.949103 0.996417 0.252047
O O4 0.961410 0.916035 0.125829
O O5 0.250000 0.940429 0.793184
O O6 0.501179 0.927035 0.875950
O O7 0.452654 0.923294 0.624899
O O8 0.750000 0.912887 0.961877
O O9 0.936479 0.842662 0.974458
O O10 0.250000 0.304211 0.182174
O O11 0.052801 0.250000 0.080569
O O12 0.000360 0.315733 0.260772
O O13 0.250000 0.909806 0.455383
O O14 0.063372 0.841679 0.501720
O O15 0.750000 0.193512 0.338030
O O16 0.556435 0.250000 0.439640
#
# Coordination Sequence:
#
# PCOD8243182 Si02
#       6
#     8   8   8   8   8   8
#     4  10  22  36  50  73 107 140 170 209 254 302
#     4  10  20  35  54  76 101 132 175 217 252 298
#     4  10  20  34  52  76 103 133 169 208 255 305
#     4   9  17  30  50  75 100 127 163 206 249 298
#     4  10  20  34  52  76 102 132 171 210 253 303
#     4   9  17  31  52  76 101 128 163 210 256 298
#
# _framework density 17.356331999999998
#
# number of rings (size 3 to 8) (size 9 to 14) (size 15 to 20)
#    0.000    2.333    1.667    1.000    0.000    2.667 
#    0.000    0.833    0.000    1.000    0.000    0.000 
#    0.000    0.000    0.000    0.000    0.000    0.000 
#
# Total GULP energy -595176.504707 kJ/mol
# GULP energy per Si atom -12399.510515 kJ/mol
# Density = 1.731683 g / cm^3
# Si number density = 17.356332 Si / 1000 Ang^3
#
#
#
# Elastic Constant Matrix: (Units=GPa)
#
#
# Indices 1 2 3 4 5 6 
#
# 1 58.2018 50.5665 57.0782 0.0000 0.0000 0.0000
# 2 50.5665 131.7993 72.0988 0.0000 0.0000 0.0000
# 3 57.0782 72.0988 112.3242 0.0000 0.0000 0.0000
# 4 0.0000 0.0000 0.0000 -253.4122 0.0000 0.0000
# 5 0.0000 0.0000 0.0000 0.0000 22.5178 0.0000
# 6 0.0000 0.0000 0.0000 0.0000 0.0000 12.4767
#
#
#
# Elastic Compliance Matrix: (Units=1/GPa)
#
#
# Indices 1 2 3 4 5 6 
#
# 1 0.037135 -0.006048 -0.014988 0.000000 0.000000 0.000000
# 2 -0.006048 0.012678 -0.005064 0.000000 0.000000 0.000000
# 3 -0.014988 -0.005064 0.019770 0.000000 0.000000 0.000000
# 4 0.000000 0.000000 0.000000 -0.003946 0.000000 0.000000
# 5 0.000000 0.000000 0.000000 0.000000 0.044409 0.000000
# 6 0.000000 0.000000 0.000000 0.000000 0.000000 0.080149
#
#
# Mechanical properties :
#
#
# Convention : Reuss Voigt Hill
#
# Bulk Modulus (GPa) = 57.53239 73.53469 65.53354
# Shear Modulus (GPa) = 20.14572 -35.51141 -7.68285
#
# Velocity S-wave (km/s) = 3.41062 -4.52820 -2.10622
# Velocity P-wave (km/s) = 6.98065 3.88846 5.65020
#
# Compressibility (1/GPa) = 0.01738151
#
# Stress axis : x y z
#
# Youngs Moduli (GPa) = 26.92846 78.87531 50.58196
#
# Poissons Ratio (x) = 0.47707 0.75813
# Poissons Ratio (y) = 0.16287 0.25617
# Poissons Ratio (z) = 0.40361 0.39946
#
# Static dielectric constant tensor:
#      x y z
#    x 3.241820 0.000000 0.000000 
#    y 0.000000 3.744100 0.000000 
#    z 0.000000 0.000000 3.069340 
# 
# 
# High freq. dielectric constant tensor:
#      x y z
#    x 1.671280 0.000000 0.000000 
#    y 0.000000 1.692760 0.000000 
#    z 0.000000 0.000000 1.645540 
# 
# From -- ./inp_files/6192.got.cif
#   From: 2010.03.12/outbox.cif.g09.slc.cpg/sg59_4_cif.got.tgz:6192.got - 2010.04.16 16:29:54.
