data_PCOD8243330
_publ_section_title
;
Structure prediction by ZEFSAII (Michael W. Deem and Ramdas Pophale) SiO2 
 PCOD8243330
Probable space group: P M M N
;
_chemical_formula_sum "Si O2"
_cell_formula_units_Z 56
_cell_length_a 8.746126
_cell_length_b 23.035143
_cell_length_c 15.337755
_cell_angle_alpha 90.000000
_cell_angle_beta 90.000000
_cell_angle_gamma 90.000000
_cell_volume 3090.070860
_symmetry_space_group_name_H-M "P M M N"
_symmetry_group_IT_number 59
_space_group.IT_coordinate_system_code '2'
_symmetry_cell_setting 'orthorhombic'
loop_
_space_group_symop_operation_xyz
x,y,z
1/2-x,1/2-y,z
1/2+x,-y,-z
-x,1/2+y,-z
-x,-y,-z
1/2+x,1/2+y,-z
1/2-x,y,z
x,1/2-y,z
loop_
_atom_site_type_symbol
_atom_site_label
_atom_site_fract_x
_atom_site_fract_y
_atom_site_fract_z
Si Si1 0.572174 0.682084 0.322495
Si Si2 0.428399 0.878649 0.161268
Si Si3 0.578374 0.318866 0.500231
Si Si4 0.430352 0.183556 0.323397
Si Si5 0.430385 0.109297 0.158847
Si Si6 0.425675 0.183609 0.992612
Si Si7 0.930007 0.504456 0.095670
O O1 0.750000 0.669279 0.307644
O O2 0.535213 0.750000 0.309990
O O3 0.472343 0.645521 0.255382
O O4 0.524372 0.660456 0.418641
O O5 0.250000 0.892888 0.158410
O O6 0.522530 0.936468 0.142110
O O7 0.468937 0.830060 0.089859
O O8 0.750000 0.343104 0.511141
O O9 0.577659 0.250000 0.496257
O O10 0.507118 0.342589 0.410379
O O11 0.250000 0.179904 0.335486
O O12 0.480807 0.250000 0.305847
O O13 0.487252 0.144736 0.242898
O O14 0.250000 0.099275 0.161783
O O15 0.478827 0.144793 0.073356
O O16 0.514143 0.047708 0.157170
O O17 0.250000 0.170712 0.967357
O O18 0.447758 0.250000 0.020340
O O19 0.750000 0.502424 0.085170
O O20 0.000000 0.500000 0.000000
#
# Coordination Sequence:
#
# PCOD8243330 Si02
#       7
#     8   8   8   8   8   8   8
#     4  10  20  35  56  82 112 146 182 222 272 329
#     4  12  24  37  55  79 108 143 182 227 273 323
#     4   9  17  30  50  78 112 147 182 223 268 317
#     4   9  17  31  53  82 114 148 183 218 264 323
#     4  10  20  35  56  80 109 144 184 227 268 319
#     4  10  20  34  53  78 110 146 179 217 269 324
#     4  12  24  40  59  78 103 140 187 233 275 323
#
# _framework density 18.122561000000001
#
# number of rings (size 3 to 8) (size 9 to 14) (size 15 to 20)
#    0.000    1.714    1.429    4.286    0.000    6.857 
#    0.000    0.000    0.000    3.429    0.000    0.000 
#    0.000    0.000    0.000    0.000    0.000    0.000 
#
# Total GULP energy -694611.796994 kJ/mol
# GULP energy per Si atom -12403.782089 kJ/mol
# Density = 1.808131 g / cm^3
# Si number density = 18.122561 Si / 1000 Ang^3
#
#
#
# Elastic Constant Matrix: (Units=GPa)
#
#
# Indices 1 2 3 4 5 6 
#
# 1 68.7956 21.0976 36.2775 0.0000 0.0000 0.0000
# 2 21.0976 72.8729 35.2180 0.0000 0.0000 0.0000
# 3 36.2775 35.2180 125.0347 0.0000 0.0000 0.0000
# 4 0.0000 0.0000 0.0000 12.7712 0.0000 0.0000
# 5 0.0000 0.0000 0.0000 0.0000 29.0098 0.0000
# 6 0.0000 0.0000 0.0000 0.0000 0.0000 26.3467
#
#
#
# Elastic Compliance Matrix: (Units=1/GPa)
#
#
# Indices 1 2 3 4 5 6 
#
# 1 0.017734 -0.003065 -0.004282 0.000000 0.000000 0.000000
# 2 -0.003065 0.016414 -0.003734 0.000000 0.000000 0.000000
# 3 -0.004282 -0.003734 0.010292 0.000000 0.000000 0.000000
# 4 0.000000 0.000000 0.000000 0.078301 0.000000 0.000000
# 5 0.000000 0.000000 0.000000 0.000000 0.034471 0.000000
# 6 0.000000 0.000000 0.000000 0.000000 0.000000 0.037955
#
#
# Mechanical properties :
#
#
# Convention : Reuss Voigt Hill
#
# Bulk Modulus (GPa) = 44.88685 50.20994 47.54839
# Shear Modulus (GPa) = 22.24639 25.23289 23.73964
#
# Velocity S-wave (km/s) = 3.50745 3.73546 3.62325
# Velocity P-wave (km/s) = 6.42068 6.80961 6.61801
#
# Compressibility (1/GPa) = 0.02227824
#
# Stress axis : x y z
#
# Youngs Moduli (GPa) = 56.38989 60.92189 97.16330
#
# Poissons Ratio (x) = 0.18671 0.41605
# Poissons Ratio (y) = 0.17282 0.36283
# Poissons Ratio (z) = 0.24146 0.22749
#
# Static dielectric constant tensor:
#      x y z
#    x 3.408180 0.000000 0.000000 
#    y 0.000000 3.429850 0.000000 
#    z 0.000000 0.000000 3.478480 
# 
# 
# High freq. dielectric constant tensor:
#      x y z
#    x 1.705890 0.000000 0.000000 
#    y 0.000000 1.680080 0.000000 
#    z 0.000000 0.000000 1.708110 
# 
# From -- ./inp_files/20900.got.cif
#   From: 2010.03.12/outbox.cif.g09.slc.cpg/sg59_11_cif.got.tgz:20900.got - 2010.04.16 16:29:54.
