data_PCOD8243044
_publ_section_title
;
Structure prediction by ZEFSAII (Michael W. Deem and Ramdas Pophale) SiO2 
 PCOD8243044
Probable space group: P M M N
;
_chemical_formula_sum "Si O2"
_cell_formula_units_Z 64
_cell_length_a 18.335940
_cell_length_b 9.243882
_cell_length_c 21.028159
_cell_angle_alpha 90.000000
_cell_angle_beta 90.000000
_cell_angle_gamma 90.000000
_cell_volume 3564.173397
_symmetry_space_group_name_H-M "P M M N"
_symmetry_group_IT_number 59
_space_group.IT_coordinate_system_code '2'
_symmetry_cell_setting 'orthorhombic'
loop_
_space_group_symop_operation_xyz
x,y,z
1/2-x,1/2-y,z
1/2+x,-y,-z
-x,1/2+y,-z
-x,-y,-z
1/2+x,1/2+y,-z
1/2-x,y,z
x,1/2-y,z
loop_
_atom_site_type_symbol
_atom_site_label
_atom_site_fract_x
_atom_site_fract_y
_atom_site_fract_z
Si Si1 0.833561 0.083642 0.386527
Si Si2 0.831349 0.081811 0.762312
Si Si3 0.665664 0.917834 0.131179
Si Si4 0.834179 0.583632 0.886553
Si Si5 0.973383 0.416844 0.692851
Si Si6 0.963014 0.919548 0.442040
Si Si7 0.575670 0.579369 0.007572
Si Si8 0.102709 0.581328 0.749389
O O1 0.750000 0.047680 0.401818
O O2 0.852419 0.250000 0.402245
O O3 0.848192 0.051404 0.312558
O O4 0.881963 0.981386 0.431313
O O5 0.750000 0.026686 0.742719
O O6 0.829046 0.250000 0.777870
O O7 0.888315 0.047689 0.705891
O O8 0.860647 0.004717 0.825454
O O9 0.750000 0.945955 0.113991
O O10 0.652205 0.750000 0.146980
O O11 0.616672 0.968464 0.071797
O O12 0.643893 0.011122 0.191797
O O13 0.750000 0.555435 0.900519
O O14 0.850864 0.750000 0.872227
O O15 0.876174 0.528205 0.948241
O O16 0.991805 0.250000 0.707224
O O17 0.987901 0.454129 0.619542
O O18 0.023145 0.511932 0.739555
O O19 0.957729 0.750000 0.456570
O O20 0.000000 0.000000 0.500000
O O21 0.562831 0.750000 0.007063
O O22 0.500000 0.500000 0.000000
O O23 0.092313 0.750000 0.762935
#
# Coordination Sequence:
#
# PCOD8243044 Si02
#       8
#     8   8   8   8   8   8   8   8
#     4   9  18  34  55  79 108 141 177 218 266 316
#     4   9  18  33  54  78 102 130 169 217 263 307
#     4  10  21  37  55  74 101 139 176 211 259 318
#     4   9  18  34  54  73  96 129 169 212 259 311
#     4   9  19  35  54  77 107 142 177 214 259 314
#     4  10  20  35  55  79 109 145 183 218 257 308
#     4  10  22  37  52  72  99 133 173 215 259 310
#     4  10  20  33  53  81 110 138 172 217 266 313
#
# _framework density 17.956478000000001
#
# number of rings (size 3 to 8) (size 9 to 14) (size 15 to 20)
#    0.000    2.500    0.000    1.500    1.750    5.000 
#    0.000    0.625    0.000    4.500    0.000    0.000 
#    0.000    0.000    0.000    0.000    0.000    0.000 
#
# Total GULP energy -793695.262702 kJ/mol
# GULP energy per Si atom -12401.488480 kJ/mol
# Density = 1.791561 g / cm^3
# Si number density = 17.956478 Si / 1000 Ang^3
#
#
#
# Elastic Constant Matrix: (Units=GPa)
#
#
# Indices 1 2 3 4 5 6 
#
# 1 122.7656 58.8264 73.1140 0.0000 0.0000 0.0000
# 2 58.8264 71.9450 54.3398 0.0000 0.0000 0.0000
# 3 73.1140 54.3398 103.8309 0.0000 0.0000 0.0000
# 4 0.0000 0.0000 0.0000 31.8794 0.0000 0.0000
# 5 0.0000 0.0000 0.0000 0.0000 30.4906 0.0000
# 6 0.0000 0.0000 0.0000 0.0000 0.0000 30.8427
#
#
#
# Elastic Compliance Matrix: (Units=1/GPa)
#
#
# Indices 1 2 3 4 5 6 
#
# 1 0.016244 -0.007677 -0.007420 0.000000 0.000000 0.000000
# 2 -0.007677 0.026614 -0.008522 0.000000 0.000000 0.000000
# 3 -0.007420 -0.008522 0.019316 0.000000 0.000000 0.000000
# 4 0.000000 0.000000 0.000000 0.031368 0.000000 0.000000
# 5 0.000000 0.000000 0.000000 0.000000 0.032797 0.000000
# 6 0.000000 0.000000 0.000000 0.000000 0.000000 0.032423
#
#
# Mechanical properties :
#
#
# Convention : Reuss Voigt Hill
#
# Bulk Modulus (GPa) = 66.96103 74.56688 70.76396
# Shear Modulus (GPa) = 23.69911 26.12663 24.91287
#
# Velocity S-wave (km/s) = 3.63686 3.81858 3.72883
# Velocity P-wave (km/s) = 7.41669 7.81401 7.61794
#
# Compressibility (1/GPa) = 0.01493406
#
# Stress axis : x y z
#
# Youngs Moduli (GPa) = 61.56304 37.57477 51.76992
#
# Poissons Ratio (x) = 0.28847 0.38415
# Poissons Ratio (y) = 0.47263 0.44119
# Poissons Ratio (z) = 0.45682 0.32022
#
# Static dielectric constant tensor:
#      x y z
#    x 3.419890 0.000000 0.000000 
#    y 0.000000 3.347310 0.000000 
#    z 0.000000 0.000000 3.312190 
# 
# 
# High freq. dielectric constant tensor:
#      x y z
#    x 1.701950 0.000000 0.000000 
#    y 0.000000 1.694580 0.000000 
#    z 0.000000 0.000000 1.687300 
# 
# From -- ./inp_files/30793.got.cif
#   From: 2010.03.12/outbox.cif.g09.slc.cpg/sg59_16_cif.got.tgz:30793.got - 2010.04.16 16:29:54.
