data_PCOD8243523
_publ_section_title
;
Structure prediction by ZEFSAII (Michael W. Deem and Ramdas Pophale) SiO2 
 PCOD8243523
Probable space group: P M M N
;
_chemical_formula_sum "Si O2"
_cell_formula_units_Z 56
_cell_length_a 8.875658
_cell_length_b 14.190289
_cell_length_c 24.217540
_cell_angle_alpha 90.000000
_cell_angle_beta 90.000000
_cell_angle_gamma 90.000000
_cell_volume 3050.154411
_symmetry_space_group_name_H-M "P M M N"
_symmetry_group_IT_number 59
_space_group.IT_coordinate_system_code '2'
_symmetry_cell_setting 'orthorhombic'
loop_
_space_group_symop_operation_xyz
x,y,z
1/2-x,1/2-y,z
1/2+x,-y,-z
-x,1/2+y,-z
-x,-y,-z
1/2+x,1/2+y,-z
1/2-x,y,z
x,1/2-y,z
loop_
_atom_site_type_symbol
_atom_site_label
_atom_site_fract_x
_atom_site_fract_y
_atom_site_fract_z
Si Si1 0.574579 0.504237 0.732621
Si Si2 0.928481 0.549242 0.154021
Si Si3 0.573624 0.358842 0.348872
Si Si4 0.075811 0.642621 0.361087
Si Si5 0.071265 0.250000 0.886706
Si Si6 0.071743 0.051262 0.051582
Si Si7 0.926432 0.750000 0.989830
Si Si8 0.425986 0.005848 0.559087
O O1 0.750000 0.514787 0.746884
O O2 0.480036 0.489979 0.787571
O O3 0.518773 0.599131 0.702528
O O4 0.541506 0.413729 0.694767
O O5 0.750000 0.541926 0.148705
O O6 0.984603 0.657028 0.145769
O O7 0.002595 0.484250 0.108098
O O8 0.750000 0.371278 0.336339
O O9 0.528900 0.250000 0.356878
O O10 0.528195 0.414504 0.404609
O O11 0.250000 0.634167 0.377661
O O12 0.026539 0.750000 0.351094
O O13 0.979804 0.601026 0.411241
O O14 0.250000 0.250000 0.889816
O O15 0.000487 0.250000 0.948598
O O16 0.250000 0.035575 0.051338
O O17 0.025062 0.160242 0.045825
O O18 0.000000 0.000000 0.000000
O O19 0.750000 0.750000 0.000286
O O20 0.250000 0.011526 0.550332
O O21 0.500000 0.000000 0.500000
#
# Coordination Sequence:
#
# PCOD8243523 Si02
#       8
#     8   8   8   8   4   8   4   8
#     4  10  21  37  57  83 112 142 180 228 280 331
#     4  11  22  38  58  82 112 146 184 227 273 329
#     4   9  19  38  61  81 106 146 192 234 276 325
#     4   9  19  36  56  78 110 148 182 223 276 328
#     4   9  18  34  56  82 110 144 180 217 270 329
#     4  11  21  37  59  82 110 145 182 227 278 334
#     4   9  18  36  58  78 108 144 178 217 272 333
#     4  10  20  34  54  83 116 148 186 230 275 327
#
# _framework density 18.359725999999998
#
# number of rings (size 3 to 8) (size 9 to 14) (size 15 to 20)
#    0.000    2.143    1.429    1.714    1.000    2.286 
#    1.286    4.643    0.000    0.000    0.000    0.000 
#    0.000    0.000    0.000    0.000    0.000    0.000 
#
# Total GULP energy -694495.437344 kJ/mol
# GULP energy per Si atom -12401.704238 kJ/mol
# Density = 1.831794 g / cm^3
# Si number density = 18.359726 Si / 1000 Ang^3
#
#
#
# Elastic Constant Matrix: (Units=GPa)
#
#
# Indices 1 2 3 4 5 6 
#
# 1 71.1303 46.8876 51.7860 0.0000 0.0000 0.0000
# 2 46.8876 151.3166 67.5980 0.0000 0.0000 0.0000
# 3 51.7860 67.5980 136.4168 0.0000 0.0000 0.0000
# 4 0.0000 0.0000 0.0000 18.4807 0.0000 0.0000
# 5 0.0000 0.0000 0.0000 0.0000 35.9528 0.0000
# 6 0.0000 0.0000 0.0000 0.0000 0.0000 26.5408
#
#
#
# Elastic Compliance Matrix: (Units=1/GPa)
#
#
# Indices 1 2 3 4 5 6 
#
# 1 0.020987 -0.003781 -0.006094 0.000000 0.000000 0.000000
# 2 -0.003781 0.009169 -0.003108 0.000000 0.000000 0.000000
# 3 -0.006094 -0.003108 0.011184 0.000000 0.000000 0.000000
# 4 0.000000 0.000000 0.000000 0.054110 0.000000 0.000000
# 5 0.000000 0.000000 0.000000 0.000000 0.027814 0.000000
# 6 0.000000 0.000000 0.000000 0.000000 0.000000 0.037678
#
#
# Mechanical properties :
#
#
# Convention : Reuss Voigt Hill
#
# Bulk Modulus (GPa) = 65.04174 76.82298 70.93236
# Shear Modulus (GPa) = 26.03724 29.03434 27.53579
#
# Velocity S-wave (km/s) = 3.76995 3.98101 3.87692
# Velocity P-wave (km/s) = 7.37924 7.94137 7.66546
#
# Compressibility (1/GPa) = 0.01537474
#
# Stress axis : x y z
#
# Youngs Moduli (GPa) = 47.64745 109.06655 89.41531
#
# Poissons Ratio (x) = 0.41239 0.54486
# Poissons Ratio (y) = 0.18016 0.27790
# Poissons Ratio (z) = 0.29034 0.33898
#
# Static dielectric constant tensor:
#      x y z
#    x 3.332300 0.000000 0.000000 
#    y 0.000000 3.500950 0.000000 
#    z 0.000000 0.000000 2.939590 
# 
# 
# High freq. dielectric constant tensor:
#      x y z
#    x 1.708020 0.000000 0.000000 
#    y 0.000000 1.718580 0.000000 
#    z 0.000000 0.000000 1.713450 
# 
# From -- ./inp_files/29228.got.cif
#   From: 2010.03.12/outbox.cif.g09.slc.cpg/sg59_15_cif.got.tgz:29228.got - 2010.04.16 16:29:54.
