data_PCOD8243318
_publ_section_title
;
Structure prediction by ZEFSAII (Michael W. Deem and Ramdas Pophale) SiO2 
 PCOD8243318
Probable space group: P M M N
;
_chemical_formula_sum "Si O2"
_cell_formula_units_Z 48
_cell_length_a 8.987474
_cell_length_b 8.922063
_cell_length_c 30.956535
_cell_angle_alpha 90.000000
_cell_angle_beta 90.000000
_cell_angle_gamma 90.000000
_cell_volume 2482.305767
_symmetry_space_group_name_H-M "P M M N"
_symmetry_group_IT_number 59
_space_group.IT_coordinate_system_code '2'
_symmetry_cell_setting 'orthorhombic'
loop_
_space_group_symop_operation_xyz
x,y,z
1/2-x,1/2-y,z
1/2+x,-y,-z
-x,1/2+y,-z
-x,-y,-z
1/2+x,1/2+y,-z
1/2-x,y,z
x,1/2-y,z
loop_
_atom_site_type_symbol
_atom_site_label
_atom_site_fract_x
_atom_site_fract_y
_atom_site_fract_z
Si Si1 0.420880 0.926489 0.628395
Si Si2 0.077504 0.575586 0.292295
Si Si3 0.082418 0.428127 0.125948
Si Si4 0.574950 0.076797 0.212641
Si Si5 0.420684 0.572602 0.959570
Si Si6 0.575004 0.921152 0.459919
O O1 0.250000 0.971386 0.638312
O O2 0.439045 0.750000 0.624389
O O3 0.525559 0.985385 0.666025
O O4 0.476989 0.998906 0.583921
O O5 0.250000 0.541118 0.283645
O O6 0.047750 0.750000 0.300370
O O7 0.983537 0.523154 0.251455
O O8 0.250000 0.491658 0.125833
O O9 0.081770 0.250000 0.125075
O O10 0.999399 0.484546 0.168834
O O11 0.997205 0.489811 0.083934
O O12 0.750000 0.056460 0.208061
O O13 0.532776 0.250000 0.221344
O O14 0.250000 0.522024 0.958852
O O15 0.437113 0.750000 0.962873
O O16 0.500000 0.500000 0.000000
O O17 0.750000 0.935583 0.465855
O O18 0.522108 0.750000 0.457834
O O19 0.500000 0.000000 0.500000
#
# Coordination Sequence:
#
# PCOD8243318 Si02
#       6
#     8   8   8   8   8   8
#     4  10  21  38  60  84 109 141 183 228 273 323
#     4  11  24  39  55  79 111 145 180 220 268 321
#     4   9  17  31  53  79 107 140 177 219 268 321
#     4  10  20  35  57  83 108 137 176 220 266 319
#     4  10  20  34  53  78 108 142 181 225 272 323
#     4  10  21  37  58  84 114 149 187 227 274 326
#
# _framework density 19.336860999999999
#
# number of rings (size 3 to 8) (size 9 to 14) (size 15 to 20)
#    0.000    2.000    0.000    3.500    0.000   10.000 
#    0.000    0.833    0.000    5.000    0.000    0.000 
#    0.000    0.000    0.000    0.000    0.000    0.000 
#
# Total GULP energy -595404.162126 kJ/mol
# GULP energy per Si atom -12404.253378 kJ/mol
# Density = 1.929285 g / cm^3
# Si number density = 19.336861 Si / 1000 Ang^3
#
#
#
# Elastic Constant Matrix: (Units=GPa)
#
#
# Indices 1 2 3 4 5 6 
#
# 1 106.2284 36.0544 64.6735 0.0000 0.0000 0.0000
# 2 36.0544 66.5759 46.4732 0.0000 0.0000 0.0000
# 3 64.6735 46.4732 169.2611 0.0000 0.0000 0.0000
# 4 0.0000 0.0000 0.0000 36.2462 0.0000 0.0000
# 5 0.0000 0.0000 0.0000 0.0000 45.1862 0.0000
# 6 0.0000 0.0000 0.0000 0.0000 0.0000 28.0481
#
#
#
# Elastic Compliance Matrix: (Units=1/GPa)
#
#
# Indices 1 2 3 4 5 6 
#
# 1 0.013281 -0.004515 -0.003835 0.000000 0.000000 0.000000
# 2 -0.004515 0.020117 -0.003798 0.000000 0.000000 0.000000
# 3 -0.003835 -0.003798 0.008416 0.000000 0.000000 0.000000
# 4 0.000000 0.000000 0.000000 0.027589 0.000000 0.000000
# 5 0.000000 0.000000 0.000000 0.000000 0.022131 0.000000
# 6 0.000000 0.000000 0.000000 0.000000 0.000000 0.035653
#
#
# Mechanical properties :
#
#
# Convention : Reuss Voigt Hill
#
# Bulk Modulus (GPa) = 57.08612 70.71862 63.90237
# Shear Modulus (GPa) = 31.78181 34.88705 33.33443
#
# Velocity S-wave (km/s) = 4.05852 4.25216 4.15647
# Velocity P-wave (km/s) = 7.17970 7.79482 7.49357
#
# Compressibility (1/GPa) = 0.01751739
#
# Stress axis : x y z
#
# Youngs Moduli (GPa) = 75.29608 49.70897 118.82008
#
# Poissons Ratio (x) = 0.22446 0.45564
# Poissons Ratio (y) = 0.34000 0.45129
# Poissons Ratio (z) = 0.28874 0.18880
#
# Static dielectric constant tensor:
#      x y z
#    x 3.669390 0.000000 0.000000 
#    y 0.000000 3.377900 0.000000 
#    z 0.000000 0.000000 3.712950 
# 
# 
# High freq. dielectric constant tensor:
#      x y z
#    x 1.760790 0.000000 0.000000 
#    y 0.000000 1.736780 0.000000 
#    z 0.000000 0.000000 1.770790 
# 
# From -- ./inp_files/32812.got.cif
#   From: 2010.03.12/outbox.cif.g09.slc.cpg/sg59_17_cif.got.tgz:32812.got - 2010.04.16 16:29:54.
