data_PCOD8243715
_publ_section_title
;
Structure prediction by ZEFSAII (Michael W. Deem and Ramdas Pophale) SiO2 
 PCOD8243715
Probable space group: P M M N
;
_chemical_formula_sum "Si O2"
_cell_formula_units_Z 56
_cell_length_a 8.773262
_cell_length_b 22.271319
_cell_length_c 14.659802
_cell_angle_alpha 90.000000
_cell_angle_beta 90.000000
_cell_angle_gamma 90.000000
_cell_volume 2864.409743
_symmetry_space_group_name_H-M "P M M N"
_symmetry_group_IT_number 59
_space_group.IT_coordinate_system_code '2'
_symmetry_cell_setting 'orthorhombic'
loop_
_space_group_symop_operation_xyz
x,y,z
1/2-x,1/2-y,z
1/2+x,-y,-z
-x,1/2+y,-z
-x,-y,-z
1/2+x,1/2+y,-z
1/2-x,y,z
x,1/2-y,z
loop_
_atom_site_type_symbol
_atom_site_label
_atom_site_fract_x
_atom_site_fract_y
_atom_site_fract_z
Si Si1 0.929517 0.980233 0.777232
Si Si2 0.071306 0.854128 0.815262
Si Si3 0.081097 0.146982 0.648640
Si Si4 0.930022 0.250000 0.321076
Si Si5 0.567622 0.750000 0.477984
Si Si6 0.420233 0.486705 0.593145
Si Si7 0.068550 0.100702 0.835736
Si Si8 0.424357 0.182514 0.003045
O O1 0.750000 0.986019 0.783734
O O2 0.980372 0.916191 0.815013
O O3 0.981902 0.984121 0.673108
O O4 0.001405 0.033494 0.838320
O O5 0.250000 0.867193 0.808454
O O6 0.017677 0.809681 0.733943
O O7 0.034195 0.822432 0.910683
O O8 0.250000 0.172640 0.666605
O O9 0.000776 0.193439 0.579545
O O10 0.086916 0.084267 0.597950
O O11 0.001851 0.137442 0.747836
O O12 0.750000 0.250000 0.331051
O O13 0.002950 0.250000 0.420474
O O14 0.750000 0.750000 0.487784
O O15 0.500000 0.500000 0.500000
O O16 0.250000 0.514323 0.596666
O O17 0.250000 0.094605 0.824661
O O18 0.019718 0.135979 0.926026
O O19 0.250000 0.168197 0.031171
O O20 0.436847 0.250000 0.963538
#
# Coordination Sequence:
#
# PCOD8243715 Si02
#       8
#     8   8   8   4   4   8   8   8
#     4  11  23  39  60  87 116 153 200 249 299 351
#     4  11  23  42  63  84 116 157 197 245 302 358
#     4   8  17  33  54  83 116 147 187 230 278 338
#     4  10  24  42  57  80 114 154 195 238 297 354
#     4  10  20  34  57  86 114 150 191 236 285 336
#     4  10  20  36  56  83 116 155 198 242 292 350
#     4   9  19  38  61  88 123 156 190 237 295 356
#     4  10  21  37  62  94 121 153 196 242 293 352
#
# _framework density 19.550274999999999
#
# number of rings (size 3 to 8) (size 9 to 14) (size 15 to 20)
#    0.000    2.143    0.714    3.000    3.000    2.286 
#    0.000    2.857    0.000    0.000    0.000    0.000 
#    0.000    0.000    0.000    0.000    0.000    0.000 
#
# Total GULP energy -694264.537466 kJ/mol
# GULP energy per Si atom -12397.581026 kJ/mol
# Density = 1.950578 g / cm^3
# Si number density = 19.550275 Si / 1000 Ang^3
#
#
#
# Elastic Constant Matrix: (Units=GPa)
#
#
# Indices 1 2 3 4 5 6 
#
# 1 63.2677 33.3488 28.4743 0.0000 0.0000 0.0000
# 2 33.3488 111.8132 58.8708 0.0000 0.0000 0.0000
# 3 28.4743 58.8708 104.4908 0.0000 0.0000 0.0000
# 4 0.0000 0.0000 0.0000 31.3693 0.0000 0.0000
# 5 0.0000 0.0000 0.0000 0.0000 27.8632 0.0000
# 6 0.0000 0.0000 0.0000 0.0000 0.0000 21.7259
#
#
#
# Elastic Compliance Matrix: (Units=1/GPa)
#
#
# Indices 1 2 3 4 5 6 
#
# 1 0.019342 -0.004256 -0.002873 0.000000 0.000000 0.000000
# 2 -0.004256 0.013652 -0.006532 0.000000 0.000000 0.000000
# 3 -0.002873 -0.006532 0.014033 0.000000 0.000000 0.000000
# 4 0.000000 0.000000 0.000000 0.031878 0.000000 0.000000
# 5 0.000000 0.000000 0.000000 0.000000 0.035890 0.000000
# 6 0.000000 0.000000 0.000000 0.000000 0.000000 0.046028
#
#
# Mechanical properties :
#
#
# Convention : Reuss Voigt Hill
#
# Bulk Modulus (GPa) = 50.74703 57.88437 54.31570
# Shear Modulus (GPa) = 25.67872 26.78354 26.23113
#
# Velocity S-wave (km/s) = 3.62812 3.70534 3.66693
# Velocity P-wave (km/s) = 6.60034 6.92664 6.76546
#
# Compressibility (1/GPa) = 0.01970559
#
# Stress axis : x y z
#
# Youngs Moduli (GPa) = 51.70001 73.24935 71.26005
#
# Poissons Ratio (x) = 0.31178 0.20472
# Poissons Ratio (y) = 0.22005 0.46545
# Poissons Ratio (z) = 0.14852 0.47845
#
# Static dielectric constant tensor:
#      x y z
#    x 3.560360 0.000000 0.000000 
#    y 0.000000 3.917160 0.000000 
#    z 0.000000 0.000000 3.585790 
# 
# 
# High freq. dielectric constant tensor:
#      x y z
#    x 1.741520 0.000000 0.000000 
#    y 0.000000 1.771420 0.000000 
#    z 0.000000 0.000000 1.766110 
# 
# From -- ./inp_files/21135.got.cif
#   From: 2010.03.12/outbox.cif.g09.slc.cpg/sg59_11_cif.got.tgz:21135.got - 2010.04.16 16:29:54.
