data_PCOD8243861
_publ_section_title
;
Structure prediction by ZEFSAII (Michael W. Deem and Ramdas Pophale) SiO2 
 PCOD8243861
Probable space group: P M M N
;
_chemical_formula_sum "Si O2"
_cell_formula_units_Z 48
_cell_length_a 9.041744
_cell_length_b 26.783970
_cell_length_c 10.352870
_cell_angle_alpha 90.000000
_cell_angle_beta 90.000000
_cell_angle_gamma 90.000000
_cell_volume 2507.193869
_symmetry_space_group_name_H-M "P M M N"
_symmetry_group_IT_number 59
_space_group.IT_coordinate_system_code '2'
_symmetry_cell_setting 'orthorhombic'
loop_
_space_group_symop_operation_xyz
x,y,z
1/2-x,1/2-y,z
1/2+x,-y,-z
-x,1/2+y,-z
-x,-y,-z
1/2+x,1/2+y,-z
1/2-x,y,z
x,1/2-y,z
loop_
_atom_site_type_symbol
_atom_site_label
_atom_site_fract_x
_atom_site_fract_y
_atom_site_fract_z
Si Si1 0.921467 0.308750 0.120240
Si Si2 0.574795 0.360853 0.378736
Si Si3 0.424830 0.357730 0.879206
Si Si4 0.922945 0.308317 0.636538
Si Si5 0.575116 0.025698 0.379476
Si Si6 0.424188 0.472315 0.882375
O O1 0.750000 0.322754 0.097902
O O2 0.944608 0.250000 0.124507
O O3 0.983523 0.331418 0.253648
O O4 0.017560 0.331552 0.007009
O O5 0.750000 0.357966 0.380373
O O6 0.513826 0.334790 0.508046
O O7 0.518331 0.417531 0.371870
O O8 0.250000 0.353092 0.873518
O O9 0.490622 0.329981 0.756862
O O10 0.476361 0.415114 0.878995
O O11 0.750000 0.319118 0.656531
O O12 0.955069 0.250000 0.623937
O O13 0.750000 0.022874 0.397764
O O14 0.500000 0.000000 0.500000
O O15 0.523392 0.997858 0.250147
O O16 0.250000 0.477293 0.900738
O O17 0.500000 0.500000 0.000000
#
# Coordination Sequence:
#
# PCOD8243861 Si02
#       6
#     8   8   8   8   8   8
#     4  10  20  36  59  83 106 138 182 228 271 316
#     4   9  18  34  57  82 106 134 173 225 275 313
#     4  11  23  37  53  78 113 147 178 217 267 320
#     4  10  20  35  56  81 107 138 179 222 264 316
#     4  10  20  35  55  79 107 139 176 218 266 319
#     4  10  22  38  56  80 109 142 181 223 266 317
#
# _framework density 19.144911
#
# number of rings (size 3 to 8) (size 9 to 14) (size 15 to 20)
#    0.000    2.000    0.000    3.500    0.000    8.000 
#    0.000    1.667    0.000    2.000    0.000    0.000 
#    0.000    0.000    0.000    0.000    0.000    0.000 
#
# Total GULP energy -595383.183585 kJ/mol
# GULP energy per Si atom -12403.816325 kJ/mol
# Density = 1.910134 g / cm^3
# Si number density = 19.144911 Si / 1000 Ang^3
#
#
#
# Elastic Constant Matrix: (Units=GPa)
#
#
# Indices 1 2 3 4 5 6 
#
# 1 37.7293 41.4207 41.7908 0.0000 0.0000 0.0000
# 2 41.4207 142.5720 81.0342 0.0000 0.0000 0.0000
# 3 41.7908 81.0342 185.1939 0.0000 0.0000 0.0000
# 4 0.0000 0.0000 0.0000 46.9948 0.0000 0.0000
# 5 0.0000 0.0000 0.0000 0.0000 324.1142 0.0000
# 6 0.0000 0.0000 0.0000 0.0000 0.0000 26.3333
#
#
#
# Elastic Compliance Matrix: (Units=1/GPa)
#
#
# Indices 1 2 3 4 5 6 
#
# 1 0.042914 -0.009269 -0.005628 0.000000 0.000000 0.000000
# 2 -0.009269 0.011338 -0.002869 0.000000 0.000000 0.000000
# 3 -0.005628 -0.002869 0.007925 0.000000 0.000000 0.000000
# 4 0.000000 0.000000 0.000000 0.021279 0.000000 0.000000
# 5 0.000000 0.000000 0.000000 0.000000 0.003085 0.000000
# 6 0.000000 0.000000 0.000000 0.000000 0.000000 0.037975
#
#
# Mechanical properties :
#
#
# Convention : Reuss Voigt Hill
#
# Bulk Modulus (GPa) = 37.53112 77.10963 57.32037
# Shear Modulus (GPa) = 29.59788 92.90509 61.25148
#
# Velocity S-wave (km/s) = 3.93618 6.97371 5.66243
# Velocity P-wave (km/s) = 6.34856 10.25709 8.52971
#
# Compressibility (1/GPa) = 0.02664456
#
# Stress axis : x y z
#
# Youngs Moduli (GPa) = 23.30216 88.20164 126.17657
#
# Poissons Ratio (x) = 0.81751 0.71018
# Poissons Ratio (y) = 0.21598 0.36205
# Poissons Ratio (z) = 0.13115 0.25308
#
# Static dielectric constant tensor:
#      x y z
#    x 3.246480 0.000000 0.000000 
#    y 0.000000 3.592900 0.000000 
#    z 0.000000 0.000000 3.964840 
# 
# 
# High freq. dielectric constant tensor:
#      x y z
#    x 1.717720 0.000000 0.000000 
#    y 0.000000 1.765990 0.000000 
#    z 0.000000 0.000000 1.765200 
# 
# From -- ./inp_files/6196.got.cif
#   From: 2010.03.12/outbox.cif.g09.slc.cpg/sg59_4_cif.got.tgz:6196.got - 2010.04.16 16:29:54.
