data_PCOD8243392
_publ_section_title
;
Structure prediction by ZEFSAII (Michael W. Deem and Ramdas Pophale) SiO2 
 PCOD8243392
Probable space group: P M M N
;
_chemical_formula_sum "Si O2"
_cell_formula_units_Z 64
_cell_length_a 9.059397
_cell_length_b 17.735991
_cell_length_c 21.376691
_cell_angle_alpha 90.000000
_cell_angle_beta 90.000000
_cell_angle_gamma 90.000000
_cell_volume 3434.750781
_symmetry_space_group_name_H-M "P M M N"
_symmetry_group_IT_number 59
_space_group.IT_coordinate_system_code '2'
_symmetry_cell_setting 'orthorhombic'
loop_
_space_group_symop_operation_xyz
x,y,z
1/2-x,1/2-y,z
1/2+x,-y,-z
-x,1/2+y,-z
-x,-y,-z
1/2+x,1/2+y,-z
1/2-x,y,z
x,1/2-y,z
loop_
_atom_site_type_symbol
_atom_site_label
_atom_site_fract_x
_atom_site_fract_y
_atom_site_fract_z
Si Si1 0.924384 0.831688 0.621709
Si Si2 0.077085 0.063871 0.908709
Si Si3 0.584821 0.599025 0.749059
Si Si4 0.584737 0.437414 0.688627
Si Si5 0.573875 0.338100 0.800197
Si Si6 0.427419 0.014888 0.434227
Si Si7 0.915982 0.166066 0.143882
Si Si8 0.420166 0.084987 0.050622
O O1 0.750000 0.831083 0.614539
O O2 0.990056 0.750000 0.600724
O O3 0.965735 0.845759 0.693643
O O4 0.985698 0.900739 0.580844
O O5 0.250000 0.059623 0.892408
O O6 0.998231 0.117015 0.857906
O O7 0.048184 0.097556 0.977661
O O8 0.010453 0.980385 0.913181
O O9 0.750000 0.620247 0.771850
O O10 0.581391 0.513148 0.728324
O O11 0.468582 0.607464 0.804033
O O12 0.750000 0.411018 0.674482
O O13 0.513454 0.372449 0.733314
O O14 0.513803 0.455858 0.619775
O O15 0.750000 0.348777 0.804634
O O16 0.528985 0.250000 0.803391
O O17 0.250000 0.011548 0.437105
O O18 0.500000 0.000000 0.500000
O O19 0.750000 0.145784 0.124215
O O20 0.928564 0.250000 0.171081
O O21 0.021392 0.160840 0.083171
O O22 0.250000 0.068598 0.063503
#
# Coordination Sequence:
#
# PCOD8243392 Si02
#       8
#     8   8   8   8   8   8   8   8
#     4   8  14  26  46  71  96 125 165 209 249 293
#     4  10  21  37  57  79 102 128 163 216 275 318
#     4   9  16  29  52  74  92 124 169 210 248 299
#     4   8  16  32  52  74  99 128 165 207 248 294
#     4  10  20  34  54  78 104 139 181 219 257 308
#     4   9  17  31  51  73 100 133 167 205 248 298
#     4  11  23  34  45  69 106 139 165 202 253 300
#     4  10  21  37  56  75  97 131 174 213 254 316
#
# _framework density 18.633085000000001
#
# number of rings (size 3 to 8) (size 9 to 14) (size 15 to 20)
#    0.000    2.625    0.000    3.750    0.000    4.750 
#    0.000    6.250    0.000    1.875    0.000    0.000 
#    0.000    0.000    0.000    0.000    0.000    0.000 
#
# Total GULP energy -792854.418380 kJ/mol
# GULP energy per Si atom -12388.350287 kJ/mol
# Density = 1.859067 g / cm^3
# Si number density = 18.633085 Si / 1000 Ang^3
#
#
#
# Elastic Constant Matrix: (Units=GPa)
#
#
# Indices 1 2 3 4 5 6 
#
# 1 50.4268 30.5046 44.4035 0.0000 0.0000 0.0000
# 2 30.5046 84.2729 64.4487 0.0000 0.0000 0.0000
# 3 44.4035 64.4487 136.7518 0.0000 0.0000 0.0000
# 4 0.0000 0.0000 0.0000 21.9953 0.0000 0.0000
# 5 0.0000 0.0000 0.0000 0.0000 31.5874 0.0000
# 6 0.0000 0.0000 0.0000 0.0000 0.0000 20.1988
#
#
#
# Elastic Compliance Matrix: (Units=1/GPa)
#
#
# Indices 1 2 3 4 5 6 
#
# 1 0.029149 -0.005180 -0.007023 0.000000 0.000000 0.000000
# 2 -0.005180 0.019474 -0.007496 0.000000 0.000000 0.000000
# 3 -0.007023 -0.007496 0.013126 0.000000 0.000000 0.000000
# 4 0.000000 0.000000 0.000000 0.045464 0.000000 0.000000
# 5 0.000000 0.000000 0.000000 0.000000 0.031658 0.000000
# 6 0.000000 0.000000 0.000000 0.000000 0.000000 0.049508
#
#
# Mechanical properties :
#
#
# Convention : Reuss Voigt Hill
#
# Bulk Modulus (GPa) = 44.74274 61.12947 52.93611
# Shear Modulus (GPa) = 21.25615 23.56261 22.40938
#
# Velocity S-wave (km/s) = 3.38120 3.55992 3.47171
# Velocity P-wave (km/s) = 6.26961 7.05518 6.67396
#
# Compressibility (1/GPa) = 0.02234999
#
# Stress axis : x y z
#
# Youngs Moduli (GPa) = 34.30695 51.35166 76.18692
#
# Poissons Ratio (x) = 0.26599 0.53509
# Poissons Ratio (y) = 0.17770 0.57107
# Poissons Ratio (z) = 0.24095 0.38492
#
# Static dielectric constant tensor:
#      x y z
#    x 3.185790 0.000000 0.000000 
#    y 0.000000 3.324150 0.000000 
#    z 0.000000 0.000000 3.522160 
# 
# 
# High freq. dielectric constant tensor:
#      x y z
#    x 1.694310 0.000000 0.000000 
#    y 0.000000 1.719910 0.000000 
#    z 0.000000 0.000000 1.723600 
# 
# From -- ./inp_files/29617.got.cif
#   From: 2010.03.12/outbox.cif.g09.slc.cpg/sg59_15_cif.got.tgz:29617.got - 2010.04.16 16:29:54.
