data_PCOD8243395
_publ_section_title
;
Structure prediction by ZEFSAII (Michael W. Deem and Ramdas Pophale) SiO2 
 PCOD8243395
Probable space group: P M M N
;
_chemical_formula_sum "Si O2"
_cell_formula_units_Z 56
_cell_length_a 22.550384
_cell_length_b 9.001571
_cell_length_c 14.752140
_cell_angle_alpha 90.000000
_cell_angle_beta 90.000000
_cell_angle_gamma 90.000000
_cell_volume 2994.520415
_symmetry_space_group_name_H-M "P M M N"
_symmetry_group_IT_number 59
_space_group.IT_coordinate_system_code '2'
_symmetry_cell_setting 'orthorhombic'
loop_
_space_group_symop_operation_xyz
x,y,z
1/2-x,1/2-y,z
1/2+x,-y,-z
-x,1/2+y,-z
-x,-y,-z
1/2+x,1/2+y,-z
1/2-x,y,z
x,1/2-y,z
loop_
_atom_site_type_symbol
_atom_site_label
_atom_site_fract_x
_atom_site_fract_y
_atom_site_fract_z
Si Si1 0.544947 0.079250 0.888534
Si Si2 0.682243 0.574937 0.571789
Si Si3 0.815682 0.073318 0.203037
Si Si4 0.495688 0.581312 0.594576
Si Si5 0.860266 0.418016 0.394228
Si Si6 0.574396 0.074556 0.087853
Si Si7 0.404840 0.578028 0.298931
O O1 0.525472 0.250000 0.895810
O O2 0.593766 0.056466 0.809701
O O3 0.485176 0.988617 0.866405
O O4 0.575558 0.026499 0.982132
O O5 0.750000 0.523586 0.570696
O O6 0.675304 0.750000 0.578891
O O7 0.651015 0.521765 0.480096
O O8 0.652312 0.502440 0.659873
O O9 0.750000 0.019029 0.171972
O O10 0.819256 0.250000 0.201641
O O11 0.825873 0.019228 0.306490
O O12 0.866373 0.008564 0.135986
O O13 0.500000 0.500000 0.500000
O O14 0.519127 0.750000 0.584311
O O15 0.429175 0.579524 0.631716
O O16 0.534931 0.492930 0.665409
O O17 0.840018 0.250000 0.418181
O O18 0.572860 0.250000 0.100237
O O19 0.402717 0.750000 0.327323
#
# Coordination Sequence:
#
# PCOD8243395 Si02
#       7
#     8   8   8   8   8   8   8
#     4   9  19  34  54  81 109 136 173 219 269 318
#     4  11  24  39  54  73 100 138 183 227 268 315
#     4   9  17  30  51  79 107 136 173 216 259 311
#     4  11  21  33  52  80 109 139 175 219 267 316
#     4  10  20  34  54  78 105 139 176 212 262 323
#     4   9  17  33  56  81 107 137 173 215 265 321
#     4  11  22  36  54  78 108 143 179 220 267 318
#
# _framework density 18.700825999999999
#
# number of rings (size 3 to 8) (size 9 to 14) (size 15 to 20)
#    0.000    2.000    1.429    2.571    0.000    4.571 
#    0.000    1.429    0.000    3.857    0.000    0.000 
#    0.000    0.000    0.000    0.000    0.000    0.000 
#
# Total GULP energy -694401.898147 kJ/mol
# GULP energy per Si atom -12400.033895 kJ/mol
# Density = 1.865826 g / cm^3
# Si number density = 18.700826 Si / 1000 Ang^3
#
#
#
# Elastic Constant Matrix: (Units=GPa)
#
#
# Indices 1 2 3 4 5 6 
#
# 1 94.3412 20.6916 34.1287 0.0000 0.0000 0.0000
# 2 20.6916 58.7339 22.6776 0.0000 0.0000 0.0000
# 3 34.1287 22.6776 87.1087 0.0000 0.0000 0.0000
# 4 0.0000 0.0000 0.0000 19.8650 0.0000 0.0000
# 5 0.0000 0.0000 0.0000 0.0000 29.5963 0.0000
# 6 0.0000 0.0000 0.0000 0.0000 0.0000 24.5999
#
#
#
# Elastic Compliance Matrix: (Units=1/GPa)
#
#
# Indices 1 2 3 4 5 6 
#
# 1 0.012766 -0.002853 -0.004259 0.000000 0.000000 0.000000
# 2 -0.002853 0.019566 -0.003976 0.000000 0.000000 0.000000
# 3 -0.004259 -0.003976 0.014184 0.000000 0.000000 0.000000
# 4 0.000000 0.000000 0.000000 0.050340 0.000000 0.000000
# 5 0.000000 0.000000 0.000000 0.000000 0.033788 0.000000
# 6 0.000000 0.000000 0.000000 0.000000 0.000000 0.040651
#
#
# Mechanical properties :
#
#
# Convention : Reuss Voigt Hill
#
# Bulk Modulus (GPa) = 41.08454 43.90885 42.49669
# Shear Modulus (GPa) = 24.80354 25.65796 25.23075
#
# Velocity S-wave (km/s) = 3.64584 3.70810 3.67710
# Velocity P-wave (km/s) = 6.30396 6.47024 6.38764
#
# Compressibility (1/GPa) = 0.02434006
#
# Stress axis : x y z
#
# Youngs Moduli (GPa) = 78.33126 51.10851 70.50366
#
# Poissons Ratio (x) = 0.14581 0.30028
# Poissons Ratio (y) = 0.22348 0.28032
# Poissons Ratio (z) = 0.33361 0.20321
#
# Static dielectric constant tensor:
#      x y z
#    x 3.590770 0.000000 0.000000 
#    y 0.000000 3.374670 0.000000 
#    z 0.000000 0.000000 3.473860 
# 
# 
# High freq. dielectric constant tensor:
#      x y z
#    x 1.723500 0.000000 0.000000 
#    y 0.000000 1.712710 0.000000 
#    z 0.000000 0.000000 1.727670 
# 
# From -- ./inp_files/24238.got.cif
#   From: 2010.03.12/outbox.cif.g09.slc.cpg/sg59_13_cif.got.tgz:24238.got - 2010.04.16 16:29:54.
