data_PCOD8243388
_publ_section_title
;
Structure prediction by ZEFSAII (Michael W. Deem and Ramdas Pophale) SiO2 
 PCOD8243388
Probable space group: P M M N
;
_chemical_formula_sum "Si O2"
_cell_formula_units_Z 48
_cell_length_a 29.335027
_cell_length_b 9.272119
_cell_length_c 9.529720
_cell_angle_alpha 90.000000
_cell_angle_beta 90.000000
_cell_angle_gamma 90.000000
_cell_volume 2592.063458
_symmetry_space_group_name_H-M "P M M N"
_symmetry_group_IT_number 59
_space_group.IT_coordinate_system_code '2'
_symmetry_cell_setting 'orthorhombic'
loop_
_space_group_symop_operation_xyz
x,y,z
1/2-x,1/2-y,z
1/2+x,-y,-z
-x,1/2+y,-z
-x,-y,-z
1/2+x,1/2+y,-z
1/2-x,y,z
x,1/2-y,z
loop_
_atom_site_type_symbol
_atom_site_label
_atom_site_fract_x
_atom_site_fract_y
_atom_site_fract_z
Si Si1 0.698112 0.916308 0.870861
Si Si2 0.447901 0.581653 0.148486
Si Si3 0.303333 0.916487 0.853497
Si Si4 0.131172 0.082771 0.659859
Si Si5 0.447441 0.084688 0.872695
Si Si6 0.880612 0.917743 0.659910
O O1 0.750000 0.955784 0.829481
O O2 0.693789 0.750000 0.915521
O O3 0.666782 0.952747 0.738033
O O4 0.680742 0.009308 0.002145
O O5 0.436976 0.750000 0.144544
O O6 0.501139 0.548755 0.172696
O O7 0.421617 0.509811 0.276846
O O8 0.431246 0.513391 0.002003
O O9 0.250000 0.939658 0.829614
O O10 0.316893 0.750000 0.862199
O O11 0.328148 0.989140 0.722742
O O12 0.144936 0.250000 0.670431
O O13 0.084132 0.050453 0.740152
O O14 0.124872 0.034068 0.500159
O O15 0.442890 0.250000 0.921931
O O16 0.893441 0.750000 0.672566
#
# Coordination Sequence:
#
# PCOD8243388 Si02
#       6
#     8   8   8   8   8   8
#     4   9  18  34  55  76  99 131 170 209 250 299
#     4  10  20  34  54  78 103 135 174 214 259 310
#     4  10  21  36  54  78 106 134 168 212 258 303
#     4  10  21  36  54  76 104 139 175 211 254 305
#     4   9  19  36  55  76 103 135 174 218 259 302
#     4  10  21  35  52  77 107 136 169 212 258 304
#
# _framework density 18.518065
#
# number of rings (size 3 to 8) (size 9 to 14) (size 15 to 20)
#    0.000    2.333    0.000    2.000    0.000    9.000 
#    0.000    1.667    0.000    2.000    0.000    0.000 
#    0.000    0.000    0.000    0.000    0.000    0.000 
#
# Total GULP energy -595445.571529 kJ/mol
# GULP energy per Si atom -12405.116074 kJ/mol
# Density = 1.847592 g / cm^3
# Si number density = 18.518065 Si / 1000 Ang^3
#
#
#
# Elastic Constant Matrix: (Units=GPa)
#
#
# Indices 1 2 3 4 5 6 
#
# 1 80.8921 53.4999 72.9645 0.0000 0.0000 0.0000
# 2 53.4999 90.9793 77.7308 0.0000 0.0000 0.0000
# 3 72.9645 77.7308 172.0155 0.0000 0.0000 0.0000
# 4 0.0000 0.0000 0.0000 19.0942 0.0000 0.0000
# 5 0.0000 0.0000 0.0000 0.0000 24.5624 0.0000
# 6 0.0000 0.0000 0.0000 0.0000 0.0000 30.6665
#
#
#
# Elastic Compliance Matrix: (Units=1/GPa)
#
#
# Indices 1 2 3 4 5 6 
#
# 1 0.023586 -0.008669 -0.006087 0.000000 0.000000 0.000000
# 2 -0.008669 0.021090 -0.005853 0.000000 0.000000 0.000000
# 3 -0.006087 -0.005853 0.011040 0.000000 0.000000 0.000000
# 4 0.000000 0.000000 0.000000 0.052372 0.000000 0.000000
# 5 0.000000 0.000000 0.000000 0.000000 0.040713 0.000000
# 6 0.000000 0.000000 0.000000 0.000000 0.000000 0.032609
#
#
# Mechanical properties :
#
#
# Convention : Reuss Voigt Hill
#
# Bulk Modulus (GPa) = 68.97485 83.58637 76.28061
# Shear Modulus (GPa) = 21.98175 24.17740 23.07957
#
# Velocity S-wave (km/s) = 3.44909 3.61724 3.53417
# Velocity P-wave (km/s) = 7.29313 7.91718 7.61155
#
# Compressibility (1/GPa) = 0.01449804
#
# Stress axis : x y z
#
# Youngs Moduli (GPa) = 42.39743 47.41596 90.57615
#
# Poissons Ratio (x) = 0.41104 0.55137
# Poissons Ratio (y) = 0.36754 0.53015
# Poissons Ratio (z) = 0.25809 0.27753
#
# Static dielectric constant tensor:
#      x y z
#    x 3.485350 0.000000 0.000000 
#    y 0.000000 3.428910 0.000000 
#    z 0.000000 0.000000 3.357490 
# 
# 
# High freq. dielectric constant tensor:
#      x y z
#    x 1.727510 0.000000 0.000000 
#    y 0.000000 1.717690 0.000000 
#    z 0.000000 0.000000 1.712550 
# 
# From -- ./inp_files/6187.got.cif
#   From: 2010.03.12/outbox.cif.g09.slc.cpg/sg59_4_cif.got.tgz:6187.got - 2010.04.16 16:29:54.
