data_PCOD8243707
_publ_section_title
;
Structure prediction by ZEFSAII (Michael W. Deem and Ramdas Pophale) SiO2 
 PCOD8243707
Probable space group: P M M N
;
_chemical_formula_sum "Si O2"
_cell_formula_units_Z 48
_cell_length_a 27.843775
_cell_length_b 8.883035
_cell_length_c 10.076216
_cell_angle_alpha 90.000000
_cell_angle_beta 90.000000
_cell_angle_gamma 90.000000
_cell_volume 2492.223333
_symmetry_space_group_name_H-M "P M M N"
_symmetry_group_IT_number 59
_space_group.IT_coordinate_system_code '2'
_symmetry_cell_setting 'orthorhombic'
loop_
_space_group_symop_operation_xyz
x,y,z
1/2-x,1/2-y,z
1/2+x,-y,-z
-x,1/2+y,-z
-x,-y,-z
1/2+x,1/2+y,-z
1/2-x,y,z
x,1/2-y,z
loop_
_atom_site_type_symbol
_atom_site_label
_atom_site_fract_x
_atom_site_fract_y
_atom_site_fract_z
Si Si1 0.696122 0.921692 0.364776
Si Si2 0.603872 0.926034 0.211356
Si Si3 0.394431 0.075359 0.263652
Si Si4 0.448433 0.571854 0.026326
Si Si5 0.950330 0.923354 0.471730
Si Si6 0.195467 0.925465 0.358748
O O1 0.750000 0.943214 0.308942
O O2 0.687259 0.750000 0.413695
O O3 0.659585 0.959545 0.245594
O O4 0.686657 0.028530 0.489201
O O5 0.595421 0.750000 0.181206
O O6 0.571867 0.983169 0.334645
O O7 0.589823 0.023070 0.084426
O O8 0.395566 0.250000 0.222819
O O9 0.412630 0.045600 0.412069
O O10 0.428964 0.982904 0.167257
O O11 0.339786 0.014804 0.259134
O O12 0.454198 0.750000 0.027607
O O13 0.500000 0.500000 0.000000
O O14 0.961819 0.750000 0.458046
O O15 0.000000 0.000000 0.500000
O O16 0.250000 0.964424 0.316605
O O17 0.184482 0.750000 0.345143
#
# Coordination Sequence:
#
# PCOD8243707 Si02
#       6
#     8   8   8   8   8   8
#     4   9  17  33  59  88 118 153 194 240 290 346
#     4  10  20  38  59  85 117 153 196 244 292 350
#     4  11  22  40  62  87 116 155 201 245 294 352
#     4  12  26  43  61  85 116 159 201 243 299 358
#     4  10  21  35  55  84 113 144 189 242 293 344
#     4  10  20  34  56  89 125 158 194 240 295 350
#
# _framework density 19.259910999999999
#
# number of rings (size 3 to 8) (size 9 to 14) (size 15 to 20)
#    0.000    1.667    1.667    3.500    0.000    6.333 
#    0.000    0.833    0.000    3.000    0.000    0.000 
#    0.000    0.000    0.000    0.000    0.000    0.000 
#
# Total GULP energy -595327.268279 kJ/mol
# GULP energy per Si atom -12402.651422 kJ/mol
# Density = 1.921607 g / cm^3
# Si number density = 19.259911 Si / 1000 Ang^3
#
#
#
# Elastic Constant Matrix: (Units=GPa)
#
#
# Indices 1 2 3 4 5 6 
#
# 1 116.6581 43.9805 5.7738 0.0000 0.0000 0.0000
# 2 43.9805 96.0898 26.1220 0.0000 0.0000 0.0000
# 3 5.7738 26.1220 36.0315 0.0000 0.0000 0.0000
# 4 0.0000 0.0000 0.0000 31.8823 0.0000 0.0000
# 5 0.0000 0.0000 0.0000 0.0000 33.5828 0.0000
# 6 0.0000 0.0000 0.0000 0.0000 0.0000 31.2289
#
#
#
# Elastic Compliance Matrix: (Units=1/GPa)
#
#
# Indices 1 2 3 4 5 6 
#
# 1 0.010503 -0.005418 0.002245 0.000000 0.000000 0.000000
# 2 -0.005418 0.015756 -0.010554 0.000000 0.000000 0.000000
# 3 0.002245 -0.010554 0.035046 0.000000 0.000000 0.000000
# 4 0.000000 0.000000 0.000000 0.031365 0.000000 0.000000
# 5 0.000000 0.000000 0.000000 0.000000 0.029777 0.000000
# 6 0.000000 0.000000 0.000000 0.000000 0.000000 0.032022
#
#
# Mechanical properties :
#
#
# Convention : Reuss Voigt Hill
#
# Bulk Modulus (GPa) = 29.54231 44.50356 37.02294
# Shear Modulus (GPa) = 25.87892 30.86567 28.37230
#
# Velocity S-wave (km/s) = 3.66958 4.00757 3.84230
# Velocity P-wave (km/s) = 5.77291 6.67617 6.24090
#
# Compressibility (1/GPa) = 0.03384975
#
# Stress axis : x y z
#
# Youngs Moduli (GPa) = 95.20700 63.46858 28.53422
#
# Poissons Ratio (x) = 0.34385 -0.06405
# Poissons Ratio (y) = 0.51580 0.30116
# Poissons Ratio (z) = -0.21370 0.66988
#
# Static dielectric constant tensor:
#      x y z
#    x 6.614050 0.000000 0.000000 
#    y 0.000000 3.553010 0.000000 
#    z 0.000000 0.000000 3.352940 
# 
# 
# High freq. dielectric constant tensor:
#      x y z
#    x 1.767970 0.000000 0.000000 
#    y 0.000000 1.749300 0.000000 
#    z 0.000000 0.000000 1.730080 
# 
# From -- ./inp_files/12981.got.cif
#   From: 2010.03.12/outbox.cif.g09.slc.cpg/sg59_7_cif.got.tgz:12981.got - 2010.04.16 16:29:54.
