data_PCOD8243038
_publ_section_title
;
Structure prediction by ZEFSAII (Michael W. Deem and Ramdas Pophale) SiO2 
 PCOD8243038
Probable space group: P M M N
;
_chemical_formula_sum "Si O2"
_cell_formula_units_Z 48
_cell_length_a 17.435064
_cell_length_b 17.913219
_cell_length_c 8.835793
_cell_angle_alpha 90.000000
_cell_angle_beta 90.000000
_cell_angle_gamma 90.000000
_cell_volume 2759.578256
_symmetry_space_group_name_H-M "P M M N"
_symmetry_group_IT_number 59
_space_group.IT_coordinate_system_code '2'
_symmetry_cell_setting 'orthorhombic'
loop_
_space_group_symop_operation_xyz
x,y,z
1/2-x,1/2-y,z
1/2+x,-y,-z
-x,1/2+y,-z
-x,-y,-z
1/2+x,1/2+y,-z
1/2-x,y,z
x,1/2-y,z
loop_
_atom_site_type_symbol
_atom_site_label
_atom_site_fract_x
_atom_site_fract_y
_atom_site_fract_z
Si Si1 0.027258 0.835408 0.203384
Si Si2 0.664759 0.526473 0.171268
Si Si3 0.337207 0.561715 0.123193
Si Si4 0.615051 0.665112 0.002949
Si Si5 0.839163 0.588785 0.703620
Si Si6 0.443614 0.060202 0.569837
O O1 0.039942 0.750000 0.247713
O O2 0.109508 0.869378 0.164305
O O3 0.973139 0.844346 0.056046
O O4 0.991165 0.874681 0.349847
O O5 0.750000 0.507147 0.227939
O O6 0.666787 0.610972 0.106090
O O7 0.607186 0.515267 0.308950
O O8 0.638207 0.470395 0.039679
O O9 0.250000 0.590637 0.120077
O O10 0.346975 0.496981 0.246899
O O11 0.643063 0.750000 0.027712
O O12 0.623650 0.643686 0.827452
O O13 0.750000 0.610133 0.677330
O O14 0.887604 0.599398 0.550996
O O15 0.500000 0.000000 0.500000
#
# Coordination Sequence:
#
# PCOD8243038 Si02
#       6
#     8   8   8   8   8   8
#     4  10  21  36  53  77 106 137 177 217 260 318
#     4   9  19  33  53  77 104 134 173 214 257 312
#     4   9  18  34  55  78 101 132 174 221 264 304
#     4   9  19  33  53  78 106 138 174 214 257 300
#     4  10  20  33  53  81 107 135 175 212 253 312
#     4  11  21  33  53  77 106 143 170 209 263 309
#
# _framework density 17.393961999999998
#
# number of rings (size 3 to 8) (size 9 to 14) (size 15 to 20)
#    0.000    2.333    1.667    2.000    2.333    4.333 
#    0.000    0.000    0.000    3.000    0.000    0.000 
#    0.000    0.000    0.000    0.000    0.000    0.000 
#
# Total GULP energy -595212.990705 kJ/mol
# GULP energy per Si atom -12400.270640 kJ/mol
# Density = 1.735437 g / cm^3
# Si number density = 17.393962 Si / 1000 Ang^3
#
#
#
# Elastic Constant Matrix: (Units=GPa)
#
#
# Indices 1 2 3 4 5 6 
#
# 1 110.2458 61.7977 68.5991 0.0000 0.0000 0.0000
# 2 61.7977 100.7491 46.8280 0.0000 0.0000 0.0000
# 3 68.5991 46.8280 120.0765 0.0000 0.0000 0.0000
# 4 0.0000 0.0000 0.0000 19.5371 0.0000 0.0000
# 5 0.0000 0.0000 0.0000 0.0000 30.9445 0.0000
# 6 0.0000 0.0000 0.0000 0.0000 0.0000 24.9792
#
#
#
# Elastic Compliance Matrix: (Units=1/GPa)
#
#
# Indices 1 2 3 4 5 6 
#
# 1 0.017804 -0.007564 -0.007222 0.000000 0.000000 0.000000
# 2 -0.007564 0.015337 -0.001660 0.000000 0.000000 0.000000
# 3 -0.007222 -0.001660 0.013101 0.000000 0.000000 0.000000
# 4 0.000000 0.000000 0.000000 0.051185 0.000000 0.000000
# 5 0.000000 0.000000 0.000000 0.000000 0.032316 0.000000
# 6 0.000000 0.000000 0.000000 0.000000 0.000000 0.040033
#
#
# Mechanical properties :
#
#
# Convention : Reuss Voigt Hill
#
# Bulk Modulus (GPa) = 74.90071 76.16900 75.53485
# Shear Modulus (GPa) = 24.14089 25.34859 24.74474
#
# Velocity S-wave (km/s) = 3.72948 3.82163 3.77584
# Velocity P-wave (km/s) = 7.85495 7.95982 7.90756
#
# Compressibility (1/GPa) = 0.01335101
#
# Stress axis : x y z
#
# Youngs Moduli (GPa) = 56.16630 65.20228 76.33054
#
# Poissons Ratio (x) = 0.49321 0.55122
# Poissons Ratio (y) = 0.42486 0.12669
# Poissons Ratio (z) = 0.40561 0.10822
#
# Static dielectric constant tensor:
#      x y z
#    x 3.284150 0.000000 0.000000 
#    y 0.000000 3.063610 0.000000 
#    z 0.000000 0.000000 3.256300 
# 
# 
# High freq. dielectric constant tensor:
#      x y z
#    x 1.680250 0.000000 0.000000 
#    y 0.000000 1.651730 0.000000 
#    z 0.000000 0.000000 1.670280 
# 
# From -- ./inp_files/9028.got.cif
#   From: 2010.03.12/outbox.cif.g09.slc.cpg/sg59_5_cif.got.tgz:9028.got - 2010.04.16 16:29:54.
