data_PCOD8243041
_publ_section_title
;
Structure prediction by ZEFSAII (Michael W. Deem and Ramdas Pophale) SiO2 
 PCOD8243041
Probable space group: P M M N
;
_chemical_formula_sum "Si O2"
_cell_formula_units_Z 64
_cell_length_a 9.103100
_cell_length_b 15.116069
_cell_length_c 23.739493
_cell_angle_alpha 90.000000
_cell_angle_beta 90.000000
_cell_angle_gamma 90.000000
_cell_volume 3266.627538
_symmetry_space_group_name_H-M "P M M N"
_symmetry_group_IT_number 59
_space_group.IT_coordinate_system_code '2'
_symmetry_cell_setting 'orthorhombic'
loop_
_space_group_symop_operation_xyz
x,y,z
1/2-x,1/2-y,z
1/2+x,-y,-z
-x,1/2+y,-z
-x,-y,-z
1/2+x,1/2+y,-z
1/2-x,y,z
x,1/2-y,z
loop_
_atom_site_type_symbol
_atom_site_label
_atom_site_fract_x
_atom_site_fract_y
_atom_site_fract_z
Si Si1 0.092142 0.651959 0.067207
Si Si2 0.583368 0.647299 0.551411
Si Si3 0.078164 0.512916 0.761620
Si Si4 0.923693 0.914465 0.972451
Si Si5 0.577141 0.020332 0.365155
Si Si6 0.923214 0.350788 0.811438
Si Si7 0.422435 0.646863 0.859340
Si Si8 0.075229 0.347234 0.575004
O O1 0.250000 0.608621 0.047412
O O2 0.129080 0.750000 0.086854
O O3 0.036823 0.609292 0.125852
O O4 0.970935 0.658534 0.018100
O O5 0.750000 0.613327 0.556532
O O6 0.572921 0.750000 0.566632
O O7 0.485751 0.595829 0.595690
O O8 0.522141 0.630228 0.488412
O O9 0.250000 0.496078 0.767405
O O10 0.033536 0.543139 0.698967
O O11 0.029054 0.590609 0.804627
O O12 0.002128 0.418213 0.769901
O O13 0.750000 0.922851 0.968210
O O14 0.987080 0.891357 0.911787
O O15 0.000000 0.000000 0.000000
O O16 0.750000 0.020585 0.373261
O O17 0.515846 0.923127 0.382986
O O18 0.750000 0.355164 0.801454
O O19 0.981197 0.250000 0.801452
O O20 0.250000 0.636442 0.872370
O O21 0.462428 0.750000 0.849391
O O22 0.250000 0.342790 0.574589
O O23 0.014457 0.250000 0.593538
#
# Coordination Sequence:
#
# PCOD8243041 Si02
#       8
#     8   8   8   8   8   8   8   8
#     4   9  18  34  55  78 104 132 162 201 256 319
#     4   9  18  33  53  77 106 142 181 218 263 322
#     4  10  22  37  54  80 109 142 187 231 272 321
#     4  12  24  36  54  81 109 135 171 220 272 328
#     4  10  20  33  53  81 109 139 179 227 274 318
#     4   9  19  36  57  80 108 144 182 221 271 329
#     4  10  22  41  60  77 107 151 191 230 279 329
#     4   8  15  30  52  78 110 145 177 213 264 326
#
# _framework density 19.592071000000001
#
# number of rings (size 3 to 8) (size 9 to 14) (size 15 to 20)
#    0.000    2.375    0.000    4.125    0.000    7.000 
#    0.000    3.750    0.000    1.125    0.000    0.000 
#    0.000    0.000    0.000    0.000    0.000    0.000 
#
# Total GULP energy -793032.760887 kJ/mol
# GULP energy per Si atom -12391.136889 kJ/mol
# Density = 1.954748 g / cm^3
# Si number density = 19.592071 Si / 1000 Ang^3
#
#
#
# Elastic Constant Matrix: (Units=GPa)
#
#
# Indices 1 2 3 4 5 6 
#
# 1 51.6151 34.6755 42.8345 0.0000 0.0000 0.0000
# 2 34.6755 104.7728 57.1742 0.0000 0.0000 0.0000
# 3 42.8345 57.1742 114.7903 0.0000 0.0000 0.0000
# 4 0.0000 0.0000 0.0000 25.6483 0.0000 0.0000
# 5 0.0000 0.0000 0.0000 0.0000 22.3077 0.0000
# 6 0.0000 0.0000 0.0000 0.0000 0.0000 26.8325
#
#
#
# Elastic Compliance Matrix: (Units=1/GPa)
#
#
# Indices 1 2 3 4 5 6 
#
# 1 0.030031 -0.005251 -0.008591 0.000000 0.000000 0.000000
# 2 -0.005251 0.014025 -0.005026 0.000000 0.000000 0.000000
# 3 -0.008591 -0.005026 0.014421 0.000000 0.000000 0.000000
# 4 0.000000 0.000000 0.000000 0.038989 0.000000 0.000000
# 5 0.000000 0.000000 0.000000 0.000000 0.044828 0.000000
# 6 0.000000 0.000000 0.000000 0.000000 0.000000 0.037268
#
#
# Mechanical properties :
#
#
# Convention : Reuss Voigt Hill
#
# Bulk Modulus (GPa) = 48.21387 60.06073 54.13730
# Shear Modulus (GPa) = 22.30037 24.05730 23.17883
#
# Velocity S-wave (km/s) = 3.37743 3.50796 3.44331
# Velocity P-wave (km/s) = 6.31440 6.86512 6.59551
#
# Compressibility (1/GPa) = 0.02074092
#
# Stress axis : x y z
#
# Youngs Moduli (GPa) = 33.29853 71.30086 69.34520
#
# Poissons Ratio (x) = 0.37441 0.59574
# Poissons Ratio (y) = 0.17486 0.34853
# Poissons Ratio (z) = 0.28606 0.35836
#
# Static dielectric constant tensor:
#      x y z
#    x 1.944630 0.000000 0.000000 
#    y 0.000000 3.720950 0.000000 
#    z 0.000000 0.000000 4.527170 
# 
# 
# High freq. dielectric constant tensor:
#      x y z
#    x 1.737980 0.000000 0.000000 
#    y 0.000000 1.773570 0.000000 
#    z 0.000000 0.000000 1.763880 
# 
# From -- ./inp_files/31680.got.cif
#   From: 2010.03.12/outbox.cif.g09.slc.cpg/sg59_16_cif.got.tgz:31680.got - 2010.04.16 16:29:54.
