data_PCOD8243022
_publ_section_title
;
Structure prediction by ZEFSAII (Michael W. Deem and Ramdas Pophale) SiO2 
 PCOD8243022
Probable space group: P M M N
;
_chemical_formula_sum "Si O2"
_cell_formula_units_Z 64
_cell_length_a 8.992153
_cell_length_b 19.598944
_cell_length_c 19.163234
_cell_angle_alpha 90.000000
_cell_angle_beta 90.000000
_cell_angle_gamma 90.000000
_cell_volume 3377.265181
_symmetry_space_group_name_H-M "P M M N"
_symmetry_group_IT_number 59
_space_group.IT_coordinate_system_code '2'
_symmetry_cell_setting 'orthorhombic'
loop_
_space_group_symop_operation_xyz
x,y,z
1/2-x,1/2-y,z
1/2+x,-y,-z
-x,1/2+y,-z
-x,-y,-z
1/2+x,1/2+y,-z
1/2-x,y,z
x,1/2-y,z
loop_
_atom_site_type_symbol
_atom_site_label
_atom_site_fract_x
_atom_site_fract_y
_atom_site_fract_z
Si Si1 0.921453 0.028592 0.432974
Si Si2 0.574366 0.328507 0.772058
Si Si3 0.917452 0.323586 0.392132
Si Si4 0.421530 0.171904 0.916238
Si Si5 0.574808 0.953850 0.291834
Si Si6 0.921771 0.437035 0.176274
Si Si7 0.916654 0.674456 0.746440
Si Si8 0.575383 0.565123 0.969149
O O1 0.750000 0.010093 0.438557
O O2 0.949581 0.110038 0.438611
O O3 0.982626 0.994625 0.360785
O O4 0.000000 0.000000 0.500000
O O5 0.750000 0.337189 0.770826
O O6 0.528420 0.250000 0.754459
O O7 0.516516 0.349088 0.848782
O O8 0.504275 0.380006 0.714929
O O9 0.750000 0.331360 0.360215
O O10 0.926824 0.250000 0.433029
O O11 0.044464 0.321744 0.334484
O O12 0.250000 0.157021 0.897521
O O13 0.448451 0.250000 0.936588
O O14 0.473708 0.129463 0.983713
O O15 0.750000 0.941925 0.296468
O O16 0.533918 0.997773 0.223101
O O17 0.750000 0.440584 0.154149
O O18 0.953470 0.369516 0.219783
O O19 0.024582 0.428393 0.109664
O O20 0.750000 0.643493 0.755573
O O21 0.920800 0.750000 0.779693
O O22 0.750000 0.556004 0.970930
O O23 0.500000 0.500000 0.000000
#
# Coordination Sequence:
#
# PCOD8243022 Si02
#       8
#     8   8   8   8   8   8   8   8
#     4  10  21  38  58  86 117 150 188 230 280 338
#     4  10  21  36  57  86 113 139 181 235 284 332
#     4   9  17  34  59  82 110 148 186 225 270 323
#     4   9  19  37  58  77 104 146 188 226 276 335
#     4  10  21  38  58  81 111 146 186 227 275 339
#     4  11  22  37  56  79 109 147 189 234 281 335
#     4  10  20  33  52  81 113 143 180 226 273 324
#     4  11  23  37  53  78 110 145 186 234 285 340
#
# _framework density 18.950244000000001
#
# number of rings (size 3 to 8) (size 9 to 14) (size 15 to 20)
#    0.000    2.000    1.250    2.250    0.000    8.000 
#    0.000    1.875    0.000    2.250    0.000    0.000 
#    0.000    0.000    0.000    0.000    0.000    0.000 
#
# Total GULP energy -793282.655795 kJ/mol
# GULP energy per Si atom -12395.041497 kJ/mol
# Density = 1.890711 g / cm^3
# Si number density = 18.950244 Si / 1000 Ang^3
#
#
#
# Elastic Constant Matrix: (Units=GPa)
#
#
# Indices 1 2 3 4 5 6 
#
# 1 55.2682 49.5076 32.7525 0.0000 0.0000 0.0000
# 2 49.5076 144.3077 66.9127 0.0000 0.0000 0.0000
# 3 32.7525 66.9127 88.6436 0.0000 0.0000 0.0000
# 4 0.0000 0.0000 0.0000 28.4666 0.0000 0.0000
# 5 0.0000 0.0000 0.0000 0.0000 33.6244 0.0000
# 6 0.0000 0.0000 0.0000 0.0000 0.0000 31.1237
#
#
#
# Elastic Compliance Matrix: (Units=1/GPa)
#
#
# Indices 1 2 3 4 5 6 
#
# 1 0.027309 -0.007216 -0.004643 0.000000 0.000000 0.000000
# 2 -0.007216 0.012568 -0.006821 0.000000 0.000000 0.000000
# 3 -0.004643 -0.006821 0.018145 0.000000 0.000000 0.000000
# 4 0.000000 0.000000 0.000000 0.035129 0.000000 0.000000
# 5 0.000000 0.000000 0.000000 0.000000 0.029740 0.000000
# 6 0.000000 0.000000 0.000000 0.000000 0.000000 0.032130
#
#
# Mechanical properties :
#
#
# Convention : Reuss Voigt Hill
#
# Bulk Modulus (GPa) = 48.39707 65.17390 56.78548
# Shear Modulus (GPa) = 25.09178 27.91274 26.50226
#
# Velocity S-wave (km/s) = 3.64275 3.84207 3.74373
# Velocity P-wave (km/s) = 6.57931 7.35858 6.97983
#
# Compressibility (1/GPa) = 0.02066241
#
# Stress axis : x y z
#
# Youngs Moduli (GPa) = 36.61785 79.56861 55.11048
#
# Poissons Ratio (x) = 0.57415 0.25590
# Poissons Ratio (y) = 0.26423 0.37589
# Poissons Ratio (z) = 0.17003 0.54271
#
# Static dielectric constant tensor:
#      x y z
#    x 3.427330 0.000000 0.000000 
#    y 0.000000 3.829240 0.000000 
#    z 0.000000 0.000000 3.200280 
# 
# 
# High freq. dielectric constant tensor:
#      x y z
#    x 1.737650 0.000000 0.000000 
#    y 0.000000 1.752830 0.000000 
#    z 0.000000 0.000000 1.709960 
# 
# From -- ./inp_files/29525.got.cif
#   From: 2010.03.12/outbox.cif.g09.slc.cpg/sg59_15_cif.got.tgz:29525.got - 2010.04.16 16:29:54.
