data_PCOD8243683
_publ_section_title
;
Structure prediction by ZEFSAII (Michael W. Deem and Ramdas Pophale) SiO2 
 PCOD8243683
Probable space group: P M M N
;
_chemical_formula_sum "Si O2"
_cell_formula_units_Z 64
_cell_length_a 14.707220
_cell_length_b 23.122655
_cell_length_c 9.454474
_cell_angle_alpha 90.000000
_cell_angle_beta 90.000000
_cell_angle_gamma 90.000000
_cell_volume 3215.182728
_symmetry_space_group_name_H-M "P M M N"
_symmetry_group_IT_number 59
_space_group.IT_coordinate_system_code '2'
_symmetry_cell_setting 'orthorhombic'
loop_
_space_group_symop_operation_xyz
x,y,z
1/2-x,1/2-y,z
1/2+x,-y,-z
-x,1/2+y,-z
-x,-y,-z
1/2+x,1/2+y,-z
1/2-x,y,z
x,1/2-y,z
loop_
_atom_site_type_symbol
_atom_site_label
_atom_site_fract_x
_atom_site_fract_y
_atom_site_fract_z
Si Si1 0.147672 0.893184 0.534116
Si Si2 0.494791 0.132173 0.257218
Si Si3 0.356591 0.600642 0.216754
Si Si4 0.150158 0.183447 0.782311
Si Si5 0.488778 0.498552 0.165973
Si Si6 0.980641 0.317728 0.956585
Si Si7 0.353684 0.137338 0.482832
Si Si8 0.353543 0.480056 0.627920
O O1 0.250000 0.876918 0.577517
O O2 0.084069 0.861595 0.646123
O O3 0.126676 0.873566 0.373844
O O4 0.131993 0.961994 0.539005
O O5 0.411844 0.157668 0.348660
O O6 0.471563 0.066849 0.214110
O O7 0.510518 0.172788 0.123216
O O8 0.250000 0.592223 0.185920
O O9 0.403055 0.537993 0.206073
O O10 0.395880 0.646115 0.103646
O O11 0.250000 0.153885 0.808758
O O12 0.158447 0.250000 0.819764
O O13 0.122104 0.175961 0.619103
O O14 0.072168 0.156966 0.882523
O O15 0.580939 0.523074 0.236594
O O16 0.500000 0.500000 0.000000
O O17 0.965398 0.250000 0.924163
O O18 0.250000 0.145265 0.437665
O O19 0.378360 0.071153 0.520319
O O20 0.250000 0.473700 0.683607
#
# Coordination Sequence:
#
# PCOD8243683 Si02
#       8
#     8   8   8   8   8   8   8   8
#     4   9  19  36  59  84 111 150 195 242 294 344
#     4  11  22  36  57  86 122 149 190 245 299 356
#     4  11  23  41  63  86 117 157 202 247 291 347
#     4   9  19  37  60  83 110 149 197 243 289 349
#     4  11  21  35  55  87 121 153 191 239 296 359
#     4  11  24  41  60  85 119 160 203 247 299 351
#     4  10  20  34  56  84 114 149 187 231 288 354
#     4   9  18  33  55  83 116 152 188 230 288 356
#
# _framework density 19.905557999999999
#
# number of rings (size 3 to 8) (size 9 to 14) (size 15 to 20)
#    0.000    1.875    1.250    3.000    0.000    5.750 
#    0.000    0.625    0.000    0.750    0.000    0.000 
#    0.000    0.000    0.000    0.000    0.000    0.000 
#
# Total GULP energy -793645.871790 kJ/mol
# GULP energy per Si atom -12400.716747 kJ/mol
# Density = 1.986025 g / cm^3
# Si number density = 19.905558 Si / 1000 Ang^3
#
#
#
# Elastic Constant Matrix: (Units=GPa)
#
#
# Indices 1 2 3 4 5 6 
#
# 1 126.4617 22.9899 70.2280 0.0000 0.0000 0.0000
# 2 22.9899 38.1874 5.9321 0.0000 0.0000 0.0000
# 3 70.2280 5.9321 130.9156 0.0000 0.0000 0.0000
# 4 0.0000 0.0000 0.0000 23.4602 0.0000 0.0000
# 5 0.0000 0.0000 0.0000 0.0000 23.1509 0.0000
# 6 0.0000 0.0000 0.0000 0.0000 0.0000 14.8335
#
#
#
# Elastic Compliance Matrix: (Units=1/GPa)
#
#
# Indices 1 2 3 4 5 6 
#
# 1 0.012748 -0.006659 -0.006537 0.000000 0.000000 0.000000
# 2 -0.006659 0.029851 0.002220 0.000000 0.000000 0.000000
# 3 -0.006537 0.002220 0.011045 0.000000 0.000000 0.000000
# 4 0.000000 0.000000 0.000000 0.042625 0.000000 0.000000
# 5 0.000000 0.000000 0.000000 0.000000 0.043195 0.000000
# 6 0.000000 0.000000 0.000000 0.000000 0.000000 0.067415
#
#
# Mechanical properties :
#
#
# Convention : Reuss Voigt Hill
#
# Bulk Modulus (GPa) = 31.55499 54.87385 43.21442
# Shear Modulus (GPa) = 20.88590 25.38322 23.13456
#
# Velocity S-wave (km/s) = 3.24273 3.57484 3.41283
# Velocity P-wave (km/s) = 5.46874 6.68328 6.10628
#
# Compressibility (1/GPa) = 0.03169071
#
# Stress axis : x y z
#
# Youngs Moduli (GPa) = 78.44176 33.49972 90.54222
#
# Poissons Ratio (x) = 0.22309 0.59187
# Poissons Ratio (y) = 0.52237 -0.20098
# Poissons Ratio (z) = 0.51277 -0.07436
#
# Static dielectric constant tensor:
#      x y z
#    x 4.251670 0.000000 0.000000 
#    y 0.000000 3.490230 0.000000 
#    z 0.000000 0.000000 3.622640 
# 
# 
# High freq. dielectric constant tensor:
#      x y z
#    x 1.785790 0.000000 0.000000 
#    y 0.000000 1.756750 0.000000 
#    z 0.000000 0.000000 1.777000 
# 
# From -- ./inp_files/9617.got.cif
#   From: 2010.03.12/outbox.cif.g09.slc.cpg/sg59_5_cif.got.tgz:9617.got - 2010.04.16 16:29:54.
