data_PCOD8243800
_publ_section_title
;
Structure prediction by ZEFSAII (Michael W. Deem and Ramdas Pophale) SiO2 
 PCOD8243800
Probable space group: P M M N
;
_chemical_formula_sum "Si O2"
_cell_formula_units_Z 32
_cell_length_a 15.087963
_cell_length_b 8.748243
_cell_length_c 12.329472
_cell_angle_alpha 90.000000
_cell_angle_beta 90.000000
_cell_angle_gamma 90.000000
_cell_volume 1627.406053
_symmetry_space_group_name_H-M "P M M N"
_symmetry_group_IT_number 59
_space_group.IT_coordinate_system_code '2'
_symmetry_cell_setting 'orthorhombic'
loop_
_space_group_symop_operation_xyz
x,y,z
1/2-x,1/2-y,z
1/2+x,-y,-z
-x,1/2+y,-z
-x,-y,-z
1/2+x,1/2+y,-z
1/2-x,y,z
x,1/2-y,z
loop_
_atom_site_type_symbol
_atom_site_label
_atom_site_fract_x
_atom_site_fract_y
_atom_site_fract_z
Si Si1 0.104428 0.568635 0.226266
Si Si2 0.404310 0.071219 0.009901
Si Si3 0.750000 0.568773 0.625040
Si Si4 0.096352 0.428709 0.772222
Si Si5 0.750000 0.567729 0.377395
O O1 0.110851 0.750000 0.230520
O O2 0.144754 0.511825 0.110300
O O3 0.161566 0.497898 0.322268
O O4 0.003626 0.505105 0.239376
O O5 0.409167 0.250000 0.035836
O O6 0.360345 0.041271 0.891769
O O7 0.500000 0.000000 0.000000
O O8 0.750000 0.750000 0.635406
O O9 0.750000 0.513327 0.500792
O O10 0.086623 0.250000 0.752894
O O11 0.162302 0.499474 0.682343
O O12 0.750000 0.750000 0.367199
#
# Coordination Sequence:
#
# PCOD8243800 Si02
#       5
#     8   8   4   8   4
#     4  10  20  35  54  77 109 143 174 216 270 322
#     4   9  16  29  52  82 112 140 174 212 259 319
#     4  11  23  36  53  76 100 135 184 229 266 313
#     4   8  16  31  53  79 107 140 171 209 263 317
#     4   9  18  34  53  76 104 133 176 223 260 313
#
# _framework density 19.663194000000001
#
# number of rings (size 3 to 8) (size 9 to 14) (size 15 to 20)
#    0.000    2.750    0.000    3.375    0.000    2.000 
#    0.000    2.500    0.000   16.500    0.000    0.000 
#    0.000    0.000    0.000    0.000    0.000    0.000 
#
# Total GULP energy -396503.009593 kJ/mol
# GULP energy per Si atom -12390.719050 kJ/mol
# Density = 1.961844 g / cm^3
# Si number density = 19.663194 Si / 1000 Ang^3
#
#
#
# Elastic Constant Matrix: (Units=GPa)
#
#
# Indices 1 2 3 4 5 6 
#
# 1 109.7317 24.6702 82.8932 0.0000 0.0000 0.0000
# 2 24.6702 66.5264 50.6751 0.0000 0.0000 0.0000
# 3 82.8932 50.6751 192.8217 0.0000 0.0000 0.0000
# 4 0.0000 0.0000 0.0000 24.3016 0.0000 0.0000
# 5 0.0000 0.0000 0.0000 0.0000 34.7256 0.0000
# 6 0.0000 0.0000 0.0000 0.0000 0.0000 20.5969
#
#
#
# Elastic Compliance Matrix: (Units=1/GPa)
#
#
# Indices 1 2 3 4 5 6 
#
# 1 0.013525 -0.000733 -0.005621 0.000000 0.000000 0.000000
# 2 -0.000733 0.018834 -0.004634 0.000000 0.000000 0.000000
# 3 -0.005621 -0.004634 0.008821 0.000000 0.000000 0.000000
# 4 0.000000 0.000000 0.000000 0.041150 0.000000 0.000000
# 5 0.000000 0.000000 0.000000 0.000000 0.028797 0.000000
# 6 0.000000 0.000000 0.000000 0.000000 0.000000 0.048551
#
#
# Mechanical properties :
#
#
# Convention : Reuss Voigt Hill
#
# Bulk Modulus (GPa) = 52.08151 76.17297 64.12724
# Shear Modulus (GPa) = 26.58792 29.98089 28.28441
#
# Velocity S-wave (km/s) = 3.68117 3.90900 3.79680
# Velocity P-wave (km/s) = 6.67925 7.69394 7.20448
#
# Compressibility (1/GPa) = 0.01920067
#
# Stress axis : x y z
#
# Youngs Moduli (GPa) = 73.93986 53.09618 113.36963
#
# Poissons Ratio (x) = 0.03894 0.63729
# Poissons Ratio (y) = 0.05422 0.52540
# Poissons Ratio (z) = 0.41564 0.24607
#
# Static dielectric constant tensor:
#      x y z
#    x 3.699150 0.000000 0.000000 
#    y 0.000000 3.402830 0.000000 
#    z 0.000000 0.000000 4.103770 
# 
# 
# High freq. dielectric constant tensor:
#      x y z
#    x 1.756500 0.000000 0.000000 
#    y 0.000000 1.737710 0.000000 
#    z 0.000000 0.000000 1.775200 
# 
# From -- ./inp_files/13660.got.cif
#   From: 2010.03.12/outbox.cif.g09.slc.cpg/sg59_7_cif.got.tgz:13660.got - 2010.04.16 16:29:54.
