data_PCOD8243130
_publ_section_title
;
Structure prediction by ZEFSAII (Michael W. Deem and Ramdas Pophale) SiO2 
 PCOD8243130
Probable space group: P M M N
;
_chemical_formula_sum "Si O2"
_cell_formula_units_Z 64
_cell_length_a 31.838575
_cell_length_b 9.225061
_cell_length_c 11.983466
_cell_angle_alpha 90.000000
_cell_angle_beta 90.000000
_cell_angle_gamma 90.000000
_cell_volume 3519.697311
_symmetry_space_group_name_H-M "P M M N"
_symmetry_group_IT_number 59
_space_group.IT_coordinate_system_code '2'
_symmetry_cell_setting 'orthorhombic'
loop_
_space_group_symop_operation_xyz
x,y,z
1/2-x,1/2-y,z
1/2+x,-y,-z
-x,1/2+y,-z
-x,-y,-z
1/2+x,1/2+y,-z
1/2-x,y,z
x,1/2-y,z
loop_
_atom_site_type_symbol
_atom_site_label
_atom_site_fract_x
_atom_site_fract_y
_atom_site_fract_z
Si Si1 0.417896 0.418655 0.158085
Si Si2 0.005957 0.589254 0.110292
Si Si3 0.298022 0.584824 0.056477
Si Si4 0.616068 0.418509 0.645451
Si Si5 0.425303 0.088585 0.740532
Si Si6 0.955813 0.422290 0.470930
Si Si7 0.131723 0.081243 0.938081
Si Si8 0.295161 0.919645 0.306078
O O1 0.425439 0.250000 0.178689
O O2 0.460618 0.504565 0.185956
O O3 0.385161 0.481776 0.245646
O O4 0.403015 0.452946 0.032762
O O5 0.022644 0.750000 0.080779
O O6 0.963350 0.602684 0.175576
O O7 0.000000 0.500000 0.000000
O O8 0.250000 0.570980 0.017492
O O9 0.313557 0.750000 0.054443
O O10 0.303544 0.517536 0.181117
O O11 0.325423 0.500597 0.964928
O O12 0.609428 0.250000 0.675621
O O13 0.581123 0.467159 0.556640
O O14 0.665210 0.447765 0.609705
O O15 0.416775 0.250000 0.689472
O O16 0.385864 0.034603 0.815744
O O17 0.437051 0.972741 0.646682
O O18 0.963602 0.250000 0.469827
O O19 0.000000 0.500000 0.500000
O O20 0.141969 0.250000 0.938275
O O21 0.250000 0.981270 0.352707
O O22 0.289490 0.750000 0.288149
#
# Coordination Sequence:
#
# PCOD8243130 Si02
#       8
#     8   8   8   8   8   8   8   8
#     4  11  21  33  49  77 110 140 177 216 261 317
#     4  11  21  34  51  73 103 137 172 215 265 314
#     4   9  17  30  51  80 111 143 178 214 260 324
#     4  10  20  35  55  79 107 140 179 222 271 325
#     4  10  22  40  56  74 105 142 181 224 266 317
#     4  11  24  40  58  80 105 142 190 235 277 327
#     4  10  20  34  51  76 110 143 176 217 265 320
#     4   8  14  27  50  79 108 137 170 212 267 327
#
# _framework density 18.183382000000002
#
# number of rings (size 3 to 8) (size 9 to 14) (size 15 to 20)
#    0.000    2.000    2.500    2.625    0.000    6.250 
#    0.000    0.000    0.000    1.125    0.000    1.750 
#    0.000    0.000    0.000    0.000    0.000    0.000 
#
# Total GULP energy -792985.981394 kJ/mol
# GULP energy per Si atom -12390.405959 kJ/mol
# Density = 1.814200 g / cm^3
# Si number density = 18.183382 Si / 1000 Ang^3
#
#
#
# Elastic Constant Matrix: (Units=GPa)
#
#
# Indices 1 2 3 4 5 6 
#
# 1 135.6183 40.9647 44.9832 0.0000 0.0000 0.0000
# 2 40.9647 74.0641 35.5570 0.0000 0.0000 0.0000
# 3 44.9832 35.5570 75.1436 0.0000 0.0000 0.0000
# 4 0.0000 0.0000 0.0000 25.2234 0.0000 0.0000
# 5 0.0000 0.0000 0.0000 0.0000 30.3957 0.0000
# 6 0.0000 0.0000 0.0000 0.0000 0.0000 25.8443
#
#
#
# Elastic Compliance Matrix: (Units=1/GPa)
#
#
# Indices 1 2 3 4 5 6 
#
# 1 0.009811 -0.003373 -0.004277 0.000000 0.000000 0.000000
# 2 -0.003373 0.018630 -0.006796 0.000000 0.000000 0.000000
# 3 -0.004277 -0.006796 0.019084 0.000000 0.000000 0.000000
# 4 0.000000 0.000000 0.000000 0.039646 0.000000 0.000000
# 5 0.000000 0.000000 0.000000 0.000000 0.032899 0.000000
# 6 0.000000 0.000000 0.000000 0.000000 0.000000 0.038693
#
#
# Mechanical properties :
#
#
# Convention : Reuss Voigt Hill
#
# Bulk Modulus (GPa) = 53.66983 58.64841 56.15912
# Shear Modulus (GPa) = 25.79071 27.18076 26.48574
#
# Velocity S-wave (km/s) = 3.77021 3.87048 3.82067
# Velocity P-wave (km/s) = 6.96653 7.23173 7.10037
#
# Compressibility (1/GPa) = 0.01863244
#
# Stress axis : x y z
#
# Youngs Moduli (GPa) = 101.92410 53.67588 52.39929
#
# Poissons Ratio (x) = 0.18106 0.22412
# Poissons Ratio (y) = 0.34381 0.35612
# Poissons Ratio (z) = 0.43594 0.36480
#
# Static dielectric constant tensor:
#      x y z
#    x 3.126690 0.000000 0.000000 
#    y 0.000000 3.601470 0.000000 
#    z 0.000000 0.000000 3.668590 
# 
# 
# High freq. dielectric constant tensor:
#      x y z
#    x 1.715590 0.000000 0.000000 
#    y 0.000000 1.695930 0.000000 
#    z 0.000000 0.000000 1.670650 
# 
# From -- ./inp_files/19217.got.cif
#   From: 2010.03.12/outbox.cif.g09.slc.cpg/sg59_10_cif.got.tgz:19217.got - 2010.04.16 16:29:54.
