data_PCOD8243141
_publ_section_title
;
Structure prediction by ZEFSAII (Michael W. Deem and Ramdas Pophale) SiO2 
 PCOD8243141
Probable space group: P M M N
;
_chemical_formula_sum "Si O2"
_cell_formula_units_Z 64
_cell_length_a 13.696944
_cell_length_b 9.047327
_cell_length_c 27.529930
_cell_angle_alpha 90.000000
_cell_angle_beta 90.000000
_cell_angle_gamma 90.000000
_cell_volume 3411.529057
_symmetry_space_group_name_H-M "P M M N"
_symmetry_group_IT_number 59
_space_group.IT_coordinate_system_code '2'
_symmetry_cell_setting 'orthorhombic'
loop_
_space_group_symop_operation_xyz
x,y,z
1/2-x,1/2-y,z
1/2+x,-y,-z
-x,1/2+y,-z
-x,-y,-z
1/2+x,1/2+y,-z
1/2-x,y,z
x,1/2-y,z
loop_
_atom_site_type_symbol
_atom_site_label
_atom_site_fract_x
_atom_site_fract_y
_atom_site_fract_z
Si Si1 0.865242 0.916603 0.479973
Si Si2 0.138253 0.923385 0.129928
Si Si3 0.530417 0.584175 0.201939
Si Si4 0.482317 0.423639 0.051118
Si Si5 0.858219 0.078154 0.575663
Si Si6 0.448561 0.077497 0.621598
Si Si7 0.860798 0.585077 0.107018
Si Si8 0.638416 0.075408 0.285849
O O1 0.750000 0.926598 0.476967
O O2 0.902402 0.750000 0.487243
O O3 0.906741 0.979419 0.429625
O O4 0.902046 0.008843 0.526315
O O5 0.250000 0.960639 0.143341
O O6 0.122295 0.750000 0.119943
O O7 0.068768 0.972455 0.174894
O O8 0.109864 0.008300 0.080273
O O9 0.513460 0.750000 0.222062
O O10 0.619897 0.581481 0.164333
O O11 0.561055 0.480470 0.246045
O O12 0.465849 0.250000 0.044388
O O13 0.579015 0.455957 0.081769
O O14 0.500000 0.500000 0.000000
O O15 0.750000 0.014789 0.589133
O O16 0.850808 0.250000 0.565015
O O17 0.933936 0.048387 0.619868
O O18 0.424811 0.250000 0.630502
O O19 0.397115 0.982806 0.662614
O O20 0.750000 0.547752 0.096198
O O21 0.888333 0.750000 0.087261
O O22 0.750000 0.021513 0.275848
O O23 0.634017 0.250000 0.286091
#
# Coordination Sequence:
#
# PCOD8243141 Si02
#       8
#     8   8   8   8   8   8   8   8
#     4   9  17  29  47  72  99 129 168 211 255 306
#     4   9  19  38  62  85 110 142 183 229 272 316
#     4   9  18  35  59  83 105 134 171 209 256 313
#     4  11  22  35  52  77 112 150 186 224 267 316
#     4   9  18  32  50  73 100 131 169 211 253 300
#     4  10  20  34  52  73 100 136 174 211 254 307
#     4   9  18  34  56  80 105 135 174 218 262 312
#     4  11  24  38  53  77 107 136 167 209 262 315
#
# _framework density 18.759917000000002
#
# number of rings (size 3 to 8) (size 9 to 14) (size 15 to 20)
#    0.000    2.375    0.000    3.375    0.000    6.000 
#    0.000    1.875    0.000    3.750    0.000    0.000 
#    0.000    0.000    0.000    0.000    0.000    0.000 
#
# Total GULP energy -793340.661899 kJ/mol
# GULP energy per Si atom -12395.947842 kJ/mol
# Density = 1.871722 g / cm^3
# Si number density = 18.759917 Si / 1000 Ang^3
#
#
#
# Elastic Constant Matrix: (Units=GPa)
#
#
# Indices 1 2 3 4 5 6 
#
# 1 99.3495 39.6471 56.6019 0.0000 0.0000 0.0000
# 2 39.6471 73.2017 45.4874 0.0000 0.0000 0.0000
# 3 56.6019 45.4874 89.8313 0.0000 0.0000 0.0000
# 4 0.0000 0.0000 0.0000 33.3623 0.0000 0.0000
# 5 0.0000 0.0000 0.0000 0.0000 21.2194 0.0000
# 6 0.0000 0.0000 0.0000 0.0000 0.0000 23.8707
#
#
#
# Elastic Compliance Matrix: (Units=1/GPa)
#
#
# Indices 1 2 3 4 5 6 
#
# 1 0.016319 -0.003573 -0.008473 0.000000 0.000000 0.000000
# 2 -0.003573 0.020715 -0.008238 0.000000 0.000000 0.000000
# 3 -0.008473 -0.008238 0.020642 0.000000 0.000000 0.000000
# 4 0.000000 0.000000 0.000000 0.029974 0.000000 0.000000
# 5 0.000000 0.000000 0.000000 0.000000 0.047127 0.000000
# 6 0.000000 0.000000 0.000000 0.000000 0.000000 0.041892
#
#
# Mechanical properties :
#
#
# Convention : Reuss Voigt Hill
#
# Bulk Modulus (GPa) = 58.45320 60.65061 59.55191
# Shear Modulus (GPa) = 22.42758 23.73356 23.08057
#
# Velocity S-wave (km/s) = 3.46136 3.56071 3.51139
# Velocity P-wave (km/s) = 6.87029 7.02175 6.94643
#
# Compressibility (1/GPa) = 0.01710770
#
# Stress axis : x y z
#
# Youngs Moduli (GPa) = 61.27943 48.27333 48.44495
#
# Poissons Ratio (x) = 0.17250 0.41046
# Poissons Ratio (y) = 0.21898 0.39909
# Poissons Ratio (z) = 0.51921 0.39767
#
# Static dielectric constant tensor:
#      x y z
#    x 3.715430 0.000000 0.000000 
#    y 0.000000 3.352110 0.000000 
#    z 0.000000 0.000000 3.362700 
# 
# 
# High freq. dielectric constant tensor:
#      x y z
#    x 1.739200 0.000000 0.000000 
#    y 0.000000 1.717570 0.000000 
#    z 0.000000 0.000000 1.713770 
# 
# From -- ./inp_files/32200.got.cif
#   From: 2010.03.12/outbox.cif.g09.slc.cpg/sg59_17_cif.got.tgz:32200.got - 2010.04.16 16:29:54.
