data_PCOD8243616
_publ_section_title
;
Structure prediction by ZEFSAII (Michael W. Deem and Ramdas Pophale) SiO2 
 PCOD8243616
Probable space group: P M M N
;
_chemical_formula_sum "Si O2"
_cell_formula_units_Z 48
_cell_length_a 8.727631
_cell_length_b 13.608156
_cell_length_c 20.759221
_cell_angle_alpha 90.000000
_cell_angle_beta 90.000000
_cell_angle_gamma 90.000000
_cell_volume 2465.509656
_symmetry_space_group_name_H-M "P M M N"
_symmetry_group_IT_number 59
_space_group.IT_coordinate_system_code '2'
_symmetry_cell_setting 'orthorhombic'
loop_
_space_group_symop_operation_xyz
x,y,z
1/2-x,1/2-y,z
1/2+x,-y,-z
-x,1/2+y,-z
-x,-y,-z
1/2+x,1/2+y,-z
1/2-x,y,z
x,1/2-y,z
loop_
_atom_site_type_symbol
_atom_site_label
_atom_site_fract_x
_atom_site_fract_y
_atom_site_fract_z
Si Si1 0.577040 0.866427 0.466736
Si Si2 0.430822 0.860727 0.599233
Si Si3 0.925584 0.639584 0.978307
Si Si4 0.570624 0.039080 0.655707
Si Si5 0.073330 0.548406 0.098807
Si Si6 0.572360 0.863508 0.221861
O O1 0.750000 0.908379 0.461908
O O2 0.578093 0.750000 0.467994
O O3 0.499090 0.904400 0.532605
O O4 0.479952 0.898835 0.405773
O O5 0.250000 0.863045 0.594547
O O6 0.489366 0.750000 0.612964
O O7 0.489622 0.931890 0.655974
O O8 0.750000 0.626248 0.001221
O O9 0.956758 0.750000 0.953337
O O10 0.961241 0.564871 0.920023
O O11 0.034043 0.618346 0.038819
O O12 0.750000 0.022102 0.654338
O O13 0.526685 0.098190 0.719080
O O14 0.250000 0.564475 0.117575
O O15 0.967410 0.574241 0.158836
O O16 0.750000 0.877292 0.238758
O O17 0.531730 0.750000 0.209038
#
# Coordination Sequence:
#
# PCOD8243616 Si02
#       6
#     8   8   8   8   8   8
#     4  10  20  35  56  82 112 144 180 225 276 328
#     4  10  21  38  59  81 107 141 182 227 274 326
#     4   9  18  34  56  82 114 150 184 220 266 319
#     4  12  24  37  56  81 110 143 181 227 276 328
#     4  10  20  34  55  84 114 145 184 228 272 319
#     4  11  24  41  59  79 108 146 184 223 272 331
#
# _framework density 19.468592999999998
#
# number of rings (size 3 to 8) (size 9 to 14) (size 15 to 20)
#    0.000    1.667    0.000    5.000    0.000    8.333 
#    0.000    0.833    0.000    3.000    0.000    0.000 
#    0.000    0.000    0.000    0.000    0.000    0.000 
#
# Total GULP energy -595403.646261 kJ/mol
# GULP energy per Si atom -12404.242630 kJ/mol
# Density = 1.942428 g / cm^3
# Si number density = 19.468593 Si / 1000 Ang^3
#
#
#
# Elastic Constant Matrix: (Units=GPa)
#
#
# Indices 1 2 3 4 5 6 
#
# 1 77.4878 31.8772 25.6017 0.0000 0.0000 0.0000
# 2 31.8772 95.7847 42.9820 0.0000 0.0000 0.0000
# 3 25.6017 42.9820 75.0705 0.0000 0.0000 0.0000
# 4 0.0000 0.0000 0.0000 26.0113 0.0000 0.0000
# 5 0.0000 0.0000 0.0000 0.0000 33.5080 0.0000
# 6 0.0000 0.0000 0.0000 0.0000 0.0000 30.0615
#
#
#
# Elastic Compliance Matrix: (Units=1/GPa)
#
#
# Indices 1 2 3 4 5 6 
#
# 1 0.015482 -0.003745 -0.003135 0.000000 0.000000 0.000000
# 2 -0.003745 0.014956 -0.007286 0.000000 0.000000 0.000000
# 3 -0.003135 -0.007286 0.018562 0.000000 0.000000 0.000000
# 4 0.000000 0.000000 0.000000 0.038445 0.000000 0.000000
# 5 0.000000 0.000000 0.000000 0.000000 0.029844 0.000000
# 6 0.000000 0.000000 0.000000 0.000000 0.000000 0.033265
#
#
# Mechanical properties :
#
#
# Convention : Reuss Voigt Hill
#
# Bulk Modulus (GPa) = 48.38806 49.91832 49.15319
# Shear Modulus (GPa) = 26.91424 27.77497 27.34460
#
# Velocity S-wave (km/s) = 3.72216 3.78121 3.75180
# Velocity P-wave (km/s) = 6.58642 6.69025 6.63854
#
# Compressibility (1/GPa) = 0.02066626
#
# Stress axis : x y z
#
# Youngs Moduli (GPa) = 64.59111 66.86305 53.87459
#
# Poissons Ratio (x) = 0.25043 0.16892
# Poissons Ratio (y) = 0.24192 0.39252
# Poissons Ratio (z) = 0.20252 0.48715
#
# Static dielectric constant tensor:
#      x y z
#    x 3.662220 0.000000 0.000000 
#    y 0.000000 3.824770 0.000000 
#    z 0.000000 0.000000 3.388520 
# 
# 
# High freq. dielectric constant tensor:
#      x y z
#    x 1.769850 0.000000 0.000000 
#    y 0.000000 1.773870 0.000000 
#    z 0.000000 0.000000 1.736690 
# 
# From -- ./inp_files/25472.got.cif
#   From: 2010.03.12/outbox.cif.g09.slc.cpg/sg59_13_cif.got.tgz:25472.got - 2010.04.16 16:29:54.
