data_PCOD8243261
_publ_section_title
;
Structure prediction by ZEFSAII (Michael W. Deem and Ramdas Pophale) SiO2 
 PCOD8243261
Probable space group: P M M N
;
_chemical_formula_sum "Si O2"
_cell_formula_units_Z 48
_cell_length_a 8.814971
_cell_length_b 13.789724
_cell_length_c 21.048664
_cell_angle_alpha 90.000000
_cell_angle_beta 90.000000
_cell_angle_gamma 90.000000
_cell_volume 2558.591762
_symmetry_space_group_name_H-M "P M M N"
_symmetry_group_IT_number 59
_space_group.IT_coordinate_system_code '2'
_symmetry_cell_setting 'orthorhombic'
loop_
_space_group_symop_operation_xyz
x,y,z
1/2-x,1/2-y,z
1/2+x,-y,-z
-x,1/2+y,-z
-x,-y,-z
1/2+x,1/2+y,-z
1/2-x,y,z
x,1/2-y,z
loop_
_atom_site_type_symbol
_atom_site_label
_atom_site_fract_x
_atom_site_fract_y
_atom_site_fract_z
Si Si1 0.430522 0.640725 0.780015
Si Si2 0.922375 0.864858 0.535893
Si Si3 0.070747 0.640510 0.033408
Si Si4 0.570854 0.360122 0.594848
Si Si5 0.570397 0.466375 0.346282
Si Si6 0.929209 0.035265 0.094352
O O1 0.250000 0.644595 0.781636
O O2 0.496183 0.750000 0.779770
O O3 0.488348 0.585233 0.717544
O O4 0.492869 0.584049 0.841578
O O5 0.750000 0.904512 0.539024
O O6 0.925925 0.750000 0.538224
O O7 0.999618 0.900496 0.470651
O O8 0.018611 0.902361 0.594630
O O9 0.250000 0.636579 0.040025
O O10 0.010479 0.750000 0.042662
O O11 0.999002 0.572122 0.087421
O O12 0.019216 0.603184 0.964071
O O13 0.750000 0.369133 0.590253
O O14 0.520117 0.250000 0.608682
O O15 0.505634 0.427113 0.651081
O O16 0.750000 0.477469 0.346634
O O17 0.750000 0.024450 0.096989
#
# Coordination Sequence:
#
# PCOD8243261 Si02
#       6
#     8   8   8   8   8   8
#     4   9  18  33  53  76 101 131 167 204 244 294
#     4  10  20  34  53  77 104 132 164 205 252 301
#     4   9  17  30  50  76 105 135 166 204 251 297
#     4  10  21  37  55  73  96 129 169 211 254 300
#     4  11  21  33  52  76 102 131 165 207 252 300
#     4   9  17  31  52  76 101 132 171 210 245 287
#
# _framework density 18.760321000000001
#
# number of rings (size 3 to 8) (size 9 to 14) (size 15 to 20)
#    0.000    2.333    0.000    3.000    0.000    5.000 
#    0.000    2.500    0.000    8.500    0.000    0.000 
#    0.000    0.000    0.000    0.000    0.000    0.000 
#
# Total GULP energy -595276.985019 kJ/mol
# GULP energy per Si atom -12401.603855 kJ/mol
# Density = 1.871762 g / cm^3
# Si number density = 18.760321 Si / 1000 Ang^3
#
#
#
# Elastic Constant Matrix: (Units=GPa)
#
#
# Indices 1 2 3 4 5 6 
#
# 1 38.5820 30.5699 21.7183 0.0000 0.0000 0.0000
# 2 30.5699 144.6189 88.5100 0.0000 0.0000 0.0000
# 3 21.7183 88.5100 125.5881 0.0000 0.0000 0.0000
# 4 0.0000 0.0000 0.0000 32.9388 0.0000 0.0000
# 5 0.0000 0.0000 0.0000 0.0000 23.0161 0.0000
# 6 0.0000 0.0000 0.0000 0.0000 0.0000 31.9905
#
#
#
# Elastic Compliance Matrix: (Units=1/GPa)
#
#
# Indices 1 2 3 4 5 6 
#
# 1 0.031257 -0.005801 -0.001317 0.000000 0.000000 0.000000
# 2 -0.005801 0.013236 -0.008325 0.000000 0.000000 0.000000
# 3 -0.001317 -0.008325 0.014058 0.000000 0.000000 0.000000
# 4 0.000000 0.000000 0.000000 0.030359 0.000000 0.000000
# 5 0.000000 0.000000 0.000000 0.000000 0.043448 0.000000
# 6 0.000000 0.000000 0.000000 0.000000 0.000000 0.031259
#
#
# Mechanical properties :
#
#
# Convention : Reuss Voigt Hill
#
# Bulk Modulus (GPa) = 36.14814 65.59837 50.87325
# Shear Modulus (GPa) = 24.54296 28.78846 26.66571
#
# Velocity S-wave (km/s) = 3.62088 3.92157 3.77422
# Velocity P-wave (km/s) = 6.06558 7.45301 6.79480
#
# Compressibility (1/GPa) = 0.02766394
#
# Stress axis : x y z
#
# Youngs Moduli (GPa) = 31.99332 75.55044 71.13617
#
# Poissons Ratio (x) = 0.43828 0.09367
# Poissons Ratio (y) = 0.18560 0.59222
# Poissons Ratio (z) = 0.04213 0.62897
#
# Static dielectric constant tensor:
#      x y z
#    x 3.283280 0.000000 0.000000 
#    y 0.000000 3.719060 0.000000 
#    z 0.000000 0.000000 3.454580 
# 
# 
# High freq. dielectric constant tensor:
#      x y z
#    x 1.713570 0.000000 0.000000 
#    y 0.000000 1.745130 0.000000 
#    z 0.000000 0.000000 1.713320 
# 
# From -- ./inp_files/25463.got.cif
#   From: 2010.03.12/outbox.cif.g09.slc.cpg/sg59_13_cif.got.tgz:25463.got - 2010.04.16 16:29:54.
