data_PCOD8243808
_publ_section_title
;
Structure prediction by ZEFSAII (Michael W. Deem and Ramdas Pophale) SiO2 
 PCOD8243808
Probable space group: P M M N
;
_chemical_formula_sum "Si O2"
_cell_formula_units_Z 56
_cell_length_a 15.083327
_cell_length_b 8.836974
_cell_length_c 21.420530
_cell_angle_alpha 90.000000
_cell_angle_beta 90.000000
_cell_angle_gamma 90.000000
_cell_volume 2855.163190
_symmetry_space_group_name_H-M "P M M N"
_symmetry_group_IT_number 59
_space_group.IT_coordinate_system_code '2'
_symmetry_cell_setting 'orthorhombic'
loop_
_space_group_symop_operation_xyz
x,y,z
1/2-x,1/2-y,z
1/2+x,-y,-z
-x,1/2+y,-z
-x,-y,-z
1/2+x,1/2+y,-z
1/2-x,y,z
x,1/2-y,z
loop_
_atom_site_type_symbol
_atom_site_label
_atom_site_fract_x
_atom_site_fract_y
_atom_site_fract_z
Si Si1 0.420329 0.919533 0.083148
Si Si2 0.565381 0.070588 0.663560
Si Si3 0.972556 0.571256 0.793603
Si Si4 0.447362 0.569475 0.558843
Si Si5 0.250000 0.929021 0.530120
Si Si6 0.118940 0.081884 0.965413
Si Si7 0.750000 0.429355 0.608540
Si Si8 0.155518 0.579235 0.844646
O O1 0.387891 0.750000 0.099346
O O2 0.516822 0.917960 0.053352
O O3 0.416725 0.021156 0.145653
O O4 0.359129 0.992182 0.029402
O O5 0.554121 0.250000 0.655918
O O6 0.661824 0.012418 0.642436
O O7 0.560116 0.023091 0.735081
O O8 0.490130 0.988233 0.622992
O O9 0.961291 0.750000 0.782280
O O10 0.075370 0.519620 0.802082
O O11 0.500000 0.500000 0.500000
O O12 0.454370 0.750000 0.553750
O O13 0.343109 0.517819 0.561611
O O14 0.250000 0.750000 0.527638
O O15 0.250000 0.997533 0.460719
O O16 0.154402 0.250000 0.976303
O O17 0.171414 0.010115 0.908309
O O18 0.750000 0.250000 0.606724
O O19 0.250000 0.569833 0.807785
O O20 0.131227 0.750000 0.863824
#
# Coordination Sequence:
#
# PCOD8243808 Si02
#       8
#     8   8   8   8   4   8   4   8
#     4   9  16  28  48  73 100 134 175 218 271 330
#     4  11  22  39  61  85 115 150 191 234 282 341
#     4  10  20  35  54  78 109 145 188 232 279 332
#     4  11  21  37  61  89 119 153 192 235 281 333
#     4   9  18  36  60  86 118 156 189 224 279 342
#     4   9  16  26  45  74 102 129 168 222 276 322
#     4   9  18  36  62  86 110 148 187 222 277 348
#     4   9  18  33  52  73 102 144 189 227 271 337
#
# _framework density 19.613589000000001
#
# number of rings (size 3 to 8) (size 9 to 14) (size 15 to 20)
#    0.000    2.286    1.429    2.143    0.000    4.286 
#    1.286    3.571    1.571    0.000    0.000    0.000 
#    0.000    0.000    0.000    0.000    0.000    0.000 
#
# Total GULP energy -694024.685490 kJ/mol
# GULP energy per Si atom -12393.297955 kJ/mol
# Density = 1.956895 g / cm^3
# Si number density = 19.613589 Si / 1000 Ang^3
#
#
#
# Elastic Constant Matrix: (Units=GPa)
#
#
# Indices 1 2 3 4 5 6 
#
# 1 115.8091 28.8860 44.0632 0.0000 0.0000 0.0000
# 2 28.8860 76.1031 26.0589 0.0000 0.0000 0.0000
# 3 44.0632 26.0589 104.3597 0.0000 0.0000 0.0000
# 4 0.0000 0.0000 0.0000 37.5137 0.0000 0.0000
# 5 0.0000 0.0000 0.0000 0.0000 11.2601 0.0000
# 6 0.0000 0.0000 0.0000 0.0000 0.0000 17.3028
#
#
#
# Elastic Compliance Matrix: (Units=1/GPa)
#
#
# Indices 1 2 3 4 5 6 
#
# 1 0.010798 -0.002775 -0.003866 0.000000 0.000000 0.000000
# 2 -0.002775 0.015082 -0.002594 0.000000 0.000000 0.000000
# 3 -0.003866 -0.002594 0.011863 0.000000 0.000000 0.000000
# 4 0.000000 0.000000 0.000000 0.026657 0.000000 0.000000
# 5 0.000000 0.000000 0.000000 0.000000 0.088809 0.000000
# 6 0.000000 0.000000 0.000000 0.000000 0.000000 0.057794
#
#
# Mechanical properties :
#
#
# Convention : Reuss Voigt Hill
#
# Bulk Modulus (GPa) = 51.89042 54.92089 53.40566
# Shear Modulus (GPa) = 21.19571 26.36625 23.78098
#
# Velocity S-wave (km/s) = 3.29091 3.67043 3.48584
# Velocity P-wave (km/s) = 6.39953 6.78417 6.59465
#
# Compressibility (1/GPa) = 0.01927138
#
# Stress axis : x y z
#
# Youngs Moduli (GPa) = 92.60931 66.30607 84.29903
#
# Poissons Ratio (x) = 0.18398 0.32593
# Poissons Ratio (y) = 0.25696 0.21870
# Poissons Ratio (z) = 0.35806 0.17202
#
# Static dielectric constant tensor:
#      x y z
#    x 3.681950 0.000000 0.000000 
#    y 0.000000 3.566450 0.000000 
#    z 0.000000 0.000000 3.479030 
# 
# 
# High freq. dielectric constant tensor:
#      x y z
#    x 1.760780 0.000000 0.000000 
#    y 0.000000 1.759590 0.000000 
#    z 0.000000 0.000000 1.751660 
# 
# From -- ./inp_files/30474.got.cif
#   From: 2010.03.12/outbox.cif.g09.slc.cpg/sg59_16_cif.got.tgz:30474.got - 2010.04.16 16:29:54.
