data_PCOD8243233
_publ_section_title
;
Structure prediction by ZEFSAII (Michael W. Deem and Ramdas Pophale) SiO2 
 PCOD8243233
Probable space group: P M M N
;
_chemical_formula_sum "Si O2"
_cell_formula_units_Z 40
_cell_length_a 9.074694
_cell_length_b 9.444989
_cell_length_c 25.751352
_cell_angle_alpha 90.000000
_cell_angle_beta 90.000000
_cell_angle_gamma 90.000000
_cell_volume 2207.158294
_symmetry_space_group_name_H-M "P M M N"
_symmetry_group_IT_number 59
_space_group.IT_coordinate_system_code '2'
_symmetry_cell_setting 'orthorhombic'
loop_
_space_group_symop_operation_xyz
x,y,z
1/2-x,1/2-y,z
1/2+x,-y,-z
-x,1/2+y,-z
-x,-y,-z
1/2+x,1/2+y,-z
1/2-x,y,z
x,1/2-y,z
loop_
_atom_site_type_symbol
_atom_site_label
_atom_site_fract_x
_atom_site_fract_y
_atom_site_fract_z
Si Si1 0.084044 0.418201 0.148644
Si Si2 0.921410 0.415060 0.544991
Si Si3 0.078016 0.583864 0.954479
Si Si4 0.578659 0.085442 0.250668
Si Si5 0.079514 0.413899 0.649434
O O1 0.250000 0.477649 0.144445
O O2 0.083050 0.250000 0.149888
O O3 0.990560 0.471440 0.099497
O O4 0.009902 0.475312 0.201344
O O5 0.750000 0.451186 0.544289
O O6 0.952812 0.250000 0.536000
O O7 0.000000 0.500000 0.500000
O O8 0.986461 0.464654 0.600025
O O9 0.250000 0.548160 0.954179
O O10 0.048703 0.750000 0.962391
O O11 0.000000 0.500000 0.000000
O O12 0.750000 0.057722 0.239784
O O13 0.545775 0.250000 0.260083
O O14 0.523508 0.002212 0.301254
O O15 0.250000 0.445477 0.637450
O O16 0.051974 0.250000 0.661869
#
# Coordination Sequence:
#
# PCOD8243233 Si02
#       5
#     8   8   8   8   8
#     4   9  17  30  49  72  98 129 165 205 249 295
#     4  10  21  36  54  76 102 133 169 208 251 299
#     4  10  20  34  53  76 102 133 169 209 254 303
#     4   9  17  30  49  72  96 124 162 205 245 290
#     4   9  18  33  51  71  99 133 164 198 247 301
#
# _framework density 18.12285
#
# number of rings (size 3 to 8) (size 9 to 14) (size 15 to 20)
#    0.000    2.600    0.000    1.800    0.000    6.400 
#    0.000    3.000    0.000    3.600    0.000    0.000 
#    0.000    0.000    0.000    0.000    0.000    0.000 
#
# Total GULP energy -496088.998198 kJ/mol
# GULP energy per Si atom -12402.224955 kJ/mol
# Density = 1.808160 g / cm^3
# Si number density = 18.122850 Si / 1000 Ang^3
#
#
#
# Elastic Constant Matrix: (Units=GPa)
#
#
# Indices 1 2 3 4 5 6 
#
# 1 127.2711 45.8329 104.4900 0.0000 0.0000 0.0000
# 2 45.8329 43.4143 65.9018 0.0000 0.0000 0.0000
# 3 104.4900 65.9018 206.1322 0.0000 0.0000 0.0000
# 4 0.0000 0.0000 0.0000 35.1002 0.0000 0.0000
# 5 0.0000 0.0000 0.0000 0.0000 42.0699 0.0000
# 6 0.0000 0.0000 0.0000 0.0000 0.0000 22.2776
#
#
#
# Elastic Compliance Matrix: (Units=1/GPa)
#
#
# Indices 1 2 3 4 5 6 
#
# 1 0.014838 -0.008252 -0.004883 0.000000 0.000000 0.000000
# 2 -0.008252 0.049342 -0.011592 0.000000 0.000000 0.000000
# 3 -0.004883 -0.011592 0.011033 0.000000 0.000000 0.000000
# 4 0.000000 0.000000 0.000000 0.028490 0.000000 0.000000
# 5 0.000000 0.000000 0.000000 0.000000 0.023770 0.000000
# 6 0.000000 0.000000 0.000000 0.000000 0.000000 0.044888
#
#
# Mechanical properties :
#
#
# Convention : Reuss Voigt Hill
#
# Bulk Modulus (GPa) = 38.82270 89.91855 64.37063
# Shear Modulus (GPa) = 21.70126 30.59572 26.14849
#
# Velocity S-wave (km/s) = 3.46418 4.11328 3.80260
# Velocity P-wave (km/s) = 6.12121 8.50192 7.40782
#
# Compressibility (1/GPa) = 0.02575813
#
# Stress axis : x y z
#
# Youngs Moduli (GPa) = 67.39339 20.26680 90.63985
#
# Poissons Ratio (x) = 0.16724 0.44263
# Poissons Ratio (y) = 0.55613 1.05068
# Poissons Ratio (z) = 0.32911 0.23493
#
# Static dielectric constant tensor:
#      x y z
#    x 3.751030 0.000000 0.000000 
#    y 0.000000 3.077310 0.000000 
#    z 0.000000 0.000000 3.560560 
# 
# 
# High freq. dielectric constant tensor:
#      x y z
#    x 1.709710 0.000000 0.000000 
#    y 0.000000 1.672230 0.000000 
#    z 0.000000 0.000000 1.716790 
# 
# From -- ./inp_files/25262.got.cif
#   From: 2010.03.12/outbox.cif.g09.slc.cpg/sg59_13_cif.got.tgz:25262.got - 2010.04.16 16:29:54.
