data_PCOD8243211
_publ_section_title
;
Structure prediction by ZEFSAII (Michael W. Deem and Ramdas Pophale) SiO2 
 PCOD8243211
Probable space group: P M M N
;
_chemical_formula_sum "Si O2"
_cell_formula_units_Z 64
_cell_length_a 19.077746
_cell_length_b 9.022454
_cell_length_c 20.347858
_cell_angle_alpha 90.000000
_cell_angle_beta 90.000000
_cell_angle_gamma 90.000000
_cell_volume 3502.437846
_symmetry_space_group_name_H-M "P M M N"
_symmetry_group_IT_number 59
_space_group.IT_coordinate_system_code '2'
_symmetry_cell_setting 'orthorhombic'
loop_
_space_group_symop_operation_xyz
x,y,z
1/2-x,1/2-y,z
1/2+x,-y,-z
-x,1/2+y,-z
-x,-y,-z
1/2+x,1/2+y,-z
1/2-x,y,z
x,1/2-y,z
loop_
_atom_site_type_symbol
_atom_site_label
_atom_site_fract_x
_atom_site_fract_y
_atom_site_fract_z
Si Si1 0.670786 0.925326 0.991777
Si Si2 0.418443 0.580690 0.114224
Si Si3 0.333224 0.417191 0.642433
Si Si4 0.563716 0.422809 0.736353
Si Si5 0.421714 0.075349 0.886537
Si Si6 0.833352 0.414863 0.484328
Si Si7 0.918655 0.074391 0.249251
Si Si8 0.172095 0.926367 0.371335
O O1 0.750000 0.986473 0.996893
O O2 0.670159 0.750000 0.990104
O O3 0.626994 0.982350 0.054448
O O4 0.635775 0.980518 0.924981
O O5 0.404160 0.750000 0.094917
O O6 0.404802 0.552921 0.191181
O O7 0.498018 0.536130 0.095894
O O8 0.250000 0.422441 0.644073
O O9 0.361078 0.250000 0.652191
O O10 0.361739 0.476014 0.572163
O O11 0.359964 0.522960 0.699849
O O12 0.546321 0.250000 0.724995
O O13 0.493248 0.514712 0.726377
O O14 0.619707 0.486099 0.684358
O O15 0.413685 0.250000 0.873042
O O16 0.397659 0.990188 0.821551
O O17 0.750000 0.406569 0.483120
O O18 0.864070 0.250000 0.471783
O O19 0.856038 0.475122 0.556464
O O20 0.920483 0.250000 0.245188
O O21 0.250000 0.991503 0.357991
O O22 0.175905 0.750000 0.368886
#
# Coordination Sequence:
#
# PCOD8243211 Si02
#       8
#     8   8   8   8   8   8   8   8
#     4  10  21  35  52  76 105 133 161 201 252 301
#     4   9  18  32  52  75  99 133 173 210 244 288
#     4  10  20  34  53  75 100 133 170 207 251 305
#     4   9  18  34  54  76 104 137 173 209 248 299
#     4   9  19  37  56  73  97 132 173 208 245 299
#     4   8  14  27  48  74 102 130 165 210 255 298
#     4  11  22  35  53  77 104 132 166 210 257 302
#     4   8  14  27  51  79 103 132 171 213 255 298
#
# _framework density 18.272987000000001
#
# number of rings (size 3 to 8) (size 9 to 14) (size 15 to 20)
#    0.000    2.750    0.000    3.375    0.000    4.500 
#    0.000    3.750    0.000    1.125    0.000    0.000 
#    0.000    0.000    0.000    0.000    0.000    0.000 
#
# Total GULP energy -793543.825960 kJ/mol
# GULP energy per Si atom -12399.122281 kJ/mol
# Density = 1.823140 g / cm^3
# Si number density = 18.272987 Si / 1000 Ang^3
#
#
#
# Elastic Constant Matrix: (Units=GPa)
#
#
# Indices 1 2 3 4 5 6 
#
# 1 69.2550 27.7911 57.8948 0.0000 0.0000 0.0000
# 2 27.7911 61.5965 41.8490 0.0000 0.0000 0.0000
# 3 57.8948 41.8490 125.0470 0.0000 0.0000 0.0000
# 4 0.0000 0.0000 0.0000 28.5841 0.0000 0.0000
# 5 0.0000 0.0000 0.0000 0.0000 31.7126 0.0000
# 6 0.0000 0.0000 0.0000 0.0000 0.0000 22.1094
#
#
#
# Elastic Compliance Matrix: (Units=1/GPa)
#
#
# Indices 1 2 3 4 5 6 
#
# 1 0.024413 -0.004317 -0.009858 0.000000 0.000000 0.000000
# 2 -0.004317 0.021776 -0.005289 0.000000 0.000000 0.000000
# 3 -0.009858 -0.005289 0.014331 0.000000 0.000000 0.000000
# 4 0.000000 0.000000 0.000000 0.034984 0.000000 0.000000
# 5 0.000000 0.000000 0.000000 0.000000 0.031533 0.000000
# 6 0.000000 0.000000 0.000000 0.000000 0.000000 0.045230
#
#
# Mechanical properties :
#
#
# Convention : Reuss Voigt Hill
#
# Bulk Modulus (GPa) = 46.31380 56.77428 51.54404
# Shear Modulus (GPa) = 22.89465 25.03879 23.96672
#
# Velocity S-wave (km/s) = 3.54351 3.70572 3.62552
# Velocity P-wave (km/s) = 6.49172 7.03188 6.76719
#
# Compressibility (1/GPa) = 0.02159184
#
# Stress axis : x y z
#
# Youngs Moduli (GPa) = 40.96245 45.92266 69.77842
#
# Poissons Ratio (x) = 0.19825 0.68787
# Poissons Ratio (y) = 0.17683 0.36905
# Poissons Ratio (z) = 0.40380 0.24288
#
# Static dielectric constant tensor:
#      x y z
#    x 3.313690 0.000000 0.000000 
#    y 0.000000 3.240220 0.000000 
#    z 0.000000 0.000000 3.596460 
# 
# 
# High freq. dielectric constant tensor:
#      x y z
#    x 1.690210 0.000000 0.000000 
#    y 0.000000 1.689140 0.000000 
#    z 0.000000 0.000000 1.720460 
# 
# From -- ./inp_files/30838.got.cif
#   From: 2010.03.12/outbox.cif.g09.slc.cpg/sg59_16_cif.got.tgz:30838.got - 2010.04.16 16:29:54.
