data_PCOD8243372
_publ_section_title
;
Structure prediction by ZEFSAII (Michael W. Deem and Ramdas Pophale) SiO2 
 PCOD8243372
Probable space group: P M M N
;
_chemical_formula_sum "Si O2"
_cell_formula_units_Z 56
_cell_length_a 8.840069
_cell_length_b 22.984331
_cell_length_c 15.189235
_cell_angle_alpha 90.000000
_cell_angle_beta 90.000000
_cell_angle_gamma 90.000000
_cell_volume 3086.195428
_symmetry_space_group_name_H-M "P M M N"
_symmetry_group_IT_number 59
_space_group.IT_coordinate_system_code '2'
_symmetry_cell_setting 'orthorhombic'
loop_
_space_group_symop_operation_xyz
x,y,z
1/2-x,1/2-y,z
1/2+x,-y,-z
-x,1/2+y,-z
-x,-y,-z
1/2+x,1/2+y,-z
1/2-x,y,z
x,1/2-y,z
loop_
_atom_site_type_symbol
_atom_site_label
_atom_site_fract_x
_atom_site_fract_y
_atom_site_fract_z
Si Si1 0.572705 0.368482 0.157579
Si Si2 0.572464 0.419243 0.668992
Si Si3 0.070471 0.131961 0.834301
Si Si4 0.076796 0.054421 0.302861
Si Si5 0.071497 0.938175 0.014623
Si Si6 0.929390 0.750000 0.878848
Si Si7 0.074667 0.062156 0.497705
Si Si8 0.070997 0.250000 0.921910
O O1 0.750000 0.357198 0.161556
O O2 0.529957 0.413719 0.233726
O O3 0.523058 0.394988 0.063792
O O4 0.488397 0.307242 0.171385
O O5 0.750000 0.408137 0.673032
O O6 0.487559 0.376493 0.735638
O O7 0.531790 0.486399 0.690708
O O8 0.511329 0.400248 0.572153
O O9 0.250000 0.126273 0.838670
O O10 0.012284 0.194101 0.869135
O O11 0.994806 0.082944 0.893580
O O12 0.250000 0.060022 0.271400
O O13 0.055508 0.086086 0.398041
O O14 0.250000 0.944326 0.021761
O O15 0.000000 0.000000 0.000000
O O16 0.750000 0.750000 0.876135
O O17 0.994094 0.750000 0.978782
O O18 0.250000 0.057097 0.522951
O O19 0.000000 0.000000 0.500000
O O20 0.250000 0.250000 0.927422
#
# Coordination Sequence:
#
# PCOD8243372 Si02
#       8
#     8   8   8   8   8   4   8   4
#     4  11  23  36  53  79 108 138 178 226 270 313
#     4  10  20  34  53  82 114 145 180 220 270 325
#     4  11  21  36  56  78 105 139 181 226 270 321
#     4   9  19  34  53  78 110 144 179 216 264 325
#     4  11  23  36  51  76 109 143 176 216 266 321
#     4  11  21  39  61  76  99 140 185 225 268 322
#     4   9  17  31  52  79 110 145 181 221 266 319
#     4   9  20  37  57  78  99 136 185 225 268 320
#
# _framework density 18.145319000000001
#
# number of rings (size 3 to 8) (size 9 to 14) (size 15 to 20)
#    0.000    1.857    1.429    4.071    0.000    7.429 
#    0.000    1.429    0.000    0.857    0.000    2.000 
#    0.000    0.000    0.000    0.000    0.000    0.000 
#
# Total GULP energy -694418.749240 kJ/mol
# GULP energy per Si atom -12400.334808 kJ/mol
# Density = 1.810402 g / cm^3
# Si number density = 18.145319 Si / 1000 Ang^3
#
#
#
# Elastic Constant Matrix: (Units=GPa)
#
#
# Indices 1 2 3 4 5 6 
#
# 1 76.6703 28.3311 27.3573 0.0000 0.0000 0.0000
# 2 28.3311 58.7056 6.4205 0.0000 0.0000 0.0000
# 3 27.3573 6.4205 81.5852 0.0000 0.0000 0.0000
# 4 0.0000 0.0000 0.0000 17.8905 0.0000 0.0000
# 5 0.0000 0.0000 0.0000 0.0000 35.8533 0.0000
# 6 0.0000 0.0000 0.0000 0.0000 0.0000 26.0667
#
#
#
# Elastic Compliance Matrix: (Units=1/GPa)
#
#
# Indices 1 2 3 4 5 6 
#
# 1 0.017946 -0.008072 -0.005383 0.000000 0.000000 0.000000
# 2 -0.008072 0.020813 0.001069 0.000000 0.000000 0.000000
# 3 -0.005383 0.001069 0.013978 0.000000 0.000000 0.000000
# 4 0.000000 0.000000 0.000000 0.055896 0.000000 0.000000
# 5 0.000000 0.000000 0.000000 0.000000 0.027891 0.000000
# 6 0.000000 0.000000 0.000000 0.000000 0.000000 0.038363
#
#
# Mechanical properties :
#
#
# Convention : Reuss Voigt Hill
#
# Bulk Modulus (GPa) = 35.75846 37.90874 36.83360
# Shear Modulus (GPa) = 23.92569 26.28559 25.10564
#
# Velocity S-wave (km/s) = 3.63514 3.81020 3.72370
# Velocity P-wave (km/s) = 6.11298 6.34775 6.23147
#
# Compressibility (1/GPa) = 0.02796541
#
# Stress axis : x y z
#
# Youngs Moduli (GPa) = 55.72203 48.04735 71.54157
#
# Poissons Ratio (x) = 0.38784 0.38507
# Poissons Ratio (y) = 0.44979 -0.07647
# Poissons Ratio (z) = 0.29992 -0.05136
#
# Static dielectric constant tensor:
#      x y z
#    x 3.403600 0.000000 0.000000 
#    y 0.000000 3.171460 0.000000 
#    z 0.000000 0.000000 3.700560 
# 
# 
# High freq. dielectric constant tensor:
#      x y z
#    x 1.711460 0.000000 0.000000 
#    y 0.000000 1.675380 0.000000 
#    z 0.000000 0.000000 1.710560 
# 
# From -- ./inp_files/21198.got.cif
#   From: 2010.03.12/outbox.cif.g09.slc.cpg/sg59_11_cif.got.tgz:21198.got - 2010.04.16 16:29:54.
