data_PCOD8243046
_publ_section_title
;
Structure prediction by ZEFSAII (Michael W. Deem and Ramdas Pophale) SiO2 
 PCOD8243046
Probable space group: P M M N
;
_chemical_formula_sum "Si O2"
_cell_formula_units_Z 64
_cell_length_a 18.033429
_cell_length_b 8.881008
_cell_length_c 21.553155
_cell_angle_alpha 90.000000
_cell_angle_beta 90.000000
_cell_angle_gamma 90.000000
_cell_volume 3451.846126
_symmetry_space_group_name_H-M "P M M N"
_symmetry_group_IT_number 59
_space_group.IT_coordinate_system_code '2'
_symmetry_cell_setting 'orthorhombic'
loop_
_space_group_symop_operation_xyz
x,y,z
1/2-x,1/2-y,z
1/2+x,-y,-z
-x,1/2+y,-z
-x,-y,-z
1/2+x,1/2+y,-z
1/2-x,y,z
x,1/2-y,z
loop_
_atom_site_type_symbol
_atom_site_label
_atom_site_fract_x
_atom_site_fract_y
_atom_site_fract_z
Si Si1 0.668129 0.572746 0.278390
Si Si2 0.667807 0.426972 0.866847
Si Si3 0.405098 0.423651 0.243878
Si Si4 0.975408 0.074547 0.937028
Si Si5 0.074072 0.071093 0.604723
Si Si6 0.455670 0.074757 0.810835
Si Si7 0.413937 0.425896 0.385405
Si Si8 0.663496 0.424822 0.504316
O O1 0.750000 0.497740 0.277005
O O2 0.676549 0.750000 0.285779
O O3 0.621111 0.511235 0.336399
O O4 0.626425 0.532981 0.213669
O O5 0.750000 0.470340 0.891155
O O6 0.658328 0.250000 0.859171
O O7 0.655932 0.495955 0.798844
O O8 0.605589 0.486379 0.915243
O O9 0.404269 0.250000 0.226362
O O10 0.486883 0.485529 0.231284
O O11 0.385815 0.451960 0.315424
O O12 0.971666 0.250000 0.949868
O O13 0.035476 0.034157 0.883525
O O14 0.000000 0.000000 0.000000
O O15 0.062070 0.250000 0.606653
O O16 0.117857 0.025955 0.543361
O O17 0.995713 0.989620 0.604331
O O18 0.473306 0.250000 0.800414
O O19 0.414206 0.250000 0.402717
O O20 0.355881 0.516379 0.427281
O O21 0.750000 0.449116 0.491641
O O22 0.641302 0.250000 0.497819
#
# Coordination Sequence:
#
# PCOD8243046 Si02
#       8
#     8   8   8   8   8   8   8   8
#     4   9  17  30  53  83 108 134 173 221 269 318
#     4   9  19  36  57  80 108 144 185 226 269 322
#     4  10  20  33  53  81 110 138 172 220 274 322
#     4   9  18  32  53  79 107 143 183 221 262 311
#     4  11  21  36  60  83 107 140 181 226 273 329
#     4   9  17  33  54  76 106 142 181 220 261 318
#     4  11  23  38  57  81 110 143 181 224 272 331
#     4  11  25  42  57  76 106 143 182 227 278 329
#
# _framework density 18.540803
#
# number of rings (size 3 to 8) (size 9 to 14) (size 15 to 20)
#    0.000    2.125    1.250    3.000    0.000    5.750 
#    0.000    3.125    0.000    1.875    0.000    0.000 
#    0.000    0.000    0.000    0.000    0.000    0.000 
#
# Total GULP energy -793539.222978 kJ/mol
# GULP energy per Si atom -12399.050359 kJ/mol
# Density = 1.849860 g / cm^3
# Si number density = 18.540803 Si / 1000 Ang^3
#
#
#
# Elastic Constant Matrix: (Units=GPa)
#
#
# Indices 1 2 3 4 5 6 
#
# 1 85.0182 24.1869 41.1801 0.0000 0.0000 0.0000
# 2 24.1869 35.8355 27.5141 0.0000 0.0000 0.0000
# 3 41.1801 27.5141 112.4363 0.0000 0.0000 0.0000
# 4 0.0000 0.0000 0.0000 29.9449 0.0000 0.0000
# 5 0.0000 0.0000 0.0000 0.0000 22.8238 0.0000
# 6 0.0000 0.0000 0.0000 0.0000 0.0000 20.3985
#
#
#
# Elastic Compliance Matrix: (Units=1/GPa)
#
#
# Indices 1 2 3 4 5 6 
#
# 1 0.015849 -0.007684 -0.003924 0.000000 0.000000 0.000000
# 2 -0.007684 0.038087 -0.006506 0.000000 0.000000 0.000000
# 3 -0.003924 -0.006506 0.011923 0.000000 0.000000 0.000000
# 4 0.000000 0.000000 0.000000 0.033395 0.000000 0.000000
# 5 0.000000 0.000000 0.000000 0.000000 0.043814 0.000000
# 6 0.000000 0.000000 0.000000 0.000000 0.000000 0.049023
#
#
# Mechanical properties :
#
#
# Convention : Reuss Voigt Hill
#
# Bulk Modulus (GPa) = 33.74909 46.56134 40.15522
# Shear Modulus (GPa) = 20.99108 23.99403 22.49256
#
# Velocity S-wave (km/s) = 3.36840 3.60129 3.48679
# Velocity P-wave (km/s) = 5.77670 6.51612 6.15752
#
# Compressibility (1/GPa) = 0.02963043
#
# Stress axis : x y z
#
# Youngs Moduli (GPa) = 63.09502 26.25589 83.86958
#
# Poissons Ratio (x) = 0.20175 0.32914
# Poissons Ratio (y) = 0.48483 0.54564
# Poissons Ratio (z) = 0.24761 0.17082
#
# Static dielectric constant tensor:
#      x y z
#    x 3.722580 0.000000 0.000000 
#    y 0.000000 3.336460 0.000000 
#    z 0.000000 0.000000 3.461740 
# 
# 
# High freq. dielectric constant tensor:
#      x y z
#    x 1.719610 0.000000 0.000000 
#    y 0.000000 1.710840 0.000000 
#    z 0.000000 0.000000 1.717770 
# 
# From -- ./inp_files/30791.got.cif
#   From: 2010.03.12/outbox.cif.g09.slc.cpg/sg59_16_cif.got.tgz:30791.got - 2010.04.16 16:29:54.
