data_PCOD8243838
_publ_section_title
;
Structure prediction by ZEFSAII (Michael W. Deem and Ramdas Pophale) SiO2 
 PCOD8243838
Probable space group: P M M N
;
_chemical_formula_sum "Si O2"
_cell_formula_units_Z 64
_cell_length_a 19.809197
_cell_length_b 8.941511
_cell_length_c 20.044302
_cell_angle_alpha 90.000000
_cell_angle_beta 90.000000
_cell_angle_gamma 90.000000
_cell_volume 3550.330012
_symmetry_space_group_name_H-M "P M M N"
_symmetry_group_IT_number 59
_space_group.IT_coordinate_system_code '2'
_symmetry_cell_setting 'orthorhombic'
loop_
_space_group_symop_operation_xyz
x,y,z
1/2-x,1/2-y,z
1/2+x,-y,-z
-x,1/2+y,-z
-x,-y,-z
1/2+x,1/2+y,-z
1/2-x,y,z
x,1/2-y,z
loop_
_atom_site_type_symbol
_atom_site_label
_atom_site_fract_x
_atom_site_fract_y
_atom_site_fract_z
Si Si1 0.673136 0.927009 0.431477
Si Si2 0.576823 0.425438 0.685935
Si Si3 0.075754 0.075336 0.681191
Si Si4 0.671861 0.079081 0.920958
Si Si5 0.430650 0.073251 0.829777
Si Si6 0.827359 0.075031 0.567990
Si Si7 0.429355 0.073964 0.174732
Si Si8 0.827746 0.078833 0.075236
O O1 0.750000 0.976050 0.416850
O O2 0.666083 0.750000 0.436196
O O3 0.626777 0.997040 0.372613
O O4 0.647693 0.993538 0.501303
O O5 0.585803 0.250000 0.700517
O O6 0.501150 0.461626 0.661010
O O7 0.627930 0.483113 0.629495
O O8 0.593356 0.512030 0.753612
O O9 0.089546 0.250000 0.680557
O O10 0.090318 0.015114 0.755868
O O11 0.750000 0.048365 0.905511
O O12 0.653394 0.250000 0.902773
O O13 0.628333 0.965022 0.878034
O O14 0.656137 0.048136 0.998223
O O15 0.442349 0.250000 0.829505
O O16 0.500838 0.997588 0.850806
O O17 0.372512 0.031670 0.881107
O O18 0.750000 0.034625 0.584192
O O19 0.837819 0.250000 0.556910
O O20 0.438509 0.250000 0.179090
O O21 0.750000 0.043210 0.090883
O O22 0.844564 0.250000 0.093557
#
# Coordination Sequence:
#
# PCOD8243838 Si02
#       8
#     8   8   8   8   8   8   8   8
#     4   9  17  30  48  69  95 126 159 199 246 293
#     4   9  18  34  52  69  95 131 167 203 246 300
#     4   8  16  31  49  69  94 126 165 205 244 291
#     4   9  19  37  58  77 102 138 174 208 253 310
#     4  10  20  35  55  77 104 139 177 214 253 306
#     4   9  18  32  49  70  96 126 161 200 243 295
#     4  11  22  35  53  78 107 135 168 215 262 304
#     4   9  19  36  56  79 107 136 169 213 261 305
#
# _framework density 18.026492999999999
#
# number of rings (size 3 to 8) (size 9 to 14) (size 15 to 20)
#    0.000    2.750    0.000    3.000    0.000    3.500 
#    0.000    6.875    0.000    1.500    0.000    0.000 
#    0.000    0.000    0.000    0.000    0.000    0.000 
#
# Total GULP energy -793613.700550 kJ/mol
# GULP energy per Si atom -12400.214071 kJ/mol
# Density = 1.798546 g / cm^3
# Si number density = 18.026493 Si / 1000 Ang^3
#
#
#
# Elastic Constant Matrix: (Units=GPa)
#
#
# Indices 1 2 3 4 5 6 
#
# 1 100.1557 40.9206 80.2043 0.0000 0.0000 0.0000
# 2 40.9206 64.6825 46.0670 0.0000 0.0000 0.0000
# 3 80.2043 46.0670 113.6310 0.0000 0.0000 0.0000
# 4 0.0000 0.0000 0.0000 29.6813 0.0000 0.0000
# 5 0.0000 0.0000 0.0000 0.0000 41.8808 0.0000
# 6 0.0000 0.0000 0.0000 0.0000 0.0000 25.1388
#
#
#
# Elastic Compliance Matrix: (Units=1/GPa)
#
#
# Indices 1 2 3 4 5 6 
#
# 1 0.023804 -0.004349 -0.015039 0.000000 0.000000 0.000000
# 2 -0.004349 0.022531 -0.006065 0.000000 0.000000 0.000000
# 3 -0.015039 -0.006065 0.021874 0.000000 0.000000 0.000000
# 4 0.000000 0.000000 0.000000 0.033691 0.000000 0.000000
# 5 0.000000 0.000000 0.000000 0.000000 0.023877 0.000000
# 6 0.000000 0.000000 0.000000 0.000000 0.000000 0.039779
#
#
# Mechanical properties :
#
#
# Convention : Reuss Voigt Hill
#
# Bulk Modulus (GPa) = 57.78872 68.09478 62.94175
# Shear Modulus (GPa) = 22.49939 26.75867 24.62903
#
# Velocity S-wave (km/s) = 3.53672 3.85698 3.70032
# Velocity P-wave (km/s) = 6.98607 7.59552 7.29716
#
# Compressibility (1/GPa) = 0.01730442
#
# Stress axis : x y z
#
# Youngs Moduli (GPa) = 42.00954 44.38419 45.71687
#
# Poissons Ratio (x) = 0.19302 0.68752
# Poissons Ratio (y) = 0.18269 0.27725
# Poissons Ratio (z) = 0.63177 0.26917
#
# Static dielectric constant tensor:
#      x y z
#    x 3.389410 0.000000 0.000000 
#    y 0.000000 3.112340 0.000000 
#    z 0.000000 0.000000 3.442280 
# 
# 
# High freq. dielectric constant tensor:
#      x y z
#    x 1.699910 0.000000 0.000000 
#    y 0.000000 1.680640 0.000000 
#    z 0.000000 0.000000 1.702220 
# 
# From -- ./inp_files/30693.got.cif
#   From: 2010.03.12/outbox.cif.g09.slc.cpg/sg59_16_cif.got.tgz:30693.got - 2010.04.16 16:29:54.
