data_PCOD8243994
_publ_section_title
;
Structure prediction by ZEFSAII (Michael W. Deem and Ramdas Pophale) SiO2 
 PCOD8243994
Probable space group: P M M N
;
_chemical_formula_sum "Si O2"
_cell_formula_units_Z 64
_cell_length_a 9.100678
_cell_length_b 28.566609
_cell_length_c 12.619013
_cell_angle_alpha 90.000000
_cell_angle_beta 90.000000
_cell_angle_gamma 90.000000
_cell_volume 3280.634341
_symmetry_space_group_name_H-M "P M M N"
_symmetry_group_IT_number 59
_space_group.IT_coordinate_system_code '2'
_symmetry_cell_setting 'orthorhombic'
loop_
_space_group_symop_operation_xyz
x,y,z
1/2-x,1/2-y,z
1/2+x,-y,-z
-x,1/2+y,-z
-x,-y,-z
1/2+x,1/2+y,-z
1/2-x,y,z
x,1/2-y,z
loop_
_atom_site_type_symbol
_atom_site_label
_atom_site_fract_x
_atom_site_fract_y
_atom_site_fract_z
Si Si1 0.415932 0.891303 0.353489
Si Si2 0.413606 0.305272 0.323598
Si Si3 0.576544 0.195994 0.112066
Si Si4 0.924979 0.609553 0.959617
Si Si5 0.075972 0.952054 0.786580
Si Si6 0.419306 0.697214 0.470368
Si Si7 0.577219 0.557116 0.169613
Si Si8 0.581763 0.043929 0.453129
O O1 0.250000 0.901443 0.315825
O O2 0.445125 0.835714 0.367811
O O3 0.523070 0.912071 0.267209
O O4 0.444261 0.912479 0.469899
O O5 0.250000 0.326879 0.309206
O O6 0.403238 0.250000 0.327711
O O7 0.518055 0.319903 0.226977
O O8 0.484414 0.322746 0.432871
O O9 0.750000 0.188006 0.108207
O O10 0.536333 0.250000 0.085773
O O11 0.495424 0.161599 0.028861
O O12 0.750000 0.613647 0.953823
O O13 0.986965 0.585228 0.854741
O O14 0.979041 0.579325 0.060056
O O15 0.250000 0.945262 0.804338
O O16 0.027261 0.943372 0.665036
O O17 0.022203 0.003854 0.821213
O O18 0.250000 0.695037 0.507195
O O19 0.464196 0.750000 0.438080
O O20 0.750000 0.558475 0.175742
O O21 0.750000 0.028754 0.445041
O O22 0.500000 0.000000 0.500000
#
# Coordination Sequence:
#
# PCOD8243994 Si02
#       8
#     8   8   8   8   8   8   8   8
#     4  10  21  35  56  84 113 149 193 240 287 341
#     4   9  17  30  50  78 111 145 182 228 281 334
#     4  10  21  38  59  82 111 149 190 233 287 346
#     4  11  24  39  59  88 116 148 196 243 288 342
#     4  10  21  38  60  85 118 154 189 234 287 346
#     4   9  18  33  52  77 112 153 194 236 284 339
#     4  10  22  41  60  81 113 154 194 238 292 344
#     4  10  20  35  56  84 116 149 185 231 285 345
#
# _framework density 19.508421999999999
#
# number of rings (size 3 to 8) (size 9 to 14) (size 15 to 20)
#    0.000    2.125    1.250    1.500    1.750    4.750 
#    0.000    0.625    0.000    2.250    0.000    0.000 
#    0.000    0.000    0.000    0.000    0.000    0.000 
#
# Total GULP energy -793581.538430 kJ/mol
# GULP energy per Si atom -12399.711538 kJ/mol
# Density = 1.946402 g / cm^3
# Si number density = 19.508422 Si / 1000 Ang^3
#
#
#
# Elastic Constant Matrix: (Units=GPa)
#
#
# Indices 1 2 3 4 5 6 
#
# 1 57.0093 31.5066 29.5788 0.0000 0.0000 0.0000
# 2 31.5066 99.0705 40.8100 0.0000 0.0000 0.0000
# 3 29.5788 40.8100 94.7371 0.0000 0.0000 0.0000
# 4 0.0000 0.0000 0.0000 22.9317 0.0000 0.0000
# 5 0.0000 0.0000 0.0000 0.0000 31.9849 0.0000
# 6 0.0000 0.0000 0.0000 0.0000 0.0000 29.8943
#
#
#
# Elastic Compliance Matrix: (Units=1/GPa)
#
#
# Indices 1 2 3 4 5 6 
#
# 1 0.023013 -0.005299 -0.004902 0.000000 0.000000 0.000000
# 2 -0.005299 0.013492 -0.004157 0.000000 0.000000 0.000000
# 3 -0.004902 -0.004157 0.013877 0.000000 0.000000 0.000000
# 4 0.000000 0.000000 0.000000 0.043608 0.000000 0.000000
# 5 0.000000 0.000000 0.000000 0.000000 0.031265 0.000000
# 6 0.000000 0.000000 0.000000 0.000000 0.000000 0.033451
#
#
# Mechanical properties :
#
#
# Convention : Reuss Voigt Hill
#
# Bulk Modulus (GPa) = 46.15964 50.51198 48.33581
# Shear Modulus (GPa) = 25.68782 26.89027 26.28905
#
# Velocity S-wave (km/s) = 3.63265 3.71670 3.67491
# Velocity P-wave (km/s) = 6.42710 6.66086 6.54502
#
# Compressibility (1/GPa) = 0.02166395
#
# Stress axis : x y z
#
# Youngs Moduli (GPa) = 43.45317 74.12012 72.06175
#
# Poissons Ratio (x) = 0.39278 0.35328
# Poissons Ratio (y) = 0.23027 0.29958
# Poissons Ratio (z) = 0.21303 0.30814
#
# Static dielectric constant tensor:
#      x y z
#    x 3.568570 0.000000 0.000000 
#    y 0.000000 4.024690 0.000000 
#    z 0.000000 0.000000 3.561400 
# 
# 
# High freq. dielectric constant tensor:
#      x y z
#    x 1.756420 0.000000 0.000000 
#    y 0.000000 1.768320 0.000000 
#    z 0.000000 0.000000 1.744190 
# 
# From -- ./inp_files/15086.got.cif
#   From: 2010.03.12/outbox.cif.g09.slc.cpg/sg59_8_cif.got.tgz:15086.got - 2010.04.16 16:29:54.
