data_PCOD8243209
_publ_section_title
;
Structure prediction by ZEFSAII (Michael W. Deem and Ramdas Pophale) SiO2 
 PCOD8243209
Probable space group: P M M N
;
_chemical_formula_sum "Si O2"
_cell_formula_units_Z 64
_cell_length_a 9.161995
_cell_length_b 15.761061
_cell_length_c 23.917099
_cell_angle_alpha 90.000000
_cell_angle_beta 90.000000
_cell_angle_gamma 90.000000
_cell_volume 3453.695156
_symmetry_space_group_name_H-M "P M M N"
_symmetry_group_IT_number 59
_space_group.IT_coordinate_system_code '2'
_symmetry_cell_setting 'orthorhombic'
loop_
_space_group_symop_operation_xyz
x,y,z
1/2-x,1/2-y,z
1/2+x,-y,-z
-x,1/2+y,-z
-x,-y,-z
1/2+x,1/2+y,-z
1/2-x,y,z
x,1/2-y,z
loop_
_atom_site_type_symbol
_atom_site_label
_atom_site_fract_x
_atom_site_fract_y
_atom_site_fract_z
Si Si1 0.421980 0.005271 0.637910
Si Si2 0.582874 0.073659 0.470049
Si Si3 0.577107 0.495801 0.238185
Si Si4 0.580166 0.899623 0.945811
Si Si5 0.918174 0.344738 0.160518
Si Si6 0.918646 0.654495 0.165493
Si Si7 0.581488 0.343825 0.577911
Si Si8 0.580062 0.402462 0.942073
O O1 0.250000 0.016833 0.644279
O O2 0.489983 0.989368 0.699268
O O3 0.482444 0.092176 0.612331
O O4 0.463282 0.925653 0.596053
O O5 0.750000 0.047033 0.470689
O O6 0.554570 0.155126 0.509657
O O7 0.500000 0.000000 0.500000
O O8 0.750000 0.491237 0.240902
O O9 0.518501 0.414545 0.203693
O O10 0.526301 0.584815 0.210469
O O11 0.750000 0.878257 0.951665
O O12 0.512064 0.846288 0.895648
O O13 0.551909 0.998149 0.933089
O O14 0.500774 0.870653 0.002369
O O15 0.750000 0.365687 0.145823
O O16 0.932155 0.250000 0.186567
O O17 0.750000 0.636834 0.150123
O O18 0.938304 0.750000 0.190028
O O19 0.013992 0.647715 0.109901
O O20 0.750000 0.365922 0.590113
O O21 0.541334 0.250000 0.598602
O O22 0.750000 0.380827 0.947612
#
# Coordination Sequence:
#
# PCOD8243209 Si02
#       8
#     8   8   8   8   8   8   8   8
#     4   9  17  30  50  72  94 128 170 208 245 289
#     4   8  14  26  44  66  92 122 158 194 235 284
#     4   9  18  34  53  74 103 133 168 215 255 296
#     4  10  20  34  55  80 104 132 166 206 256 309
#     4  10  20  35  56  78 100 131 168 208 258 308
#     4  10  20  34  53  74  99 136 173 205 250 305
#     4   9  17  29  45  69 102 134 162 200 250 299
#     4  10  20  34  54  79 105 133 165 206 257 307
#
# _framework density 18.530878000000001
#
# number of rings (size 3 to 8) (size 9 to 14) (size 15 to 20)
#    0.000    2.625    1.250    0.750    0.000    2.750 
#    0.000    3.125    0.000    3.750    0.000    0.000 
#    0.000    3.000    0.000    0.000    0.000    0.000 
#
# Total GULP energy -793020.447940 kJ/mol
# GULP energy per Si atom -12390.944499 kJ/mol
# Density = 1.848870 g / cm^3
# Si number density = 18.530878 Si / 1000 Ang^3
#
#
#
# Elastic Constant Matrix: (Units=GPa)
#
#
# Indices 1 2 3 4 5 6 
#
# 1 46.6229 18.9565 32.5216 0.0000 0.0000 0.0000
# 2 18.9565 79.9131 45.9063 0.0000 0.0000 0.0000
# 3 32.5216 45.9063 143.9981 0.0000 0.0000 0.0000
# 4 0.0000 0.0000 0.0000 16.3976 0.0000 0.0000
# 5 0.0000 0.0000 0.0000 0.0000 20.6430 0.0000
# 6 0.0000 0.0000 0.0000 0.0000 0.0000 17.7617
#
#
#
# Elastic Compliance Matrix: (Units=1/GPa)
#
#
# Indices 1 2 3 4 5 6 
#
# 1 0.026214 -0.003449 -0.004821 0.000000 0.000000 0.000000
# 2 -0.003449 0.015773 -0.004249 0.000000 0.000000 0.000000
# 3 -0.004821 -0.004249 0.009388 0.000000 0.000000 0.000000
# 4 0.000000 0.000000 0.000000 0.060984 0.000000 0.000000
# 5 0.000000 0.000000 0.000000 0.000000 0.048443 0.000000
# 6 0.000000 0.000000 0.000000 0.000000 0.000000 0.056301
#
#
# Mechanical properties :
#
#
# Convention : Reuss Voigt Hill
#
# Bulk Modulus (GPa) = 37.97045 51.70032 44.83538
# Shear Modulus (GPa) = 19.92671 22.50377 21.21524
#
# Velocity S-wave (km/s) = 3.28277 3.48860 3.38725
# Velocity P-wave (km/s) = 5.90793 6.64734 6.28851
#
# Compressibility (1/GPa) = 0.02633627
#
# Stress axis : x y z
#
# Youngs Moduli (GPa) = 38.14789 63.40019 106.51890
#
# Poissons Ratio (x) = 0.21866 0.51351
# Poissons Ratio (y) = 0.13157 0.45264
# Poissons Ratio (z) = 0.18390 0.26941
#
# Static dielectric constant tensor:
#      x y z
#    x 3.242710 0.000000 0.000000 
#    y 0.000000 3.488620 0.000000 
#    z 0.000000 0.000000 3.724230 
# 
# 
# High freq. dielectric constant tensor:
#      x y z
#    x 1.702060 0.000000 0.000000 
#    y 0.000000 1.706570 0.000000 
#    z 0.000000 0.000000 1.718370 
# 
# From -- ./inp_files/29417.got.cif
#   From: 2010.03.12/outbox.cif.g09.slc.cpg/sg59_15_cif.got.tgz:29417.got - 2010.04.16 16:29:54.
