data_PCOD8243710
_publ_section_title
;
Structure prediction by ZEFSAII (Michael W. Deem and Ramdas Pophale) SiO2 
 PCOD8243710
Probable space group: P M M N
;
_chemical_formula_sum "Si O2"
_cell_formula_units_Z 48
_cell_length_a 28.767401
_cell_length_b 9.194340
_cell_length_c 9.920770
_cell_angle_alpha 90.000000
_cell_angle_beta 90.000000
_cell_angle_gamma 90.000000
_cell_volume 2624.016539
_symmetry_space_group_name_H-M "P M M N"
_symmetry_group_IT_number 59
_space_group.IT_coordinate_system_code '2'
_symmetry_cell_setting 'orthorhombic'
loop_
_space_group_symop_operation_xyz
x,y,z
1/2-x,1/2-y,z
1/2+x,-y,-z
-x,1/2+y,-z
-x,-y,-z
1/2+x,1/2+y,-z
1/2-x,y,z
x,1/2-y,z
loop_
_atom_site_type_symbol
_atom_site_label
_atom_site_fract_x
_atom_site_fract_y
_atom_site_fract_z
Si Si1 0.301372 0.422819 0.773267
Si Si2 0.871731 0.581313 0.004087
Si Si3 0.623974 0.422839 0.720245
Si Si4 0.027575 0.415193 0.890365
Si Si5 0.695309 0.919193 0.528655
Si Si6 0.478177 0.579399 0.374876
O O1 0.250000 0.485777 0.798808
O O2 0.300733 0.250000 0.777009
O O3 0.318378 0.468767 0.623489
O O4 0.333010 0.482525 0.894292
O O5 0.863116 0.750000 0.965460
O O6 0.872344 0.487054 0.869804
O O7 0.918085 0.562448 0.090718
O O8 0.628276 0.250000 0.730185
O O9 0.665914 0.484111 0.631237
O O10 0.574764 0.469941 0.655151
O O11 0.011951 0.250000 0.906567
O O12 0.011823 0.471610 0.745197
O O13 0.000000 0.500000 0.000000
O O14 0.750000 0.946089 0.554237
O O15 0.683219 0.750000 0.551921
O O16 0.500000 0.500000 0.500000
O O17 0.480272 0.750000 0.401291
#
# Coordination Sequence:
#
# PCOD8243710 Si02
#       6
#     8   8   8   8   8   8
#     4   8  16  33  57  84 109 133 173 229 276 316
#     4  10  20  34  57  84 107 143 187 227 272 325
#     4  11  23  38  54  80 117 150 182 226 278 331
#     4  10  20  36  56  79 109 145 184 224 269 322
#     4   9  19  37  61  85 109 143 186 229 274 327
#     4  10  23  39  55  80 112 147 187 230 275 327
#
# _framework density 18.292567999999999
#
# number of rings (size 3 to 8) (size 9 to 14) (size 15 to 20)
#    0.000    2.333    1.667    1.500    2.333    3.000 
#    0.000    2.500    0.000    1.000    0.000    0.000 
#    0.000    0.000    0.000    0.000    0.000    0.000 
#
# Total GULP energy -595084.460083 kJ/mol
# GULP energy per Si atom -12397.592918 kJ/mol
# Density = 1.825093 g / cm^3
# Si number density = 18.292568 Si / 1000 Ang^3
#
#
#
# Elastic Constant Matrix: (Units=GPa)
#
#
# Indices 1 2 3 4 5 6 
#
# 1 107.4505 49.8575 85.4701 0.0000 0.0000 0.0000
# 2 49.8575 57.5367 62.6390 0.0000 0.0000 0.0000
# 3 85.4701 62.6390 169.1205 0.0000 0.0000 0.0000
# 4 0.0000 0.0000 0.0000 27.6764 0.0000 0.0000
# 5 0.0000 0.0000 0.0000 0.0000 42.3197 0.0000
# 6 0.0000 0.0000 0.0000 0.0000 0.0000 25.0482
#
#
#
# Elastic Compliance Matrix: (Units=1/GPa)
#
#
# Indices 1 2 3 4 5 6 
#
# 1 0.018312 -0.009707 -0.005659 0.000000 0.000000 0.000000
# 2 -0.009707 0.034269 -0.007787 0.000000 0.000000 0.000000
# 3 -0.005659 -0.007787 0.011657 0.000000 0.000000 0.000000
# 4 0.000000 0.000000 0.000000 0.036132 0.000000 0.000000
# 5 0.000000 0.000000 0.000000 0.000000 0.023630 0.000000
# 6 0.000000 0.000000 0.000000 0.000000 0.000000 0.039923
#
#
# Mechanical properties :
#
#
# Convention : Reuss Voigt Hill
#
# Bulk Modulus (GPa) = 55.76603 81.11566 68.44084
# Shear Modulus (GPa) = 23.12594 28.08493 25.60543
#
# Velocity S-wave (km/s) = 3.55945 3.92257 3.74541
# Velocity P-wave (km/s) = 6.88801 8.05947 7.49666
#
# Compressibility (1/GPa) = 0.01793206
#
# Stress axis : x y z
#
# Youngs Moduli (GPa) = 54.60769 29.18079 85.78363
#
# Poissons Ratio (x) = 0.28326 0.48549
# Poissons Ratio (y) = 0.53008 0.66799
# Poissons Ratio (z) = 0.30905 0.22723
#
# Static dielectric constant tensor:
#      x y z
#    x 3.574670 0.000000 0.000000 
#    y 0.000000 3.167670 0.000000 
#    z 0.000000 0.000000 3.526990 
# 
# 
# High freq. dielectric constant tensor:
#      x y z
#    x 1.719420 0.000000 0.000000 
#    y 0.000000 1.685830 0.000000 
#    z 0.000000 0.000000 1.721550 
# 
# From -- ./inp_files/6320.got.cif
#   From: 2010.03.12/outbox.cif.g09.slc.cpg/sg59_4_cif.got.tgz:6320.got - 2010.04.16 16:29:54.
