data_PCOD8243813
_publ_section_title
;
Structure prediction by ZEFSAII (Michael W. Deem and Ramdas Pophale) SiO2 
 PCOD8243813
Probable space group: P M M N
;
_chemical_formula_sum "Si O2"
_cell_formula_units_Z 32
_cell_length_a 8.884600
_cell_length_b 17.068674
_cell_length_c 11.719725
_cell_angle_alpha 90.000000
_cell_angle_beta 90.000000
_cell_angle_gamma 90.000000
_cell_volume 1777.276853
_symmetry_space_group_name_H-M "P M M N"
_symmetry_group_IT_number 59
_space_group.IT_coordinate_system_code '2'
_symmetry_cell_setting 'orthorhombic'
loop_
_space_group_symop_operation_xyz
x,y,z
1/2-x,1/2-y,z
1/2+x,-y,-z
-x,1/2+y,-z
-x,-y,-z
1/2+x,1/2+y,-z
1/2-x,y,z
x,1/2-y,z
loop_
_atom_site_type_symbol
_atom_site_label
_atom_site_fract_x
_atom_site_fract_y
_atom_site_fract_z
Si Si1 0.574853 0.434287 0.856692
Si Si2 0.072549 0.750000 0.782835
Si Si3 0.573903 0.750000 0.537237
Si Si4 0.575858 0.890052 0.914707
Si Si5 0.418075 0.663999 0.353729
O O1 0.750000 0.413956 0.877701
O O2 0.548175 0.527055 0.852886
O O3 0.518005 0.398998 0.736196
O O4 0.476852 0.394217 0.954811
O O5 0.250000 0.750000 0.773090
O O6 0.004770 0.750000 0.657820
O O7 0.021329 0.673088 0.848917
O O8 0.750000 0.750000 0.556439
O O9 0.523373 0.671673 0.466586
O O10 0.750000 0.865631 0.911817
O O11 0.250000 0.639286 0.392891
O O12 0.413300 0.750000 0.293502
#
# Coordination Sequence:
#
# PCOD8243813 Si02
#       5
#     8   4   4   8   8
#     4   9  18  35  56  82 113 144 175 213 263 318
#     4  12  24  39  56  73 102 145 185 217 269 326
#     4  10  20  35  54  79 106 133 175 227 269 308
#     4  10  21  35  54  81 113 142 177 222 264 312
#     4   8  16  32  55  78 104 138 174 211 255 311
#
# _framework density 18.005072999999999
#
# number of rings (size 3 to 8) (size 9 to 14) (size 15 to 20)
#    0.750    1.750    0.000    2.625    1.750    2.000 
#    0.000    1.250    0.000    0.000    0.000    0.000 
#    0.000    0.000    0.000    0.000    0.000    0.000 
#
# Total GULP energy -396638.371095 kJ/mol
# GULP energy per Si atom -12394.949097 kJ/mol
# Density = 1.796409 g / cm^3
# Si number density = 18.005073 Si / 1000 Ang^3
#
#
#
# Elastic Constant Matrix: (Units=GPa)
#
#
# Indices 1 2 3 4 5 6 
#
# 1 129.0805 48.9215 65.8270 0.0000 0.0000 0.0000
# 2 48.9215 76.0629 58.2735 0.0000 0.0000 0.0000
# 3 65.8270 58.2735 101.0681 0.0000 0.0000 0.0000
# 4 0.0000 0.0000 0.0000 149.8895 0.0000 0.0000
# 5 0.0000 0.0000 0.0000 0.0000 32.8758 0.0000
# 6 0.0000 0.0000 0.0000 0.0000 0.0000 -10.8675
#
#
#
# Elastic Compliance Matrix: (Units=1/GPa)
#
#
# Indices 1 2 3 4 5 6 
#
# 1 0.011994 -0.003098 -0.006026 0.000000 0.000000 0.000000
# 2 -0.003098 0.024350 -0.012022 0.000000 0.000000 0.000000
# 3 -0.006026 -0.012022 0.020751 0.000000 0.000000 0.000000
# 4 0.000000 0.000000 0.000000 0.006672 0.000000 0.000000
# 5 0.000000 0.000000 0.000000 0.000000 0.030418 0.000000
# 6 0.000000 0.000000 0.000000 0.000000 0.000000 -0.092017
#
#
# Mechanical properties :
#
#
# Convention : Reuss Voigt Hill
#
# Bulk Modulus (GPa) = 67.55182 72.47281 70.01231
# Shear Modulus (GPa) = 101.23261 43.25885 72.24573
#
# Velocity S-wave (km/s) = 7.50643 4.90694 6.34132
# Velocity P-wave (km/s) = 10.61736 8.51134 9.62214
#
# Compressibility (1/GPa) = 0.01480345
#
# Stress axis : x y z
#
# Youngs Moduli (GPa) = 83.37394 41.06856 48.19159
#
# Poissons Ratio (x) = 0.12722 0.29040
# Poissons Ratio (y) = 0.25827 0.57935
# Poissons Ratio (z) = 0.50240 0.49372
#
# Static dielectric constant tensor:
#      x y z
#    x 3.366080 0.000000 0.000000 
#    y 0.000000 3.293160 0.000000 
#    z 0.000000 0.000000 3.226960 
# 
# 
# High freq. dielectric constant tensor:
#      x y z
#    x 1.700660 0.000000 0.000000 
#    y 0.000000 1.685020 0.000000 
#    z 0.000000 0.000000 1.689700 
# 
# From -- ./inp_files/13682.got.cif
#   From: 2010.03.12/outbox.cif.g09.slc.cpg/sg59_7_cif.got.tgz:13682.got - 2010.04.16 16:29:54.
