data_PCOD8243324
_publ_section_title
;
Structure prediction by ZEFSAII (Michael W. Deem and Ramdas Pophale) SiO2 
 PCOD8243324
Probable space group: P M M N
;
_chemical_formula_sum "Si O2"
_cell_formula_units_Z 64
_cell_length_a 12.543917
_cell_length_b 13.592698
_cell_length_c 20.329666
_cell_angle_alpha 90.000000
_cell_angle_beta 90.000000
_cell_angle_gamma 90.000000
_cell_volume 3466.323434
_symmetry_space_group_name_H-M "P M M N"
_symmetry_group_IT_number 59
_space_group.IT_coordinate_system_code '2'
_symmetry_cell_setting 'orthorhombic'
loop_
_space_group_symop_operation_xyz
x,y,z
1/2-x,1/2-y,z
1/2+x,-y,-z
-x,1/2+y,-z
-x,-y,-z
1/2+x,1/2+y,-z
1/2-x,y,z
x,1/2-y,z
loop_
_atom_site_type_symbol
_atom_site_label
_atom_site_fract_x
_atom_site_fract_y
_atom_site_fract_z
Si Si1 0.008560 0.639224 0.018882
Si Si2 0.871989 0.364928 0.292720
Si Si3 0.131904 0.362177 0.855879
Si Si4 0.126574 0.030671 0.080481
Si Si5 0.373642 0.860990 0.324042
Si Si6 0.629221 0.053096 0.436120
Si Si7 0.478068 0.996479 0.217925
Si Si8 0.989763 0.638827 0.452788
O O1 0.052340 0.750000 0.015165
O O2 0.916493 0.624993 0.072232
O O3 0.107810 0.570702 0.039778
O O4 0.954198 0.611558 0.949512
O O5 0.750000 0.382601 0.268158
O O6 0.894177 0.250000 0.301994
O O7 0.891645 0.420739 0.360729
O O8 0.959752 0.406246 0.241867
O O9 0.250000 0.406416 0.859210
O O10 0.132605 0.250000 0.833220
O O11 0.068028 0.418967 0.800799
O O12 0.250000 0.061475 0.073181
O O13 0.099159 0.021613 0.157247
O O14 0.250000 0.874128 0.338613
O O15 0.397583 0.750000 0.297352
O O16 0.406721 0.944809 0.272880
O O17 0.431992 0.880151 0.392296
O O18 0.750000 0.076075 0.456341
O O19 0.553232 0.120809 0.479919
O O20 0.607852 0.937100 0.447232
O O21 0.944509 0.750000 0.452935
#
# Coordination Sequence:
#
# PCOD8243324 Si02
#       8
#     8   8   8   8   8   8   8   8
#     4   9  19  36  56  78 106 137 176 222 269 319
#     4  10  21  37  56  77 105 145 191 233 273 319
#     4   9  17  30  51  76 102 133 169 214 270 327
#     4  10  21  35  55  82 110 142 179 221 268 321
#     4  10  20  34  53  78 109 143 178 220 272 330
#     4  10  20  36  58  83 110 145 184 231 282 327
#     4  11  20  34  51  77 110 145 181 219 266 321
#     4  10  20  35  57  85 112 141 181 230 279 330
#
# _framework density 18.463367000000002
#
# number of rings (size 3 to 8) (size 9 to 14) (size 15 to 20)
#    0.000    2.125    1.250    2.250    0.000    3.500 
#    0.000    0.625    0.000    1.125    0.000    0.000 
#    0.000    0.000    0.000    0.000    0.000    0.000 
#
# Total GULP energy -793596.901883 kJ/mol
# GULP energy per Si atom -12399.951592 kJ/mol
# Density = 1.842134 g / cm^3
# Si number density = 18.463367 Si / 1000 Ang^3
#
#
#
# Elastic Constant Matrix: (Units=GPa)
#
#
# Indices 1 2 3 4 5 6 
#
# 1 51.0253 5.9922 13.6540 0.0000 0.0000 0.0000
# 2 5.9922 75.6087 17.7357 0.0000 0.0000 0.0000
# 3 13.6540 17.7357 62.7576 0.0000 0.0000 0.0000
# 4 0.0000 0.0000 0.0000 27.3239 0.0000 0.0000
# 5 0.0000 0.0000 0.0000 0.0000 18.2951 0.0000
# 6 0.0000 0.0000 0.0000 0.0000 0.0000 24.2004
#
#
#
# Elastic Compliance Matrix: (Units=1/GPa)
#
#
# Indices 1 2 3 4 5 6 
#
# 1 0.020838 -0.000630 -0.004356 0.000000 0.000000 0.000000
# 2 -0.000630 0.014184 -0.003871 0.000000 0.000000 0.000000
# 3 -0.004356 -0.003871 0.017976 0.000000 0.000000 0.000000
# 4 0.000000 0.000000 0.000000 0.036598 0.000000 0.000000
# 5 0.000000 0.000000 0.000000 0.000000 0.054659 0.000000
# 6 0.000000 0.000000 0.000000 0.000000 0.000000 0.041322
#
#
# Mechanical properties :
#
#
# Convention : Reuss Voigt Hill
#
# Bulk Modulus (GPa) = 28.34143 29.35060 28.84602
# Shear Modulus (GPa) = 23.25021 24.09785 23.67403
#
# Velocity S-wave (km/s) = 3.55246 3.61663 3.58469
# Velocity P-wave (km/s) = 5.67539 5.77678 5.72631
#
# Compressibility (1/GPa) = 0.03528404
#
# Stress axis : x y z
#
# Youngs Moduli (GPa) = 47.99021 70.50179 55.62948
#
# Poissons Ratio (x) = 0.04440 0.24230
# Poissons Ratio (y) = 0.03022 0.21537
# Poissons Ratio (z) = 0.20903 0.27295
#
# Static dielectric constant tensor:
#      x y z
#    x 3.307590 0.000000 0.000000 
#    y 0.000000 3.471000 0.000000 
#    z 0.000000 0.000000 3.347080 
# 
# 
# High freq. dielectric constant tensor:
#      x y z
#    x 1.709730 0.000000 0.000000 
#    y 0.000000 1.715960 0.000000 
#    z 0.000000 0.000000 1.718000 
# 
# From -- ./inp_files/27089.got.cif
#   From: 2010.03.12/outbox.cif.g09.slc.cpg/sg59_14_cif.got.tgz:27089.got - 2010.04.16 16:29:54.
