data_PCOD8243810
_publ_section_title
;
Structure prediction by ZEFSAII (Michael W. Deem and Ramdas Pophale) SiO2 
 PCOD8243810
Probable space group: P M M N
;
_chemical_formula_sum "Si O2"
_cell_formula_units_Z 64
_cell_length_a 20.737869
_cell_length_b 9.330804
_cell_length_c 16.634130
_cell_angle_alpha 90.000000
_cell_angle_beta 90.000000
_cell_angle_gamma 90.000000
_cell_volume 3218.720640
_symmetry_space_group_name_H-M "P M M N"
_symmetry_group_IT_number 59
_space_group.IT_coordinate_system_code '2'
_symmetry_cell_setting 'orthorhombic'
loop_
_space_group_symop_operation_xyz
x,y,z
1/2-x,1/2-y,z
1/2+x,-y,-z
-x,1/2+y,-z
-x,-y,-z
1/2+x,1/2+y,-z
1/2-x,y,z
x,1/2-y,z
loop_
_atom_site_type_symbol
_atom_site_label
_atom_site_fract_x
_atom_site_fract_y
_atom_site_fract_z
Si Si1 0.821030 0.411452 0.697165
Si Si2 0.897325 0.910762 0.805717
Si Si3 0.996279 0.414622 0.331503
Si Si4 0.080909 0.916065 0.442971
Si Si5 0.677261 0.919543 0.102814
Si Si6 0.870381 0.920657 0.278553
Si Si7 0.934150 0.920473 0.981176
Si Si8 0.820884 0.084778 0.420072
O O1 0.750000 0.445560 0.665808
O O2 0.829598 0.250000 0.725553
O O3 0.835342 0.503044 0.776375
O O4 0.866644 0.448586 0.624160
O O5 0.874020 0.750000 0.817490
O O6 0.952219 0.925211 0.738976
O O7 0.919872 0.971054 0.890837
O O8 0.976721 0.250000 0.349363
O O9 0.937901 0.505885 0.297754
O O10 0.020597 0.482034 0.417551
O O11 0.059134 0.750000 0.443746
O O12 0.117517 0.959763 0.525075
O O13 0.750000 0.980396 0.086071
O O14 0.680413 0.750000 0.098953
O O15 0.653531 0.968508 0.190707
O O16 0.624923 0.974719 0.037624
O O17 0.876524 0.750000 0.285889
O O18 0.819623 0.981774 0.342834
O O19 0.944405 0.750000 0.989484
O O20 0.000000 0.000000 0.000000
O O21 0.750000 0.066983 0.462013
O O22 0.830032 0.250000 0.394287
#
# Coordination Sequence:
#
# PCOD8243810 Si02
#       8
#     8   8   8   8   8   8   8   8
#     4   9  17  30  50  75 103 136 171 207 250 304
#     4   9  19  33  50  76 106 136 171 212 260 313
#     4  10  20  35  54  78 110 142 175 218 267 320
#     4   9  18  34  55  78 105 138 176 215 258 315
#     4   9  19  36  57  81 109 144 187 230 272 323
#     4  11  22  36  56  79 104 138 181 227 272 319
#     4  10  20  35  57  82 108 140 178 222 271 323
#     4  10  21  37  57  80 106 137 174 218 269 322
#
# _framework density 19.883676000000001
#
# number of rings (size 3 to 8) (size 9 to 14) (size 15 to 20)
#    0.000    2.375    0.000    2.250    0.000    5.000 
#    0.000    1.875    0.000    4.125    0.000    0.000 
#    0.000    0.000    0.000    0.000    0.000    0.000 
#
# Total GULP energy -793213.988714 kJ/mol
# GULP energy per Si atom -12393.968574 kJ/mol
# Density = 1.983842 g / cm^3
# Si number density = 19.883676 Si / 1000 Ang^3
#
#
#
# Elastic Constant Matrix: (Units=GPa)
#
#
# Indices 1 2 3 4 5 6 
#
# 1 71.8704 20.5904 -1.8838 0.0000 0.0000 0.0000
# 2 20.5904 55.8480 21.9246 0.0000 0.0000 0.0000
# 3 -1.8838 21.9246 68.2159 0.0000 0.0000 0.0000
# 4 0.0000 0.0000 0.0000 27.1627 0.0000 0.0000
# 5 0.0000 0.0000 0.0000 0.0000 34.8165 0.0000
# 6 0.0000 0.0000 0.0000 0.0000 0.0000 29.6333
#
#
#
# Elastic Compliance Matrix: (Units=1/GPa)
#
#
# Indices 1 2 3 4 5 6 
#
# 1 0.015971 -0.006937 0.002671 0.000000 0.000000 0.000000
# 2 -0.006937 0.023504 -0.007746 0.000000 0.000000 0.000000
# 3 0.002671 -0.007746 0.017223 0.000000 0.000000 0.000000
# 4 0.000000 0.000000 0.000000 0.036815 0.000000 0.000000
# 5 0.000000 0.000000 0.000000 0.000000 0.028722 0.000000
# 6 0.000000 0.000000 0.000000 0.000000 0.000000 0.033746
#
#
# Mechanical properties :
#
#
# Convention : Reuss Voigt Hill
#
# Bulk Modulus (GPa) = 30.60550 30.79964 30.70257
# Shear Modulus (GPa) = 26.19225 28.67606 27.43415
#
# Velocity S-wave (km/s) = 3.63336 3.80174 3.71850
# Velocity P-wave (km/s) = 5.74695 5.89869 5.82331
#
# Compressibility (1/GPa) = 0.03267386
#
# Stress axis : x y z
#
# Youngs Moduli (GPa) = 62.61242 42.54581 58.06330
#
# Poissons Ratio (x) = 0.29513 -0.15506
# Poissons Ratio (y) = 0.43433 0.44975
# Poissons Ratio (z) = -0.16721 0.32955
#
# Static dielectric constant tensor:
#      x y z
#    x 3.818150 0.000000 0.000000 
#    y 0.000000 3.574260 0.000000 
#    z 0.000000 0.000000 4.079290 
# 
# 
# High freq. dielectric constant tensor:
#      x y z
#    x 1.788630 0.000000 0.000000 
#    y 0.000000 1.756310 0.000000 
#    z 0.000000 0.000000 1.780190 
# 
# From -- ./inp_files/26268.got.cif
#   From: 2010.03.12/outbox.cif.g09.slc.cpg/sg59_14_cif.got.tgz:26268.got - 2010.04.16 16:29:54.
