data_PCOD8243510
_publ_section_title
;
Structure prediction by ZEFSAII (Michael W. Deem and Ramdas Pophale) SiO2 
 PCOD8243510
Probable space group: P M M N
;
_chemical_formula_sum "Si O2"
_cell_formula_units_Z 64
_cell_length_a 8.811501
_cell_length_b 14.484104
_cell_length_c 25.108754
_cell_angle_alpha 90.000000
_cell_angle_beta 90.000000
_cell_angle_gamma 90.000000
_cell_volume 3204.547336
_symmetry_space_group_name_H-M "P M M N"
_symmetry_group_IT_number 59
_space_group.IT_coordinate_system_code '2'
_symmetry_cell_setting 'orthorhombic'
loop_
_space_group_symop_operation_xyz
x,y,z
1/2-x,1/2-y,z
1/2+x,-y,-z
-x,1/2+y,-z
-x,-y,-z
1/2+x,1/2+y,-z
1/2-x,y,z
x,1/2-y,z
loop_
_atom_site_type_symbol
_atom_site_label
_atom_site_fract_x
_atom_site_fract_y
_atom_site_fract_z
Si Si1 0.424177 0.352723 0.374993
Si Si2 0.079572 0.349948 0.584776
Si Si3 0.572814 0.354313 0.083772
Si Si4 0.426349 0.962789 0.325307
Si Si5 0.569250 0.144746 0.776903
Si Si6 0.073964 0.355719 0.969953
Si Si7 0.071228 0.903235 0.515456
Si Si8 0.429394 0.970472 0.121860
O O1 0.250000 0.363208 0.393545
O O2 0.456212 0.250000 0.352169
O O3 0.458116 0.426726 0.327616
O O4 0.528283 0.369873 0.425901
O O5 0.250000 0.385970 0.574540
O O6 0.080402 0.250000 0.613460
O O7 0.997087 0.423644 0.621145
O O8 0.994236 0.334355 0.528861
O O9 0.750000 0.370885 0.073289
O O10 0.543732 0.250000 0.105090
O O11 0.508906 0.428802 0.126056
O O12 0.481951 0.371253 0.029600
O O13 0.250000 0.939636 0.326363
O O14 0.496702 0.914228 0.272972
O O15 0.750000 0.146418 0.776093
O O16 0.506268 0.250000 0.775387
O O17 0.511117 0.093168 0.829781
O O18 0.250000 0.383692 0.966213
O O19 0.048197 0.250000 0.952358
O O20 0.975055 0.421058 0.932672
O O21 0.250000 0.907367 0.511285
O O22 0.000000 0.000000 0.500000
O O23 0.250000 0.984389 0.124431
#
# Coordination Sequence:
#
# PCOD8243510 Si02
#       8
#     8   8   8   8   8   8   8   8
#     4  10  21  37  57  83 115 148 184 230 280 329
#     4  11  23  37  55  82 115 147 180 224 277 330
#     4  10  21  37  56  79 111 151 192 234 283 338
#     4  10  20  37  61  83 107 145 189 232 277 328
#     4   9  19  36  58  85 114 144 184 232 280 332
#     4  10  20  34  54  82 116 152 192 236 281 338
#     4  12  23  36  56  82 113 149 186 226 274 330
#     4  11  21  34  55  82 114 151 190 237 289 338
#
# _framework density 19.971619
#
# number of rings (size 3 to 8) (size 9 to 14) (size 15 to 20)
#    0.000    1.625    1.250    4.125    0.000    5.250 
#    0.000    1.875    0.000    5.250    0.000    0.000 
#    0.000    0.000    0.000    0.000    0.000    0.000 
#
# Total GULP energy -793511.341741 kJ/mol
# GULP energy per Si atom -12398.614715 kJ/mol
# Density = 1.992616 g / cm^3
# Si number density = 19.971619 Si / 1000 Ang^3
#
#
#
# Elastic Constant Matrix: (Units=GPa)
#
#
# Indices 1 2 3 4 5 6 
#
# 1 63.3884 35.5478 22.5724 0.0000 0.0000 0.0000
# 2 35.5478 161.7102 61.3449 0.0000 0.0000 0.0000
# 3 22.5724 61.3449 80.9937 0.0000 0.0000 0.0000
# 4 0.0000 0.0000 0.0000 33.4468 0.0000 0.0000
# 5 0.0000 0.0000 0.0000 0.0000 19.0021 0.0000
# 6 0.0000 0.0000 0.0000 0.0000 0.0000 27.0732
#
#
#
# Elastic Compliance Matrix: (Units=1/GPa)
#
#
# Indices 1 2 3 4 5 6 
#
# 1 0.018469 -0.002957 -0.002908 0.000000 0.000000 0.000000
# 2 -0.002957 0.009150 -0.006106 0.000000 0.000000 0.000000
# 3 -0.002908 -0.006106 0.017782 0.000000 0.000000 0.000000
# 4 0.000000 0.000000 0.000000 0.029898 0.000000 0.000000
# 5 0.000000 0.000000 0.000000 0.000000 0.052626 0.000000
# 6 0.000000 0.000000 0.000000 0.000000 0.000000 0.036937
#
#
# Mechanical properties :
#
#
# Convention : Reuss Voigt Hill
#
# Bulk Modulus (GPa) = 46.59908 60.55804 53.57856
# Shear Modulus (GPa) = 25.51565 28.34624 26.93095
#
# Velocity S-wave (km/s) = 3.57822 3.77148 3.67612
# Velocity P-wave (km/s) = 6.36042 7.02519 6.70105
#
# Compressibility (1/GPa) = 0.02145965
#
# Stress axis : x y z
#
# Youngs Moduli (GPa) = 54.14347 109.28473 56.23654
#
# Poissons Ratio (x) = 0.32316 0.16352
# Poissons Ratio (y) = 0.16010 0.34341
# Poissons Ratio (z) = 0.15743 0.66734
#
# Static dielectric constant tensor:
#      x y z
#    x 3.691610 0.000000 0.000000 
#    y 0.000000 4.065690 0.000000 
#    z 0.000000 0.000000 3.558450 
# 
# 
# High freq. dielectric constant tensor:
#      x y z
#    x 1.770470 0.000000 0.000000 
#    y 0.000000 1.802330 0.000000 
#    z 0.000000 0.000000 1.750870 
# 
# From -- ./inp_files/31538.got.cif
#   From: 2010.03.12/outbox.cif.g09.slc.cpg/sg59_16_cif.got.tgz:31538.got - 2010.04.16 16:29:54.
