data_PCOD8243351
_publ_section_title
;
Structure prediction by ZEFSAII (Michael W. Deem and Ramdas Pophale) SiO2 
 PCOD8243351
Probable space group: P M M N
;
_chemical_formula_sum "Si O2"
_cell_formula_units_Z 48
_cell_length_a 23.487196
_cell_length_b 8.987353
_cell_length_c 11.620011
_cell_angle_alpha 90.000000
_cell_angle_beta 90.000000
_cell_angle_gamma 90.000000
_cell_volume 2452.841645
_symmetry_space_group_name_H-M "P M M N"
_symmetry_group_IT_number 59
_space_group.IT_coordinate_system_code '2'
_symmetry_cell_setting 'orthorhombic'
loop_
_space_group_symop_operation_xyz
x,y,z
1/2-x,1/2-y,z
1/2+x,-y,-z
-x,1/2+y,-z
-x,-y,-z
1/2+x,1/2+y,-z
1/2-x,y,z
x,1/2-y,z
loop_
_atom_site_type_symbol
_atom_site_label
_atom_site_fract_x
_atom_site_fract_y
_atom_site_fract_z
Si Si1 0.684451 0.923924 0.377347
Si Si2 0.971750 0.423938 0.738582
Si Si3 0.900919 0.074306 0.954340
Si Si4 0.592281 0.576758 0.194132
Si Si5 0.867666 0.426841 0.596713
Si Si6 0.315375 0.083405 0.194604
O O1 0.750000 0.979030 0.367190
O O2 0.682581 0.750000 0.406642
O O3 0.651551 0.958274 0.258278
O O4 0.649555 0.009473 0.474073
O O5 0.963226 0.250000 0.734487
O O6 0.931072 0.485153 0.635532
O O7 0.038184 0.467244 0.723960
O O8 0.949643 0.478023 0.864098
O O9 0.892456 0.250000 0.955066
O O10 0.915309 0.020892 0.081432
O O11 0.842896 0.996207 0.915188
O O12 0.588564 0.750000 0.160179
O O13 0.863560 0.250000 0.591063
O O14 0.823364 0.486926 0.690414
O O15 0.250000 0.092967 0.164164
O O16 0.340359 0.250000 0.212316
#
# Coordination Sequence:
#
# PCOD8243351 Si02
#       6
#     8   8   8   8   8   8
#     4  10  22  38  54  75 105 142 182 219 258 311
#     4   8  17  34  55  80 107 135 172 219 270 320
#     4  10  20  34  53  80 112 140 173 222 273 320
#     4  10  20  36  56  75 104 147 185 218 259 312
#     4  10  20  35  56  81 107 134 171 222 275 322
#     4  10  20  34  54  79 106 139 180 221 263 318
#
# _framework density 19.569139
#
# number of rings (size 3 to 8) (size 9 to 14) (size 15 to 20)
#    0.000    2.333    0.000    3.500    0.000    5.667 
#    0.000    5.833    0.000    0.000    0.000    0.000 
#    0.000    0.000    0.000    0.000    0.000    0.000 
#
# Total GULP energy -594958.523836 kJ/mol
# GULP energy per Si atom -12394.969247 kJ/mol
# Density = 1.952460 g / cm^3
# Si number density = 19.569139 Si / 1000 Ang^3
#
#
#
# Elastic Constant Matrix: (Units=GPa)
#
#
# Indices 1 2 3 4 5 6 
#
# 1 106.8520 32.3810 42.1610 0.0000 0.0000 0.0000
# 2 32.3810 60.3626 27.6456 0.0000 0.0000 0.0000
# 3 42.1610 27.6456 72.0569 0.0000 0.0000 0.0000
# 4 0.0000 0.0000 0.0000 33.8542 0.0000 0.0000
# 5 0.0000 0.0000 0.0000 0.0000 21.4664 0.0000
# 6 0.0000 0.0000 0.0000 0.0000 0.0000 23.3859
#
#
#
# Elastic Compliance Matrix: (Units=1/GPa)
#
#
# Indices 1 2 3 4 5 6 
#
# 1 0.013003 -0.004235 -0.005983 0.000000 0.000000 0.000000
# 2 -0.004235 0.021477 -0.005762 0.000000 0.000000 0.000000
# 3 -0.005983 -0.005762 0.019590 0.000000 0.000000 0.000000
# 4 0.000000 0.000000 0.000000 0.029538 0.000000 0.000000
# 5 0.000000 0.000000 0.000000 0.000000 0.046584 0.000000
# 6 0.000000 0.000000 0.000000 0.000000 0.000000 0.042761
#
#
# Mechanical properties :
#
#
# Convention : Reuss Voigt Hill
#
# Bulk Modulus (GPa) = 45.23058 49.29408 47.26233
# Shear Modulus (GPa) = 23.55331 24.88022 24.21677
#
# Velocity S-wave (km/s) = 3.47305 3.56954 3.52163
# Velocity P-wave (km/s) = 6.26468 6.49871 6.38276
#
# Compressibility (1/GPa) = 0.02210894
#
# Stress axis : x y z
#
# Youngs Moduli (GPa) = 76.90525 46.56050 51.04770
#
# Poissons Ratio (x) = 0.19719 0.30543
# Poissons Ratio (y) = 0.32570 0.29414
# Poissons Ratio (z) = 0.46015 0.26829
#
# Static dielectric constant tensor:
#      x y z
#    x 3.784560 0.000000 0.000000 
#    y 0.000000 3.527790 0.000000 
#    z 0.000000 0.000000 3.414020 
# 
# 
# High freq. dielectric constant tensor:
#      x y z
#    x 1.769700 0.000000 0.000000 
#    y 0.000000 1.752480 0.000000 
#    z 0.000000 0.000000 1.751110 
# 
# From -- ./inp_files/14357.got.cif
#   From: 2010.03.12/outbox.cif.g09.slc.cpg/sg59_8_cif.got.tgz:14357.got - 2010.04.16 16:29:54.
