data_PCOD8243836
_publ_section_title
;
Structure prediction by ZEFSAII (Michael W. Deem and Ramdas Pophale) SiO2 
 PCOD8243836
Probable space group: P M M N
;
_chemical_formula_sum "Si O2"
_cell_formula_units_Z 64
_cell_length_a 18.192912
_cell_length_b 9.366639
_cell_length_c 21.369619
_cell_angle_alpha 90.000000
_cell_angle_beta 90.000000
_cell_angle_gamma 90.000000
_cell_volume 3641.520678
_symmetry_space_group_name_H-M "P M M N"
_symmetry_group_IT_number 59
_space_group.IT_coordinate_system_code '2'
_symmetry_cell_setting 'orthorhombic'
loop_
_space_group_symop_operation_xyz
x,y,z
1/2-x,1/2-y,z
1/2+x,-y,-z
-x,1/2+y,-z
-x,-y,-z
1/2+x,1/2+y,-z
1/2-x,y,z
x,1/2-y,z
loop_
_atom_site_type_symbol
_atom_site_label
_atom_site_fract_x
_atom_site_fract_y
_atom_site_fract_z
Si Si1 0.522072 0.581650 0.562044
Si Si2 0.834477 0.414642 0.115240
Si Si3 0.668360 0.913245 0.628958
Si Si4 0.575551 0.081294 0.993659
Si Si5 0.333452 0.415543 0.765106
Si Si6 0.610601 0.085206 0.741687
Si Si7 0.538163 0.585952 0.324785
Si Si8 0.333088 0.919661 0.125370
O O1 0.500000 0.500000 0.500000
O O2 0.507933 0.750000 0.554304
O O3 0.607647 0.546227 0.576785
O O4 0.471807 0.521394 0.617759
O O5 0.750000 0.451042 0.102234
O O6 0.846614 0.250000 0.130989
O O7 0.864019 0.501651 0.174676
O O8 0.877479 0.461584 0.053883
O O9 0.750000 0.938634 0.600593
O O10 0.656751 0.750000 0.649187
O O11 0.660414 0.005362 0.691251
O O12 0.561435 0.250000 0.989498
O O13 0.619007 0.023977 0.932809
O O14 0.500000 0.000000 0.000000
O O15 0.250000 0.461319 0.748658
O O16 0.338943 0.250000 0.781826
O O17 0.383616 0.452433 0.705557
O O18 0.632817 0.250000 0.737219
O O19 0.524603 0.061143 0.727420
O O20 0.628765 0.025527 0.810693
O O21 0.535999 0.750000 0.348785
O O22 0.250000 0.980239 0.120945
O O23 0.330944 0.750000 0.123363
#
# Coordination Sequence:
#
# PCOD8243836 Si02
#       8
#     8   8   8   8   8   8   8   8
#     4  10  20  35  55  77 103 136 171 204 241 288
#     4   9  18  33  51  70  94 128 169 211 255 303
#     4   9  18  33  52  75 103 133 163 197 242 293
#     4  10  21  34  49  69  95 128 166 209 254 301
#     4   9  18  32  52  77 102 131 168 210 255 301
#     4   9  17  29  49  76  99 125 162 204 245 289
#     4   9  18  32  51  75 104 133 163 203 247 292
#     4   9  17  30  49  71  95 126 164 203 245 296
#
# _framework density 17.575075999999999
#
# number of rings (size 3 to 8) (size 9 to 14) (size 15 to 20)
#    0.000    2.750    0.000    1.125    1.750    3.750 
#    0.000    1.250    0.000    5.625    0.000    0.000 
#    0.000    0.000    0.000    0.000    0.000    0.000 
#
# Total GULP energy -793584.949489 kJ/mol
# GULP energy per Si atom -12399.764836 kJ/mol
# Density = 1.753507 g / cm^3
# Si number density = 17.575076 Si / 1000 Ang^3
#
#
#
# Elastic Constant Matrix: (Units=GPa)
#
#
# Indices 1 2 3 4 5 6 
#
# 1 111.0601 45.5302 81.3509 0.0000 0.0000 0.0000
# 2 45.5302 57.4676 60.2201 0.0000 0.0000 0.0000
# 3 81.3509 60.2201 145.0610 0.0000 0.0000 0.0000
# 4 0.0000 0.0000 0.0000 28.4590 0.0000 0.0000
# 5 0.0000 0.0000 0.0000 0.0000 24.5734 0.0000
# 6 0.0000 0.0000 0.0000 0.0000 0.0000 25.3604
#
#
#
# Elastic Compliance Matrix: (Units=1/GPa)
#
#
# Indices 1 2 3 4 5 6 
#
# 1 0.016345 -0.005920 -0.006709 0.000000 0.000000 0.000000
# 2 -0.005920 0.032943 -0.010356 0.000000 0.000000 0.000000
# 3 -0.006709 -0.010356 0.014955 0.000000 0.000000 0.000000
# 4 0.000000 0.000000 0.000000 0.035138 0.000000 0.000000
# 5 0.000000 0.000000 0.000000 0.000000 0.040694 0.000000
# 6 0.000000 0.000000 0.000000 0.000000 0.000000 0.039432
#
#
# Mechanical properties :
#
#
# Convention : Reuss Voigt Hill
#
# Bulk Modulus (GPa) = 54.72196 76.42122 65.57159
# Shear Modulus (GPa) = 21.59180 24.11105 22.85143
#
# Velocity S-wave (km/s) = 3.50887 3.70792 3.60977
# Velocity P-wave (km/s) = 6.90072 7.86821 7.40029
#
# Compressibility (1/GPa) = 0.01827420
#
# Stress axis : x y z
#
# Youngs Moduli (GPa) = 61.17974 30.35524 66.86548
#
# Poissons Ratio (x) = 0.17969 0.44861
# Poissons Ratio (y) = 0.36215 0.69248
# Poissons Ratio (z) = 0.41046 0.31437
#
# Static dielectric constant tensor:
#      x y z
#    x 3.380120 0.000000 0.000000 
#    y 0.000000 3.159060 0.000000 
#    z 0.000000 0.000000 3.282530 
# 
# 
# High freq. dielectric constant tensor:
#      x y z
#    x 1.685310 0.000000 0.000000 
#    y 0.000000 1.664410 0.000000 
#    z 0.000000 0.000000 1.673530 
# 
# From -- ./inp_files/30767.got.cif
#   From: 2010.03.12/outbox.cif.g09.slc.cpg/sg59_16_cif.got.tgz:30767.got - 2010.04.16 16:29:54.
