data_PCOD8243468
_publ_section_title
;
Structure prediction by ZEFSAII (Michael W. Deem and Ramdas Pophale) SiO2 
 PCOD8243468
Probable space group: P M M N
;
_chemical_formula_sum "Si O2"
_cell_formula_units_Z 48
_cell_length_a 13.830838
_cell_length_b 9.195770
_cell_length_c 20.427127
_cell_angle_alpha 90.000000
_cell_angle_beta 90.000000
_cell_angle_gamma 90.000000
_cell_volume 2598.028338
_symmetry_space_group_name_H-M "P M M N"
_symmetry_group_IT_number 59
_space_group.IT_coordinate_system_code '2'
_symmetry_cell_setting 'orthorhombic'
loop_
_space_group_symop_operation_xyz
x,y,z
1/2-x,1/2-y,z
1/2+x,-y,-z
-x,1/2+y,-z
-x,-y,-z
1/2+x,1/2+y,-z
1/2-x,y,z
x,1/2-y,z
loop_
_atom_site_type_symbol
_atom_site_label
_atom_site_fract_x
_atom_site_fract_y
_atom_site_fract_z
Si Si1 0.062336 0.921302 0.646305
Si Si2 0.908130 0.583946 0.475018
Si Si3 0.851473 0.916329 0.615196
Si Si4 0.528606 0.920300 0.098482
Si Si5 0.138372 0.918981 0.789130
Si Si6 0.361195 0.080324 0.033062
O O1 0.063962 0.750000 0.630977
O O2 0.108262 0.958230 0.715674
O O3 0.951569 0.985710 0.642286
O O4 0.127581 0.002245 0.591155
O O5 0.931838 0.750000 0.456696
O O6 0.836339 0.574601 0.536410
O O7 0.000000 0.500000 0.500000
O O8 0.750000 0.985250 0.643701
O O9 0.855937 0.750000 0.637794
O O10 0.513448 0.750000 0.107720
O O11 0.572547 0.985447 0.164032
O O12 0.423970 0.991297 0.085447
O O13 0.602205 0.956642 0.039754
O O14 0.250000 0.960306 0.799475
O O15 0.120024 0.750000 0.804259
O O16 0.250000 0.031022 0.038800
O O17 0.373582 0.250000 0.048440
#
# Coordination Sequence:
#
# PCOD8243468 Si02
#       6
#     8   8   8   8   8   8
#     4   9  18  32  48  67  93 125 163 204 245 296
#     4   9  16  27  45  67  91 119 153 197 248 298
#     4   8  14  26  45  67  89 115 151 196 244 294
#     4  10  20  34  54  81 110 137 171 216 259 301
#     4  10  21  36  52  71 100 138 175 211 257 313
#     4   9  18  34  56  81 109 140 174 211 253 304
#
# _framework density 18.475549000000001
#
# number of rings (size 3 to 8) (size 9 to 14) (size 15 to 20)
#    0.000    2.833    0.000    2.500    0.000    3.333 
#    0.000    0.833    0.000   15.000    0.000    0.000 
#    0.000    0.000    0.000    0.000    0.000    0.000 
#
# Total GULP energy -594703.626410 kJ/mol
# GULP energy per Si atom -12389.658884 kJ/mol
# Density = 1.843350 g / cm^3
# Si number density = 18.475549 Si / 1000 Ang^3
#
#
#
# Elastic Constant Matrix: (Units=GPa)
#
#
# Indices 1 2 3 4 5 6 
#
# 1 104.0250 35.1187 28.6071 0.0000 0.0000 0.0000
# 2 35.1187 67.1238 43.2163 0.0000 0.0000 0.0000
# 3 28.6071 43.2163 78.5959 0.0000 0.0000 0.0000
# 4 0.0000 0.0000 0.0000 31.2171 0.0000 0.0000
# 5 0.0000 0.0000 0.0000 0.0000 6.4743 0.0000
# 6 0.0000 0.0000 0.0000 0.0000 0.0000 18.1240
#
#
#
# Elastic Compliance Matrix: (Units=1/GPa)
#
#
# Indices 1 2 3 4 5 6 
#
# 1 0.011773 -0.005264 -0.001390 0.000000 0.000000 0.000000
# 2 -0.005264 0.025416 -0.012059 0.000000 0.000000 0.000000
# 3 -0.001390 -0.012059 0.019860 0.000000 0.000000 0.000000
# 4 0.000000 0.000000 0.000000 0.032034 0.000000 0.000000
# 5 0.000000 0.000000 0.000000 0.000000 0.154457 0.000000
# 6 0.000000 0.000000 0.000000 0.000000 0.000000 0.055175
#
#
# Mechanical properties :
#
#
# Convention : Reuss Voigt Hill
#
# Bulk Modulus (GPa) = 50.96469 51.51431 51.23950
# Shear Modulus (GPa) = 14.59076 20.68325 17.63701
#
# Velocity S-wave (km/s) = 2.81327 3.34951 3.09303
# Velocity P-wave (km/s) = 6.18041 6.54996 6.36786
#
# Compressibility (1/GPa) = 0.01962143
#
# Stress axis : x y z
#
# Youngs Moduli (GPa) = 84.94291 39.34529 50.35210
#
# Poissons Ratio (x) = 0.20712 0.07001
# Poissons Ratio (y) = 0.44715 0.60720
# Poissons Ratio (z) = 0.11811 0.47447
#
# Static dielectric constant tensor:
#      x y z
#    x 3.592980 0.000000 0.000000 
#    y 0.000000 3.397010 0.000000 
#    z 0.000000 0.000000 3.398460 
# 
# 
# High freq. dielectric constant tensor:
#      x y z
#    x 1.722040 0.000000 0.000000 
#    y 0.000000 1.698800 0.000000 
#    z 0.000000 0.000000 1.700460 
# 
# From -- ./inp_files/27396.got.cif
#   From: 2010.03.12/outbox.cif.g09.slc.cpg/sg59_14_cif.got.tgz:27396.got - 2010.04.16 16:29:54.
