data_PCOD8243075
_publ_section_title
;
Structure prediction by ZEFSAII (Michael W. Deem and Ramdas Pophale) SiO2 
 PCOD8243075
Probable space group: P M M N
;
_chemical_formula_sum "Si O2"
_cell_formula_units_Z 48
_cell_length_a 8.217411
_cell_length_b 29.301337
_cell_length_c 9.919328
_cell_angle_alpha 90.000000
_cell_angle_beta 90.000000
_cell_angle_gamma 90.000000
_cell_volume 2388.386995
_symmetry_space_group_name_H-M "P M M N"
_symmetry_group_IT_number 59
_space_group.IT_coordinate_system_code '2'
_symmetry_cell_setting 'orthorhombic'
loop_
_space_group_symop_operation_xyz
x,y,z
1/2-x,1/2-y,z
1/2+x,-y,-z
-x,1/2+y,-z
-x,-y,-z
1/2+x,1/2+y,-z
1/2-x,y,z
x,1/2-y,z
loop_
_atom_site_type_symbol
_atom_site_label
_atom_site_fract_x
_atom_site_fract_y
_atom_site_fract_z
Si Si1 0.559518 0.019713 0.860462
Si Si2 0.944469 0.882057 0.218532
Si Si3 0.061873 0.373904 0.478328
Si Si4 0.556621 0.801047 0.027697
Si Si5 0.936941 0.466501 0.387883
Si Si6 0.056513 0.198962 0.273358
O O1 0.750000 0.011474 0.839407
O O2 0.520097 0.073128 0.848688
O O3 0.458323 0.990594 0.754042
O O4 0.500000 0.000000 0.000000
O O5 0.750000 0.886538 0.216290
O O6 0.013329 0.876627 0.371150
O O7 0.008105 0.838391 0.133885
O O8 0.250000 0.362684 0.496004
O O9 0.979802 0.334296 0.386822
O O10 0.040152 0.420482 0.396487
O O11 0.750000 0.801213 0.028280
O O12 0.495143 0.750000 0.067724
O O13 0.493278 0.813646 0.877141
O O14 0.750000 0.454396 0.413472
O O15 0.000000 0.500000 0.500000
O O16 0.250000 0.194697 0.273331
O O17 0.001341 0.250000 0.310811
#
# Coordination Sequence:
#
# PCOD8243075 Si02
#       6
#     8   8   8   8   8   8
#     4  12  26  43  62  86 118 155 196 245 295 352
#     4  10  20  34  54  83 117 151 194 241 288 344
#     4  10  20  33  54  84 116 152 194 240 289 342
#     4   8  15  29  50  78 112 150 192 239 288 339
#     4  12  24  41  62  86 118 157 198 240 292 350
#     4   8  15  29  50  79 113 149 192 239 286 339
#
# _framework density 20.097245000000001
#
# number of rings (size 3 to 8) (size 9 to 14) (size 15 to 20)
#    0.000    2.000    1.667    4.000    2.333    0.667 
#    0.000    3.333    0.000    1.000    0.000    4.667 
#    0.000    0.000    0.000    0.000    0.000    0.000 
#
# Total GULP energy -595099.924900 kJ/mol
# GULP energy per Si atom -12397.915102 kJ/mol
# Density = 2.005150 g / cm^3
# Si number density = 20.097245 Si / 1000 Ang^3
#
#
#
# Elastic Constant Matrix: (Units=GPa)
#
#
# Indices 1 2 3 4 5 6 
#
# 1 32.8267 -0.1962 7.1956 0.0000 0.0000 0.0000
# 2 -0.1962 164.5140 94.7921 0.0000 0.0000 0.0000
# 3 7.1956 94.7921 153.8910 0.0000 0.0000 0.0000
# 4 0.0000 0.0000 0.0000 48.7474 0.0000 0.0000
# 5 0.0000 0.0000 0.0000 0.0000 16.4801 0.0000
# 6 0.0000 0.0000 0.0000 0.0000 0.0000 20.5079
#
#
#
# Elastic Compliance Matrix: (Units=1/GPa)
#
#
# Indices 1 2 3 4 5 6 
#
# 1 0.030971 0.001351 -0.002280 0.000000 0.000000 0.000000
# 2 0.001351 0.009482 -0.005904 0.000000 0.000000 0.000000
# 3 -0.002280 -0.005904 0.010241 0.000000 0.000000 0.000000
# 4 0.000000 0.000000 0.000000 0.020514 0.000000 0.000000
# 5 0.000000 0.000000 0.000000 0.000000 0.060679 0.000000
# 6 0.000000 0.000000 0.000000 0.000000 0.000000 0.048762
#
#
# Mechanical properties :
#
#
# Convention : Reuss Voigt Hill
#
# Bulk Modulus (GPa) = 27.00673 61.64606 44.32639
# Shear Modulus (GPa) = 24.19465 33.77643 28.98554
#
# Velocity S-wave (km/s) = 3.47346 4.10402 3.80184
# Velocity P-wave (km/s) = 5.43634 7.29368 6.43240
#
# Compressibility (1/GPa) = 0.03702781
#
# Stress axis : x y z
#
# Youngs Moduli (GPa) = 32.28835 105.46559 97.64503
#
# Poissons Ratio (x) = -0.14246 0.22265
# Poissons Ratio (y) = -0.04361 0.57646
# Poissons Ratio (z) = 0.07362 0.62263
#
# Static dielectric constant tensor:
#      x y z
#    x 3.245840 0.000000 0.000000 
#    y 0.000000 3.858740 0.000000 
#    z 0.000000 0.000000 3.958290 
# 
# 
# High freq. dielectric constant tensor:
#      x y z
#    x 1.745920 0.000000 0.000000 
#    y 0.000000 1.794740 0.000000 
#    z 0.000000 0.000000 1.795750 
# 
# From -- ./inp_files/6278.got.cif
#   From: 2010.03.12/outbox.cif.g09.slc.cpg/sg59_4_cif.got.tgz:6278.got - 2010.04.16 16:29:54.
