data_PCOD8243497
_publ_section_title
;
Structure prediction by ZEFSAII (Michael W. Deem and Ramdas Pophale) SiO2 
 PCOD8243497
Probable space group: P M M N
;
_chemical_formula_sum "Si O2"
_cell_formula_units_Z 56
_cell_length_a 8.851283
_cell_length_b 19.468148
_cell_length_c 17.289144
_cell_angle_alpha 90.000000
_cell_angle_beta 90.000000
_cell_angle_gamma 90.000000
_cell_volume 2979.232227
_symmetry_space_group_name_H-M "P M M N"
_symmetry_group_IT_number 59
_space_group.IT_coordinate_system_code '2'
_symmetry_cell_setting 'orthorhombic'
loop_
_space_group_symop_operation_xyz
x,y,z
1/2-x,1/2-y,z
1/2+x,-y,-z
-x,1/2+y,-z
-x,-y,-z
1/2+x,1/2+y,-z
1/2-x,y,z
x,1/2-y,z
loop_
_atom_site_type_symbol
_atom_site_label
_atom_site_fract_x
_atom_site_fract_y
_atom_site_fract_z
Si Si1 0.924057 0.954474 0.113615
Si Si2 0.575278 0.327597 0.170453
Si Si3 0.571401 0.419571 0.313402
Si Si4 0.925139 0.829882 0.382011
Si Si5 0.927909 0.438285 0.726514
Si Si6 0.425833 0.671134 0.542376
Si Si7 0.575940 0.588807 0.947835
O O1 0.750000 0.956637 0.139552
O O2 0.021500 0.927841 0.185020
O O3 0.949909 0.904362 0.040085
O O4 0.971315 0.030531 0.089123
O O5 0.750000 0.340271 0.150900
O O6 0.547515 0.250000 0.197956
O O7 0.518001 0.377386 0.238404
O O8 0.476205 0.341081 0.093353
O O9 0.750000 0.428443 0.313397
O O10 0.496786 0.494054 0.312818
O O11 0.518123 0.377948 0.388814
O O12 0.750000 0.848683 0.373874
O O13 0.956253 0.750000 0.365944
O O14 0.019814 0.871617 0.319625
O O15 0.978649 0.850023 0.467661
O O16 0.750000 0.444590 0.723305
O O17 0.250000 0.659837 0.523763
O O18 0.456353 0.750000 0.566606
O O19 0.750000 0.571560 0.930190
#
# Coordination Sequence:
#
# PCOD8243497 Si02
#       7
#     8   8   8   8   8   8   8
#     4  10  20  36  57  80 110 146 185 231 281 336
#     4  10  20  34  54  81 116 158 196 232 280 336
#     4  10  20  35  56  83 117 154 191 232 281 335
#     4  10  22  41  63  84 109 145 187 232 289 348
#     4  12  24  37  58  87 116 146 187 237 287 338
#     4   9  18  35  59  85 114 150 192 234 278 332
#     4  10  20  34  55  82 109 144 188 232 280 331
#
# _framework density 18.796789
#
# number of rings (size 3 to 8) (size 9 to 14) (size 15 to 20)
#    0.000    1.857    1.429    3.000    0.000    5.714 
#    0.000    0.714    0.000    3.429    0.000    0.000 
#    0.000    0.000    0.000    0.000    0.000    0.000 
#
# Total GULP energy -694567.800993 kJ/mol
# GULP energy per Si atom -12402.996446 kJ/mol
# Density = 1.875401 g / cm^3
# Si number density = 18.796789 Si / 1000 Ang^3
#
#
#
# Elastic Constant Matrix: (Units=GPa)
#
#
# Indices 1 2 3 4 5 6 
#
# 1 59.2018 32.1914 42.7161 0.0000 0.0000 0.0000
# 2 32.1914 76.3060 55.3227 0.0000 0.0000 0.0000
# 3 42.7161 55.3227 123.2331 0.0000 0.0000 0.0000
# 4 0.0000 0.0000 0.0000 30.6601 0.0000 0.0000
# 5 0.0000 0.0000 0.0000 0.0000 33.7370 0.0000
# 6 0.0000 0.0000 0.0000 0.0000 0.0000 26.0936
#
#
#
# Elastic Compliance Matrix: (Units=1/GPa)
#
#
# Indices 1 2 3 4 5 6 
#
# 1 0.024328 -0.006152 -0.005671 0.000000 0.000000 0.000000
# 2 -0.006152 0.020984 -0.007288 0.000000 0.000000 0.000000
# 3 -0.005671 -0.007288 0.013352 0.000000 0.000000 0.000000
# 4 0.000000 0.000000 0.000000 0.032616 0.000000 0.000000
# 5 0.000000 0.000000 0.000000 0.000000 0.029641 0.000000
# 6 0.000000 0.000000 0.000000 0.000000 0.000000 0.038324
#
#
# Mechanical properties :
#
#
# Convention : Reuss Voigt Hill
#
# Bulk Modulus (GPa) = 48.91665 57.68903 53.30284
# Shear Modulus (GPa) = 24.47599 26.66551 25.57075
#
# Velocity S-wave (km/s) = 3.61243 3.77054 3.69233
# Velocity P-wave (km/s) = 6.59393 7.05078 6.82618
#
# Compressibility (1/GPa) = 0.02044294
#
# Stress axis : x y z
#
# Youngs Moduli (GPa) = 41.10418 47.65461 74.89343
#
# Poissons Ratio (x) = 0.29316 0.42474
# Poissons Ratio (y) = 0.25287 0.54583
# Poissons Ratio (z) = 0.23311 0.34731
#
# Static dielectric constant tensor:
#      x y z
#    x 3.433820 0.000000 0.000000 
#    y 0.000000 3.329910 0.000000 
#    z 0.000000 0.000000 3.628270 
# 
# 
# High freq. dielectric constant tensor:
#      x y z
#    x 1.732620 0.000000 0.000000 
#    y 0.000000 1.716640 0.000000 
#    z 0.000000 0.000000 1.737880 
# 
# From -- ./inp_files/21085.got.cif
#   From: 2010.03.12/outbox.cif.g09.slc.cpg/sg59_11_cif.got.tgz:21085.got - 2010.04.16 16:29:54.
