data_PCOD8243085
_publ_section_title
;
Structure prediction by ZEFSAII (Michael W. Deem and Ramdas Pophale) SiO2 
 PCOD8243085
Probable space group: P M M N
;
_chemical_formula_sum "Si O2"
_cell_formula_units_Z 32
_cell_length_a 7.620894
_cell_length_b 17.914888
_cell_length_c 12.015178
_cell_angle_alpha 90.000000
_cell_angle_beta 90.000000
_cell_angle_gamma 90.000000
_cell_volume 1640.401763
_symmetry_space_group_name_H-M "P M M N"
_symmetry_group_IT_number 59
_space_group.IT_coordinate_system_code '2'
_symmetry_cell_setting 'orthorhombic'
loop_
_space_group_symop_operation_xyz
x,y,z
1/2-x,1/2-y,z
1/2+x,-y,-z
-x,1/2+y,-z
-x,-y,-z
1/2+x,1/2+y,-z
1/2-x,y,z
x,1/2-y,z
loop_
_atom_site_type_symbol
_atom_site_label
_atom_site_fract_x
_atom_site_fract_y
_atom_site_fract_z
Si Si1 0.250000 0.662336 0.624083
Si Si2 0.250000 0.837986 0.366690
Si Si3 0.460034 0.412912 0.776748
Si Si4 0.447910 0.168501 0.995175
Si Si5 0.942264 0.420067 0.201091
O O1 0.250000 0.750000 0.644019
O O2 0.250000 0.640436 0.495997
O O3 0.423240 0.626970 0.683772
O O4 0.250000 0.750000 0.347420
O O5 0.430545 0.870540 0.317627
O O6 0.250000 0.404563 0.754681
O O7 0.522836 0.498984 0.773635
O O8 0.527328 0.380311 0.894973
O O9 0.250000 0.183259 0.961066
O O10 0.542942 0.250000 0.005038
O O11 0.446286 0.125529 0.112064
O O12 0.750000 0.431933 0.145847
#
# Coordination Sequence:
#
# PCOD8243085 Si02
#       5
#     4   4   8   8   8
#     4   9  20  39  59  87 117 147 204 246 278 352
#     4  11  24  39  63  87 113 159 198 242 298 338
#     4  10  22  40  58  89 121 152 194 241 289 351
#     4  10  20  33  55  85 119 153 188 235 293 354
#     4   9  20  36  58  83 113 156 187 236 295 334
#
# _framework density 19.507417
#
# number of rings (size 3 to 8) (size 9 to 14) (size 15 to 20)
#    0.750    1.500    0.000    2.250    3.500    2.500 
#    0.000    1.250    0.000    1.500    0.000    0.000 
#    0.000    0.000    0.000    0.000    0.000    0.000 
#
# Total GULP energy -396524.608297 kJ/mol
# GULP energy per Si atom -12391.394009 kJ/mol
# Density = 1.946302 g / cm^3
# Si number density = 19.507417 Si / 1000 Ang^3
#
#
#
# Elastic Constant Matrix: (Units=GPa)
#
#
# Indices 1 2 3 4 5 6 
#
# 1 51.2977 29.8055 34.3289 0.0000 0.0000 0.0000
# 2 29.8055 173.4565 95.8888 0.0000 0.0000 0.0000
# 3 34.3289 95.8888 168.9053 0.0000 0.0000 0.0000
# 4 0.0000 0.0000 0.0000 28.1403 0.0000 0.0000
# 5 0.0000 0.0000 0.0000 0.0000 21.4345 0.0000
# 6 0.0000 0.0000 0.0000 0.0000 0.0000 7.2034
#
#
#
# Elastic Compliance Matrix: (Units=1/GPa)
#
#
# Indices 1 2 3 4 5 6 
#
# 1 0.023028 -0.001996 -0.003547 0.000000 0.000000 0.000000
# 2 -0.001996 0.008575 -0.004462 0.000000 0.000000 0.000000
# 3 -0.003547 -0.004462 0.009175 0.000000 0.000000 0.000000
# 4 0.000000 0.000000 0.000000 0.035536 0.000000 0.000000
# 5 0.000000 0.000000 0.000000 0.000000 0.046654 0.000000
# 6 0.000000 0.000000 0.000000 0.000000 0.000000 0.138824
#
#
# Mechanical properties :
#
#
# Convention : Reuss Voigt Hill
#
# Bulk Modulus (GPa) = 48.15494 79.30065 63.72779
# Shear Modulus (GPa) = 17.31756 26.93139 22.12448
#
# Velocity S-wave (km/s) = 2.98273 3.71964 3.37138
# Velocity P-wave (km/s) = 6.04990 7.69333 6.92057
#
# Compressibility (1/GPa) = 0.02076630
#
# Stress axis : x y z
#
# Youngs Moduli (GPa) = 43.42628 116.61828 108.99522
#
# Poissons Ratio (x) = 0.23278 0.38661
# Poissons Ratio (y) = 0.08668 0.48638
# Poissons Ratio (z) = 0.15403 0.52040
#
# Static dielectric constant tensor:
#      x y z
#    x 3.225810 0.000000 0.000000 
#    y 0.000000 3.874790 0.000000 
#    z 0.000000 0.000000 3.361520 
# 
# 
# High freq. dielectric constant tensor:
#      x y z
#    x 1.735160 0.000000 0.000000 
#    y 0.000000 1.781610 0.000000 
#    z 0.000000 0.000000 1.747910 
# 
# From -- ./inp_files/13768.got.cif
#   From: 2010.03.12/outbox.cif.g09.slc.cpg/sg59_7_cif.got.tgz:13768.got - 2010.04.16 16:29:54.
