data_PCOD8243200
_publ_section_title
;
Structure prediction by ZEFSAII (Michael W. Deem and Ramdas Pophale) SiO2 
 PCOD8243200
Probable space group: P M M N
;
_chemical_formula_sum "Si O2"
_cell_formula_units_Z 64
_cell_length_a 28.602699
_cell_length_b 9.564568
_cell_length_c 12.255972
_cell_angle_alpha 90.000000
_cell_angle_beta 90.000000
_cell_angle_gamma 90.000000
_cell_volume 3352.896404
_symmetry_space_group_name_H-M "P M M N"
_symmetry_group_IT_number 59
_space_group.IT_coordinate_system_code '2'
_symmetry_cell_setting 'orthorhombic'
loop_
_space_group_symop_operation_xyz
x,y,z
1/2-x,1/2-y,z
1/2+x,-y,-z
-x,1/2+y,-z
-x,-y,-z
1/2+x,1/2+y,-z
1/2-x,y,z
x,1/2-y,z
loop_
_atom_site_type_symbol
_atom_site_label
_atom_site_fract_x
_atom_site_fract_y
_atom_site_fract_z
Si Si1 0.697687 0.409452 0.234801
Si Si2 0.696593 0.911692 0.587900
Si Si3 0.474774 0.085185 0.595718
Si Si4 0.133254 0.412941 0.616792
Si Si5 0.695532 0.409185 0.788654
Si Si6 0.013836 0.592499 0.167986
Si Si7 0.067075 0.091648 0.008790
Si Si8 0.651620 0.408556 0.014323
O O1 0.750000 0.463320 0.264462
O O2 0.691526 0.250000 0.275171
O O3 0.656934 0.502539 0.285767
O O4 0.692190 0.418541 0.104364
O O5 0.750000 0.955078 0.558379
O O6 0.693840 0.750000 0.618094
O O7 0.662774 0.950898 0.489709
O O8 0.676766 0.996211 0.690577
O O9 0.479611 0.250000 0.571782
O O10 0.420327 0.041019 0.599909
O O11 0.498161 0.044809 0.711386
O O12 0.500000 0.000000 0.500000
O O13 0.136262 0.250000 0.646496
O O14 0.750000 0.431683 0.805082
O O15 0.683166 0.250000 0.760227
O O16 0.671564 0.458950 0.899173
O O17 0.034434 0.750000 0.172500
O O18 0.052579 0.486790 0.121041
O O19 0.970961 0.587940 0.085460
O O20 0.079824 0.250000 0.040646
O O21 0.110365 0.013175 0.954074
O O22 0.632295 0.250000 0.008026
#
# Coordination Sequence:
#
# PCOD8243200 Si02
#       8
#     8   8   8   8   8   8   8   8
#     4  10  21  36  56  84 116 149 185 224 266 320
#     4   9  18  33  53  77 106 139 175 219 271 323
#     4  10  22  39  58  80 109 145 184 229 281 336
#     4  10  21  38  58  80 109 144 181 225 279 332
#     4   9  18  33  52  72  98 136 176 211 251 302
#     4   9  19  37  56  76 106 139 172 215 268 320
#     4  10  20  34  56  82 105 135 176 219 261 312
#     4  10  20  34  52  77 111 144 173 212 264 314
#
# _framework density 19.087975
#
# number of rings (size 3 to 8) (size 9 to 14) (size 15 to 20)
#    0.000    2.375    0.000    1.875    0.000    7.250 
#    0.000    3.750    0.000    2.250    0.000    0.000 
#    0.000    0.000    0.000    0.000    0.000    0.000 
#
# Total GULP energy -793598.657535 kJ/mol
# GULP energy per Si atom -12399.979024 kJ/mol
# Density = 1.904453 g / cm^3
# Si number density = 19.087975 Si / 1000 Ang^3
#
#
#
# Elastic Constant Matrix: (Units=GPa)
#
#
# Indices 1 2 3 4 5 6 
#
# 1 85.5089 40.2858 42.6232 0.0000 0.0000 0.0000
# 2 40.2858 76.8620 52.2433 0.0000 0.0000 0.0000
# 3 42.6232 52.2433 108.2420 0.0000 0.0000 0.0000
# 4 0.0000 0.0000 0.0000 31.4782 0.0000 0.0000
# 5 0.0000 0.0000 0.0000 0.0000 24.2300 0.0000
# 6 0.0000 0.0000 0.0000 0.0000 0.0000 29.9936
#
#
#
# Elastic Compliance Matrix: (Units=1/GPa)
#
#
# Indices 1 2 3 4 5 6 
#
# 1 0.016340 -0.006237 -0.003424 0.000000 0.000000 0.000000
# 2 -0.006237 0.021743 -0.008038 0.000000 0.000000 0.000000
# 3 -0.003424 -0.008038 0.014467 0.000000 0.000000 0.000000
# 4 0.000000 0.000000 0.000000 0.031768 0.000000 0.000000
# 5 0.000000 0.000000 0.000000 0.000000 0.041271 0.000000
# 6 0.000000 0.000000 0.000000 0.000000 0.000000 0.033340
#
#
# Mechanical properties :
#
#
# Convention : Reuss Voigt Hill
#
# Bulk Modulus (GPa) = 58.30607 60.10193 59.20400
# Shear Modulus (GPa) = 24.99443 26.17105 25.58274
#
# Velocity S-wave (km/s) = 3.62253 3.70682 3.66492
# Velocity P-wave (km/s) = 6.93609 7.06228 6.99947
#
# Compressibility (1/GPa) = 0.01715087
#
# Stress axis : x y z
#
# Youngs Moduli (GPa) = 61.20014 45.99182 69.12485
#
# Poissons Ratio (x) = 0.28685 0.23668
# Poissons Ratio (y) = 0.38170 0.55565
# Poissons Ratio (z) = 0.20955 0.36970
#
# Static dielectric constant tensor:
#      x y z
#    x 3.482420 0.000000 0.000000 
#    y 0.000000 3.531550 0.000000 
#    z 0.000000 0.000000 3.540040 
# 
# 
# High freq. dielectric constant tensor:
#      x y z
#    x 1.739890 0.000000 0.000000 
#    y 0.000000 1.738330 0.000000 
#    z 0.000000 0.000000 1.745750 
# 
# From -- ./inp_files/19297.got.cif
#   From: 2010.03.12/outbox.cif.g09.slc.cpg/sg59_10_cif.got.tgz:19297.got - 2010.04.16 16:29:54.
