data_PCOD8243948
_publ_section_title
;
Structure prediction by ZEFSAII (Michael W. Deem and Ramdas Pophale) SiO2 
 PCOD8243948
Probable space group: P M M N
;
_chemical_formula_sum "Si O2"
_cell_formula_units_Z 48
_cell_length_a 9.760778
_cell_length_b 8.498379
_cell_length_c 28.889666
_cell_angle_alpha 90.000000
_cell_angle_beta 90.000000
_cell_angle_gamma 90.000000
_cell_volume 2396.420640
_symmetry_space_group_name_H-M "P M M N"
_symmetry_group_IT_number 59
_space_group.IT_coordinate_system_code '2'
_symmetry_cell_setting 'orthorhombic'
loop_
_space_group_symop_operation_xyz
x,y,z
1/2-x,1/2-y,z
1/2+x,-y,-z
-x,1/2+y,-z
-x,-y,-z
1/2+x,1/2+y,-z
1/2-x,y,z
x,1/2-y,z
loop_
_atom_site_type_symbol
_atom_site_label
_atom_site_fract_x
_atom_site_fract_y
_atom_site_fract_z
Si Si1 0.904095 0.430537 0.806106
Si Si2 0.250000 0.065884 0.930727
Si Si3 0.532092 0.567633 0.902646
Si Si4 0.594576 0.562609 0.277010
Si Si5 0.250000 0.568525 0.030660
Si Si6 0.095982 0.937217 0.358187
Si Si7 0.097293 0.564335 0.461015
O O1 0.750000 0.444118 0.785627
O O2 0.936415 0.250000 0.819604
O O3 0.913735 0.537557 0.851285
O O4 0.012643 0.493484 0.768479
O O5 0.250000 0.250000 0.919979
O O6 0.123613 0.984004 0.905756
O O7 0.250000 0.039039 0.985469
O O8 0.551201 0.750000 0.914893
O O9 0.615483 0.465916 0.939661
O O10 0.750000 0.495919 0.276042
O O11 0.596731 0.750000 0.278975
O O12 0.514059 0.494161 0.321696
O O13 0.250000 0.750000 0.015342
O O14 0.250000 0.998599 0.346929
O O15 0.097103 0.750000 0.355427
O O16 0.051413 0.992617 0.409723
O O17 0.250000 0.501704 0.471105
O O18 0.094339 0.750000 0.462633
O O19 0.000000 0.500000 0.500000
#
# Coordination Sequence:
#
# PCOD8243948 Si02
#       7
#     8   4   8   8   4   8   8
#     4  10  20  35  56  81 111 148 188 229 279 338
#     4  12  26  44  66  92 124 160 196 242 293 344
#     4  12  25  42  63  91 123 159 199 241 289 344
#     4   9  17  28  47  78 109 138 178 232 285 336
#     4  12  24  44  68  94 124 158 200 242 287 344
#     4   8  14  27  46  69 102 141 181 228 283 339
#     4   9  18  31  48  73 105 143 187 236 286 340
#
# _framework density 20.029872999999998
#
# number of rings (size 3 to 8) (size 9 to 14) (size 15 to 20)
#    0.000    2.000    0.833    5.000    1.167    3.000 
#    0.000    1.667    0.000    1.000    0.000    2.333 
#    0.000    0.000    0.000    0.000    0.000    0.000 
#
# Total GULP energy -595199.478213 kJ/mol
# GULP energy per Si atom -12399.989129 kJ/mol
# Density = 1.998428 g / cm^3
# Si number density = 20.029873 Si / 1000 Ang^3
#
#
#
# Elastic Constant Matrix: (Units=GPa)
#
#
# Indices 1 2 3 4 5 6 
#
# 1 138.3304 13.2827 58.9554 0.0000 0.0000 0.0000
# 2 13.2827 45.1482 10.8836 0.0000 0.0000 0.0000
# 3 58.9554 10.8836 118.7949 0.0000 0.0000 0.0000
# 4 0.0000 0.0000 0.0000 24.4979 0.0000 0.0000
# 5 0.0000 0.0000 0.0000 0.0000 41.2479 0.0000
# 6 0.0000 0.0000 0.0000 0.0000 0.0000 21.3302
#
#
#
# Elastic Compliance Matrix: (Units=1/GPa)
#
#
# Indices 1 2 3 4 5 6 
#
# 1 0.009288 -0.001658 -0.004458 0.000000 0.000000 0.000000
# 2 -0.001658 0.022945 -0.001279 0.000000 0.000000 0.000000
# 3 -0.004458 -0.001279 0.010747 0.000000 0.000000 0.000000
# 4 0.000000 0.000000 0.000000 0.040820 0.000000 0.000000
# 5 0.000000 0.000000 0.000000 0.000000 0.024244 0.000000
# 6 0.000000 0.000000 0.000000 0.000000 0.000000 0.046882
#
#
# Mechanical properties :
#
#
# Convention : Reuss Voigt Hill
#
# Bulk Modulus (GPa) = 35.47236 52.05742 43.76489
# Shear Modulus (GPa) = 27.91532 32.02531 29.97031
#
# Velocity S-wave (km/s) = 3.73726 4.00293 3.87238
# Velocity P-wave (km/s) = 6.03084 6.88556 6.47232
#
# Compressibility (1/GPa) = 0.02819096
#
# Stress axis : x y z
#
# Youngs Moduli (GPa) = 107.66522 43.58155 93.04681
#
# Poissons Ratio (x) = 0.07226 0.41476
# Poissons Ratio (y) = 0.17851 0.11904
# Poissons Ratio (z) = 0.47992 0.05576
#
# Static dielectric constant tensor:
#      x y z
#    x 3.717540 0.000000 0.000000 
#    y 0.000000 3.401750 0.000000 
#    z 0.000000 0.000000 3.478440 
# 
# 
# High freq. dielectric constant tensor:
#      x y z
#    x 1.793230 0.000000 0.000000 
#    y 0.000000 1.741690 0.000000 
#    z 0.000000 0.000000 1.788960 
# 
# From -- ./inp_files/33055.got.cif
#   From: 2010.03.12/outbox.cif.g09.slc.cpg/sg59_17_cif.got.tgz:33055.got - 2010.04.16 16:29:54.
