data_PCOD8243002
_publ_section_title
;
Structure prediction by ZEFSAII (Michael W. Deem and Ramdas Pophale) SiO2 
 PCOD8243002
Probable space group: P M M N
;
_chemical_formula_sum "Si O2"
_cell_formula_units_Z 64
_cell_length_a 19.001589
_cell_length_b 8.371314
_cell_length_c 19.956332
_cell_angle_alpha 90.000000
_cell_angle_beta 90.000000
_cell_angle_gamma 90.000000
_cell_volume 3174.419167
_symmetry_space_group_name_H-M "P M M N"
_symmetry_group_IT_number 59
_space_group.IT_coordinate_system_code '2'
_symmetry_cell_setting 'orthorhombic'
loop_
_space_group_symop_operation_xyz
x,y,z
1/2-x,1/2-y,z
1/2+x,-y,-z
-x,1/2+y,-z
-x,-y,-z
1/2+x,1/2+y,-z
1/2-x,y,z
x,1/2-y,z
loop_
_atom_site_type_symbol
_atom_site_label
_atom_site_fract_x
_atom_site_fract_y
_atom_site_fract_z
Si Si1 0.908060 0.562520 0.598931
Si Si2 0.913369 0.565130 0.842032
Si Si3 0.828428 0.939887 0.967420
Si Si4 0.329813 0.566043 0.275061
Si Si5 0.554634 0.563594 0.214917
Si Si6 0.946452 0.560180 0.365850
Si Si7 0.828808 0.560953 0.466648
Si Si8 0.171275 0.440284 0.883552
O O1 0.895908 0.750000 0.609357
O O2 0.878483 0.466520 0.661672
O O3 0.868199 0.498384 0.533054
O O4 0.990632 0.523310 0.593206
O O5 0.934224 0.750000 0.847081
O O6 0.884117 0.496569 0.912681
O O7 0.852860 0.543594 0.786777
O O8 0.981342 0.464906 0.821958
O O9 0.750000 0.005303 0.951118
O O10 0.826558 0.750000 0.963969
O O11 0.850956 0.997968 0.041757
O O12 0.250000 0.522568 0.293941
O O13 0.338451 0.750000 0.254031
O O14 0.568364 0.750000 0.221176
O O15 0.555123 0.491608 0.289918
O O16 0.617332 0.485903 0.170657
O O17 0.957815 0.750000 0.367944
O O18 0.873516 0.509590 0.401442
O O19 0.750000 0.487254 0.461994
O O20 0.823789 0.750000 0.470195
O O21 0.250000 0.500708 0.866441
O O22 0.169193 0.250000 0.881778
#
# Coordination Sequence:
#
# PCOD8243002 Si02
#       8
#     8   8   8   8   8   8   8   8
#     4  11  21  35  57  81 107 143 181 220 263 317
#     4  11  21  33  52  77 107 144 182 218 261 319
#     4   8  15  29  49  74 104 137 178 226 268 308
#     4  11  23  37  54  78 109 142 176 219 269 317
#     4  10  20  33  52  79 110 141 177 222 268 315
#     4  10  20  35  55  78 110 147 179 220 271 319
#     4   9  19  35  55  81 109 138 180 230 271 311
#     4   8  15  30  52  77 104 137 180 227 270 314
#
# _framework density 20.161166999999999
#
# number of rings (size 3 to 8) (size 9 to 14) (size 15 to 20)
#    0.000    2.250    1.250    3.000    0.000    3.000 
#    0.000    3.125    0.000    3.000    0.000    5.250 
#    0.000    0.000    0.000    0.000    0.000    0.000 
#
# Total GULP energy -793544.031661 kJ/mol
# GULP energy per Si atom -12399.125495 kJ/mol
# Density = 2.011528 g / cm^3
# Si number density = 20.161167 Si / 1000 Ang^3
#
#
#
# Elastic Constant Matrix: (Units=GPa)
#
#
# Indices 1 2 3 4 5 6 
#
# 1 150.0893 7.6391 88.3887 0.0000 0.0000 0.0000
# 2 7.6391 15.0837 8.3579 0.0000 0.0000 0.0000
# 3 88.3887 8.3579 137.9867 0.0000 0.0000 0.0000
# 4 0.0000 0.0000 0.0000 13.9370 0.0000 0.0000
# 5 0.0000 0.0000 0.0000 0.0000 44.2548 0.0000
# 6 0.0000 0.0000 0.0000 0.0000 0.0000 20.9578
#
#
#
# Elastic Compliance Matrix: (Units=1/GPa)
#
#
# Indices 1 2 3 4 5 6 
#
# 1 0.010740 -0.001684 -0.006777 0.000000 0.000000 0.000000
# 2 -0.001684 0.068863 -0.003092 0.000000 0.000000 0.000000
# 3 -0.006777 -0.003092 0.011776 0.000000 0.000000 0.000000
# 4 0.000000 0.000000 0.000000 0.071751 0.000000 0.000000
# 5 0.000000 0.000000 0.000000 0.000000 0.022596 0.000000
# 6 0.000000 0.000000 0.000000 0.000000 0.000000 0.047715
#
#
# Mechanical properties :
#
#
# Convention : Reuss Voigt Hill
#
# Bulk Modulus (GPa) = 14.64748 56.88124 35.76436
# Shear Modulus (GPa) = 17.90155 29.08152 23.49154
#
# Velocity S-wave (km/s) = 2.98304 3.80208 3.41719
# Velocity P-wave (km/s) = 4.37557 6.89558 5.77471
#
# Compressibility (1/GPa) = 0.06827111
#
# Stress axis : x y z
#
# Youngs Moduli (GPa) = 93.11274 14.52158 84.92043
#
# Poissons Ratio (x) = 0.02445 0.57554
# Poissons Ratio (y) = 0.15678 0.26262
# Poissons Ratio (z) = 0.63106 0.04491
#
# Static dielectric constant tensor:
#      x y z
#    x 3.875920 0.000000 0.000000 
#    y 0.000000 3.173350 0.000000 
#    z 0.000000 0.000000 3.988500 
# 
# 
# High freq. dielectric constant tensor:
#      x y z
#    x 1.793740 0.000000 0.000000 
#    y 0.000000 1.743440 0.000000 
#    z 0.000000 0.000000 1.796110 
# 
# From -- ./inp_files/28305.got.cif
#   From: 2010.03.12/outbox.cif.g09.slc.cpg/sg59_15_cif.got.tgz:28305.got - 2010.04.16 16:29:54.
