data_PCOD8243990
_publ_section_title
;
Structure prediction by ZEFSAII (Michael W. Deem and Ramdas Pophale) SiO2 
 PCOD8243990
Probable space group: P M M N
;
_chemical_formula_sum "Si O2"
_cell_formula_units_Z 48
_cell_length_a 9.045529
_cell_length_b 34.238349
_cell_length_c 7.888950
_cell_angle_alpha 90.000000
_cell_angle_beta 90.000000
_cell_angle_gamma 90.000000
_cell_volume 2443.239203
_symmetry_space_group_name_H-M "P M M N"
_symmetry_group_IT_number 59
_space_group.IT_coordinate_system_code '2'
_symmetry_cell_setting 'orthorhombic'
loop_
_space_group_symop_operation_xyz
x,y,z
1/2-x,1/2-y,z
1/2+x,-y,-z
-x,1/2+y,-z
-x,-y,-z
1/2+x,1/2+y,-z
1/2-x,y,z
x,1/2-y,z
loop_
_atom_site_type_symbol
_atom_site_label
_atom_site_fract_x
_atom_site_fract_y
_atom_site_fract_z
Si Si1 0.916626 0.336779 0.307447
Si Si2 0.077546 0.001333 0.826138
Si Si3 0.921734 0.582986 0.314398
Si Si4 0.919933 0.704088 0.997855
Si Si5 0.424880 0.839849 0.295270
Si Si6 0.916964 0.422272 0.356564
O O1 0.750000 0.320367 0.290403
O O2 0.967296 0.331801 0.506243
O O3 0.918703 0.382371 0.247373
O O4 0.020334 0.313793 0.178094
O O5 0.250000 0.004359 0.851883
O O6 0.033128 0.961212 0.737104
O O7 0.017809 0.040250 0.736057
O O8 0.000000 0.000000 0.000000
O O9 0.750000 0.588699 0.273075
O O10 0.012693 0.618326 0.229162
O O11 0.953225 0.585026 0.511872
O O12 0.750000 0.691258 0.018767
O O13 0.936915 0.750000 0.979751
O O14 0.007509 0.692029 0.168166
O O15 0.250000 0.840344 0.274208
O O16 0.750000 0.427219 0.433911
#
# Coordination Sequence:
#
# PCOD8243990 Si02
#       6
#     8   8   8   8   8   8
#     4   9  20  39  63  90 118 154 201 246 293 349
#     4  10  22  35  50  79 116 152 195 240 287 341
#     4  10  20  35  56  84 114 149 194 242 292 345
#     4  11  25  42  62  91 125 157 190 239 302 361
#     4  10  22  41  65  90 119 159 203 247 295 352
#     4   9  19  37  57  80 111 151 196 240 289 345
#
# _framework density 19.646051
#
# number of rings (size 3 to 8) (size 9 to 14) (size 15 to 20)
#    0.000    2.167    0.000    3.000    2.333    7.333 
#    0.000    3.333    0.000    0.000    0.000    0.000 
#    0.000    0.000    0.000    0.000    0.000    0.000 
#
# Total GULP energy -594734.124899 kJ/mol
# GULP energy per Si atom -12390.294269 kJ/mol
# Density = 1.960134 g / cm^3
# Si number density = 19.646051 Si / 1000 Ang^3
#
#
#
# Elastic Constant Matrix: (Units=GPa)
#
#
# Indices 1 2 3 4 5 6 
#
# 1 70.4476 46.7937 42.0798 0.0000 0.0000 0.0000
# 2 46.7937 114.9895 48.8040 0.0000 0.0000 0.0000
# 3 42.0798 48.8040 88.1476 0.0000 0.0000 0.0000
# 4 0.0000 0.0000 0.0000 30.9739 0.0000 0.0000
# 5 0.0000 0.0000 0.0000 0.0000 34.8994 0.0000
# 6 0.0000 0.0000 0.0000 0.0000 0.0000 31.2632
#
#
#
# Elastic Compliance Matrix: (Units=1/GPa)
#
#
# Indices 1 2 3 4 5 6 
#
# 1 0.022684 -0.006059 -0.007474 0.000000 0.000000 0.000000
# 2 -0.006059 0.012986 -0.004298 0.000000 0.000000 0.000000
# 3 -0.007474 -0.004298 0.017292 0.000000 0.000000 0.000000
# 4 0.000000 0.000000 0.000000 0.032285 0.000000 0.000000
# 5 0.000000 0.000000 0.000000 0.000000 0.028654 0.000000
# 6 0.000000 0.000000 0.000000 0.000000 0.000000 0.031987
#
#
# Mechanical properties :
#
#
# Convention : Reuss Voigt Hill
#
# Bulk Modulus (GPa) = 57.80086 60.99331 59.39708
# Shear Modulus (GPa) = 26.69293 28.48777 27.59035
#
# Velocity S-wave (km/s) = 3.69004 3.81208 3.75156
# Velocity P-wave (km/s) = 6.90219 7.10559 7.00463
#
# Compressibility (1/GPa) = 0.01730078
#
# Stress axis : x y z
#
# Youngs Moduli (GPa) = 44.08411 77.00645 57.82995
#
# Poissons Ratio (x) = 0.46656 0.43224
# Poissons Ratio (y) = 0.26709 0.24853
# Poissons Ratio (z) = 0.32950 0.33094
#
# Static dielectric constant tensor:
#      x y z
#    x 3.463270 0.000000 0.000000 
#    y 0.000000 3.713640 0.000000 
#    z 0.000000 0.000000 3.442510 
# 
# 
# High freq. dielectric constant tensor:
#      x y z
#    x 1.766980 0.000000 0.000000 
#    y 0.000000 1.778810 0.000000 
#    z 0.000000 0.000000 1.752640 
# 
# From -- ./inp_files/6337.got.cif
#   From: 2010.03.12/outbox.cif.g09.slc.cpg/sg59_4_cif.got.tgz:6337.got - 2010.04.16 16:29:54.
