data_PCOD8243117
_publ_section_title
;
Structure prediction by ZEFSAII (Michael W. Deem and Ramdas Pophale) SiO2 
 PCOD8243117
Probable space group: P M M N
;
_chemical_formula_sum "Si O2"
_cell_formula_units_Z 64
_cell_length_a 9.023167
_cell_length_b 14.973731
_cell_length_c 23.251114
_cell_angle_alpha 90.000000
_cell_angle_beta 90.000000
_cell_angle_gamma 90.000000
_cell_volume 3141.469067
_symmetry_space_group_name_H-M "P M M N"
_symmetry_group_IT_number 59
_space_group.IT_coordinate_system_code '2'
_symmetry_cell_setting 'orthorhombic'
loop_
_space_group_symop_operation_xyz
x,y,z
1/2-x,1/2-y,z
1/2+x,-y,-z
-x,1/2+y,-z
-x,-y,-z
1/2+x,1/2+y,-z
1/2-x,y,z
x,1/2-y,z
loop_
_atom_site_type_symbol
_atom_site_label
_atom_site_fract_x
_atom_site_fract_y
_atom_site_fract_z
Si Si1 0.577949 0.351597 0.631491
Si Si2 0.583387 0.917673 0.924506
Si Si3 0.422376 0.855566 0.597688
Si Si4 0.584738 0.118533 0.968141
Si Si5 0.425556 0.969937 0.812263
Si Si6 0.917265 0.844979 0.141243
Si Si7 0.915931 0.644273 0.483762
Si Si8 0.423813 0.028926 0.305596
O O1 0.750000 0.353329 0.614520
O O2 0.532482 0.250000 0.650498
O O3 0.487310 0.385618 0.576301
O O4 0.543503 0.423764 0.681442
O O5 0.750000 0.882409 0.913610
O O6 0.585374 0.015509 0.951125
O O7 0.493163 0.912929 0.864718
O O8 0.501316 0.858587 0.972665
O O9 0.250000 0.880357 0.602005
O O10 0.448113 0.750000 0.605616
O O11 0.483430 0.890252 0.536312
O O12 0.514068 0.907145 0.645533
O O13 0.750000 0.154746 0.976537
O O14 0.509613 0.170668 0.916296
O O15 0.250000 0.955201 0.810298
O O16 0.474045 0.073896 0.819631
O O17 0.496460 0.939706 0.752620
O O18 0.750000 0.867747 0.122201
O O19 0.926234 0.750000 0.175416
O O20 0.750000 0.604250 0.488596
O O21 0.910290 0.750000 0.485861
O O22 0.250000 0.045836 0.299207
#
# Coordination Sequence:
#
# PCOD8243117 Si02
#       8
#     8   8   8   8   8   8   8   8
#     4   9  19  36  55  77 110 150 187 223 266 319
#     4   9  16  28  47  69  94 124 159 202 251 302
#     4  10  21  38  60  83 107 137 174 221 278 335
#     4   9  16  26  44  71  97 122 157 201 250 301
#     4  10  20  34  51  72 101 137 179 223 262 309
#     4   9  18  32  49  71 102 140 178 216 260 309
#     4   9  17  31  54  83 111 139 175 221 273 328
#     4  11  23  37  55  80 109 144 187 231 273 321
#
# _framework density 20.372633
#
# number of rings (size 3 to 8) (size 9 to 14) (size 15 to 20)
#    0.000    2.500    0.000    2.250    0.000    8.000 
#    0.000    0.000    0.000    0.750    0.000    0.000 
#    0.000    0.000    0.000    0.000    0.000    0.000 
#
# Total GULP energy -793329.644892 kJ/mol
# GULP energy per Si atom -12395.775701 kJ/mol
# Density = 2.032626 g / cm^3
# Si number density = 20.372633 Si / 1000 Ang^3
#
#
#
# Elastic Constant Matrix: (Units=GPa)
#
#
# Indices 1 2 3 4 5 6 
#
# 1 118.2043 10.1197 48.6872 0.0000 0.0000 0.0000
# 2 10.1197 25.1371 1.0509 0.0000 0.0000 0.0000
# 3 48.6872 1.0509 105.2897 0.0000 0.0000 0.0000
# 4 0.0000 0.0000 0.0000 10.8070 0.0000 0.0000
# 5 0.0000 0.0000 0.0000 0.0000 37.3412 0.0000
# 6 0.0000 0.0000 0.0000 0.0000 0.0000 16.8120
#
#
#
# Elastic Compliance Matrix: (Units=1/GPa)
#
#
# Indices 1 2 3 4 5 6 
#
# 1 0.010870 -0.004168 -0.004985 0.000000 0.000000 0.000000
# 2 -0.004168 0.041396 0.001514 0.000000 0.000000 0.000000
# 3 -0.004985 0.001514 0.011788 0.000000 0.000000 0.000000
# 4 0.000000 0.000000 0.000000 0.092532 0.000000 0.000000
# 5 0.000000 0.000000 0.000000 0.000000 0.026780 0.000000
# 6 0.000000 0.000000 0.000000 0.000000 0.000000 0.059481
#
#
# Mechanical properties :
#
#
# Convention : Reuss Voigt Hill
#
# Bulk Modulus (GPa) = 20.50146 40.92739 30.71442
# Shear Modulus (GPa) = 18.22266 25.57692 21.89979
#
# Velocity S-wave (km/s) = 2.99401 3.54708 3.28222
# Velocity P-wave (km/s) = 4.69438 6.07526 5.42890
#
# Compressibility (1/GPa) = 0.04877701
#
# Stress axis : x y z
#
# Youngs Moduli (GPa) = 91.99712 24.15669 84.83555
#
# Poissons Ratio (x) = 0.10068 0.42289
# Poissons Ratio (y) = 0.38341 -0.12844
# Poissons Ratio (z) = 0.45858 -0.03657
#
# Static dielectric constant tensor:
#      x y z
#    x 3.895270 0.000000 0.000000 
#    y 0.000000 3.466180 0.000000 
#    z 0.000000 0.000000 3.570730 
# 
# 
# High freq. dielectric constant tensor:
#      x y z
#    x 1.806590 0.000000 0.000000 
#    y 0.000000 1.774490 0.000000 
#    z 0.000000 0.000000 1.784800 
# 
# From -- ./inp_files/29449.got.cif
#   From: 2010.03.12/outbox.cif.g09.slc.cpg/sg59_15_cif.got.tgz:29449.got - 2010.04.16 16:29:54.
