data_PCOD8243905
_publ_section_title
;
Structure prediction by ZEFSAII (Michael W. Deem and Ramdas Pophale) SiO2 
 PCOD8243905
Probable space group: P M M N
;
_chemical_formula_sum "Si O2"
_cell_formula_units_Z 64
_cell_length_a 13.922022
_cell_length_b 23.952057
_cell_length_c 9.797017
_cell_angle_alpha 90.000000
_cell_angle_beta 90.000000
_cell_angle_gamma 90.000000
_cell_volume 3266.923718
_symmetry_space_group_name_H-M "P M M N"
_symmetry_group_IT_number 59
_space_group.IT_coordinate_system_code '2'
_symmetry_cell_setting 'orthorhombic'
loop_
_space_group_symop_operation_xyz
x,y,z
1/2-x,1/2-y,z
1/2+x,-y,-z
-x,1/2+y,-z
-x,-y,-z
1/2+x,1/2+y,-z
1/2-x,y,z
x,1/2-y,z
loop_
_atom_site_type_symbol
_atom_site_label
_atom_site_fract_x
_atom_site_fract_y
_atom_site_fract_z
Si Si1 0.011123 0.313241 0.078917
Si Si2 0.638319 0.903149 0.292850
Si Si3 0.851461 0.312569 0.277448
Si Si4 0.990881 0.312470 0.774723
Si Si5 0.979631 0.561577 0.542934
Si Si6 0.456312 0.429940 0.141822
Si Si7 0.859217 0.139388 0.552047
Si Si8 0.362244 0.999041 0.920250
O O1 0.053132 0.250000 0.114276
O O2 0.079722 0.367889 0.087050
O O3 0.938397 0.338147 0.193247
O O4 0.959894 0.309766 0.932806
O O5 0.750000 0.890146 0.296137
O O6 0.588321 0.847586 0.234812
O O7 0.601612 0.912028 0.446551
O O8 0.613976 0.956451 0.199319
O O9 0.750000 0.343815 0.245684
O O10 0.844593 0.250000 0.223304
O O11 0.866873 0.311218 0.440739
O O12 0.010092 0.250000 0.718954
O O13 0.904040 0.341216 0.694404
O O14 0.082923 0.589901 0.520090
O O15 0.000000 0.500000 0.500000
O O16 0.940820 0.566078 0.696334
O O17 0.567537 0.445906 0.103240
O O18 0.385522 0.473741 0.067561
O O19 0.750000 0.120448 0.580691
O O20 0.250000 0.980782 0.916252
#
# Coordination Sequence:
#
# PCOD8243905 Si02
#       8
#     8   8   8   8   8   8   8   8
#     4  10  20  35  55  83 113 149 190 235 290 346
#     4  10  21  39  59  84 115 147 195 244 288 344
#     4   9  17  30  49  76 108 144 186 224 270 336
#     4  10  21  37  58  83 115 151 190 238 295 350
#     4  11  22  37  57  86 117 152 195 245 299 347
#     4  11  21  39  62  85 121 154 193 247 295 352
#     4  10  21  35  55  82 114 153 192 235 287 350
#     4  10  22  38  62  88 116 154 195 239 294 351
#
# _framework density 19.590295999999999
#
# number of rings (size 3 to 8) (size 9 to 14) (size 15 to 20)
#    0.000    1.875    3.750    0.375    0.000    3.500 
#    0.000    2.500    0.000    0.375    0.000    0.000 
#    0.000    0.000    0.000    0.000    0.000    0.000 
#
# Total GULP energy -792903.131960 kJ/mol
# GULP energy per Si atom -12389.111437 kJ/mol
# Density = 1.954571 g / cm^3
# Si number density = 19.590296 Si / 1000 Ang^3
#
#
#
# Elastic Constant Matrix: (Units=GPa)
#
#
# Indices 1 2 3 4 5 6 
#
# 1 86.9395 14.0622 20.6443 0.0000 0.0000 0.0000
# 2 14.0622 95.4852 17.5767 0.0000 0.0000 0.0000
# 3 20.6443 17.5767 110.9205 0.0000 0.0000 0.0000
# 4 0.0000 0.0000 0.0000 26.9401 0.0000 0.0000
# 5 0.0000 0.0000 0.0000 0.0000 18.0366 0.0000
# 6 0.0000 0.0000 0.0000 0.0000 0.0000 17.3952
#
#
#
# Elastic Compliance Matrix: (Units=1/GPa)
#
#
# Indices 1 2 3 4 5 6 
#
# 1 0.012219 -0.001422 -0.002049 0.000000 0.000000 0.000000
# 2 -0.001422 0.010953 -0.001471 0.000000 0.000000 0.000000
# 3 -0.002049 -0.001471 0.009630 0.000000 0.000000 0.000000
# 4 0.000000 0.000000 0.000000 0.037119 0.000000 0.000000
# 5 0.000000 0.000000 0.000000 0.000000 0.055443 0.000000
# 6 0.000000 0.000000 0.000000 0.000000 0.000000 0.057487
#
#
# Mechanical properties :
#
#
# Convention : Reuss Voigt Hill
#
# Bulk Modulus (GPa) = 43.63443 44.21241 43.92342
# Shear Modulus (GPa) = 24.95331 28.54519 26.74925
#
# Velocity S-wave (km/s) = 3.57285 3.82135 3.69919
# Velocity P-wave (km/s) = 6.27233 6.48751 6.38083
#
# Compressibility (1/GPa) = 0.02291768
#
# Stress axis : x y z
#
# Youngs Moduli (GPa) = 81.84111 91.29863 103.84364
#
# Poissons Ratio (x) = 0.12986 0.21275
# Poissons Ratio (y) = 0.11641 0.15275
# Poissons Ratio (z) = 0.16767 0.13429
#
# Static dielectric constant tensor:
#      x y z
#    x 3.561180 0.000000 0.000000 
#    y 0.000000 3.641110 0.000000 
#    z 0.000000 0.000000 3.380100 
# 
# 
# High freq. dielectric constant tensor:
#      x y z
#    x 1.733630 0.000000 0.000000 
#    y 0.000000 1.771550 0.000000 
#    z 0.000000 0.000000 1.775330 
# 
# From -- ./inp_files/9563.got.cif
#   From: 2010.03.12/outbox.cif.g09.slc.cpg/sg59_5_cif.got.tgz:9563.got - 2010.04.16 16:29:54.
