data_PCOD8243770
_publ_section_title
;
Structure prediction by ZEFSAII (Michael W. Deem and Ramdas Pophale) SiO2 
 PCOD8243770
Probable space group: P M M N
;
_chemical_formula_sum "Si O2"
_cell_formula_units_Z 56
_cell_length_a 15.565913
_cell_length_b 8.696841
_cell_length_c 21.927135
_cell_angle_alpha 90.000000
_cell_angle_beta 90.000000
_cell_angle_gamma 90.000000
_cell_volume 2968.369902
_symmetry_space_group_name_H-M "P M M N"
_symmetry_group_IT_number 59
_space_group.IT_coordinate_system_code '2'
_symmetry_cell_setting 'orthorhombic'
loop_
_space_group_symop_operation_xyz
x,y,z
1/2-x,1/2-y,z
1/2+x,-y,-z
-x,1/2+y,-z
-x,-y,-z
1/2+x,1/2+y,-z
1/2-x,y,z
x,1/2-y,z
loop_
_atom_site_type_symbol
_atom_site_label
_atom_site_fract_x
_atom_site_fract_y
_atom_site_fract_z
Si Si1 0.750000 0.582777 0.314675
Si Si2 0.906375 0.430884 0.999701
Si Si3 0.344141 0.932466 0.870975
Si Si4 0.502404 0.932382 0.791519
Si Si5 0.653640 0.926354 0.878313
Si Si6 0.250000 0.420387 0.541187
Si Si7 0.929252 0.432616 0.455507
Si Si8 0.566287 0.566025 0.323564
O O1 0.750000 0.750000 0.283386
O O2 0.750000 0.599933 0.387081
O O3 0.659513 0.500425 0.298373
O O4 0.915105 0.250000 0.001050
O O5 0.857173 0.490912 0.059832
O O6 0.853718 0.479114 0.940349
O O7 0.000000 0.500000 0.000000
O O8 0.250000 0.989868 0.847964
O O9 0.348314 0.750000 0.869931
O O10 0.419645 0.997057 0.828153
O O11 0.500041 0.750000 0.783061
O O12 0.587629 0.986781 0.827174
O O13 0.504655 0.012437 0.725227
O O14 0.750000 0.945565 0.852422
O O15 0.631746 0.750000 0.893709
O O16 0.250000 0.250000 0.510776
O O17 0.335627 0.511823 0.521483
O O18 0.931306 0.250000 0.456339
O O19 0.954133 0.491822 0.388346
O O20 0.000000 0.500000 0.500000
O O21 0.568823 0.750000 0.330725
#
# Coordination Sequence:
#
# PCOD8243770 Si02
#       8
#     4   8   8   8   8   4   8   8
#     4   7  14  29  49  73 107 143 173 210 263 320
#     4  11  20  34  55  78 106 138 178 227 278 332
#     4   9  18  32  50  74 105 138 170 214 271 331
#     4  10  20  35  53  76 106 140 179 223 273 336
#     4  10  21  38  58  78 103 140 186 234 281 333
#     4   9  17  33  55  85 121 153 189 236 279 330
#     4  11  21  36  60  89 119 156 196 238 287 344
#     4  10  20  35  54  80 113 148 185 231 279 333
#
# _framework density 18.865573000000001
#
# number of rings (size 3 to 8) (size 9 to 14) (size 15 to 20)
#    0.000    2.143    1.429    3.643    1.000    1.429 
#    0.000    0.714    1.571    1.714    0.000    0.000 
#    0.000    0.000    0.000    0.000    0.000    0.000 
#
# Total GULP energy -694156.282834 kJ/mol
# GULP energy per Si atom -12395.647908 kJ/mol
# Density = 1.882263 g / cm^3
# Si number density = 18.865573 Si / 1000 Ang^3
#
#
#
# Elastic Constant Matrix: (Units=GPa)
#
#
# Indices 1 2 3 4 5 6 
#
# 1 134.8304 35.4019 60.5265 0.0000 0.0000 0.0000
# 2 35.4019 82.1917 37.7264 0.0000 0.0000 0.0000
# 3 60.5265 37.7264 104.6446 0.0000 0.0000 0.0000
# 4 0.0000 0.0000 0.0000 28.1844 0.0000 0.0000
# 5 0.0000 0.0000 0.0000 0.0000 28.9328 0.0000
# 6 0.0000 0.0000 0.0000 0.0000 0.0000 22.0310
#
#
#
# Elastic Compliance Matrix: (Units=1/GPa)
#
#
# Indices 1 2 3 4 5 6 
#
# 1 0.010295 -0.002038 -0.005220 0.000000 0.000000 0.000000
# 2 -0.002038 0.014983 -0.004223 0.000000 0.000000 0.000000
# 3 -0.005220 -0.004223 0.014098 0.000000 0.000000 0.000000
# 4 0.000000 0.000000 0.000000 0.035481 0.000000 0.000000
# 5 0.000000 0.000000 0.000000 0.000000 0.034563 0.000000
# 6 0.000000 0.000000 0.000000 0.000000 0.000000 0.045391
#
#
# Mechanical properties :
#
#
# Convention : Reuss Voigt Hill
#
# Bulk Modulus (GPa) = 60.92377 65.44183 63.18280
# Shear Modulus (GPa) = 27.28619 28.36375 27.82497
#
# Velocity S-wave (km/s) = 3.80721 3.88166 3.84462
# Velocity P-wave (km/s) = 7.18959 7.40632 7.29876
#
# Compressibility (1/GPa) = 0.01641395
#
# Stress axis : x y z
#
# Youngs Moduli (GPa) = 97.13276 66.74294 70.93387
#
# Poissons Ratio (x) = 0.13605 0.37026
# Poissons Ratio (y) = 0.19800 0.29952
# Poissons Ratio (z) = 0.50702 0.28183
#
# Static dielectric constant tensor:
#      x y z
#    x 3.436120 0.000000 0.000000 
#    y 0.000000 3.356500 0.000000 
#    z 0.000000 0.000000 3.345380 
# 
# 
# High freq. dielectric constant tensor:
#      x y z
#    x 1.737100 0.000000 0.000000 
#    y 0.000000 1.718300 0.000000 
#    z 0.000000 0.000000 1.717780 
# 
# From -- ./inp_files/30443.got.cif
#   From: 2010.03.12/outbox.cif.g09.slc.cpg/sg59_16_cif.got.tgz:30443.got - 2010.04.16 16:29:54.
