data_PCOD8243247
_publ_section_title
;
Structure prediction by ZEFSAII (Michael W. Deem and Ramdas Pophale) SiO2 
 PCOD8243247
Probable space group: P M M N
;
_chemical_formula_sum "Si O2"
_cell_formula_units_Z 64
_cell_length_a 12.960803
_cell_length_b 16.489664
_cell_length_c 16.373050
_cell_angle_alpha 90.000000
_cell_angle_beta 90.000000
_cell_angle_gamma 90.000000
_cell_volume 3499.236566
_symmetry_space_group_name_H-M "P M M N"
_symmetry_group_IT_number 59
_space_group.IT_coordinate_system_code '2'
_symmetry_cell_setting 'orthorhombic'
loop_
_space_group_symop_operation_xyz
x,y,z
1/2-x,1/2-y,z
1/2+x,-y,-z
-x,1/2+y,-z
-x,-y,-z
1/2+x,1/2+y,-z
1/2-x,y,z
x,1/2-y,z
loop_
_atom_site_type_symbol
_atom_site_label
_atom_site_fract_x
_atom_site_fract_y
_atom_site_fract_z
Si Si1 0.129702 0.156053 0.820395
Si Si2 0.636805 0.155404 0.067827
Si Si3 0.473522 0.566600 0.066081
Si Si4 0.630750 0.985035 0.786612
Si Si5 0.011987 0.085033 0.671830
Si Si6 0.129915 0.570433 0.628544
Si Si7 0.366824 0.656994 0.460713
Si Si8 0.515203 0.154186 0.225274
O O1 0.250000 0.131867 0.816975
O O2 0.115924 0.250000 0.844256
O O3 0.077436 0.141693 0.732561
O O4 0.075197 0.099734 0.888250
O O5 0.750000 0.114778 0.065255
O O6 0.646972 0.250000 0.080469
O O7 0.578034 0.120531 0.146878
O O8 0.579333 0.140118 0.982457
O O9 0.391741 0.527181 0.127215
O O10 0.500000 0.500000 0.000000
O O11 0.750000 0.985588 0.768201
O O12 0.593803 0.891705 0.781527
O O13 0.576577 0.036008 0.716785
O O14 0.953840 0.140945 0.606760
O O15 0.089705 0.021593 0.630181
O O16 0.250000 0.571470 0.649711
O O17 0.106623 0.602880 0.538699
O O18 0.075268 0.629139 0.693441
O O19 0.250000 0.638072 0.429003
O O20 0.374684 0.750000 0.487612
O O21 0.495185 0.250000 0.223930
#
# Coordination Sequence:
#
# PCOD8243247 Si02
#       8
#     8   8   8   8   8   8   8   8
#     4  10  22  39  59  83 112 146 185 229 275 328
#     4  10  20  34  53  76 104 138 176 219 268 322
#     4  11  21  37  54  78 106 140 175 225 271 325
#     4  10  21  36  53  76 104 139 181 224 272 323
#     4  10  20  36  57  81 111 146 184 227 276 329
#     4  10  20  34  55  84 113 144 184 230 279 327
#     4  10  20  34  55  83 113 146 184 228 278 331
#     4  10  20  35  53  77 108 142 181 222 272 325
#
# _framework density 18.289704
#
# number of rings (size 3 to 8) (size 9 to 14) (size 15 to 20)
#    0.000    1.875    1.250    3.000    0.000    2.500 
#    0.000    0.000    0.000    6.750    0.000    0.000 
#    0.000    0.000    0.000    0.000    0.000    0.000 
#
# Total GULP energy -793619.184800 kJ/mol
# GULP energy per Si atom -12400.299763 kJ/mol
# Density = 1.824808 g / cm^3
# Si number density = 18.289704 Si / 1000 Ang^3
#
#
#
# Elastic Constant Matrix: (Units=GPa)
#
#
# Indices 1 2 3 4 5 6 
#
# 1 111.4485 32.8132 36.6487 0.0000 0.0000 0.0000
# 2 32.8132 71.3538 23.9948 0.0000 0.0000 0.0000
# 3 36.6487 23.9948 84.8117 0.0000 0.0000 0.0000
# 4 0.0000 0.0000 0.0000 30.9757 0.0000 0.0000
# 5 0.0000 0.0000 0.0000 0.0000 21.4643 0.0000
# 6 0.0000 0.0000 0.0000 0.0000 0.0000 22.8379
#
#
#
# Elastic Compliance Matrix: (Units=1/GPa)
#
#
# Indices 1 2 3 4 5 6 
#
# 1 0.011388 -0.003959 -0.003801 0.000000 0.000000 0.000000
# 2 -0.003959 0.016864 -0.003061 0.000000 0.000000 0.000000
# 3 -0.003801 -0.003061 0.014299 0.000000 0.000000 0.000000
# 4 0.000000 0.000000 0.000000 0.032283 0.000000 0.000000
# 5 0.000000 0.000000 0.000000 0.000000 0.046589 0.000000
# 6 0.000000 0.000000 0.000000 0.000000 0.000000 0.043787
#
#
# Mechanical properties :
#
#
# Convention : Reuss Voigt Hill
#
# Bulk Modulus (GPa) = 47.82182 50.50307 49.16244
# Shear Modulus (GPa) = 25.79680 26.66606 26.23143
#
# Velocity S-wave (km/s) = 3.75968 3.82250 3.79122
# Velocity P-wave (km/s) = 6.71197 6.86693 6.78989
#
# Compressibility (1/GPa) = 0.02091096
#
# Stress axis : x y z
#
# Youngs Moduli (GPa) = 87.80955 59.29644 69.93393
#
# Poissons Ratio (x) = 0.23475 0.26582
# Poissons Ratio (y) = 0.34763 0.21404
# Poissons Ratio (z) = 0.33377 0.18148
#
# Static dielectric constant tensor:
#      x y z
#    x 3.515370 0.000000 0.000000 
#    y 0.000000 3.304480 0.000000 
#    z 0.000000 0.000000 3.043920 
# 
# 
# High freq. dielectric constant tensor:
#      x y z
#    x 1.710380 0.000000 0.000000 
#    y 0.000000 1.714050 0.000000 
#    z 0.000000 0.000000 1.714150 
# 
# From -- ./inp_files/22693.got.cif
#   From: 2010.03.12/outbox.cif.g09.slc.cpg/sg59_12_cif.got.tgz:22693.got - 2010.04.16 16:29:54.
