data_PCOD8243361
_publ_section_title
;
Structure prediction by ZEFSAII (Michael W. Deem and Ramdas Pophale) SiO2 
 PCOD8243361
Probable space group: P M M N
;
_chemical_formula_sum "Si O2"
_cell_formula_units_Z 64
_cell_length_a 9.246113
_cell_length_b 28.303208
_cell_length_c 12.427396
_cell_angle_alpha 90.000000
_cell_angle_beta 90.000000
_cell_angle_gamma 90.000000
_cell_volume 3252.183164
_symmetry_space_group_name_H-M "P M M N"
_symmetry_group_IT_number 59
_space_group.IT_coordinate_system_code '2'
_symmetry_cell_setting 'orthorhombic'
loop_
_space_group_symop_operation_xyz
x,y,z
1/2-x,1/2-y,z
1/2+x,-y,-z
-x,1/2+y,-z
-x,-y,-z
1/2+x,1/2+y,-z
1/2-x,y,z
x,1/2-y,z
loop_
_atom_site_type_symbol
_atom_site_label
_atom_site_fract_x
_atom_site_fract_y
_atom_site_fract_z
Si Si1 0.579087 0.139716 0.901597
Si Si2 0.080589 0.511821 0.331444
Si Si3 0.914002 0.565463 0.500911
Si Si4 0.584972 0.806322 0.912765
Si Si5 0.580065 0.470447 0.908578
Si Si6 0.913861 0.674713 0.514693
Si Si7 0.092197 0.803172 0.714418
Si Si8 0.417657 0.196214 0.727878
O O1 0.750000 0.147755 0.904682
O O2 0.539552 0.084787 0.916683
O O3 0.518026 0.158866 0.788854
O O4 0.504735 0.170587 0.992485
O O5 0.250000 0.521746 0.332583
O O6 0.036104 0.463743 0.393338
O O7 0.027286 0.510213 0.207963
O O8 0.008126 0.554976 0.395439
O O9 0.750000 0.552260 0.471405
O O10 0.932357 0.619307 0.530780
O O11 0.750000 0.824027 0.917132
O O12 0.578429 0.750000 0.923840
O O13 0.515791 0.826194 0.801749
O O14 0.750000 0.478296 0.924050
O O15 0.500000 0.500000 0.000000
O O16 0.750000 0.690659 0.540305
O O17 0.957877 0.691876 0.396965
O O18 0.022243 0.698641 0.597158
O O19 0.250000 0.828859 0.712609
O O20 0.117344 0.750000 0.752534
O O21 0.250000 0.182738 0.747311
O O22 0.447107 0.250000 0.766370
#
# Coordination Sequence:
#
# PCOD8243361 Si02
#       8
#     8   8   8   8   8   8   8   8
#     4  11  23  38  57  83 113 144 185 237 290 341
#     4   9  18  35  55  76 106 139 174 219 270 323
#     4   9  18  32  54  82 106 136 180 224 267 317
#     4  10  21  38  60  83 108 143 187 231 280 342
#     4  10  23  40  57  80 111 147 185 229 283 339
#     4  10  20  34  53  80 114 148 185 228 271 322
#     4  10  21  36  54  78 109 143 179 222 271 321
#     4  10  21  36  55  81 114 153 194 233 277 335
#
# _framework density 19.679089000000001
#
# number of rings (size 3 to 8) (size 9 to 14) (size 15 to 20)
#    0.000    2.125    0.000    2.625    0.000    7.250 
#    0.000    1.250    0.000    0.000    0.000    0.000 
#    0.000    0.000    0.000    0.000    0.000    0.000 
#
# Total GULP energy -793572.915086 kJ/mol
# GULP energy per Si atom -12399.576798 kJ/mol
# Density = 1.963430 g / cm^3
# Si number density = 19.679089 Si / 1000 Ang^3
#
#
#
# Elastic Constant Matrix: (Units=GPa)
#
#
# Indices 1 2 3 4 5 6 
#
# 1 101.6467 37.0188 65.3484 0.0000 0.0000 0.0000
# 2 37.0188 66.8710 34.2424 0.0000 0.0000 0.0000
# 3 65.3484 34.2424 134.5650 0.0000 0.0000 0.0000
# 4 0.0000 0.0000 0.0000 21.4612 0.0000 0.0000
# 5 0.0000 0.0000 0.0000 0.0000 34.4513 0.0000
# 6 0.0000 0.0000 0.0000 0.0000 0.0000 24.9482
#
#
#
# Elastic Compliance Matrix: (Units=1/GPa)
#
#
# Indices 1 2 3 4 5 6 
#
# 1 0.015933 -0.005586 -0.006316 0.000000 0.000000 0.000000
# 2 -0.005586 0.019153 -0.002161 0.000000 0.000000 0.000000
# 3 -0.006316 -0.002161 0.011048 0.000000 0.000000 0.000000
# 4 0.000000 0.000000 0.000000 0.046596 0.000000 0.000000
# 5 0.000000 0.000000 0.000000 0.000000 0.029026 0.000000
# 6 0.000000 0.000000 0.000000 0.000000 0.000000 0.040083
#
#
# Mechanical properties :
#
#
# Convention : Reuss Voigt Hill
#
# Bulk Modulus (GPa) = 55.52999 64.03354 59.78177
# Shear Modulus (GPa) = 25.51424 27.27034 26.39229
#
# Velocity S-wave (km/s) = 3.60462 3.72661 3.66612
# Velocity P-wave (km/s) = 6.75303 7.15027 6.95449
#
# Compressibility (1/GPa) = 0.01800829
#
# Stress axis : x y z
#
# Youngs Moduli (GPa) = 62.76322 52.21071 90.51008
#
# Poissons Ratio (x) = 0.29165 0.57166
# Poissons Ratio (y) = 0.35060 0.19560
# Poissons Ratio (z) = 0.39641 0.11283
#
# Static dielectric constant tensor:
#      x y z
#    x 3.922190 0.000000 0.000000 
#    y 0.000000 3.260180 0.000000 
#    z 0.000000 0.000000 3.648440 
# 
# 
# High freq. dielectric constant tensor:
#      x y z
#    x 1.767710 0.000000 0.000000 
#    y 0.000000 1.758410 0.000000 
#    z 0.000000 0.000000 1.776110 
# 
# From -- ./inp_files/14936.got.cif
#   From: 2010.03.12/outbox.cif.g09.slc.cpg/sg59_8_cif.got.tgz:14936.got - 2010.04.16 16:29:54.
