data_PCOD8243349
_publ_section_title
;
Structure prediction by ZEFSAII (Michael W. Deem and Ramdas Pophale) SiO2 
 PCOD8243349
Probable space group: P M M N
;
_chemical_formula_sum "Si O2"
_cell_formula_units_Z 56
_cell_length_a 8.578414
_cell_length_b 20.680545
_cell_length_c 15.266721
_cell_angle_alpha 90.000000
_cell_angle_beta 90.000000
_cell_angle_gamma 90.000000
_cell_volume 2708.412131
_symmetry_space_group_name_H-M "P M M N"
_symmetry_group_IT_number 59
_space_group.IT_coordinate_system_code '2'
_symmetry_cell_setting 'orthorhombic'
loop_
_space_group_symop_operation_xyz
x,y,z
1/2-x,1/2-y,z
1/2+x,-y,-z
-x,1/2+y,-z
-x,-y,-z
1/2+x,1/2+y,-z
1/2-x,y,z
x,1/2-y,z
loop_
_atom_site_type_symbol
_atom_site_label
_atom_site_fract_x
_atom_site_fract_y
_atom_site_fract_z
Si Si1 0.071186 0.178646 0.545008
Si Si2 0.067182 0.055320 0.436486
Si Si3 0.426029 0.884275 0.299188
Si Si4 0.565441 0.957245 0.918096
Si Si5 0.067511 0.822248 0.958126
Si Si6 0.578303 0.677233 0.145513
Si Si7 0.929800 0.488080 0.265831
O O1 0.250000 0.170664 0.573633
O O2 0.039621 0.250000 0.505533
O O3 0.023968 0.125401 0.474270
O O4 0.966841 0.171160 0.631635
O O5 0.250000 0.043198 0.428203
O O6 0.993737 0.061029 0.339052
O O7 0.000000 0.000000 0.500000
O O8 0.250000 0.908333 0.311269
O O9 0.447969 0.858743 0.201135
O O10 0.543975 0.943476 0.314347
O O11 0.750000 0.952834 0.930210
O O12 0.493510 0.884746 0.905352
O O13 0.524236 0.990346 0.825607
O O14 0.500000 0.000000 0.000000
O O15 0.250000 0.830413 0.975875
O O16 0.036392 0.750000 0.915348
O O17 0.971962 0.826320 0.046401
O O18 0.750000 0.644498 0.155199
O O19 0.588722 0.750000 0.179123
O O20 0.750000 0.474115 0.245876
#
# Coordination Sequence:
#
# PCOD8243349 Si02
#       7
#     8   8   8   8   8   8   8
#     4  10  22  40  62  89 124 165 206 252 311 376
#     4  11  22  40  66  94 125 164 209 258 309 371
#     4  12  23  35  55  85 121 158 202 255 315 380
#     4  12  25  43  66  95 131 168 214 270 326 387
#     4  10  21  39  62  88 121 162 209 261 319 381
#     4  10  20  34  53  79 115 159 204 249 306 376
#     4  12  25  42  64  90 122 164 213 263 316 380
#
# _framework density 20.676321999999999
#
# number of rings (size 3 to 8) (size 9 to 14) (size 15 to 20)
#    0.000    1.000    1.429    6.429    0.000    4.286 
#    0.000    0.714    0.000    2.571    0.000    0.000 
#    0.000    0.000    0.000    0.000    0.000    0.000 
#
# Total GULP energy -694156.453478 kJ/mol
# GULP energy per Si atom -12395.650955 kJ/mol
# Density = 2.062926 g / cm^3
# Si number density = 20.676322 Si / 1000 Ang^3
#
#
#
# Elastic Constant Matrix: (Units=GPa)
#
#
# Indices 1 2 3 4 5 6 
#
# 1 113.3057 37.5067 30.1422 0.0000 0.0000 0.0000
# 2 37.5067 123.5762 34.9736 0.0000 0.0000 0.0000
# 3 30.1422 34.9736 93.8695 0.0000 0.0000 0.0000
# 4 0.0000 0.0000 0.0000 31.4987 0.0000 0.0000
# 5 0.0000 0.0000 0.0000 0.0000 33.7040 0.0000
# 6 0.0000 0.0000 0.0000 0.0000 0.0000 30.7929
#
#
#
# Elastic Compliance Matrix: (Units=1/GPa)
#
#
# Indices 1 2 3 4 5 6 
#
# 1 0.010269 -0.002441 -0.002388 0.000000 0.000000 0.000000
# 2 -0.002441 0.009626 -0.002803 0.000000 0.000000 0.000000
# 3 -0.002388 -0.002803 0.012464 0.000000 0.000000 0.000000
# 4 0.000000 0.000000 0.000000 0.031747 0.000000 0.000000
# 5 0.000000 0.000000 0.000000 0.000000 0.029670 0.000000
# 6 0.000000 0.000000 0.000000 0.000000 0.000000 0.032475
#
#
# Mechanical properties :
#
#
# Convention : Reuss Voigt Hill
#
# Bulk Modulus (GPa) = 58.49310 59.55515 59.02413
# Shear Modulus (GPa) = 33.96424 34.40771 34.18598
#
# Velocity S-wave (km/s) = 4.05738 4.08378 4.07060
# Velocity P-wave (km/s) = 7.09232 7.14859 7.12051
#
# Compressibility (1/GPa) = 0.01709603
#
# Stress axis : x y z
#
# Youngs Moduli (GPa) = 97.38103 103.88297 80.23029
#
# Poissons Ratio (x) = 0.25357 0.19159
# Poissons Ratio (y) = 0.23770 0.22486
# Poissons Ratio (z) = 0.23255 0.29115
#
# Static dielectric constant tensor:
#      x y z
#    x 3.876140 0.000000 0.000000 
#    y 0.000000 4.425260 0.000000 
#    z 0.000000 0.000000 3.610040 
# 
# 
# High freq. dielectric constant tensor:
#      x y z
#    x 1.819110 0.000000 0.000000 
#    y 0.000000 1.814930 0.000000 
#    z 0.000000 0.000000 1.793070 
# 
# From -- ./inp_files/21074.got.cif
#   From: 2010.03.12/outbox.cif.g09.slc.cpg/sg59_11_cif.got.tgz:21074.got - 2010.04.16 16:29:54.
