data_PCOD8243674
_publ_section_title
;
Structure prediction by ZEFSAII (Michael W. Deem and Ramdas Pophale) SiO2 
 PCOD8243674
Probable space group: P M M N
;
_chemical_formula_sum "Si O2"
_cell_formula_units_Z 48
_cell_length_a 7.744377
_cell_length_b 18.255584
_cell_length_c 17.190882
_cell_angle_alpha 90.000000
_cell_angle_beta 90.000000
_cell_angle_gamma 90.000000
_cell_volume 2430.414662
_symmetry_space_group_name_H-M "P M M N"
_symmetry_group_IT_number 59
_space_group.IT_coordinate_system_code '2'
_symmetry_cell_setting 'orthorhombic'
loop_
_space_group_symop_operation_xyz
x,y,z
1/2-x,1/2-y,z
1/2+x,-y,-z
-x,1/2+y,-z
-x,-y,-z
1/2+x,1/2+y,-z
1/2-x,y,z
x,1/2-y,z
loop_
_atom_site_type_symbol
_atom_site_label
_atom_site_fract_x
_atom_site_fract_y
_atom_site_fract_z
Si Si1 0.750000 0.836887 0.091218
Si Si2 0.451822 0.585814 0.647429
Si Si3 0.044494 0.419124 0.649034
Si Si4 0.750000 0.836780 0.918064
Si Si5 0.552803 0.164203 0.193522
Si Si6 0.443949 0.834210 0.200162
Si Si7 0.052423 0.169461 0.503011
O O1 0.750000 0.750000 0.084939
O O2 0.578501 0.864242 0.136026
O O3 0.750000 0.871262 0.004595
O O4 0.250000 0.590130 0.631748
O O5 0.518923 0.502768 0.646288
O O6 0.502090 0.621592 0.729192
O O7 0.542771 0.630537 0.579679
O O8 0.250000 0.414516 0.657146
O O9 0.970581 0.380149 0.571323
O O10 0.957555 0.380797 0.722110
O O11 0.750000 0.750000 0.923491
O O12 0.576131 0.862851 0.874140
O O13 0.750000 0.145911 0.168763
O O14 0.530588 0.250000 0.210557
O O15 0.250000 0.841685 0.166250
O O16 0.487446 0.750000 0.220763
O O17 0.250000 0.180239 0.525055
O O18 0.962756 0.250000 0.500104
#
# Coordination Sequence:
#
# PCOD8243674 Si02
#       7
#     4   8   8   4   8   8   8
#     4   9  18  34  56  83 115 141 173 231 281 327
#     4  10  21  35  53  78 107 148 186 230 279 328
#     4  10  20  36  55  77 109 150 186 231 276 328
#     4   9  18  32  56  85 109 143 179 219 285 337
#     4   9  18  33  53  80 111 141 182 231 274 326
#     4  10  20  34  56  84 110 144 187 227 277 333
#     4  10  21  34  52  78 109 146 188 231 277 325
#
# _framework density 19.749715999999999
#
# number of rings (size 3 to 8) (size 9 to 14) (size 15 to 20)
#    0.000    2.333    0.833    1.500    1.167    3.667 
#    0.000    3.333    0.000    1.000    0.000    0.000 
#    0.000    0.000    0.000    0.000    0.000    0.000 
#
# Total GULP energy -595194.403872 kJ/mol
# GULP energy per Si atom -12399.883414 kJ/mol
# Density = 1.970476 g / cm^3
# Si number density = 19.749716 Si / 1000 Ang^3
#
#
#
# Elastic Constant Matrix: (Units=GPa)
#
#
# Indices 1 2 3 4 5 6 
#
# 1 88.6315 30.8868 60.2025 0.0000 0.0000 0.0000
# 2 30.8868 104.0018 61.1938 0.0000 0.0000 0.0000
# 3 60.2025 61.1938 163.3723 0.0000 0.0000 0.0000
# 4 0.0000 0.0000 0.0000 -2.6437 0.0000 0.0000
# 5 0.0000 0.0000 0.0000 0.0000 17.0547 0.0000
# 6 0.0000 0.0000 0.0000 0.0000 0.0000 16.0620
#
#
#
# Elastic Compliance Matrix: (Units=1/GPa)
#
#
# Indices 1 2 3 4 5 6 
#
# 1 0.015246 -0.001568 -0.005031 0.000000 0.000000 0.000000
# 2 -0.001568 0.012495 -0.004102 0.000000 0.000000 0.000000
# 3 -0.005031 -0.004102 0.009512 0.000000 0.000000 0.000000
# 4 0.000000 0.000000 0.000000 -0.378261 0.000000 0.000000
# 5 0.000000 0.000000 0.000000 0.000000 0.058635 0.000000
# 6 0.000000 0.000000 0.000000 0.000000 0.000000 0.062259
#
#
# Mechanical properties :
#
#
# Convention : Reuss Voigt Hill
#
# Bulk Modulus (GPa) = 63.09050 73.39687 68.24369
# Shear Modulus (GPa) = -25.84928 19.67611 -3.08658
#
# Velocity S-wave (km/s) = -3.62172 3.15980 -1.25150
# Velocity P-wave (km/s) = 3.81120 7.11032 5.70447
#
# Compressibility (1/GPa) = 0.01585025
#
# Stress axis : x y z
#
# Youngs Moduli (GPa) = 65.58970 80.03466 105.13553
#
# Poissons Ratio (x) = 0.12547 0.52894
# Poissons Ratio (y) = 0.10282 0.43130
# Poissons Ratio (z) = 0.32998 0.32833
#
# Static dielectric constant tensor:
#      x y z
#    x 3.592970 0.000000 0.000000 
#    y 0.000000 3.616200 0.000000 
#    z 0.000000 0.000000 3.639640 
# 
# 
# High freq. dielectric constant tensor:
#      x y z
#    x 1.769600 0.000000 0.000000 
#    y 0.000000 1.753070 0.000000 
#    z 0.000000 0.000000 1.766020 
# 
# From -- ./inp_files/20580.got.cif
#   From: 2010.03.12/outbox.cif.g09.slc.cpg/sg59_11_cif.got.tgz:20580.got - 2010.04.16 16:29:54.
