data_PCOD8243465
_publ_section_title
;
Structure prediction by ZEFSAII (Michael W. Deem and Ramdas Pophale) SiO2 
 PCOD8243465
Probable space group: P M M N
;
_chemical_formula_sum "Si O2"
_cell_formula_units_Z 64
_cell_length_a 19.975868
_cell_length_b 8.997576
_cell_length_c 19.857130
_cell_angle_alpha 90.000000
_cell_angle_beta 90.000000
_cell_angle_gamma 90.000000
_cell_volume 3569.009158
_symmetry_space_group_name_H-M "P M M N"
_symmetry_group_IT_number 59
_space_group.IT_coordinate_system_code '2'
_symmetry_cell_setting 'orthorhombic'
loop_
_space_group_symop_operation_xyz
x,y,z
1/2-x,1/2-y,z
1/2+x,-y,-z
-x,1/2+y,-z
-x,-y,-z
1/2+x,1/2+y,-z
1/2-x,y,z
x,1/2-y,z
loop_
_atom_site_type_symbol
_atom_site_label
_atom_site_fract_x
_atom_site_fract_y
_atom_site_fract_z
Si Si1 0.915085 0.579041 0.834776
Si Si2 0.605298 0.575474 0.683798
Si Si3 0.324813 0.574288 0.057299
Si Si4 0.675414 0.426508 0.093230
Si Si5 0.966475 0.920629 0.328575
Si Si6 0.432723 0.420941 0.522921
Si Si7 0.827050 0.079385 0.567701
Si Si8 0.934157 0.425393 0.197222
O O1 0.905632 0.750000 0.853539
O O2 0.881892 0.542779 0.762526
O O3 0.879520 0.484693 0.891602
O O4 0.993201 0.536062 0.833125
O O5 0.604477 0.750000 0.669437
O O6 0.534688 0.510355 0.659926
O O7 0.662998 0.497419 0.640458
O O8 0.250000 0.520246 0.077484
O O9 0.327751 0.750000 0.058728
O O10 0.341848 0.516258 0.981995
O O11 0.750000 0.480305 0.113971
O O12 0.672494 0.250000 0.093650
O O13 0.621401 0.489327 0.145987
O O14 0.983623 0.750000 0.311391
O O15 0.923449 0.933237 0.396639
O O16 0.923574 0.992079 0.268147
O O17 0.500000 0.500000 0.500000
O O18 0.435893 0.250000 0.499687
O O19 0.368976 0.498041 0.489743
O O20 0.750000 0.066029 0.547209
O O21 0.850313 0.250000 0.572723
O O22 0.927265 0.250000 0.209917
#
# Coordination Sequence:
#
# PCOD8243465 Si02
#       8
#     8   8   8   8   8   8   8   8
#     4   9  19  32  47  74 107 136 169 211 260 314
#     4  10  20  35  55  76 103 141 179 217 265 321
#     4   9  18  32  50  72  98 133 177 219 260 311
#     4   8  15  31  54  76  99 132 176 220 262 313
#     4  10  20  34  54  81 108 134 171 218 264 315
#     4  11  22  36  59  84 108 142 183 224 269 324
#     4  11  24  39  55  80 113 145 182 228 272 320
#     4   9  18  33  53  77 105 136 172 216 262 314
#
# _framework density 17.932147000000001
#
# number of rings (size 3 to 8) (size 9 to 14) (size 15 to 20)
#    0.000    2.375    1.250    3.000    0.000    6.250 
#    0.000    3.750    0.000    3.375    0.000    0.000 
#    0.000    0.000    0.000    0.000    0.000    0.000 
#
# Total GULP energy -793576.613589 kJ/mol
# GULP energy per Si atom -12399.634587 kJ/mol
# Density = 1.789133 g / cm^3
# Si number density = 17.932147 Si / 1000 Ang^3
#
#
#
# Elastic Constant Matrix: (Units=GPa)
#
#
# Indices 1 2 3 4 5 6 
#
# 1 94.5915 47.0667 70.6302 0.0000 0.0000 0.0000
# 2 47.0667 90.6939 52.8669 0.0000 0.0000 0.0000
# 3 70.6302 52.8669 124.8251 0.0000 0.0000 0.0000
# 4 0.0000 0.0000 0.0000 28.2903 0.0000 0.0000
# 5 0.0000 0.0000 0.0000 0.0000 32.6201 0.0000
# 6 0.0000 0.0000 0.0000 0.0000 0.0000 25.0712
#
#
#
# Elastic Compliance Matrix: (Units=1/GPa)
#
#
# Indices 1 2 3 4 5 6 
#
# 1 0.019873 -0.004991 -0.009131 0.000000 0.000000 0.000000
# 2 -0.004991 0.015894 -0.003908 0.000000 0.000000 0.000000
# 3 -0.009131 -0.003908 0.014833 0.000000 0.000000 0.000000
# 4 0.000000 0.000000 0.000000 0.035348 0.000000 0.000000
# 5 0.000000 0.000000 0.000000 0.000000 0.030656 0.000000
# 6 0.000000 0.000000 0.000000 0.000000 0.000000 0.039886
#
#
# Mechanical properties :
#
#
# Convention : Reuss Voigt Hill
#
# Bulk Modulus (GPa) = 68.77116 72.35980 70.56548
# Shear Modulus (GPa) = 25.32976 26.49942 25.91459
#
# Velocity S-wave (km/s) = 3.76245 3.84834 3.80563
# Velocity P-wave (km/s) = 7.57025 7.75795 7.66468
#
# Compressibility (1/GPa) = 0.01454098
#
# Stress axis : x y z
#
# Youngs Moduli (GPa) = 50.31904 62.91728 67.41760
#
# Poissons Ratio (x) = 0.31400 0.61560
# Poissons Ratio (y) = 0.25113 0.26344
# Poissons Ratio (z) = 0.45947 0.24585
#
# Static dielectric constant tensor:
#      x y z
#    x 3.294710 0.000000 0.000000 
#    y 0.000000 3.281250 0.000000 
#    z 0.000000 0.000000 3.588640 
# 
# 
# High freq. dielectric constant tensor:
#      x y z
#    x 1.679370 0.000000 0.000000 
#    y 0.000000 1.689150 0.000000 
#    z 0.000000 0.000000 1.702190 
# 
# From -- ./inp_files/30983.got.cif
#   From: 2010.03.12/outbox.cif.g09.slc.cpg/sg59_16_cif.got.tgz:30983.got - 2010.04.16 16:29:54.
