data_PCOD8243635
_publ_section_title
;
Structure prediction by ZEFSAII (Michael W. Deem and Ramdas Pophale) SiO2 
 PCOD8243635
Probable space group: P M M N
;
_chemical_formula_sum "Si O2"
_cell_formula_units_Z 56
_cell_length_a 21.696524
_cell_length_b 8.928709
_cell_length_c 14.732673
_cell_angle_alpha 90.000000
_cell_angle_beta 90.000000
_cell_angle_gamma 90.000000
_cell_volume 2854.042129
_symmetry_space_group_name_H-M "P M M N"
_symmetry_group_IT_number 59
_space_group.IT_coordinate_system_code '2'
_symmetry_cell_setting 'orthorhombic'
loop_
_space_group_symop_operation_xyz
x,y,z
1/2-x,1/2-y,z
1/2+x,-y,-z
-x,1/2+y,-z
-x,-y,-z
1/2+x,1/2+y,-z
1/2-x,y,z
x,1/2-y,z
loop_
_atom_site_type_symbol
_atom_site_label
_atom_site_fract_x
_atom_site_fract_y
_atom_site_fract_z
Si Si1 0.875508 0.073335 0.467929
Si Si2 0.179642 0.077102 0.218527
Si Si3 0.320603 0.573822 0.031881
Si Si4 0.945394 0.424711 0.286871
Si Si5 0.250000 0.427842 0.557006
Si Si6 0.129220 0.072454 0.862178
Si Si7 0.750000 0.927377 0.238390
Si Si8 0.422413 0.075780 0.362220
O O1 0.866899 0.250000 0.471467
O O2 0.902691 0.021961 0.370850
O O3 0.810947 0.992410 0.489813
O O4 0.922423 0.021496 0.546164
O O5 0.250000 0.046545 0.248757
O O6 0.169708 0.250000 0.191785
O O7 0.136028 0.030173 0.301247
O O8 0.161186 0.977483 0.132426
O O9 0.250000 0.524330 0.010815
O O10 0.328740 0.750000 0.024019
O O11 0.368279 0.495035 0.963107
O O12 0.935942 0.250000 0.268531
O O13 0.928862 0.513702 0.195082
O O14 0.015925 0.463721 0.307694
O O15 0.250000 0.250000 0.547516
O O16 0.250000 0.487925 0.659768
O O17 0.126306 0.250000 0.868772
O O18 0.189873 0.010677 0.811445
O O19 0.750000 0.750000 0.237895
O O20 0.421034 0.250000 0.389201
#
# Coordination Sequence:
#
# PCOD8243635 Si02
#       8
#     8   8   8   8   4   8   4   8
#     4  11  23  37  56  85 118 151 190 237 288 336
#     4   9  19  37  60  84 108 140 188 240 284 332
#     4  10  20  34  55  85 117 148 180 225 291 348
#     4  10  22  39  56  81 118 155 192 235 282 337
#     4  11  21  37  57  82 115 150 189 233 284 340
#     4  11  20  34  57  85 115 149 191 231 278 337
#     4   9  18  31  51  80 111 144 183 231 276 326
#     4  10  22  40  61  82 110 153 198 237 283 340
#
# _framework density 19.621293000000001
#
# number of rings (size 3 to 8) (size 9 to 14) (size 15 to 20)
#    0.000    1.857    2.143    1.929    1.000    2.286 
#    0.000    0.714    0.000    0.000    0.000    0.000 
#    0.000    0.000    0.000    0.000    0.000    0.000 
#
# Total GULP energy -694632.676340 kJ/mol
# GULP energy per Si atom -12404.154935 kJ/mol
# Density = 1.957663 g / cm^3
# Si number density = 19.621293 Si / 1000 Ang^3
#
#
#
# Elastic Constant Matrix: (Units=GPa)
#
#
# Indices 1 2 3 4 5 6 
#
# 1 86.5317 27.9970 24.6348 0.0000 0.0000 0.0000
# 2 27.9970 72.0192 34.6956 0.0000 0.0000 0.0000
# 3 24.6348 34.6956 74.9127 0.0000 0.0000 0.0000
# 4 0.0000 0.0000 0.0000 32.6029 0.0000 0.0000
# 5 0.0000 0.0000 0.0000 0.0000 24.9482 0.0000
# 6 0.0000 0.0000 0.0000 0.0000 0.0000 25.5732
#
#
#
# Elastic Compliance Matrix: (Units=1/GPa)
#
#
# Indices 1 2 3 4 5 6 
#
# 1 0.013603 -0.004033 -0.002606 0.000000 0.000000 0.000000
# 2 -0.004033 0.019069 -0.007505 0.000000 0.000000 0.000000
# 3 -0.002606 -0.007505 0.017682 0.000000 0.000000 0.000000
# 4 0.000000 0.000000 0.000000 0.030672 0.000000 0.000000
# 5 0.000000 0.000000 0.000000 0.000000 0.040083 0.000000
# 6 0.000000 0.000000 0.000000 0.000000 0.000000 0.039104
#
#
# Mechanical properties :
#
#
# Convention : Reuss Voigt Hill
#
# Bulk Modulus (GPa) = 45.31868 45.34648 45.33258
# Shear Modulus (GPa) = 25.52908 26.36727 25.94817
#
# Velocity S-wave (km/s) = 3.61098 3.66978 3.64050
# Velocity P-wave (km/s) = 6.36650 6.41228 6.38943
#
# Compressibility (1/GPa) = 0.02206595
#
# Stress axis : x y z
#
# Youngs Moduli (GPa) = 73.51302 52.44196 56.55532
#
# Poissons Ratio (x) = 0.21149 0.14736
# Poissons Ratio (y) = 0.29647 0.42447
# Poissons Ratio (z) = 0.19154 0.39360
#
# Static dielectric constant tensor:
#      x y z
#    x 3.550550 0.000000 0.000000 
#    y 0.000000 3.383740 0.000000 
#    z 0.000000 0.000000 3.521350 
# 
# 
# High freq. dielectric constant tensor:
#      x y z
#    x 1.755680 0.000000 0.000000 
#    y 0.000000 1.757710 0.000000 
#    z 0.000000 0.000000 1.765740 
# 
# From -- ./inp_files/21186.got.cif
#   From: 2010.03.12/outbox.cif.g09.slc.cpg/sg59_11_cif.got.tgz:21186.got - 2010.04.16 16:29:54.
