data_PCOD8243852
_publ_section_title
;
Structure prediction by ZEFSAII (Michael W. Deem and Ramdas Pophale) SiO2 
 PCOD8243852
Probable space group: P M M N
;
_chemical_formula_sum "Si O2"
_cell_formula_units_Z 56
_cell_length_a 8.811838
_cell_length_b 14.104588
_cell_length_c 22.745699
_cell_angle_alpha 90.000000
_cell_angle_beta 90.000000
_cell_angle_gamma 90.000000
_cell_volume 2827.002528
_symmetry_space_group_name_H-M "P M M N"
_symmetry_group_IT_number 59
_space_group.IT_coordinate_system_code '2'
_symmetry_cell_setting 'orthorhombic'
loop_
_space_group_symop_operation_xyz
x,y,z
1/2-x,1/2-y,z
1/2+x,-y,-z
-x,1/2+y,-z
-x,-y,-z
1/2+x,1/2+y,-z
1/2-x,y,z
x,1/2-y,z
loop_
_atom_site_type_symbol
_atom_site_label
_atom_site_fract_x
_atom_site_fract_y
_atom_site_fract_z
Si Si1 0.926771 0.354864 0.412370
Si Si2 0.072396 0.039266 0.648984
Si Si3 0.925925 0.859768 0.468548
Si Si4 0.072594 0.859226 0.242550
Si Si5 0.424767 0.858826 0.030315
Si Si6 0.426868 0.356852 0.095227
Si Si7 0.428609 0.464826 0.864566
O O1 0.750000 0.347415 0.423701
O O2 0.994391 0.250000 0.397595
O O3 0.959442 0.426531 0.358439
O O4 0.994419 0.397849 0.472518
O O5 0.250000 0.060661 0.660568
O O6 0.013382 0.088444 0.589490
O O7 0.973994 0.077344 0.702330
O O8 0.750000 0.880616 0.476382
O O9 0.963682 0.750000 0.460146
O O10 0.250000 0.870977 0.230444
O O11 0.029146 0.750000 0.254704
O O12 0.983734 0.894211 0.185673
O O13 0.250000 0.891440 0.034146
O O14 0.442177 0.750000 0.049806
O O15 0.526660 0.922285 0.072601
O O16 0.483231 0.874083 0.964799
O O17 0.250000 0.375047 0.084054
O O18 0.455172 0.250000 0.118758
O O19 0.492468 0.431709 0.142569
O O20 0.250000 0.477723 0.859803
#
# Coordination Sequence:
#
# PCOD8243852 Si02
#       7
#     8   8   8   8   8   8   8
#     4   9  18  32  51  78 111 144 180 222 267 318
#     4  10  20  35  55  78 107 145 184 224 274 328
#     4   9  17  29  48  76 108 141 179 224 274 328
#     4  11  25  43  61  82 108 139 180 230 279 331
#     4  10  20  35  57  86 120 154 189 232 280 331
#     4  10  21  38  60  86 117 151 188 231 277 327
#     4  12  24  38  59  84 113 150 189 230 278 333
#
# _framework density 19.808968
#
# number of rings (size 3 to 8) (size 9 to 14) (size 15 to 20)
#    0.000    1.857    0.000    4.286    0.000    6.286 
#    0.000    2.143    0.000    2.571    0.000    0.000 
#    0.000    0.000    0.000    0.000    0.000    0.000 
#
# Total GULP energy -694487.748139 kJ/mol
# GULP energy per Si atom -12401.566931 kJ/mol
# Density = 1.976388 g / cm^3
# Si number density = 19.808968 Si / 1000 Ang^3
#
#
#
# Elastic Constant Matrix: (Units=GPa)
#
#
# Indices 1 2 3 4 5 6 
#
# 1 74.3349 39.4381 24.1773 0.0000 0.0000 0.0000
# 2 39.4381 88.7507 35.8796 0.0000 0.0000 0.0000
# 3 24.1773 35.8796 52.0592 0.0000 0.0000 0.0000
# 4 0.0000 0.0000 0.0000 31.7410 0.0000 0.0000
# 5 0.0000 0.0000 0.0000 0.0000 35.8912 0.0000
# 6 0.0000 0.0000 0.0000 0.0000 0.0000 28.6189
#
#
#
# Elastic Compliance Matrix: (Units=1/GPa)
#
#
# Indices 1 2 3 4 5 6 
#
# 1 0.018180 -0.006467 -0.003986 0.000000 0.000000 0.000000
# 2 -0.006467 0.017920 -0.009347 0.000000 0.000000 0.000000
# 3 -0.003986 -0.009347 0.027502 0.000000 0.000000 0.000000
# 4 0.000000 0.000000 0.000000 0.031505 0.000000 0.000000
# 5 0.000000 0.000000 0.000000 0.000000 0.027862 0.000000
# 6 0.000000 0.000000 0.000000 0.000000 0.000000 0.034942
#
#
# Mechanical properties :
#
#
# Convention : Reuss Voigt Hill
#
# Bulk Modulus (GPa) = 41.66359 46.01498 43.83928
# Shear Modulus (GPa) = 24.32933 26.96021 25.64477
#
# Velocity S-wave (km/s) = 3.50837 3.69319 3.60196
# Velocity P-wave (km/s) = 6.12290 6.43941 6.28315
#
# Compressibility (1/GPa) = 0.02400177
#
# Stress axis : x y z
#
# Youngs Moduli (GPa) = 55.00467 55.80277 36.36067
#
# Poissons Ratio (x) = 0.36090 0.14493
# Poissons Ratio (y) = 0.35573 0.33987
# Poissons Ratio (z) = 0.21924 0.52160
#
# Static dielectric constant tensor:
#      x y z
#    x 3.659800 0.000000 0.000000 
#    y 0.000000 4.109510 0.000000 
#    z 0.000000 0.000000 3.526120 
# 
# 
# High freq. dielectric constant tensor:
#      x y z
#    x 1.772660 0.000000 0.000000 
#    y 0.000000 1.792620 0.000000 
#    z 0.000000 0.000000 1.748760 
# 
# From -- ./inp_files/29044.got.cif
#   From: 2010.03.12/outbox.cif.g09.slc.cpg/sg59_15_cif.got.tgz:29044.got - 2010.04.16 16:29:54.
