data_PCOD8243441
_publ_section_title
;
Structure prediction by ZEFSAII (Michael W. Deem and Ramdas Pophale) SiO2 
 PCOD8243441
Probable space group: P M M N
;
_chemical_formula_sum "Si O2"
_cell_formula_units_Z 40
_cell_length_a 20.891500
_cell_length_b 8.659761
_cell_length_c 11.558802
_cell_angle_alpha 90.000000
_cell_angle_beta 90.000000
_cell_angle_gamma 90.000000
_cell_volume 2091.165252
_symmetry_space_group_name_H-M "P M M N"
_symmetry_group_IT_number 59
_space_group.IT_coordinate_system_code '2'
_symmetry_cell_setting 'orthorhombic'
loop_
_space_group_symop_operation_xyz
x,y,z
1/2-x,1/2-y,z
1/2+x,-y,-z
-x,1/2+y,-z
-x,-y,-z
1/2+x,1/2+y,-z
1/2-x,y,z
x,1/2-y,z
loop_
_atom_site_type_symbol
_atom_site_label
_atom_site_fract_x
_atom_site_fract_y
_atom_site_fract_z
Si Si1 0.176601 0.067241 0.956075
Si Si2 0.825008 0.422494 0.284854
Si Si3 0.031826 0.072991 0.317577
Si Si4 0.557279 0.069239 0.923800
Si Si5 0.584630 0.927432 0.443543
O O1 0.250000 0.014701 0.984374
O O2 0.172324 0.250000 0.953066
O O3 0.126900 0.003037 0.049882
O O4 0.152553 0.002688 0.833433
O O5 0.750000 0.416521 0.290870
O O6 0.854026 0.250000 0.289291
O O7 0.846462 0.525060 0.394364
O O8 0.033357 0.250000 0.274834
O O9 0.084218 0.042454 0.418541
O O10 0.044673 0.961155 0.210860
O O11 0.963664 0.037303 0.374328
O O12 0.559737 0.250000 0.947867
O O13 0.500000 0.000000 0.000000
O O14 0.567770 0.750000 0.417342
#
# Coordination Sequence:
#
# PCOD8243441 Si02
#       5
#     8   8   8   8   8
#     4  10  21  38  59  82 111 146 184 227 276 329
#     4  10  20  34  54  80 109 141 178 219 263 314
#     4  10  21  37  56  79 108 141 178 220 268 321
#     4  12  24  38  58  83 113 146 185 230 274 326
#     4  10  20  35  56  80 107 139 175 219 269 318
#
# _framework density 19.128091999999999
#
# number of rings (size 3 to 8) (size 9 to 14) (size 15 to 20)
#    0.000    1.600    0.000    5.400    0.000    4.800 
#    0.000    1.000    0.000    1.200    0.000    0.000 
#    0.000    0.000    0.000    0.000    0.000    0.000 
#
# Total GULP energy -496034.580924 kJ/mol
# GULP energy per Si atom -12400.864523 kJ/mol
# Density = 1.908456 g / cm^3
# Si number density = 19.128092 Si / 1000 Ang^3
#
#
#
# Elastic Constant Matrix: (Units=GPa)
#
#
# Indices 1 2 3 4 5 6 
#
# 1 58.8289 28.4664 37.5513 0.0000 0.0000 0.0000
# 2 28.4664 86.8221 33.3738 0.0000 0.0000 0.0000
# 3 37.5513 33.3738 107.1075 0.0000 0.0000 0.0000
# 4 0.0000 0.0000 0.0000 34.4495 0.0000 0.0000
# 5 0.0000 0.0000 0.0000 0.0000 32.7803 0.0000
# 6 0.0000 0.0000 0.0000 0.0000 0.0000 32.0249
#
#
#
# Elastic Compliance Matrix: (Units=1/GPa)
#
#
# Indices 1 2 3 4 5 6 
#
# 1 0.023818 -0.005225 -0.006722 0.000000 0.000000 0.000000
# 2 -0.005225 0.014231 -0.002602 0.000000 0.000000 0.000000
# 3 -0.006722 -0.002602 0.012504 0.000000 0.000000 0.000000
# 4 0.000000 0.000000 0.000000 0.029028 0.000000 0.000000
# 5 0.000000 0.000000 0.000000 0.000000 0.030506 0.000000
# 6 0.000000 0.000000 0.000000 0.000000 0.000000 0.031226
#
#
# Mechanical properties :
#
#
# Convention : Reuss Voigt Hill
#
# Bulk Modulus (GPa) = 46.61252 50.17125 48.39189
# Shear Modulus (GPa) = 28.15889 30.07541 29.11715
#
# Velocity S-wave (km/s) = 3.84099 3.96955 3.90580
# Velocity P-wave (km/s) = 6.64021 6.87719 6.75974
#
# Compressibility (1/GPa) = 0.02145346
#
# Stress axis : x y z
#
# Youngs Moduli (GPa) = 41.98558 70.26747 79.97376
#
# Poissons Ratio (x) = 0.36716 0.53760
# Poissons Ratio (y) = 0.21938 0.20813
# Poissons Ratio (z) = 0.28224 0.18287
#
# Static dielectric constant tensor:
#      x y z
#    x 3.559740 0.000000 0.000000 
#    y 0.000000 3.706660 0.000000 
#    z 0.000000 0.000000 3.677800 
# 
# 
# High freq. dielectric constant tensor:
#      x y z
#    x 1.735900 0.000000 0.000000 
#    y 0.000000 1.762190 0.000000 
#    z 0.000000 0.000000 1.739820 
# 
# From -- ./inp_files/14032.got.cif
#   From: 2010.03.12/outbox.cif.g09.slc.cpg/sg59_8_cif.got.tgz:14032.got - 2010.04.16 16:29:54.
