data_PCOD8243370
_publ_section_title
;
Structure prediction by ZEFSAII (Michael W. Deem and Ramdas Pophale) SiO2 
 PCOD8243370
Probable space group: P M M N
;
_chemical_formula_sum "Si O2"
_cell_formula_units_Z 64
_cell_length_a 9.040036
_cell_length_b 14.534618
_cell_length_c 25.873207
_cell_angle_alpha 90.000000
_cell_angle_beta 90.000000
_cell_angle_gamma 90.000000
_cell_volume 3399.570447
_symmetry_space_group_name_H-M "P M M N"
_symmetry_group_IT_number 59
_space_group.IT_coordinate_system_code '2'
_symmetry_cell_setting 'orthorhombic'
loop_
_space_group_symop_operation_xyz
x,y,z
1/2-x,1/2-y,z
1/2+x,-y,-z
-x,1/2+y,-z
-x,-y,-z
1/2+x,1/2+y,-z
1/2-x,y,z
x,1/2-y,z
loop_
_atom_site_type_symbol
_atom_site_label
_atom_site_fract_x
_atom_site_fract_y
_atom_site_fract_z
Si Si1 0.575673 0.491488 0.445192
Si Si2 0.922871 0.856370 0.629599
Si Si3 0.423786 0.494990 0.172167
Si Si4 0.415173 0.647968 0.897782
Si Si5 0.921920 0.596702 0.997227
Si Si6 0.415856 0.147069 0.887831
Si Si7 0.577301 0.490175 0.710632
Si Si8 0.923554 0.644743 0.363441
O O1 0.500000 0.500000 0.500000
O O2 0.750000 0.480291 0.451910
O O3 0.513928 0.400042 0.417573
O O4 0.534753 0.584104 0.413604
O O5 0.750000 0.863333 0.616027
O O6 0.970234 0.750000 0.637950
O O7 0.960881 0.914648 0.681079
O O8 0.250000 0.478952 0.169157
O O9 0.503279 0.410811 0.145084
O O10 0.464260 0.588141 0.142563
O O11 0.479677 0.499480 0.231005
O O12 0.250000 0.608029 0.907593
O O13 0.406357 0.750000 0.874948
O O14 0.503192 0.653280 0.951416
O O15 0.750000 0.584419 0.984218
O O16 0.947846 0.648501 0.051050
O O17 0.000000 0.500000 0.000000
O O18 0.250000 0.108669 0.877717
O O19 0.430710 0.250000 0.866675
O O20 0.750000 0.469195 0.708633
O O21 0.498387 0.401398 0.686300
O O22 0.750000 0.643377 0.353587
O O23 0.979780 0.750000 0.370995
#
# Coordination Sequence:
#
# PCOD8243370 Si02
#       8
#     8   8   8   8   8   8   8   8
#     4  10  20  34  53  81 117 151 186 229 272 320
#     4   9  18  35  58  80 106 144 186 228 276 328
#     4  11  23  38  58  83 112 145 181 228 281 331
#     4  11  24  40  58  82 112 146 184 226 273 328
#     4  11  21  36  60  85 110 143 181 222 273 330
#     4  10  22  39  58  80 109 145 182 221 269 330
#     4   9  20  37  56  81 109 139 180 229 279 328
#     4   9  19  36  57  80 107 145 189 228 271 324
#
# _framework density 18.825907999999998
#
# number of rings (size 3 to 8) (size 9 to 14) (size 15 to 20)
#    0.000    2.000    1.250    1.875    0.000    5.750 
#    0.000    5.000    0.000    0.000    0.000    0.000 
#    0.000    0.000    0.000    0.000    0.000    0.000 
#
# Total GULP energy -793668.338969 kJ/mol
# GULP energy per Si atom -12401.067796 kJ/mol
# Density = 1.878306 g / cm^3
# Si number density = 18.825908 Si / 1000 Ang^3
#
#
#
# Elastic Constant Matrix: (Units=GPa)
#
#
# Indices 1 2 3 4 5 6 
#
# 1 87.0275 46.1025 60.9846 0.0000 0.0000 0.0000
# 2 46.1025 138.8281 56.8350 0.0000 0.0000 0.0000
# 3 60.9846 56.8350 145.7657 0.0000 0.0000 0.0000
# 4 0.0000 0.0000 0.0000 55.0727 0.0000 0.0000
# 5 0.0000 0.0000 0.0000 0.0000 32.3348 0.0000
# 6 0.0000 0.0000 0.0000 0.0000 0.0000 23.5498
#
#
#
# Elastic Compliance Matrix: (Units=1/GPa)
#
#
# Indices 1 2 3 4 5 6 
#
# 1 0.017470 -0.003343 -0.006006 0.000000 0.000000 0.000000
# 2 -0.003343 0.009211 -0.002193 0.000000 0.000000 0.000000
# 3 -0.006006 -0.002193 0.010228 0.000000 0.000000 0.000000
# 4 0.000000 0.000000 0.000000 0.018158 0.000000 0.000000
# 5 0.000000 0.000000 0.000000 0.000000 0.030926 0.000000
# 6 0.000000 0.000000 0.000000 0.000000 0.000000 0.042463
#
#
# Mechanical properties :
#
#
# Convention : Reuss Voigt Hill
#
# Bulk Modulus (GPa) = 72.32615 77.71840 75.02227
# Shear Modulus (GPa) = 32.02100 36.03806 34.02953
#
# Velocity S-wave (km/s) = 4.12867 4.37999 4.25619
# Velocity P-wave (km/s) = 7.82494 8.18239 8.00566
#
# Compressibility (1/GPa) = 0.01382626
#
# Stress axis : x y z
#
# Youngs Moduli (GPa) = 57.24141 108.56590 97.77163
#
# Poissons Ratio (x) = 0.36292 0.58717
# Poissons Ratio (y) = 0.19135 0.21440
# Poissons Ratio (z) = 0.34377 0.23807
#
# Static dielectric constant tensor:
#      x y z
#    x -1.290790 0.000000 0.000000 
#    y 0.000000 3.539090 0.000000 
#    z 0.000000 0.000000 3.624380 
# 
# 
# High freq. dielectric constant tensor:
#      x y z
#    x 1.735560 0.000000 0.000000 
#    y 0.000000 1.738800 0.000000 
#    z 0.000000 0.000000 1.727070 
# 
# From -- ./inp_files/31566.got.cif
#   From: 2010.03.12/outbox.cif.g09.slc.cpg/sg59_16_cif.got.tgz:31566.got - 2010.04.16 16:29:54.
