data_PCOD8243739
_publ_section_title
;
Structure prediction by ZEFSAII (Michael W. Deem and Ramdas Pophale) SiO2 
 PCOD8243739
Probable space group: P M M N
;
_chemical_formula_sum "Si O2"
_cell_formula_units_Z 48
_cell_length_a 14.643442
_cell_length_b 9.231658
_cell_length_c 19.471174
_cell_angle_alpha 90.000000
_cell_angle_beta 90.000000
_cell_angle_gamma 90.000000
_cell_volume 2632.176553
_symmetry_space_group_name_H-M "P M M N"
_symmetry_group_IT_number 59
_space_group.IT_coordinate_system_code '2'
_symmetry_cell_setting 'orthorhombic'
loop_
_space_group_symop_operation_xyz
x,y,z
1/2-x,1/2-y,z
1/2+x,-y,-z
-x,1/2+y,-z
-x,-y,-z
1/2+x,1/2+y,-z
1/2-x,y,z
x,1/2-y,z
loop_
_atom_site_type_symbol
_atom_site_label
_atom_site_fract_x
_atom_site_fract_y
_atom_site_fract_z
Si Si1 0.643350 0.584225 0.404273
Si Si2 0.750000 0.918470 0.015722
Si Si3 0.350886 0.422070 0.442059
Si Si4 0.947246 0.918848 0.059648
Si Si5 0.058645 0.918690 0.192791
Si Si6 0.006552 0.422291 0.329745
Si Si7 0.250000 0.917104 0.126415
O O1 0.750000 0.570253 0.388813
O O2 0.611212 0.750000 0.394915
O O3 0.620996 0.527782 0.481319
O O4 0.592332 0.483222 0.349699
O O5 0.750000 0.750000 0.998779
O O6 0.840016 0.961334 0.059171
O O7 0.750000 0.996235 0.943423
O O8 0.250000 0.482820 0.423734
O O9 0.347689 0.250000 0.441240
O O10 0.421993 0.481831 0.386467
O O11 0.962509 0.750000 0.046058
O O12 0.988422 0.963151 0.132878
O O13 0.000000 0.000000 0.000000
O O14 0.048535 0.750000 0.212272
O O15 0.161355 0.956824 0.170578
O O16 0.035829 0.018518 0.256612
O O17 0.003536 0.250000 0.327081
O O18 0.250000 0.750000 0.105295
#
# Coordination Sequence:
#
# PCOD8243739 Si02
#       7
#     8   4   8   8   8   8   4
#     4   9  18  36  60  79 102 142 186 226 273 330
#     4  10  20  34  58  88 108 131 176 233 282 325
#     4   8  16  32  54  81 109 140 180 222 270 328
#     4  10  20  36  58  82 110 141 181 227 270 322
#     4  10  22  38  54  77 112 148 183 219 265 330
#     4  11  22  34  54  82 113 146 180 226 275 318
#     4  10  20  36  58  82 108 143 180 221 270 321
#
# _framework density 18.235858
#
# number of rings (size 3 to 8) (size 9 to 14) (size 15 to 20)
#    0.000    2.333    1.667    2.000    1.167    1.667 
#    1.500    0.833    0.000    2.000    0.000    0.000 
#    0.000    0.000    0.000    0.000    0.000    0.000 
#
# Total GULP energy -595226.733280 kJ/mol
# GULP energy per Si atom -12400.556943 kJ/mol
# Density = 1.819435 g / cm^3
# Si number density = 18.235858 Si / 1000 Ang^3
#
#
#
# Elastic Constant Matrix: (Units=GPa)
#
#
# Indices 1 2 3 4 5 6 
#
# 1 140.6612 50.8662 82.3051 0.0000 0.0000 0.0000
# 2 50.8662 57.0543 51.5962 0.0000 0.0000 0.0000
# 3 82.3051 51.5962 118.0762 0.0000 0.0000 0.0000
# 4 0.0000 0.0000 0.0000 31.6505 0.0000 0.0000
# 5 0.0000 0.0000 0.0000 0.0000 25.9461 0.0000
# 6 0.0000 0.0000 0.0000 0.0000 0.0000 23.6152
#
#
#
# Elastic Compliance Matrix: (Units=1/GPa)
#
#
# Indices 1 2 3 4 5 6 
#
# 1 0.013011 -0.005618 -0.006614 0.000000 0.000000 0.000000
# 2 -0.005618 0.031405 -0.009807 0.000000 0.000000 0.000000
# 3 -0.006614 -0.009807 0.017365 0.000000 0.000000 0.000000
# 4 0.000000 0.000000 0.000000 0.031595 0.000000 0.000000
# 5 0.000000 0.000000 0.000000 0.000000 0.038541 0.000000
# 6 0.000000 0.000000 0.000000 0.000000 0.000000 0.042346
#
#
# Mechanical properties :
#
#
# Convention : Reuss Voigt Hill
#
# Bulk Modulus (GPa) = 56.49116 76.14740 66.31928
# Shear Modulus (GPa) = 22.29724 24.97733 23.63728
#
# Velocity S-wave (km/s) = 3.50053 3.70494 3.60418
# Velocity P-wave (km/s) = 6.88357 7.75562 7.33257
#
# Compressibility (1/GPa) = 0.01770188
#
# Stress axis : x y z
#
# Youngs Moduli (GPa) = 76.85602 31.84229 57.58715
#
# Poissons Ratio (x) = 0.17890 0.38091
# Poissons Ratio (y) = 0.43181 0.56474
# Poissons Ratio (z) = 0.50836 0.31227
#
# Static dielectric constant tensor:
#      x y z
#    x 3.782010 0.000000 0.000000 
#    y 0.000000 3.181590 0.000000 
#    z 0.000000 0.000000 3.466030 
# 
# 
# High freq. dielectric constant tensor:
#      x y z
#    x 1.721510 0.000000 0.000000 
#    y 0.000000 1.688900 0.000000 
#    z 0.000000 0.000000 1.702460 
# 
# From -- ./inp_files/27414.got.cif
#   From: 2010.03.12/outbox.cif.g09.slc.cpg/sg59_14_cif.got.tgz:27414.got - 2010.04.16 16:29:54.
