data_PCOD8243070
_publ_section_title
;
Structure prediction by ZEFSAII (Michael W. Deem and Ramdas Pophale) SiO2 
 PCOD8243070
Probable space group: P M M N
;
_chemical_formula_sum "Si O2"
_cell_formula_units_Z 64
_cell_length_a 9.342840
_cell_length_b 23.494588
_cell_length_c 15.292849
_cell_angle_alpha 90.000000
_cell_angle_beta 90.000000
_cell_angle_gamma 90.000000
_cell_volume 3356.874813
_symmetry_space_group_name_H-M "P M M N"
_symmetry_group_IT_number 59
_space_group.IT_coordinate_system_code '2'
_symmetry_cell_setting 'orthorhombic'
loop_
_space_group_symop_operation_xyz
x,y,z
1/2-x,1/2-y,z
1/2+x,-y,-z
-x,1/2+y,-z
-x,-y,-z
1/2+x,1/2+y,-z
1/2-x,y,z
x,1/2-y,z
loop_
_atom_site_type_symbol
_atom_site_label
_atom_site_fract_x
_atom_site_fract_y
_atom_site_fract_z
Si Si1 0.903719 0.815279 0.976394
Si Si2 0.079748 0.885379 0.655166
Si Si3 0.917076 0.379456 0.685979
Si Si4 0.580596 0.185218 0.511014
Si Si5 0.917430 0.869535 0.149134
Si Si6 0.585800 0.510216 0.720994
Si Si7 0.914357 0.183612 0.178948
Si Si8 0.419498 0.520830 0.086676
O O1 0.750000 0.845557 0.960544
O O2 0.893876 0.750000 0.951740
O O3 0.014395 0.842815 0.908416
O O4 0.942568 0.819873 0.078376
O O5 0.250000 0.892409 0.651791
O O6 0.022051 0.851456 0.570540
O O7 0.025352 0.848745 0.737178
O O8 0.011288 0.947771 0.663410
O O9 0.750000 0.368759 0.705680
O O10 0.966046 0.349679 0.596652
O O11 0.951099 0.446745 0.686758
O O12 0.013227 0.349211 0.760117
O O13 0.750000 0.189364 0.504525
O O14 0.517871 0.250000 0.511387
O O15 0.750000 0.885284 0.162033
O O16 0.009393 0.919906 0.108978
O O17 0.750000 0.524371 0.700610
O O18 0.556132 0.517390 0.825641
O O19 0.750000 0.170341 0.166275
O O20 0.944210 0.250000 0.193453
O O21 0.250000 0.527323 0.067942
O O22 0.500000 0.500000 0.000000
#
# Coordination Sequence:
#
# PCOD8243070 Si02
#       8
#     8   8   8   8   8   8   8   8
#     4   9  19  34  50  71 102 141 180 215 264 329
#     4  10  20  33  54  83 109 138 179 227 274 329
#     4   9  19  37  57  78 107 143 183 226 274 331
#     4   9  18  35  60  86 110 139 179 229 284 335
#     4  10  20  34  53  77 106 141 179 225 275 321
#     4   9  20  36  51  74 110 147 180 219 270 325
#     4   9  18  32  49  72 103 136 173 222 274 322
#     4  10  21  36  54  77 108 145 185 228 270 320
#
# _framework density 19.065353000000002
#
# number of rings (size 3 to 8) (size 9 to 14) (size 15 to 20)
#    0.000    2.625    0.000    1.875    1.750    6.500 
#    0.000    0.625    0.000    1.875    0.000    0.000 
#    0.000    0.000    0.000    0.000    0.000    0.000 
#
# Total GULP energy -793114.387406 kJ/mol
# GULP energy per Si atom -12392.412303 kJ/mol
# Density = 1.902196 g / cm^3
# Si number density = 19.065353 Si / 1000 Ang^3
#
#
#
# Elastic Constant Matrix: (Units=GPa)
#
#
# Indices 1 2 3 4 5 6 
#
# 1 66.5431 36.5191 58.6931 0.0000 0.0000 0.0000
# 2 36.5191 63.0536 66.2913 0.0000 0.0000 0.0000
# 3 58.6931 66.2913 168.7192 0.0000 0.0000 0.0000
# 4 0.0000 0.0000 0.0000 34.7531 0.0000 0.0000
# 5 0.0000 0.0000 0.0000 0.0000 24.4527 0.0000
# 6 0.0000 0.0000 0.0000 0.0000 0.0000 18.2565
#
#
#
# Elastic Compliance Matrix: (Units=1/GPa)
#
#
# Indices 1 2 3 4 5 6 
#
# 1 0.024253 -0.008820 -0.004972 0.000000 0.000000 0.000000
# 2 -0.008820 0.030229 -0.008809 0.000000 0.000000 0.000000
# 3 -0.004972 -0.008809 0.011118 0.000000 0.000000 0.000000
# 4 0.000000 0.000000 0.000000 0.028774 0.000000 0.000000
# 5 0.000000 0.000000 0.000000 0.000000 0.040895 0.000000
# 6 0.000000 0.000000 0.000000 0.000000 0.000000 0.054775
#
#
# Mechanical properties :
#
#
# Convention : Reuss Voigt Hill
#
# Bulk Modulus (GPa) = 49.02242 69.03587 59.02915
# Shear Modulus (GPa) = 20.65719 24.61330 22.63524
#
# Velocity S-wave (km/s) = 3.29522 3.59694 3.44938
# Velocity P-wave (km/s) = 6.34402 7.31706 6.84785
#
# Compressibility (1/GPa) = 0.02039883
#
# Stress axis : x y z
#
# Youngs Moduli (GPa) = 41.23117 33.08053 89.94664
#
# Poissons Ratio (x) = 0.29177 0.44719
# Poissons Ratio (y) = 0.36366 0.79235
# Poissons Ratio (z) = 0.20499 0.29141
#
# Static dielectric constant tensor:
#      x y z
#    x 3.522780 0.000000 0.000000 
#    y 0.000000 3.396550 0.000000 
#    z 0.000000 0.000000 4.079660 
# 
# 
# High freq. dielectric constant tensor:
#      x y z
#    x 1.726190 0.000000 0.000000 
#    y 0.000000 1.731470 0.000000 
#    z 0.000000 0.000000 1.749850 
# 
# From -- ./inp_files/21460.got.cif
#   From: 2010.03.12/outbox.cif.g09.slc.cpg/sg59_11_cif.got.tgz:21460.got - 2010.04.16 16:29:54.
