data_PCOD8243996
_publ_section_title
;
Structure prediction by ZEFSAII (Michael W. Deem and Ramdas Pophale) SiO2 
 PCOD8243996
Probable space group: P M M N
;
_chemical_formula_sum "Si O2"
_cell_formula_units_Z 56
_cell_length_a 14.393497
_cell_length_b 8.748359
_cell_length_c 22.288003
_cell_angle_alpha 90.000000
_cell_angle_beta 90.000000
_cell_angle_gamma 90.000000
_cell_volume 2806.493726
_symmetry_space_group_name_H-M "P M M N"
_symmetry_group_IT_number 59
_space_group.IT_coordinate_system_code '2'
_symmetry_cell_setting 'orthorhombic'
loop_
_space_group_symop_operation_xyz
x,y,z
1/2-x,1/2-y,z
1/2+x,-y,-z
-x,1/2+y,-z
-x,-y,-z
1/2+x,1/2+y,-z
1/2-x,y,z
x,1/2-y,z
loop_
_atom_site_type_symbol
_atom_site_label
_atom_site_fract_x
_atom_site_fract_y
_atom_site_fract_z
Si Si1 0.405106 0.422291 0.870917
Si Si2 0.454657 0.567628 0.289896
Si Si3 0.088229 0.071566 0.167521
Si Si4 0.347140 0.076502 0.740044
Si Si5 0.642540 0.930058 0.469992
Si Si6 0.750000 0.070571 0.907571
Si Si7 0.750000 0.571009 0.035594
Si Si8 0.531124 0.570444 0.588288
O O1 0.444777 0.250000 0.879393
O O2 0.489043 0.539938 0.862717
O O3 0.342341 0.427988 0.811839
O O4 0.342310 0.471081 0.927057
O O5 0.450162 0.750000 0.287207
O O6 0.397473 0.503892 0.233353
O O7 0.559663 0.498301 0.284463
O O8 0.419416 0.504888 0.353543
O O9 0.104717 0.250000 0.174793
O O10 0.160532 0.001768 0.122074
O O11 0.250000 0.999657 0.716681
O O12 0.348918 0.250000 0.716923
O O13 0.750000 0.987986 0.464401
O O14 0.638731 0.750000 0.459440
O O15 0.601048 0.974541 0.534835
O O16 0.573953 0.006937 0.421265
O O17 0.750000 0.250000 0.897496
O O18 0.750000 0.033710 0.977648
O O19 0.750000 0.750000 0.018836
O O20 0.524215 0.750000 0.597012
#
# Coordination Sequence:
#
# PCOD8243996 Si02
#       8
#     8   8   8   8   8   4   4   8
#     4   9  17  33  59  87 115 149 188 232 285 349
#     4  10  20  35  57  83 115 154 195 236 284 346
#     4  11  23  41  62  84 115 153 193 243 298 347
#     4   8  13  25  48  77 106 141 183 225 273 332
#     4   9  19  37  59  81 111 154 195 233 285 345
#     4  12  26  44  62  82 112 150 197 248 297 348
#     4  10  20  36  62  92 120 152 193 236 287 350
#     4  10  20  35  56  84 117 149 190 242 288 336
#
# _framework density 19.953724000000001
#
# number of rings (size 3 to 8) (size 9 to 14) (size 15 to 20)
#    0.000    2.286    0.714    3.643    0.000    2.571 
#    1.286    1.429    0.000    0.857    0.000    0.000 
#    0.000    0.000    0.000    0.000    0.000    0.000 
#
# Total GULP energy -694064.865847 kJ/mol
# GULP energy per Si atom -12394.015462 kJ/mol
# Density = 1.990831 g / cm^3
# Si number density = 19.953724 Si / 1000 Ang^3
#
#
#
# Elastic Constant Matrix: (Units=GPa)
#
#
# Indices 1 2 3 4 5 6 
#
# 1 61.4346 21.6267 15.6019 0.0000 0.0000 0.0000
# 2 21.6267 86.0245 36.7887 0.0000 0.0000 0.0000
# 3 15.6019 36.7887 110.4197 0.0000 0.0000 0.0000
# 4 0.0000 0.0000 0.0000 33.9886 0.0000 0.0000
# 5 0.0000 0.0000 0.0000 0.0000 37.2330 0.0000
# 6 0.0000 0.0000 0.0000 0.0000 0.0000 135.7815
#
#
#
# Elastic Compliance Matrix: (Units=1/GPa)
#
#
# Indices 1 2 3 4 5 6 
#
# 1 0.017995 -0.004008 -0.001207 0.000000 0.000000 0.000000
# 2 -0.004008 0.014449 -0.004248 0.000000 0.000000 0.000000
# 3 -0.001207 -0.004248 0.010642 0.000000 0.000000 0.000000
# 4 0.000000 0.000000 0.000000 0.029422 0.000000 0.000000
# 5 0.000000 0.000000 0.000000 0.000000 0.026858 0.000000
# 6 0.000000 0.000000 0.000000 0.000000 0.000000 0.007365
#
#
# Mechanical properties :
#
#
# Convention : Reuss Voigt Hill
#
# Bulk Modulus (GPa) = 41.38998 45.10150 43.24574
# Shear Modulus (GPa) = 37.39474 53.65805 45.52640
#
# Velocity S-wave (km/s) = 4.33375 5.19130 4.78179
# Velocity P-wave (km/s) = 6.76978 7.65408 7.22547
#
# Compressibility (1/GPa) = 0.02416043
#
# Stress axis : x y z
#
# Youngs Moduli (GPa) = 55.57133 69.21073 93.96609
#
# Poissons Ratio (x) = 0.27737 0.11345
# Poissons Ratio (y) = 0.22271 0.39913
# Poissons Ratio (z) = 0.06710 0.29398
#
# Static dielectric constant tensor:
#      x y z
#    x 3.592070 0.000000 0.000000 
#    y 0.000000 3.405600 0.000000 
#    z 0.000000 0.000000 3.644180 
# 
# 
# High freq. dielectric constant tensor:
#      x y z
#    x 1.774360 0.000000 0.000000 
#    y 0.000000 1.758770 0.000000 
#    z 0.000000 0.000000 1.780990 
# 
# From -- ./inp_files/30510.got.cif
#   From: 2010.03.12/outbox.cif.g09.slc.cpg/sg59_16_cif.got.tgz:30510.got - 2010.04.16 16:29:54.
