data_PCOD8243450
_publ_section_title
;
Structure prediction by ZEFSAII (Michael W. Deem and Ramdas Pophale) SiO2 
 PCOD8243450
Probable space group: P M M N
;
_chemical_formula_sum "Si O2"
_cell_formula_units_Z 64
_cell_length_a 9.050092
_cell_length_b 14.410192
_cell_length_c 25.094035
_cell_angle_alpha 90.000000
_cell_angle_beta 90.000000
_cell_angle_gamma 90.000000
_cell_volume 3272.602523
_symmetry_space_group_name_H-M "P M M N"
_symmetry_group_IT_number 59
_space_group.IT_coordinate_system_code '2'
_symmetry_cell_setting 'orthorhombic'
loop_
_space_group_symop_operation_xyz
x,y,z
1/2-x,1/2-y,z
1/2+x,-y,-z
-x,1/2+y,-z
-x,-y,-z
1/2+x,1/2+y,-z
1/2-x,y,z
x,1/2-y,z
loop_
_atom_site_type_symbol
_atom_site_label
_atom_site_fract_x
_atom_site_fract_y
_atom_site_fract_z
Si Si1 0.417593 0.149328 0.584391
Si Si2 0.574981 0.143810 0.772945
Si Si3 0.421818 0.644616 0.634278
Si Si4 0.925038 0.029024 0.670253
Si Si5 0.424916 0.903444 0.513550
Si Si6 0.922701 0.540570 0.130811
Si Si7 0.577180 0.353258 0.082976
Si Si8 0.079588 0.356419 0.975086
O O1 0.250000 0.112141 0.576426
O O2 0.416151 0.250000 0.613085
O O3 0.499213 0.166154 0.528144
O O4 0.506515 0.074526 0.617938
O O5 0.750000 0.143813 0.776478
O O6 0.515608 0.250000 0.771023
O O7 0.513551 0.089445 0.823275
O O8 0.520722 0.088097 0.720952
O O9 0.250000 0.623527 0.643494
O O10 0.460611 0.750000 0.650524
O O11 0.515084 0.576443 0.672788
O O12 0.464802 0.629527 0.572758
O O13 0.750000 0.028691 0.665521
O O14 0.250000 0.906354 0.504605
O O15 0.500000 0.000000 0.500000
O O16 0.750000 0.559115 0.141026
O O17 0.959176 0.429808 0.128512
O O18 0.974469 0.583419 0.074791
O O19 0.750000 0.350514 0.072671
O O20 0.519579 0.250000 0.100064
O O21 0.507529 0.386719 0.027606
O O22 0.250000 0.374423 0.987355
O O23 0.047430 0.250000 0.960576
#
# Coordination Sequence:
#
# PCOD8243450 Si02
#       8
#     8   8   8   8   8   8   8   8
#     4  11  23  37  56  84 116 150 189 230 276 335
#     4  10  23  42  61  83 110 139 177 227 283 340
#     4  10  22  40  61  85 116 152 189 230 276 330
#     4  11  23  40  62  84 110 145 185 234 287 337
#     4  11  21  35  57  85 118 154 189 227 275 330
#     4  10  20  34  54  80 110 146 186 229 277 329
#     4   9  18  32  50  76 111 149 188 227 268 318
#     4   9  17  29  47  75 110 145 184 229 276 328
#
# _framework density 19.5563
#
# number of rings (size 3 to 8) (size 9 to 14) (size 15 to 20)
#    0.000    1.875    1.250    2.625    0.000    5.500 
#    0.000    1.875    0.000    2.250    0.000    0.000 
#    0.000    0.000    0.000    0.000    0.000    0.000 
#
# Total GULP energy -793491.197310 kJ/mol
# GULP energy per Si atom -12398.299958 kJ/mol
# Density = 1.951179 g / cm^3
# Si number density = 19.556300 Si / 1000 Ang^3
#
#
#
# Elastic Constant Matrix: (Units=GPa)
#
#
# Indices 1 2 3 4 5 6 
#
# 1 55.0638 43.3722 35.4192 0.0000 0.0000 0.0000
# 2 43.3722 138.2538 64.4605 0.0000 0.0000 0.0000
# 3 35.4192 64.4605 89.6817 0.0000 0.0000 0.0000
# 4 0.0000 0.0000 0.0000 31.6926 0.0000 0.0000
# 5 0.0000 0.0000 0.0000 0.0000 29.2644 0.0000
# 6 0.0000 0.0000 0.0000 0.0000 0.0000 27.9128
#
#
#
# Elastic Compliance Matrix: (Units=1/GPa)
#
#
# Indices 1 2 3 4 5 6 
#
# 1 0.026607 -0.005185 -0.006781 0.000000 0.000000 0.000000
# 2 -0.005185 0.011889 -0.006498 0.000000 0.000000 0.000000
# 3 -0.006781 -0.006498 0.018499 0.000000 0.000000 0.000000
# 4 0.000000 0.000000 0.000000 0.031553 0.000000 0.000000
# 5 0.000000 0.000000 0.000000 0.000000 0.034171 0.000000
# 6 0.000000 0.000000 0.000000 0.000000 0.000000 0.035826
#
#
# Mechanical properties :
#
#
# Convention : Reuss Voigt Hill
#
# Bulk Modulus (GPa) = 49.83333 63.27810 56.55572
# Shear Modulus (GPa) = 24.73248 27.09046 25.91147
#
# Velocity S-wave (km/s) = 3.56009 3.72594 3.64396
# Velocity P-wave (km/s) = 6.51432 7.13704 6.83277
#
# Compressibility (1/GPa) = 0.02006689
#
# Stress axis : x y z
#
# Youngs Moduli (GPa) = 37.58411 84.10877 54.05639
#
# Poissons Ratio (x) = 0.43613 0.36657
# Poissons Ratio (y) = 0.19488 0.35125
# Poissons Ratio (z) = 0.25487 0.54652
#
# Static dielectric constant tensor:
#      x y z
#    x 3.548560 0.000000 0.000000 
#    y 0.000000 3.976540 0.000000 
#    z 0.000000 0.000000 3.418650 
# 
# 
# High freq. dielectric constant tensor:
#      x y z
#    x 1.756830 0.000000 0.000000 
#    y 0.000000 1.783920 0.000000 
#    z 0.000000 0.000000 1.737760 
# 
# From -- ./inp_files/31450.got.cif
#   From: 2010.03.12/outbox.cif.g09.slc.cpg/sg59_16_cif.got.tgz:31450.got - 2010.04.16 16:29:54.
