data_PCOD8243040
_publ_section_title
;
Structure prediction by ZEFSAII (Michael W. Deem and Ramdas Pophale) SiO2 
 PCOD8243040
Probable space group: P M M N
;
_chemical_formula_sum "Si O2"
_cell_formula_units_Z 64
_cell_length_a 14.584666
_cell_length_b 9.001070
_cell_length_c 24.571437
_cell_angle_alpha 90.000000
_cell_angle_beta 90.000000
_cell_angle_gamma 90.000000
_cell_volume 3225.679268
_symmetry_space_group_name_H-M "P M M N"
_symmetry_group_IT_number 59
_space_group.IT_coordinate_system_code '2'
_symmetry_cell_setting 'orthorhombic'
loop_
_space_group_symop_operation_xyz
x,y,z
1/2-x,1/2-y,z
1/2+x,-y,-z
-x,1/2+y,-z
-x,-y,-z
1/2+x,1/2+y,-z
1/2-x,y,z
x,1/2-y,z
loop_
_atom_site_type_symbol
_atom_site_label
_atom_site_fract_x
_atom_site_fract_y
_atom_site_fract_z
Si Si1 0.856194 0.921291 0.967773
Si Si2 0.150173 0.413031 0.628898
Si Si3 0.854667 0.427446 0.653362
Si Si4 0.025798 0.922143 0.122818
Si Si5 0.648218 0.422747 0.264381
Si Si6 0.518965 0.082465 0.555493
Si Si7 0.855533 0.425632 0.080585
Si Si8 0.031039 0.919424 0.243125
O O1 0.750000 0.937858 0.953210
O O2 0.883061 0.750000 0.978194
O O3 0.911870 0.984138 0.917360
O O4 0.881430 0.017091 0.020578
O O5 0.250000 0.427417 0.601810
O O6 0.138422 0.250000 0.657210
O O7 0.135317 0.542942 0.672020
O O8 0.079932 0.429541 0.581150
O O9 0.750000 0.486903 0.653213
O O10 0.856317 0.250000 0.654392
O O11 0.906271 0.485280 0.598407
O O12 0.905831 0.488577 0.708340
O O13 0.020891 0.750000 0.105194
O O14 0.073653 0.935438 0.182681
O O15 0.922834 0.991223 0.122657
O O16 0.750000 0.475774 0.245054
O O17 0.637155 0.250000 0.253655
O O18 0.567374 0.505364 0.233831
O O19 0.548923 0.250000 0.542152
O O20 0.500000 0.000000 0.500000
O O21 0.750000 0.465332 0.095241
O O22 0.871805 0.250000 0.083418
O O23 0.013951 0.750000 0.259081
#
# Coordination Sequence:
#
# PCOD8243040 Si02
#       8
#     8   8   8   8   8   8   8   8
#     4  10  21  38  60  84 114 152 193 239 289 343
#     4   9  17  32  54  76 102 138 177 217 263 324
#     4   9  18  36  60  82 107 144 189 232 274 323
#     4  11  23  36  56  85 116 149 190 241 290 340
#     4  10  20  33  53  81 109 138 174 222 278 330
#     4  10  20  34  54  81 111 143 180 225 276 331
#     4  10  21  38  60  84 114 153 193 236 288 346
#     4  10  21  38  58  81 109 148 193 233 275 330
#
# _framework density 19.840782000000001
#
# number of rings (size 3 to 8) (size 9 to 14) (size 15 to 20)
#    0.000    2.125    1.250    1.875    0.000    5.250 
#    0.000    3.750    0.000    1.125    0.000    0.000 
#    0.000    0.000    0.000    0.000    0.000    0.000 
#
# Total GULP energy -793095.205948 kJ/mol
# GULP energy per Si atom -12392.112593 kJ/mol
# Density = 1.979562 g / cm^3
# Si number density = 19.840782 Si / 1000 Ang^3
#
#
#
# Elastic Constant Matrix: (Units=GPa)
#
#
# Indices 1 2 3 4 5 6 
#
# 1 99.8466 27.3321 48.6364 0.0000 0.0000 0.0000
# 2 27.3321 52.8535 21.2722 0.0000 0.0000 0.0000
# 3 48.6364 21.2722 105.3579 0.0000 0.0000 0.0000
# 4 0.0000 0.0000 0.0000 27.4782 0.0000 0.0000
# 5 0.0000 0.0000 0.0000 0.0000 13.8145 0.0000
# 6 0.0000 0.0000 0.0000 0.0000 0.0000 25.7087
#
#
#
# Elastic Compliance Matrix: (Units=1/GPa)
#
#
# Indices 1 2 3 4 5 6 
#
# 1 0.014069 -0.005074 -0.005470 0.000000 0.000000 0.000000
# 2 -0.005074 0.022424 -0.002185 0.000000 0.000000 0.000000
# 3 -0.005470 -0.002185 0.012458 0.000000 0.000000 0.000000
# 4 0.000000 0.000000 0.000000 0.036392 0.000000 0.000000
# 5 0.000000 0.000000 0.000000 0.000000 0.072388 0.000000
# 6 0.000000 0.000000 0.000000 0.000000 0.000000 0.038897
#
#
# Mechanical properties :
#
#
# Convention : Reuss Voigt Hill
#
# Bulk Modulus (GPa) = 42.56788 50.28216 46.42502
# Shear Modulus (GPa) = 21.74702 24.12145 22.93423
#
# Velocity S-wave (km/s) = 3.31430 3.49054 3.40356
# Velocity P-wave (km/s) = 6.01227 6.45314 6.23660
#
# Compressibility (1/GPa) = 0.02349189
#
# Stress axis : x y z
#
# Youngs Moduli (GPa) = 71.07896 44.59599 80.27056
#
# Poissons Ratio (x) = 0.22627 0.43910
# Poissons Ratio (y) = 0.36064 0.17541
# Poissons Ratio (z) = 0.38882 0.09745
#
# Static dielectric constant tensor:
#      x y z
#    x 3.565880 0.000000 0.000000 
#    y 0.000000 3.580010 0.000000 
#    z 0.000000 0.000000 3.603250 
# 
# 
# High freq. dielectric constant tensor:
#      x y z
#    x 1.780960 0.000000 0.000000 
#    y 0.000000 1.755370 0.000000 
#    z 0.000000 0.000000 1.769810 
# 
# From -- ./inp_files/32209.got.cif
#   From: 2010.03.12/outbox.cif.g09.slc.cpg/sg59_17_cif.got.tgz:32209.got - 2010.04.16 16:29:54.
