data_PCOD8243401
_publ_section_title
;
Structure prediction by ZEFSAII (Michael W. Deem and Ramdas Pophale) SiO2 
 PCOD8243401
Probable space group: P M M N
;
_chemical_formula_sum "Si O2"
_cell_formula_units_Z 48
_cell_length_a 9.488441
_cell_length_b 15.007326
_cell_length_c 17.169856
_cell_angle_alpha 90.000000
_cell_angle_beta 90.000000
_cell_angle_gamma 90.000000
_cell_volume 2444.921001
_symmetry_space_group_name_H-M "P M M N"
_symmetry_group_IT_number 59
_space_group.IT_coordinate_system_code '2'
_symmetry_cell_setting 'orthorhombic'
loop_
_space_group_symop_operation_xyz
x,y,z
1/2-x,1/2-y,z
1/2+x,-y,-z
-x,1/2+y,-z
-x,-y,-z
1/2+x,1/2+y,-z
1/2-x,y,z
x,1/2-y,z
loop_
_atom_site_type_symbol
_atom_site_label
_atom_site_fract_x
_atom_site_fract_y
_atom_site_fract_z
Si Si1 0.917810 0.250000 0.879341
Si Si2 0.583284 0.250000 0.701239
Si Si3 0.402494 0.647728 0.840398
Si Si4 0.412658 0.588868 0.406999
Si Si5 0.085095 0.591453 0.009184
Si Si6 0.587603 0.088040 0.415579
Si Si7 0.597866 0.849787 0.712790
O O1 0.750000 0.250000 0.882206
O O2 0.975577 0.250000 0.790055
O O3 0.969449 0.158536 0.922316
O O4 0.750000 0.250000 0.703513
O O5 0.532531 0.163491 0.653180
O O6 0.250000 0.601070 0.828049
O O7 0.390710 0.750000 0.814876
O O8 0.516567 0.599805 0.783804
O O9 0.445894 0.643975 0.929958
O O10 0.250000 0.562049 0.390206
O O11 0.425597 0.622203 0.496016
O O12 0.516685 0.506668 0.397569
O O13 0.250000 0.569214 0.021167
O O14 0.000000 0.500000 0.000000
O O15 0.750000 0.084090 0.389449
O O16 0.499735 0.156153 0.363417
O O17 0.750000 0.897460 0.698042
O O18 0.629276 0.750000 0.739341
#
# Coordination Sequence:
#
# PCOD8243401 Si02
#       7
#     4   4   8   8   8   8   8
#     4   9  18  36  59  82 113 148 190 235 287 343
#     4   9  18  34  59  86 109 146 192 237 281 333
#     4   9  17  33  54  74 104 144 181 220 270 332
#     4   9  19  35  55  79 109 145 190 234 274 325
#     4  10  20  35  57  85 113 148 189 232 282 345
#     4  10  20  34  54  78 111 150 186 228 278 333
#     4  10  21  34  51  79 109 137 176 226 279 332
#
# _framework density 19.632535000000001
#
# number of rings (size 3 to 8) (size 9 to 14) (size 15 to 20)
#    0.000    2.500    0.833    1.000    1.167    3.667 
#    0.000    2.500    0.000    1.000    0.000    0.000 
#    0.000    0.000    0.000    0.000    0.000    0.000 
#
# Total GULP energy -594680.895185 kJ/mol
# GULP energy per Si atom -12389.185316 kJ/mol
# Density = 1.958785 g / cm^3
# Si number density = 19.632535 Si / 1000 Ang^3
#
#
#
# Elastic Constant Matrix: (Units=GPa)
#
#
# Indices 1 2 3 4 5 6 
#
# 1 110.4159 30.3624 60.3676 0.0000 0.0000 0.0000
# 2 30.3624 80.8217 48.4150 0.0000 0.0000 0.0000
# 3 60.3676 48.4150 142.8602 0.0000 0.0000 0.0000
# 4 0.0000 0.0000 0.0000 17.3912 0.0000 0.0000
# 5 0.0000 0.0000 0.0000 0.0000 22.8926 0.0000
# 6 0.0000 0.0000 0.0000 0.0000 0.0000 24.3526
#
#
#
# Elastic Compliance Matrix: (Units=1/GPa)
#
#
# Indices 1 2 3 4 5 6 
#
# 1 0.011993 -0.001844 -0.004443 0.000000 0.000000 0.000000
# 2 -0.001844 0.015808 -0.004578 0.000000 0.000000 0.000000
# 3 -0.004443 -0.004578 0.010429 0.000000 0.000000 0.000000
# 4 0.000000 0.000000 0.000000 0.057500 0.000000 0.000000
# 5 0.000000 0.000000 0.000000 0.000000 0.043682 0.000000
# 6 0.000000 0.000000 0.000000 0.000000 0.000000 0.041063
#
#
# Mechanical properties :
#
#
# Convention : Reuss Voigt Hill
#
# Bulk Modulus (GPa) = 60.60678 68.04309 64.32493
# Shear Modulus (GPa) = 24.07258 25.92414 24.99836
#
# Velocity S-wave (km/s) = 3.50545 3.63777 3.57222
# Velocity P-wave (km/s) = 6.87909 7.23727 7.06045
#
# Compressibility (1/GPa) = 0.01649980
#
# Stress axis : x y z
#
# Youngs Moduli (GPa) = 83.38396 63.25874 95.88896
#
# Poissons Ratio (x) = 0.11665 0.42601
# Poissons Ratio (y) = 0.15376 0.43899
# Poissons Ratio (z) = 0.37046 0.28961
#
# Static dielectric constant tensor:
#      x y z
#    x 3.783740 0.000000 0.000000 
#    y 0.000000 3.409020 0.000000 
#    z 0.000000 0.000000 3.822130 
# 
# 
# High freq. dielectric constant tensor:
#      x y z
#    x 1.751590 0.000000 0.000000 
#    y 0.000000 1.740310 0.000000 
#    z 0.000000 0.000000 1.774530 
# 
# From -- ./inp_files/25623.got.cif
#   From: 2010.03.12/outbox.cif.g09.slc.cpg/sg59_13_cif.got.tgz:25623.got - 2010.04.16 16:29:54.
