data_PCOD8243360
_publ_section_title
;
Structure prediction by ZEFSAII (Michael W. Deem and Ramdas Pophale) SiO2 
 PCOD8243360
Probable space group: P M M N
;
_chemical_formula_sum "Si O2"
_cell_formula_units_Z 64
_cell_length_a 8.940434
_cell_length_b 14.593834
_cell_length_c 26.050388
_cell_angle_alpha 90.000000
_cell_angle_beta 90.000000
_cell_angle_gamma 90.000000
_cell_volume 3398.929837
_symmetry_space_group_name_H-M "P M M N"
_symmetry_group_IT_number 59
_space_group.IT_coordinate_system_code '2'
_symmetry_cell_setting 'orthorhombic'
loop_
_space_group_symop_operation_xyz
x,y,z
1/2-x,1/2-y,z
1/2+x,-y,-z
-x,1/2+y,-z
-x,-y,-z
1/2+x,1/2+y,-z
1/2-x,y,z
x,1/2-y,z
loop_
_atom_site_type_symbol
_atom_site_label
_atom_site_fract_x
_atom_site_fract_y
_atom_site_fract_z
Si Si1 0.573525 0.493051 0.445041
Si Si2 0.925402 0.855709 0.628823
Si Si3 0.426618 0.506626 0.174183
Si Si4 0.581271 0.649286 0.902159
Si Si5 0.073069 0.598098 0.002437
Si Si6 0.416596 0.147390 0.895490
Si Si7 0.574910 0.492649 0.709514
Si Si8 0.926218 0.644985 0.363768
O O1 0.500000 0.500000 0.500000
O O2 0.750000 0.484720 0.450749
O O3 0.513319 0.400650 0.418481
O O4 0.527914 0.584503 0.413359
O O5 0.750000 0.861501 0.616690
O O6 0.975684 0.750000 0.636315
O O7 0.966660 0.913567 0.679763
O O8 0.250000 0.520313 0.171540
O O9 0.478731 0.419014 0.141239
O O10 0.505312 0.594207 0.150430
O O11 0.481362 0.493716 0.232405
O O12 0.750000 0.621949 0.919319
O O13 0.579493 0.750000 0.877301
O O14 0.474623 0.651696 0.951510
O O15 0.250000 0.591815 0.005794
O O16 0.013471 0.647832 0.052871
O O17 0.000000 0.500000 0.000000
O O18 0.250000 0.107660 0.906497
O O19 0.405182 0.250000 0.875163
O O20 0.750000 0.473713 0.706989
O O21 0.496848 0.402749 0.686143
O O22 0.750000 0.644593 0.356166
O O23 0.984597 0.750000 0.370016
#
# Coordination Sequence:
#
# PCOD8243360 Si02
#       8
#     8   8   8   8   8   8   8   8
#     4  10  20  34  53  80 114 148 184 228 275 325
#     4   9  18  34  56  80 109 147 188 228 272 324
#     4  10  21  37  57  81 111 145 178 221 275 326
#     4  10  21  37  57  82 111 143 179 218 264 322
#     4  12  23  37  59  83 109 142 178 219 270 325
#     4  11  24  40  58  81 109 143 182 223 269 325
#     4   9  19  35  55  81 109 139 181 229 274 319
#     4   9  19  36  56  77 104 143 186 224 270 326
#
# _framework density 18.829456
#
# number of rings (size 3 to 8) (size 9 to 14) (size 15 to 20)
#    0.000    2.000    1.250    2.250    0.000    5.750 
#    0.000    6.250    0.000    0.000    0.000    3.500 
#    0.000    0.000    0.000    0.000    0.000    0.000 
#
# Total GULP energy -793616.204163 kJ/mol
# GULP energy per Si atom -12400.253190 kJ/mol
# Density = 1.878660 g / cm^3
# Si number density = 18.829456 Si / 1000 Ang^3
#
#
#
# Elastic Constant Matrix: (Units=GPa)
#
#
# Indices 1 2 3 4 5 6 
#
# 1 63.4349 35.3829 53.2473 0.0000 0.0000 0.0000
# 2 35.3829 141.9285 65.9390 0.0000 0.0000 0.0000
# 3 53.2473 65.9390 159.9077 0.0000 0.0000 0.0000
# 4 0.0000 0.0000 0.0000 -5.0587 0.0000 0.0000
# 5 0.0000 0.0000 0.0000 0.0000 30.0890 0.0000
# 6 0.0000 0.0000 0.0000 0.0000 0.0000 28.5732
#
#
#
# Elastic Compliance Matrix: (Units=1/GPa)
#
#
# Indices 1 2 3 4 5 6 
#
# 1 0.022659 -0.002651 -0.006452 0.000000 0.000000 0.000000
# 2 -0.002651 0.009026 -0.002839 0.000000 0.000000 0.000000
# 3 -0.006452 -0.002839 0.009573 0.000000 0.000000 0.000000
# 4 0.000000 0.000000 0.000000 -0.197680 0.000000 0.000000
# 5 0.000000 0.000000 0.000000 0.000000 0.033235 0.000000
# 6 0.000000 0.000000 0.000000 0.000000 0.000000 0.034998
#
#
# Mechanical properties :
#
#
# Convention : Reuss Voigt Hill
#
# Bulk Modulus (GPa) = 57.56099 74.93440 66.24769
# Shear Modulus (GPa) = -85.44790 24.76749 -30.34020
#
# Velocity S-wave (km/s) = -6.74377 3.63072 -4.01847
# Velocity P-wave (km/s) = 5.47740 7.58017 3.70520
#
# Compressibility (1/GPa) = 0.01737288
#
# Stress axis : x y z
#
# Youngs Moduli (GPa) = 44.13320 110.79408 104.46465
#
# Poissons Ratio (x) = 0.29376 0.67398
# Poissons Ratio (y) = 0.11701 0.29657
# Poissons Ratio (z) = 0.28474 0.31454
#
# Static dielectric constant tensor:
#      x y z
#    x 3.488000 0.000000 0.000000 
#    y 0.000000 3.586490 0.000000 
#    z 0.000000 0.000000 3.639090 
# 
# 
# High freq. dielectric constant tensor:
#      x y z
#    x 1.729440 0.000000 0.000000 
#    y 0.000000 1.739840 0.000000 
#    z 0.000000 0.000000 1.726700 
# 
# From -- ./inp_files/31595.got.cif
#   From: 2010.03.12/outbox.cif.g09.slc.cpg/sg59_16_cif.got.tgz:31595.got - 2010.04.16 16:29:54.
