data_PCOD8243397
_publ_section_title
;
Structure prediction by ZEFSAII (Michael W. Deem and Ramdas Pophale) SiO2 
 PCOD8243397
Probable space group: P M M N
;
_chemical_formula_sum "Si O2"
_cell_formula_units_Z 56
_cell_length_a 18.967076
_cell_length_b 9.003082
_cell_length_c 17.666240
_cell_angle_alpha 90.000000
_cell_angle_beta 90.000000
_cell_angle_gamma 90.000000
_cell_volume 3016.724957
_symmetry_space_group_name_H-M "P M M N"
_symmetry_group_IT_number 59
_space_group.IT_coordinate_system_code '2'
_symmetry_cell_setting 'orthorhombic'
loop_
_space_group_symop_operation_xyz
x,y,z
1/2-x,1/2-y,z
1/2+x,-y,-z
-x,1/2+y,-z
-x,-y,-z
1/2+x,1/2+y,-z
1/2-x,y,z
x,1/2-y,z
loop_
_atom_site_type_symbol
_atom_site_label
_atom_site_fract_x
_atom_site_fract_y
_atom_site_fract_z
Si Si1 0.833253 0.082141 0.793725
Si Si2 0.830778 0.580355 0.219694
Si Si3 0.435058 0.077551 0.912264
Si Si4 0.168119 0.576804 0.627235
Si Si5 0.169325 0.424199 0.358015
Si Si6 0.423768 0.426079 0.500751
Si Si7 0.578395 0.923336 0.915983
O O1 0.750000 0.073805 0.798304
O O2 0.861285 0.250000 0.792530
O O3 0.859723 0.004077 0.716968
O O4 0.861405 0.000967 0.867700
O O5 0.750000 0.559088 0.196754
O O6 0.846343 0.750000 0.244178
O O7 0.874223 0.533963 0.145972
O O8 0.851754 0.472250 0.288049
O O9 0.455983 0.250000 0.907796
O O10 0.502585 0.981748 0.889620
O O11 0.408069 0.036998 0.996201
O O12 0.250000 0.541515 0.610223
O O13 0.151199 0.750000 0.617467
O O14 0.120061 0.481664 0.572080
O O15 0.250000 0.471668 0.376653
O O16 0.164718 0.250000 0.343578
O O17 0.119216 0.474774 0.426291
O O18 0.500000 0.500000 0.500000
O O19 0.432393 0.250000 0.505561
O O20 0.582155 0.750000 0.900268
#
# Coordination Sequence:
#
# PCOD8243397 Si02
#       7
#     8   8   8   8   8   8   8
#     4  10  21  36  55  80 108 138 174 217 265 316
#     4   9  18  34  56  80 105 136 177 222 266 313
#     4   9  19  35  54  77 106 141 180 221 265 314
#     4  10  21  37  57  81 109 141 177 217 264 319
#     4   9  19  37  59  80 103 135 176 219 263 313
#     4  11  23  38  57  82 111 142 178 220 266 315
#     4  10  20  34  54  78 106 142 180 219 265 317
#
# _framework density 18.563179000000002
#
# number of rings (size 3 to 8) (size 9 to 14) (size 15 to 20)
#    0.000    2.286    0.000    2.143    0.000    6.286 
#    0.000    2.857    0.000    1.714    0.000    0.000 
#    0.000    0.000    0.000    0.000    0.000    0.000 
#
# Total GULP energy -694583.923206 kJ/mol
# GULP energy per Si atom -12403.284343 kJ/mol
# Density = 1.852093 g / cm^3
# Si number density = 18.563179 Si / 1000 Ang^3
#
#
#
# Elastic Constant Matrix: (Units=GPa)
#
#
# Indices 1 2 3 4 5 6 
#
# 1 75.9389 40.9346 61.8543 0.0000 0.0000 0.0000
# 2 40.9346 71.3521 45.8831 0.0000 0.0000 0.0000
# 3 61.8543 45.8831 113.9975 0.0000 0.0000 0.0000
# 4 0.0000 0.0000 0.0000 29.5028 0.0000 0.0000
# 5 0.0000 0.0000 0.0000 0.0000 18.1038 0.0000
# 6 0.0000 0.0000 0.0000 0.0000 0.0000 32.5675
#
#
#
# Elastic Compliance Matrix: (Units=1/GPa)
#
#
# Indices 1 2 3 4 5 6 
#
# 1 0.026657 -0.008085 -0.011210 0.000000 0.000000 0.000000
# 2 -0.008085 0.021361 -0.004211 0.000000 0.000000 0.000000
# 3 -0.011210 -0.004211 0.016550 0.000000 0.000000 0.000000
# 4 0.000000 0.000000 0.000000 0.033895 0.000000 0.000000
# 5 0.000000 0.000000 0.000000 0.000000 0.055237 0.000000
# 6 0.000000 0.000000 0.000000 0.000000 0.000000 0.030705
#
#
# Mechanical properties :
#
#
# Convention : Reuss Voigt Hill
#
# Bulk Modulus (GPa) = 56.95894 62.07027 59.51461
# Shear Modulus (GPa) = 21.07309 23.54257 22.30783
#
# Velocity S-wave (km/s) = 3.37294 3.56510 3.47035
# Velocity P-wave (km/s) = 6.77639 7.10327 6.94175
#
# Compressibility (1/GPa) = 0.01755651
#
# Stress axis : x y z
#
# Youngs Moduli (GPa) = 37.51292 46.81422 60.42461
#
# Poissons Ratio (x) = 0.37848 0.67737
# Poissons Ratio (y) = 0.30328 0.25445
# Poissons Ratio (z) = 0.42053 0.19713
#
# Static dielectric constant tensor:
#      x y z
#    x 3.231430 0.000000 0.000000 
#    y 0.000000 3.505820 0.000000 
#    z 0.000000 0.000000 3.502210 
# 
# 
# High freq. dielectric constant tensor:
#      x y z
#    x 1.715800 0.000000 0.000000 
#    y 0.000000 1.726650 0.000000 
#    z 0.000000 0.000000 1.728200 
# 
# From -- ./inp_files/24289.got.cif
#   From: 2010.03.12/outbox.cif.g09.slc.cpg/sg59_13_cif.got.tgz:24289.got - 2010.04.16 16:29:54.
