data_PCOD8243149
_publ_section_title
;
Structure prediction by ZEFSAII (Michael W. Deem and Ramdas Pophale) SiO2 
 PCOD8243149
Probable space group: P M M N
;
_chemical_formula_sum "Si O2"
_cell_formula_units_Z 48
_cell_length_a 13.575138
_cell_length_b 9.168105
_cell_length_c 20.828405
_cell_angle_alpha 90.000000
_cell_angle_beta 90.000000
_cell_angle_gamma 90.000000
_cell_volume 2592.267682
_symmetry_space_group_name_H-M "P M M N"
_symmetry_group_IT_number 59
_space_group.IT_coordinate_system_code '2'
_symmetry_cell_setting 'orthorhombic'
loop_
_space_group_symop_operation_xyz
x,y,z
1/2-x,1/2-y,z
1/2+x,-y,-z
-x,1/2+y,-z
-x,-y,-z
1/2+x,1/2+y,-z
1/2-x,y,z
x,1/2-y,z
loop_
_atom_site_type_symbol
_atom_site_label
_atom_site_fract_x
_atom_site_fract_y
_atom_site_fract_z
Si Si1 0.360483 0.083600 0.979843
Si Si2 0.633471 0.413831 0.527075
Si Si3 0.635784 0.921966 0.783654
Si Si4 0.948871 0.080471 0.662110
Si Si5 0.640763 0.918564 0.403428
Si Si6 0.051158 0.919918 0.095845
O O1 0.250000 0.057431 0.953490
O O2 0.374181 0.250000 0.003997
O O3 0.437100 0.050346 0.922716
O O4 0.378114 0.978035 0.039819
O O5 0.750000 0.420829 0.526808
O O6 0.593679 0.250000 0.518291
O O7 0.597230 0.474468 0.595259
O O8 0.594184 0.507255 0.466916
O O9 0.750000 0.964441 0.791928
O O10 0.620289 0.750000 0.786814
O O11 0.595886 0.979765 0.716516
O O12 0.571839 0.995720 0.838999
O O13 0.923165 0.250000 0.676064
O O14 0.067323 0.056439 0.656750
O O15 0.750000 0.979688 0.385723
O O16 0.647316 0.750000 0.420678
O O17 0.072904 0.750000 0.106179
#
# Coordination Sequence:
#
# PCOD8243149 Si02
#       6
#     8   8   8   8   8   8
#     4   9  18  34  56  82 112 142 172 209 251 293
#     4   9  17  29  47  72  99 127 163 209 258 304
#     4  11  24  39  54  74 102 135 169 208 256 307
#     4  10  20  34  52  73  99 133 171 210 252 300
#     4   9  18  32  50  73 100 130 166 208 254 304
#     4  10  20  34  55  82 109 140 176 210 248 296
#
# _framework density 18.516605999999999
#
# number of rings (size 3 to 8) (size 9 to 14) (size 15 to 20)
#    0.000    2.333    0.000    2.500    0.000    6.333 
#    0.000    2.500    0.000    5.000    0.000    0.000 
#    0.000    0.000    0.000    0.000    0.000    0.000 
#
# Total GULP energy -595169.009070 kJ/mol
# GULP energy per Si atom -12399.354356 kJ/mol
# Density = 1.847446 g / cm^3
# Si number density = 18.516606 Si / 1000 Ang^3
#
#
#
# Elastic Constant Matrix: (Units=GPa)
#
#
# Indices 1 2 3 4 5 6 
#
# 1 89.4676 43.9526 49.1385 0.0000 0.0000 0.0000
# 2 43.9526 79.2280 55.9792 0.0000 0.0000 0.0000
# 3 49.1385 55.9792 92.6212 0.0000 0.0000 0.0000
# 4 0.0000 0.0000 0.0000 36.0395 0.0000 0.0000
# 5 0.0000 0.0000 0.0000 0.0000 23.6207 0.0000
# 6 0.0000 0.0000 0.0000 0.0000 0.0000 23.9236
#
#
#
# Elastic Compliance Matrix: (Units=1/GPa)
#
#
# Indices 1 2 3 4 5 6 
#
# 1 0.016971 -0.005329 -0.005783 0.000000 0.000000 0.000000
# 2 -0.005329 0.023702 -0.011498 0.000000 0.000000 0.000000
# 3 -0.005783 -0.011498 0.020814 0.000000 0.000000 0.000000
# 4 0.000000 0.000000 0.000000 0.027747 0.000000 0.000000
# 5 0.000000 0.000000 0.000000 0.000000 0.042336 0.000000
# 6 0.000000 0.000000 0.000000 0.000000 0.000000 0.041800
#
#
# Mechanical properties :
#
#
# Convention : Reuss Voigt Hill
#
# Bulk Modulus (GPa) = 61.47299 62.16193 61.81746
# Shear Modulus (GPa) = 22.32006 24.19986 23.25996
#
# Velocity S-wave (km/s) = 3.47567 3.61907 3.54809
# Velocity P-wave (km/s) = 7.02694 7.14894 7.08820
#
# Compressibility (1/GPa) = 0.01626731
#
# Stress axis : x y z
#
# Youngs Moduli (GPa) = 58.92240 42.19014 48.04424
#
# Poissons Ratio (x) = 0.22483 0.27785
# Poissons Ratio (y) = 0.31400 0.55242
# Poissons Ratio (z) = 0.34076 0.48511
#
# Static dielectric constant tensor:
#      x y z
#    x 3.728970 0.000000 0.000000 
#    y 0.000000 3.485170 0.000000 
#    z 0.000000 0.000000 3.226420 
# 
# 
# High freq. dielectric constant tensor:
#      x y z
#    x 1.733680 0.000000 0.000000 
#    y 0.000000 1.717480 0.000000 
#    z 0.000000 0.000000 1.698160 
# 
# From -- ./inp_files/25447.got.cif
#   From: 2010.03.12/outbox.cif.g09.slc.cpg/sg59_13_cif.got.tgz:25447.got - 2010.04.16 16:29:54.
