data_PCOD8243286
_publ_section_title
;
Structure prediction by ZEFSAII (Michael W. Deem and Ramdas Pophale) SiO2 
 PCOD8243286
Probable space group: P M M N
;
_chemical_formula_sum "Si O2"
_cell_formula_units_Z 64
_cell_length_a 19.300264
_cell_length_b 8.950439
_cell_length_c 19.933623
_cell_angle_alpha 90.000000
_cell_angle_beta 90.000000
_cell_angle_gamma 90.000000
_cell_volume 3443.450362
_symmetry_space_group_name_H-M "P M M N"
_symmetry_group_IT_number 59
_space_group.IT_coordinate_system_code '2'
_symmetry_cell_setting 'orthorhombic'
loop_
_space_group_symop_operation_xyz
x,y,z
1/2-x,1/2-y,z
1/2+x,-y,-z
-x,1/2+y,-z
-x,-y,-z
1/2+x,1/2+y,-z
1/2-x,y,z
x,1/2-y,z
loop_
_atom_site_type_symbol
_atom_site_label
_atom_site_fract_x
_atom_site_fract_y
_atom_site_fract_z
Si Si1 0.170631 0.424746 0.343260
Si Si2 0.332280 0.582155 0.476796
Si Si3 0.903376 0.422457 0.045868
Si Si4 0.040332 0.923308 0.094884
Si Si5 0.329441 0.421207 0.847168
Si Si6 0.064520 0.076778 0.229617
Si Si7 0.090464 0.923354 0.730873
Si Si8 0.829558 0.926338 0.388749
O O1 0.250000 0.471238 0.328569
O O2 0.164225 0.250000 0.357366
O O3 0.140092 0.506172 0.408934
O O4 0.124918 0.473802 0.280003
O O5 0.250000 0.578229 0.475626
O O6 0.361243 0.750000 0.480658
O O7 0.358738 0.493157 0.541847
O O8 0.892785 0.250000 0.064190
O O9 0.840470 0.519026 0.076876
O O10 0.973599 0.476555 0.081173
O O11 0.905250 0.447180 0.965828
O O12 0.018399 0.750000 0.099872
O O13 0.075419 0.977277 0.163447
O O14 0.250000 0.437760 0.826182
O O15 0.353432 0.250000 0.841478
O O16 0.375915 0.523317 0.799879
O O17 0.071494 0.250000 0.209569
O O18 0.991308 0.045912 0.265470
O O19 0.107315 0.750000 0.719702
O O20 0.122077 0.016596 0.670338
O O21 0.750000 0.976184 0.375456
O O22 0.835069 0.750000 0.392958
#
# Coordination Sequence:
#
# PCOD8243286 Si02
#       8
#     8   8   8   8   8   8   8   8
#     4   9  18  35  58  81 106 138 176 220 272 328
#     4   9  17  31  53  80 107 136 175 222 270 323
#     4  10  20  35  55  80 106 138 181 224 269 320
#     4  10  20  34  56  81 106 138 177 222 269 319
#     4  11  23  37  54  79 111 147 187 229 272 322
#     4  10  21  36  55  81 111 143 180 222 269 326
#     4  11  22  35  52  77 109 145 184 225 270 321
#     4  10  20  34  53  77 106 142 183 225 268 318
#
# _framework density 18.586008
#
# number of rings (size 3 to 8) (size 9 to 14) (size 15 to 20)
#    0.000    2.000    1.250    2.625    0.000    7.250 
#    0.000    1.250    0.000    2.250    0.000    0.000 
#    0.000    0.000    0.000    0.000    0.000    0.000 
#
# Total GULP energy -793740.795631 kJ/mol
# GULP energy per Si atom -12402.199932 kJ/mol
# Density = 1.854371 g / cm^3
# Si number density = 18.586008 Si / 1000 Ang^3
#
#
#
# Elastic Constant Matrix: (Units=GPa)
#
#
# Indices 1 2 3 4 5 6 
#
# 1 61.9566 27.5091 41.4717 0.0000 0.0000 0.0000
# 2 27.5091 73.5391 47.2788 0.0000 0.0000 0.0000
# 3 41.4717 47.2788 132.4901 0.0000 0.0000 0.0000
# 4 0.0000 0.0000 0.0000 39.9245 0.0000 0.0000
# 5 0.0000 0.0000 0.0000 0.0000 27.6787 0.0000
# 6 0.0000 0.0000 0.0000 0.0000 0.0000 21.8429
#
#
#
# Elastic Compliance Matrix: (Units=1/GPa)
#
#
# Indices 1 2 3 4 5 6 
#
# 1 0.021680 -0.004863 -0.005051 0.000000 0.000000 0.000000
# 2 -0.004863 0.018737 -0.005164 0.000000 0.000000 0.000000
# 3 -0.005051 -0.005164 0.010972 0.000000 0.000000 0.000000
# 4 0.000000 0.000000 0.000000 0.025047 0.000000 0.000000
# 5 0.000000 0.000000 0.000000 0.000000 0.036129 0.000000
# 6 0.000000 0.000000 0.000000 0.000000 0.000000 0.045781
#
#
# Mechanical properties :
#
#
# Convention : Reuss Voigt Hill
#
# Bulk Modulus (GPa) = 47.09583 55.61169 51.35376
# Shear Modulus (GPa) = 25.56485 28.00431 26.78458
#
# Velocity S-wave (km/s) = 3.71278 3.88589 3.80032
# Velocity P-wave (km/s) = 6.61620 7.07953 6.85178
#
# Compressibility (1/GPa) = 0.02123330
#
# Stress axis : x y z
#
# Youngs Moduli (GPa) = 46.12451 53.36929 91.14369
#
# Poissons Ratio (x) = 0.25952 0.46038
# Poissons Ratio (y) = 0.22429 0.47069
# Poissons Ratio (z) = 0.23298 0.27561
#
# Static dielectric constant tensor:
#      x y z
#    x 3.211620 0.000000 0.000000 
#    y 0.000000 3.511170 0.000000 
#    z 0.000000 0.000000 3.607200 
# 
# 
# High freq. dielectric constant tensor:
#      x y z
#    x 1.689970 0.000000 0.000000 
#    y 0.000000 1.732870 0.000000 
#    z 0.000000 0.000000 1.731560 
# 
# From -- ./inp_files/28199.got.cif
#   From: 2010.03.12/outbox.cif.g09.slc.cpg/sg59_15_cif.got.tgz:28199.got - 2010.04.16 16:29:54.
