data_PCOD8243569
_publ_section_title
;
Structure prediction by ZEFSAII (Michael W. Deem and Ramdas Pophale) SiO2 
 PCOD8243569
Probable space group: P M M N
;
_chemical_formula_sum "Si O2"
_cell_formula_units_Z 56
_cell_length_a 19.130055
_cell_length_b 9.063619
_cell_length_c 17.586438
_cell_angle_alpha 90.000000
_cell_angle_beta 90.000000
_cell_angle_gamma 90.000000
_cell_volume 3049.269046
_symmetry_space_group_name_H-M "P M M N"
_symmetry_group_IT_number 59
_space_group.IT_coordinate_system_code '2'
_symmetry_cell_setting 'orthorhombic'
loop_
_space_group_symop_operation_xyz
x,y,z
1/2-x,1/2-y,z
1/2+x,-y,-z
-x,1/2+y,-z
-x,-y,-z
1/2+x,1/2+y,-z
1/2-x,y,z
x,1/2-y,z
loop_
_atom_site_type_symbol
_atom_site_label
_atom_site_fract_x
_atom_site_fract_y
_atom_site_fract_z
Si Si1 0.575239 0.923824 0.865312
Si Si2 0.568602 0.076541 0.709777
Si Si3 0.329083 0.075459 0.996640
Si Si4 0.083600 0.581731 0.872836
Si Si5 0.332520 0.418799 0.577716
Si Si6 0.330364 0.579886 0.426776
Si Si7 0.075325 0.921372 0.697924
O O1 0.581691 0.750000 0.849149
O O2 0.496397 0.963559 0.890574
O O3 0.595515 0.008591 0.788721
O O4 0.627449 0.980400 0.930529
O O5 0.557723 0.250000 0.720015
O O6 0.626503 0.037228 0.647580
O O7 0.496639 0.005218 0.681981
O O8 0.250000 0.015384 0.003088
O O9 0.330228 0.250000 0.993429
O O10 0.363765 0.018883 0.919603
O O11 0.096745 0.750000 0.896679
O O12 0.099891 0.555847 0.784415
O O13 0.250000 0.435075 0.585443
O O14 0.357190 0.250000 0.583813
O O15 0.357916 0.482336 0.496909
O O16 0.364895 0.512995 0.645324
O O17 0.250000 0.544472 0.408272
O O18 0.341067 0.750000 0.449318
O O19 0.063638 0.750000 0.679717
#
# Coordination Sequence:
#
# PCOD8243569 Si02
#       7
#     8   8   8   8   8   8   8
#     4   9  19  36  54  74 104 139 173 209 256 314
#     4  10  20  34  55  82 107 134 174 221 263 305
#     4  10  21  35  52  77 107 137 170 211 259 308
#     4   9  19  35  54  75  99 133 175 213 252 303
#     4  10  21  36  55  80 107 137 177 220 260 307
#     4   9  19  36  55  76 106 142 176 212 260 316
#     4  10  21  37  56  78 106 140 176 215 264 318
#
# _framework density 18.365058000000001
#
# number of rings (size 3 to 8) (size 9 to 14) (size 15 to 20)
#    0.000    2.429    0.000    2.571    0.000    7.429 
#    0.000    2.857    0.000    0.000    0.000    0.000 
#    0.000    0.000    0.000    0.000    0.000    0.000 
#
# Total GULP energy -694584.534862 kJ/mol
# GULP energy per Si atom -12403.295265 kJ/mol
# Density = 1.832326 g / cm^3
# Si number density = 18.365058 Si / 1000 Ang^3
#
#
#
# Elastic Constant Matrix: (Units=GPa)
#
#
# Indices 1 2 3 4 5 6 
#
# 1 92.5282 42.2754 73.3247 0.0000 0.0000 0.0000
# 2 42.2754 72.4547 58.2714 0.0000 0.0000 0.0000
# 3 73.3247 58.2714 121.8280 0.0000 0.0000 0.0000
# 4 0.0000 0.0000 0.0000 36.6790 0.0000 0.0000
# 5 0.0000 0.0000 0.0000 0.0000 32.0449 0.0000
# 6 0.0000 0.0000 0.0000 0.0000 0.0000 27.5233
#
#
#
# Elastic Compliance Matrix: (Units=1/GPa)
#
#
# Indices 1 2 3 4 5 6 
#
# 1 0.021172 -0.003421 -0.011107 0.000000 0.000000 0.000000
# 2 -0.003421 0.022983 -0.008934 0.000000 0.000000 0.000000
# 3 -0.011107 -0.008934 0.019166 0.000000 0.000000 0.000000
# 4 0.000000 0.000000 0.000000 0.027264 0.000000 0.000000
# 5 0.000000 0.000000 0.000000 0.000000 0.031206 0.000000
# 6 0.000000 0.000000 0.000000 0.000000 0.000000 0.036333
#
#
# Mechanical properties :
#
#
# Convention : Reuss Voigt Hill
#
# Bulk Modulus (GPa) = 60.98231 70.50598 65.74415
# Shear Modulus (GPa) = 23.75158 26.77874 25.26516
#
# Velocity S-wave (km/s) = 3.60015 3.82270 3.71309
# Velocity P-wave (km/s) = 7.11050 7.61306 7.36607
#
# Compressibility (1/GPa) = 0.01639820
#
# Stress axis : x y z
#
# Youngs Moduli (GPa) = 47.23230 43.51072 52.17530
#
# Poissons Ratio (x) = 0.14885 0.57949
# Poissons Ratio (y) = 0.16158 0.46613
# Poissons Ratio (z) = 0.52459 0.38872
#
# Static dielectric constant tensor:
#      x y z
#    x 3.408390 0.000000 0.000000 
#    y 0.000000 3.406340 0.000000 
#    z 0.000000 0.000000 3.394620 
# 
# 
# High freq. dielectric constant tensor:
#      x y z
#    x 1.709190 0.000000 0.000000 
#    y 0.000000 1.715260 0.000000 
#    z 0.000000 0.000000 1.718250 
# 
# From -- ./inp_files/24182.got.cif
#   From: 2010.03.12/outbox.cif.g09.slc.cpg/sg59_13_cif.got.tgz:24182.got - 2010.04.16 16:29:54.
