data_PCOD8243611
_publ_section_title
;
Structure prediction by ZEFSAII (Michael W. Deem and Ramdas Pophale) SiO2 
 PCOD8243611
Probable space group: P M M N
;
_chemical_formula_sum "Si O2"
_cell_formula_units_Z 48
_cell_length_a 8.999527
_cell_length_b 9.152038
_cell_length_c 30.870310
_cell_angle_alpha 90.000000
_cell_angle_beta 90.000000
_cell_angle_gamma 90.000000
_cell_volume 2542.602617
_symmetry_space_group_name_H-M "P M M N"
_symmetry_group_IT_number 59
_space_group.IT_coordinate_system_code '2'
_symmetry_cell_setting 'orthorhombic'
loop_
_space_group_symop_operation_xyz
x,y,z
1/2-x,1/2-y,z
1/2+x,-y,-z
-x,1/2+y,-z
-x,-y,-z
1/2+x,1/2+y,-z
1/2-x,y,z
x,1/2-y,z
loop_
_atom_site_type_symbol
_atom_site_label
_atom_site_fract_x
_atom_site_fract_y
_atom_site_fract_z
Si Si1 0.075136 0.079668 0.960041
Si Si2 0.082140 0.922753 0.297907
Si Si3 0.574789 0.918877 0.881456
Si Si4 0.577523 0.081302 0.373771
Si Si5 0.078277 0.421343 0.460653
Si Si6 0.426006 0.911544 0.202069
O O1 0.250000 0.053425 0.962461
O O2 0.034739 0.250000 0.961952
O O3 0.013151 0.013373 0.916009
O O4 0.000000 0.000000 0.000000
O O5 0.250000 0.981123 0.305446
O O6 0.078500 0.750000 0.303531
O O7 0.023520 0.965282 0.249740
O O8 0.971121 0.994020 0.331647
O O9 0.750000 0.942848 0.888325
O O10 0.531383 0.750000 0.886392
O O11 0.521769 0.973433 0.834163
O O12 0.750000 0.054543 0.382336
O O13 0.539923 0.250000 0.365693
O O14 0.490512 0.021667 0.415653
O O15 0.250000 0.463473 0.460803
O O16 0.050753 0.250000 0.465861
O O17 0.000000 0.500000 0.500000
O O18 0.250000 0.899230 0.202742
O O19 0.491971 0.750000 0.191689
#
# Coordination Sequence:
#
# PCOD8243611 Si02
#       6
#     8   8   8   8   8   8
#     4  11  24  40  58  81 108 140 179 220 264 316
#     4   9  18  33  54  80 107 137 177 221 263 311
#     4  10  20  34  55  84 113 141 177 219 264 316
#     4  10  21  36  53  75 105 140 177 217 262 312
#     4  10  21  37  57  80 105 136 174 215 262 315
#     4   8  15  30  52  77 106 140 177 217 261 309
#
# _framework density 18.878295000000001
#
# number of rings (size 3 to 8) (size 9 to 14) (size 15 to 20)
#    0.000    2.333    0.000    3.500    0.000    8.000 
#    0.000    2.500    0.000    1.000    0.000    0.000 
#    0.000    0.000    0.000    0.000    0.000    0.000 
#
# Total GULP energy -595246.065273 kJ/mol
# GULP energy per Si atom -12400.959693 kJ/mol
# Density = 1.883533 g / cm^3
# Si number density = 18.878295 Si / 1000 Ang^3
#
#
#
# Elastic Constant Matrix: (Units=GPa)
#
#
# Indices 1 2 3 4 5 6 
#
# 1 79.0091 52.9265 65.4997 0.0000 0.0000 0.0000
# 2 52.9265 90.5928 75.7358 0.0000 0.0000 0.0000
# 3 65.4997 75.7358 175.1114 0.0000 0.0000 0.0000
# 4 0.0000 0.0000 0.0000 39.1148 0.0000 0.0000
# 5 0.0000 0.0000 0.0000 0.0000 32.5680 0.0000
# 6 0.0000 0.0000 0.0000 0.0000 0.0000 28.5437
#
#
#
# Elastic Compliance Matrix: (Units=1/GPa)
#
#
# Indices 1 2 3 4 5 6 
#
# 1 0.022703 -0.009655 -0.004316 0.000000 0.000000 0.000000
# 2 -0.009655 0.021396 -0.005642 0.000000 0.000000 0.000000
# 3 -0.004316 -0.005642 0.009765 0.000000 0.000000 0.000000
# 4 0.000000 0.000000 0.000000 0.025566 0.000000 0.000000
# 5 0.000000 0.000000 0.000000 0.000000 0.030705 0.000000
# 6 0.000000 0.000000 0.000000 0.000000 0.000000 0.035034
#
#
# Mechanical properties :
#
#
# Convention : Reuss Voigt Hill
#
# Bulk Modulus (GPa) = 68.31971 81.44858 74.88415
# Shear Modulus (GPa) = 26.41657 30.08206 28.24931
#
# Velocity S-wave (km/s) = 3.74479 3.99616 3.87252
# Velocity P-wave (km/s) = 7.41391 8.03306 7.72969
#
# Compressibility (1/GPa) = 0.01463706
#
# Stress axis : x y z
#
# Youngs Moduli (GPa) = 44.04784 46.73699 102.40311
#
# Poissons Ratio (x) = 0.45126 0.44196
# Poissons Ratio (y) = 0.42530 0.57780
# Poissons Ratio (z) = 0.19011 0.26371
#
# Static dielectric constant tensor:
#      x y z
#    x 3.301690 0.000000 0.000000 
#    y 0.000000 3.431820 0.000000 
#    z 0.000000 0.000000 3.911320 
# 
# 
# High freq. dielectric constant tensor:
#      x y z
#    x 1.718390 0.000000 0.000000 
#    y 0.000000 1.730810 0.000000 
#    z 0.000000 0.000000 1.751310 
# 
# From -- ./inp_files/32852.got.cif
#   From: 2010.03.12/outbox.cif.g09.slc.cpg/sg59_17_cif.got.tgz:32852.got - 2010.04.16 16:29:54.
