data_PCOD8243627
_publ_section_title
;
Structure prediction by ZEFSAII (Michael W. Deem and Ramdas Pophale) SiO2 
 PCOD8243627
Probable space group: P M M N
;
_chemical_formula_sum "Si O2"
_cell_formula_units_Z 56
_cell_length_a 22.845508
_cell_length_b 8.747945
_cell_length_c 15.122560
_cell_angle_alpha 90.000000
_cell_angle_beta 90.000000
_cell_angle_gamma 90.000000
_cell_volume 3022.262481
_symmetry_space_group_name_H-M "P M M N"
_symmetry_group_IT_number 59
_space_group.IT_coordinate_system_code '2'
_symmetry_cell_setting 'orthorhombic'
loop_
_space_group_symop_operation_xyz
x,y,z
1/2-x,1/2-y,z
1/2+x,-y,-z
-x,1/2+y,-z
-x,-y,-z
1/2+x,1/2+y,-z
1/2-x,y,z
x,1/2-y,z
loop_
_atom_site_type_symbol
_atom_site_label
_atom_site_fract_x
_atom_site_fract_y
_atom_site_fract_z
Si Si1 0.062724 0.575308 0.499005
Si Si2 0.750000 0.928420 0.572478
Si Si3 0.418746 0.428755 0.172971
Si Si4 0.641998 0.075643 0.664490
Si Si5 0.869141 0.929093 0.344082
Si Si6 0.750000 0.430569 0.379374
Si Si7 0.062999 0.927139 0.999558
Si Si8 0.944875 0.075118 0.195847
O O1 0.058091 0.750000 0.531237
O O2 0.086444 0.563444 0.399907
O O3 0.106261 0.486044 0.562818
O O4 0.000000 0.500000 0.500000
O O5 0.750000 0.750000 0.549910
O O6 0.693559 0.969225 0.629751
O O7 0.750000 0.020241 0.481297
O O8 0.406850 0.250000 0.181514
O O9 0.377577 0.518213 0.240082
O O10 0.486698 0.469197 0.190730
O O11 0.399531 0.485107 0.074527
O O12 0.664311 0.250000 0.670875
O O13 0.859630 0.750000 0.349921
O O14 0.806663 0.007848 0.327523
O O15 0.913719 0.965949 0.265474
O O16 0.750000 0.250000 0.375648
O O17 0.058733 0.750000 0.025194
O O18 0.087150 0.947212 0.899489
O O19 0.000000 0.000000 0.000000
O O20 0.938547 0.250000 0.227428
#
# Coordination Sequence:
#
# PCOD8243627 Si02
#       8
#     8   4   8   8   8   4   8   8
#     4  11  23  37  55  79 112 148 183 225 277 332
#     4  12  24  40  62  83 106 141 190 238 280 328
#     4  10  20  34  55  84 117 150 187 231 278 331
#     4  11  23  38  57  80 110 149 188 229 278 331
#     4  12  24  37  57  83 111 144 186 233 279 330
#     4  12  24  42  62  79 106 145 190 234 278 330
#     4   9  17  31  53  80 112 149 187 227 276 334
#     4   9  19  35  55  82 116 151 186 226 277 334
#
# _framework density 18.529164000000002
#
# number of rings (size 3 to 8) (size 9 to 14) (size 15 to 20)
#    0.000    1.429    1.429    6.000    0.000    7.429 
#    0.000    0.000    0.000    0.857    0.000    1.000 
#    0.000    0.000    0.000    0.000    0.000    0.000 
#
# Total GULP energy -694497.146523 kJ/mol
# GULP energy per Si atom -12401.734759 kJ/mol
# Density = 1.848699 g / cm^3
# Si number density = 18.529164 Si / 1000 Ang^3
#
#
#
# Elastic Constant Matrix: (Units=GPa)
#
#
# Indices 1 2 3 4 5 6 
#
# 1 57.8521 23.6624 -0.7233 0.0000 0.0000 0.0000
# 2 23.6624 120.9555 22.3758 0.0000 0.0000 0.0000
# 3 -0.7233 22.3758 75.8242 0.0000 0.0000 0.0000
# 4 0.0000 0.0000 0.0000 33.8056 0.0000 0.0000
# 5 0.0000 0.0000 0.0000 0.0000 17.2049 0.0000
# 6 0.0000 0.0000 0.0000 0.0000 0.0000 29.6667
#
#
#
# Elastic Compliance Matrix: (Units=1/GPa)
#
#
# Indices 1 2 3 4 5 6 
#
# 1 0.018918 -0.003950 0.001346 0.000000 0.000000 0.000000
# 2 -0.003950 0.009570 -0.002862 0.000000 0.000000 0.000000
# 3 0.001346 -0.002862 0.014046 0.000000 0.000000 0.000000
# 4 0.000000 0.000000 0.000000 0.029581 0.000000 0.000000
# 5 0.000000 0.000000 0.000000 0.000000 0.058123 0.000000
# 6 0.000000 0.000000 0.000000 0.000000 0.000000 0.033708
#
#
# Mechanical properties :
#
#
# Convention : Reuss Voigt Hill
#
# Bulk Modulus (GPa) = 31.64337 38.36240 35.00289
# Shear Modulus (GPa) = 26.96728 30.08991 28.52860
#
# Velocity S-wave (km/s) = 3.81910 4.03416 3.92811
# Velocity P-wave (km/s) = 6.04666 6.51522 6.28531
#
# Compressibility (1/GPa) = 0.03160219
#
# Stress axis : x y z
#
# Youngs Moduli (GPa) = 52.86011 104.49749 71.19599
#
# Poissons Ratio (x) = 0.41275 -0.09583
# Poissons Ratio (y) = 0.20879 0.20374
# Poissons Ratio (z) = -0.07115 0.29904
#
# Static dielectric constant tensor:
#      x y z
#    x 3.335430 0.000000 0.000000 
#    y 0.000000 3.585870 0.000000 
#    z 0.000000 0.000000 3.706170 
# 
# 
# High freq. dielectric constant tensor:
#      x y z
#    x 1.692790 0.000000 0.000000 
#    y 0.000000 1.736700 0.000000 
#    z 0.000000 0.000000 1.724100 
# 
# From -- ./inp_files/24393.got.cif
#   From: 2010.03.12/outbox.cif.g09.slc.cpg/sg59_13_cif.got.tgz:24393.got - 2010.04.16 16:29:54.
