data_PCOD8243303
_publ_section_title
;
Structure prediction by ZEFSAII (Michael W. Deem and Ramdas Pophale) SiO2 
 PCOD8243303
Probable space group: P M M N
;
_chemical_formula_sum "Si O2"
_cell_formula_units_Z 48
_cell_length_a 8.794309
_cell_length_b 14.155404
_cell_length_c 21.138549
_cell_angle_alpha 90.000000
_cell_angle_beta 90.000000
_cell_angle_gamma 90.000000
_cell_volume 2631.474482
_symmetry_space_group_name_H-M "P M M N"
_symmetry_group_IT_number 59
_space_group.IT_coordinate_system_code '2'
_symmetry_cell_setting 'orthorhombic'
loop_
_space_group_symop_operation_xyz
x,y,z
1/2-x,1/2-y,z
1/2+x,-y,-z
-x,1/2+y,-z
-x,-y,-z
1/2+x,1/2+y,-z
1/2-x,y,z
x,1/2-y,z
loop_
_atom_site_type_symbol
_atom_site_label
_atom_site_fract_x
_atom_site_fract_y
_atom_site_fract_z
Si Si1 0.572449 0.359862 0.165662
Si Si2 0.925798 0.141493 0.507820
Si Si3 0.929855 0.504211 0.931329
Si Si4 0.425663 0.496293 0.600540
Si Si5 0.929502 0.145669 0.830651
Si Si6 0.071164 0.010394 0.265170
O O1 0.750000 0.380366 0.158807
O O2 0.534734 0.250000 0.166923
O O3 0.487643 0.403544 0.105293
O O4 0.513510 0.403072 0.231465
O O5 0.750000 0.130249 0.527238
O O6 0.972038 0.250000 0.498085
O O7 0.027499 0.098580 0.563685
O O8 0.959047 0.087680 0.442440
O O9 0.750000 0.509771 0.936496
O O10 0.983117 0.410895 0.893006
O O11 0.000000 0.500000 0.000000
O O12 0.250000 0.489221 0.619851
O O13 0.527773 0.506812 0.662031
O O14 0.750000 0.156258 0.831838
O O15 0.005454 0.250000 0.829571
O O16 0.979243 0.087766 0.768217
O O17 0.250000 0.026703 0.257447
#
# Coordination Sequence:
#
# PCOD8243303 Si02
#       6
#     8   8   8   8   8   8
#     4  10  21  37  56  77 104 140 180 223 270 315
#     4   9  19  36  55  74 100 137 178 217 260 312
#     4  10  20  34  54  79 107 139 175 217 265 316
#     4  10  20  34  53  78 107 137 172 216 264 314
#     4   8  16  32  52  73  98 131 171 210 249 301
#     4  10  20  34  54  79 106 138 174 215 264 315
#
# _framework density 18.240724
#
# number of rings (size 3 to 8) (size 9 to 14) (size 15 to 20)
#    0.000    2.500    0.000    3.000    0.000    4.333 
#    0.000    5.000    0.000   17.000    0.000    0.000 
#    0.000    0.000    0.000    0.000    0.000    0.000 
#
# Total GULP energy -595252.438669 kJ/mol
# GULP energy per Si atom -12401.092472 kJ/mol
# Density = 1.819921 g / cm^3
# Si number density = 18.240724 Si / 1000 Ang^3
#
#
#
# Elastic Constant Matrix: (Units=GPa)
#
#
# Indices 1 2 3 4 5 6 
#
# 1 56.5419 47.4641 32.4652 0.0000 0.0000 0.0000
# 2 47.4641 151.7365 62.1923 0.0000 0.0000 0.0000
# 3 32.4652 62.1923 125.4109 0.0000 0.0000 0.0000
# 4 0.0000 0.0000 0.0000 12.7901 0.0000 0.0000
# 5 0.0000 0.0000 0.0000 0.0000 37.2149 0.0000
# 6 0.0000 0.0000 0.0000 0.0000 0.0000 26.4999
#
#
#
# Elastic Compliance Matrix: (Units=1/GPa)
#
#
# Indices 1 2 3 4 5 6 
#
# 1 0.025000 -0.006486 -0.003255 0.000000 0.000000 0.000000
# 2 -0.006486 0.009954 -0.003257 0.000000 0.000000 0.000000
# 3 -0.003255 -0.003257 0.010432 0.000000 0.000000 0.000000
# 4 0.000000 0.000000 0.000000 0.078186 0.000000 0.000000
# 5 0.000000 0.000000 0.000000 0.000000 0.026871 0.000000
# 6 0.000000 0.000000 0.000000 0.000000 0.000000 0.037736
#
#
# Mechanical properties :
#
#
# Convention : Reuss Voigt Hill
#
# Bulk Modulus (GPa) = 51.57634 68.65917 60.11776
# Shear Modulus (GPa) = 22.66151 28.07214 25.36683
#
# Velocity S-wave (km/s) = 3.52853 3.92724 3.73321
# Velocity P-wave (km/s) = 6.70354 7.63457 7.18415
#
# Compressibility (1/GPa) = 0.01938873
#
# Stress axis : x y z
#
# Youngs Moduli (GPa) = 40.00057 100.45919 95.85990
#
# Poissons Ratio (x) = 0.65156 0.31206
# Poissons Ratio (y) = 0.25943 0.31226
# Poissons Ratio (z) = 0.13022 0.32724
#
# Static dielectric constant tensor:
#      x y z
#    x 3.319530 0.000000 0.000000 
#    y 0.000000 3.591400 0.000000 
#    z 0.000000 0.000000 3.356900 
# 
# 
# High freq. dielectric constant tensor:
#      x y z
#    x 1.703610 0.000000 0.000000 
#    y 0.000000 1.710400 0.000000 
#    z 0.000000 0.000000 1.709230 
# 
# From -- ./inp_files/25491.got.cif
#   From: 2010.03.12/outbox.cif.g09.slc.cpg/sg59_13_cif.got.tgz:25491.got - 2010.04.16 16:29:54.
