data_PCOD8243896
_publ_section_title
;
Structure prediction by ZEFSAII (Michael W. Deem and Ramdas Pophale) SiO2 
 PCOD8243896
Probable space group: P M M N
;
_chemical_formula_sum "Si O2"
_cell_formula_units_Z 64
_cell_length_a 18.959503
_cell_length_b 18.243721
_cell_length_c 10.112706
_cell_angle_alpha 90.000000
_cell_angle_beta 90.000000
_cell_angle_gamma 90.000000
_cell_volume 3497.902921
_symmetry_space_group_name_H-M "P M M N"
_symmetry_group_IT_number 59
_space_group.IT_coordinate_system_code '2'
_symmetry_cell_setting 'orthorhombic'
loop_
_space_group_symop_operation_xyz
x,y,z
1/2-x,1/2-y,z
1/2+x,-y,-z
-x,1/2+y,-z
-x,-y,-z
1/2+x,1/2+y,-z
1/2-x,y,z
x,1/2-y,z
loop_
_atom_site_type_symbol
_atom_site_label
_atom_site_fract_x
_atom_site_fract_y
_atom_site_fract_z
Si Si1 0.046301 0.664535 0.233067
Si Si2 0.411668 0.332129 0.164056
Si Si3 0.328879 0.558301 0.267287
Si Si4 0.672460 0.470732 0.033386
Si Si5 0.596241 0.831387 0.366864
Si Si6 0.667672 0.591084 0.601672
Si Si7 0.669862 0.636475 0.097059
Si Si8 0.026506 0.581343 0.966556
O O1 0.063088 0.750000 0.212183
O O2 0.116921 0.624837 0.284128
O O3 0.986246 0.651610 0.342804
O O4 0.018415 0.631641 0.095530
O O5 0.436664 0.250000 0.198564
O O6 0.362066 0.360671 0.279737
O O7 0.480409 0.384205 0.151162
O O8 0.369723 0.330246 0.027500
O O9 0.250000 0.590082 0.286841
O O10 0.344727 0.495160 0.373780
O O11 0.335705 0.519609 0.124363
O O12 0.750000 0.436910 0.067883
O O13 0.663839 0.548911 0.100845
O O14 0.608302 0.419360 0.082845
O O15 0.604597 0.750000 0.428078
O O16 0.627714 0.890833 0.466210
O O17 0.636787 0.831861 0.229007
O O18 0.750000 0.609533 0.586869
O O19 0.750000 0.662604 0.088254
O O20 0.000000 0.500000 0.000000
#
# Coordination Sequence:
#
# PCOD8243896 Si02
#       8
#     8   8   8   8   8   8   8   8
#     4  10  20  35  55  81 113 144 181 230 280 331
#     4  12  22  33  53  81 105 138 185 227 269 327
#     4   9  18  35  58  82 108 140 181 229 277 329
#     4   9  17  32  55  80 106 138 180 222 269 325
#     4  11  23  37  51  75 112 151 183 222 274 325
#     4  11  23  39  55  76 110 150 186 225 274 330
#     4  11  20  33  53  78 106 141 182 221 269 326
#     4  11  18  33  55  79 109 146 180 225 278 320
#
# _framework density 18.296676000000001
#
# number of rings (size 3 to 8) (size 9 to 14) (size 15 to 20)
#    0.000    1.500    3.750    2.625    0.000    3.750 
#    0.000    0.000    0.000    1.125    0.000    0.000 
#    0.000    2.000    0.000    9.125    0.000    0.000 
#
# Total GULP energy -793629.701096 kJ/mol
# GULP energy per Si atom -12400.464080 kJ/mol
# Density = 1.825503 g / cm^3
# Si number density = 18.296676 Si / 1000 Ang^3
#
#
#
# Elastic Constant Matrix: (Units=GPa)
#
#
# Indices 1 2 3 4 5 6 
#
# 1 132.1544 61.4076 30.7142 0.0000 0.0000 0.0000
# 2 61.4076 108.5409 29.3606 0.0000 0.0000 0.0000
# 3 30.7142 29.3606 64.1665 0.0000 0.0000 0.0000
# 4 0.0000 0.0000 0.0000 27.7251 0.0000 0.0000
# 5 0.0000 0.0000 0.0000 0.0000 26.1392 0.0000
# 6 0.0000 0.0000 0.0000 0.0000 0.0000 27.6338
#
#
#
# Elastic Compliance Matrix: (Units=1/GPa)
#
#
# Indices 1 2 3 4 5 6 
#
# 1 0.010652 -0.005304 -0.002672 0.000000 0.000000 0.000000
# 2 -0.005304 0.013155 -0.003481 0.000000 0.000000 0.000000
# 3 -0.002672 -0.003481 0.018456 0.000000 0.000000 0.000000
# 4 0.000000 0.000000 0.000000 0.036068 0.000000 0.000000
# 5 0.000000 0.000000 0.000000 0.000000 0.038257 0.000000
# 6 0.000000 0.000000 0.000000 0.000000 0.000000 0.036188
#
#
# Mechanical properties :
#
#
# Convention : Reuss Voigt Hill
#
# Bulk Modulus (GPa) = 51.67780 60.86962 56.27371
# Shear Modulus (GPa) = 27.45138 28.52490 27.98814
#
# Velocity S-wave (km/s) = 3.87763 3.95273 3.91536
# Velocity P-wave (km/s) = 6.95369 7.36019 7.15982
#
# Compressibility (1/GPa) = 0.01935067
#
# Stress axis : x y z
#
# Youngs Moduli (GPa) = 93.87501 76.01468 54.18250
#
# Poissons Ratio (x) = 0.40317 0.14478
# Poissons Ratio (y) = 0.49790 0.18859
# Poissons Ratio (z) = 0.25084 0.26458
#
# Static dielectric constant tensor:
#      x y z
#    x 3.748460 0.000000 0.000000 
#    y 0.000000 3.215460 0.000000 
#    z 0.000000 0.000000 3.363770 
# 
# 
# High freq. dielectric constant tensor:
#      x y z
#    x 1.727160 0.000000 0.000000 
#    y 0.000000 1.703150 0.000000 
#    z 0.000000 0.000000 1.678880 
# 
# From -- ./inp_files/11645.got.cif
#   From: 2010.03.12/outbox.cif.g09.slc.cpg/sg59_6_cif.got.tgz:11645.got - 2010.04.16 16:29:54.
