data_PCOD8243962
_publ_section_title
;
Structure prediction by ZEFSAII (Michael W. Deem and Ramdas Pophale) SiO2 
 PCOD8243962
Probable space group: P M M N
;
_chemical_formula_sum "Si O2"
_cell_formula_units_Z 48
_cell_length_a 13.623941
_cell_length_b 8.717901
_cell_length_c 20.740324
_cell_angle_alpha 90.000000
_cell_angle_beta 90.000000
_cell_angle_gamma 90.000000
_cell_volume 2463.373265
_symmetry_space_group_name_H-M "P M M N"
_symmetry_group_IT_number 59
_space_group.IT_coordinate_system_code '2'
_symmetry_cell_setting 'orthorhombic'
loop_
_space_group_symop_operation_xyz
x,y,z
1/2-x,1/2-y,z
1/2+x,-y,-z
-x,1/2+y,-z
-x,-y,-z
1/2+x,1/2+y,-z
1/2-x,y,z
x,1/2-y,z
loop_
_atom_site_type_symbol
_atom_site_label
_atom_site_fract_x
_atom_site_fract_y
_atom_site_fract_z
Si Si1 0.860501 0.430990 0.401681
Si Si2 0.363278 0.071682 0.221122
Si Si3 0.633689 0.576854 0.534220
Si Si4 0.959194 0.427397 0.900807
Si Si5 0.962070 0.070447 0.656332
Si Si6 0.362410 0.928086 0.964586
O O1 0.750000 0.490107 0.388166
O O2 0.862471 0.250000 0.406380
O O3 0.904556 0.499063 0.468296
O O4 0.930963 0.489311 0.344538
O O5 0.250000 0.027332 0.211086
O O6 0.376007 0.250000 0.237496
O O7 0.422209 0.032448 0.156872
O O8 0.405457 0.973686 0.279412
O O9 0.750000 0.577445 0.532760
O O10 0.591889 0.750000 0.539087
O O11 0.601539 0.480193 0.595455
O O12 0.953781 0.250000 0.880616
O O13 0.071507 0.470866 0.916790
O O14 0.890204 0.463733 0.961677
O O15 0.978941 0.250000 0.654615
O O16 0.250000 0.975453 0.953211
O O17 0.380698 0.750000 0.949220
#
# Coordination Sequence:
#
# PCOD8243962 Si02
#       6
#     8   8   8   8   8   8
#     4  10  21  38  59  81 107 141 182 228 278 331
#     4  11  24  41  60  82 111 147 185 225 272 329
#     4  10  20  35  56  82 112 144 181 227 276 327
#     4  10  20  35  57  86 118 150 187 231 277 325
#     4  12  24  37  56  81 111 145 182 227 276 329
#     4   9  18  34  57  85 118 154 190 229 273 322
#
# _framework density 19.485475999999998
#
# number of rings (size 3 to 8) (size 9 to 14) (size 15 to 20)
#    0.000    1.667    0.000    5.000    0.000    7.000 
#    0.000    0.833    0.000    5.000    0.000    0.000 
#    0.000    0.000    0.000    0.000    0.000    0.000 
#
# Total GULP energy -595439.487574 kJ/mol
# GULP energy per Si atom -12404.989324 kJ/mol
# Density = 1.944113 g / cm^3
# Si number density = 19.485476 Si / 1000 Ang^3
#
#
#
# Elastic Constant Matrix: (Units=GPa)
#
#
# Indices 1 2 3 4 5 6 
#
# 1 88.6240 28.8826 40.3179 0.0000 0.0000 0.0000
# 2 28.8826 73.6291 23.8187 0.0000 0.0000 0.0000
# 3 40.3179 23.8187 74.1652 0.0000 0.0000 0.0000
# 4 0.0000 0.0000 0.0000 35.2933 0.0000 0.0000
# 5 0.0000 0.0000 0.0000 0.0000 26.8987 0.0000
# 6 0.0000 0.0000 0.0000 0.0000 0.0000 30.5655
#
#
#
# Elastic Compliance Matrix: (Units=1/GPa)
#
#
# Indices 1 2 3 4 5 6 
#
# 1 0.015909 -0.003842 -0.007415 0.000000 0.000000 0.000000
# 2 -0.003842 0.016084 -0.003077 0.000000 0.000000 0.000000
# 3 -0.007415 -0.003077 0.018502 0.000000 0.000000 0.000000
# 4 0.000000 0.000000 0.000000 0.028334 0.000000 0.000000
# 5 0.000000 0.000000 0.000000 0.000000 0.037177 0.000000
# 6 0.000000 0.000000 0.000000 0.000000 0.000000 0.032717
#
#
# Mechanical properties :
#
#
# Convention : Reuss Voigt Hill
#
# Bulk Modulus (GPa) = 45.81205 46.93962 46.37583
# Shear Modulus (GPa) = 27.07601 28.11144 27.59372
#
# Velocity S-wave (km/s) = 3.73171 3.80239 3.76722
# Velocity P-wave (km/s) = 6.49072 6.58934 6.54022
#
# Compressibility (1/GPa) = 0.02182832
#
# Stress axis : x y z
#
# Youngs Moduli (GPa) = 62.85818 62.17331 54.04736
#
# Poissons Ratio (x) = 0.23887 0.40073
# Poissons Ratio (y) = 0.24150 0.16630
# Poissons Ratio (z) = 0.46606 0.19130
#
# Static dielectric constant tensor:
#      x y z
#    x 3.799420 0.000000 0.000000 
#    y 0.000000 3.632350 0.000000 
#    z 0.000000 0.000000 3.394630 
# 
# 
# High freq. dielectric constant tensor:
#      x y z
#    x 1.774080 0.000000 0.000000 
#    y 0.000000 1.769400 0.000000 
#    z 0.000000 0.000000 1.741850 
# 
# From -- ./inp_files/27392.got.cif
#   From: 2010.03.12/outbox.cif.g09.slc.cpg/sg59_14_cif.got.tgz:27392.got - 2010.04.16 16:29:54.
