data_PCOD8243993
_publ_section_title
;
Structure prediction by ZEFSAII (Michael W. Deem and Ramdas Pophale) SiO2 
 PCOD8243993
Probable space group: P M M N
;
_chemical_formula_sum "Si O2"
_cell_formula_units_Z 56
_cell_length_a 14.179872
_cell_length_b 17.177258
_cell_length_c 12.592259
_cell_angle_alpha 90.000000
_cell_angle_beta 90.000000
_cell_angle_gamma 90.000000
_cell_volume 3067.113143
_symmetry_space_group_name_H-M "P M M N"
_symmetry_group_IT_number 59
_space_group.IT_coordinate_system_code '2'
_symmetry_cell_setting 'orthorhombic'
loop_
_space_group_symop_operation_xyz
x,y,z
1/2-x,1/2-y,z
1/2+x,-y,-z
-x,1/2+y,-z
-x,-y,-z
1/2+x,1/2+y,-z
1/2-x,y,z
x,1/2-y,z
loop_
_atom_site_type_symbol
_atom_site_label
_atom_site_fract_x
_atom_site_fract_y
_atom_site_fract_z
Si Si1 0.974540 0.089356 0.506691
Si Si2 0.641779 0.084422 0.105106
Si Si3 0.356953 0.407923 0.835771
Si Si4 0.859954 0.159633 0.695108
Si Si5 0.644549 0.838831 0.390163
Si Si6 0.460990 0.660574 0.085773
Si Si7 0.357500 0.659664 0.677258
O O1 0.903918 0.106492 0.603561
O O2 0.926619 0.111455 0.396648
O O3 0.070977 0.138290 0.518747
O O4 0.000000 0.000000 0.500000
O O5 0.750000 0.094285 0.070190
O O6 0.616776 0.142523 0.200953
O O7 0.619633 0.997394 0.142415
O O8 0.577143 0.105220 0.005997
O O9 0.250000 0.386196 0.868795
O O10 0.372505 0.393703 0.710958
O O11 0.427202 0.353874 0.903155
O O12 0.750000 0.140585 0.704497
O O13 0.877358 0.250000 0.666279
O O14 0.908882 0.137587 0.805573
O O15 0.750000 0.850079 0.435874
O O16 0.627745 0.750000 0.353722
O O17 0.441525 0.750000 0.056006
O O18 0.250000 0.633345 0.654199
O O19 0.371009 0.750000 0.653009
#
# Coordination Sequence:
#
# PCOD8243993 Si02
#       7
#     8   8   8   8   8   8   8
#     4  12  23  35  55  81 114 148 187 230 286 338
#     4  10  21  37  57  84 117 150 187 231 282 338
#     4  10  20  35  56  84 116 148 184 232 283 333
#     4  10  21  37  58  85 115 147 186 236 290 337
#     4  10  20  36  58  82 110 145 190 238 280 329
#     4  11  21  35  59  87 116 151 191 233 281 337
#     4  10  21  37  58  82 111 149 190 229 274 337
#
# _framework density 18.258209999999998
#
# number of rings (size 3 to 8) (size 9 to 14) (size 15 to 20)
#    0.000    1.571    1.429    4.286    0.000    5.714 
#    0.000    0.000    0.000    0.857    0.000    0.000 
#    0.000    0.000    0.000    0.000    0.000    0.000 
#
# Total GULP energy -694644.975104 kJ/mol
# GULP energy per Si atom -12404.374555 kJ/mol
# Density = 1.821665 g / cm^3
# Si number density = 18.258210 Si / 1000 Ang^3
#
#
#
# Elastic Constant Matrix: (Units=GPa)
#
#
# Indices 1 2 3 4 5 6 
#
# 1 123.6256 39.4887 51.9681 0.0000 0.0000 0.0000
# 2 39.4887 73.9255 33.8913 0.0000 0.0000 0.0000
# 3 51.9681 33.8913 79.6943 0.0000 0.0000 0.0000
# 4 0.0000 0.0000 0.0000 32.8612 0.0000 0.0000
# 5 0.0000 0.0000 0.0000 0.0000 30.6399 0.0000
# 6 0.0000 0.0000 0.0000 0.0000 0.0000 30.5413
#
#
#
# Elastic Compliance Matrix: (Units=1/GPa)
#
#
# Indices 1 2 3 4 5 6 
#
# 1 0.011812 -0.003451 -0.006235 0.000000 0.000000 0.000000
# 2 -0.003451 0.017812 -0.005324 0.000000 0.000000 0.000000
# 3 -0.006235 -0.005324 0.018878 0.000000 0.000000 0.000000
# 4 0.000000 0.000000 0.000000 0.030431 0.000000 0.000000
# 5 0.000000 0.000000 0.000000 0.000000 0.032637 0.000000
# 6 0.000000 0.000000 0.000000 0.000000 0.000000 0.032743
#
#
# Mechanical properties :
#
#
# Convention : Reuss Voigt Hill
#
# Bulk Modulus (GPa) = 54.10968 58.66018 56.38493
# Shear Modulus (GPa) = 27.70179 28.93497 28.31838
#
# Velocity S-wave (km/s) = 3.89938 3.98523 3.94254
# Velocity P-wave (km/s) = 7.06921 7.30575 7.18845
#
# Compressibility (1/GPa) = 0.01848098
#
# Stress axis : x y z
#
# Youngs Moduli (GPa) = 84.65699 56.14333 52.97198
#
# Poissons Ratio (x) = 0.19377 0.33028
# Poissons Ratio (y) = 0.29218 0.28203
# Poissons Ratio (z) = 0.52784 0.29891
#
# Static dielectric constant tensor:
#      x y z
#    x 3.607580 0.000000 0.000000 
#    y 0.000000 3.394850 0.000000 
#    z 0.000000 0.000000 3.238870 
# 
# 
# High freq. dielectric constant tensor:
#      x y z
#    x 1.718800 0.000000 0.000000 
#    y 0.000000 1.711470 0.000000 
#    z 0.000000 0.000000 1.694980 
# 
# From -- ./inp_files/16916.got.cif
#   From: 2010.03.12/outbox.cif.g09.slc.cpg/sg59_9_cif.got.tgz:16916.got - 2010.04.16 16:29:54.
