data_PCOD8243694
_publ_section_title
;
Structure prediction by ZEFSAII (Michael W. Deem and Ramdas Pophale) SiO2 
 PCOD8243694
Probable space group: P M M N
;
_chemical_formula_sum "Si O2"
_cell_formula_units_Z 56
_cell_length_a 22.585060
_cell_length_b 8.813442
_cell_length_c 14.854527
_cell_angle_alpha 90.000000
_cell_angle_beta 90.000000
_cell_angle_gamma 90.000000
_cell_volume 2956.825037
_symmetry_space_group_name_H-M "P M M N"
_symmetry_group_IT_number 59
_space_group.IT_coordinate_system_code '2'
_symmetry_cell_setting 'orthorhombic'
loop_
_space_group_symop_operation_xyz
x,y,z
1/2-x,1/2-y,z
1/2+x,-y,-z
-x,1/2+y,-z
-x,-y,-z
1/2+x,1/2+y,-z
1/2-x,y,z
x,1/2-y,z
loop_
_atom_site_type_symbol
_atom_site_label
_atom_site_fract_x
_atom_site_fract_y
_atom_site_fract_z
Si Si1 0.087829 0.570520 0.711337
Si Si2 0.508821 0.423946 0.595542
Si Si3 0.354117 0.577654 0.380824
Si Si4 0.454223 0.072828 0.881701
Si Si5 0.816413 0.429514 0.428553
Si Si6 0.817302 0.071273 0.810832
Si Si7 0.576019 0.927620 0.915544
O O1 0.090946 0.750000 0.719495
O O2 0.091780 0.498979 0.810599
O O3 0.140736 0.505163 0.648836
O O4 0.026164 0.519585 0.668851
O O5 0.500000 0.500000 0.500000
O O6 0.487020 0.250000 0.591657
O O7 0.575938 0.433752 0.626388
O O8 0.331652 0.750000 0.384611
O O9 0.331771 0.498044 0.473405
O O10 0.326549 0.504353 0.290439
O O11 0.459941 0.250000 0.864052
O O12 0.519612 0.003357 0.867419
O O13 0.427200 0.034354 0.978730
O O14 0.750000 0.473238 0.401199
O O15 0.826496 0.250000 0.434231
O O16 0.750000 0.036550 0.841499
O O17 0.830919 0.250000 0.812001
O O18 0.862094 0.991462 0.879295
O O19 0.572879 0.750000 0.896618
#
# Coordination Sequence:
#
# PCOD8243694 Si02
#       7
#     8   8   8   8   8   8   8
#     4  11  21  34  54  83 112 142 181 226 277 328
#     4  11  20  32  51  78 111 147 185 229 279 327
#     4   9  17  31  51  77 107 141 183 225 269 321
#     4  10  21  38  60  84 109 142 181 225 284 344
#     4   9  17  31  51  74 103 141 185 226 262 312
#     4  10  20  34  56  85 115 150 191 233 277 332
#     4  10  21  38  60  84 111 143 181 230 285 338
#
# _framework density 18.939233999999999
#
# number of rings (size 3 to 8) (size 9 to 14) (size 15 to 20)
#    0.000    2.000    1.429    3.000    0.000    4.857 
#    0.000    1.429    0.000    4.286    0.000    0.000 
#    0.000    0.000    0.000    0.000    0.000    0.000 
#
# Total GULP energy -694381.304908 kJ/mol
# GULP energy per Si atom -12399.666159 kJ/mol
# Density = 1.889613 g / cm^3
# Si number density = 18.939234 Si / 1000 Ang^3
#
#
#
# Elastic Constant Matrix: (Units=GPa)
#
#
# Indices 1 2 3 4 5 6 
#
# 1 114.0090 36.1496 67.4854 0.0000 0.0000 0.0000
# 2 36.1496 58.3842 43.2321 0.0000 0.0000 0.0000
# 3 67.4854 43.2321 126.7375 0.0000 0.0000 0.0000
# 4 0.0000 0.0000 0.0000 29.7471 0.0000 0.0000
# 5 0.0000 0.0000 0.0000 0.0000 27.5848 0.0000
# 6 0.0000 0.0000 0.0000 0.0000 0.0000 24.5729
#
#
#
# Elastic Compliance Matrix: (Units=1/GPa)
#
#
# Indices 1 2 3 4 5 6 
#
# 1 0.013491 -0.004059 -0.005799 0.000000 0.000000 0.000000
# 2 -0.004059 0.024138 -0.006072 0.000000 0.000000 0.000000
# 3 -0.005799 -0.006072 0.013050 0.000000 0.000000 0.000000
# 4 0.000000 0.000000 0.000000 0.033617 0.000000 0.000000
# 5 0.000000 0.000000 0.000000 0.000000 0.036252 0.000000
# 6 0.000000 0.000000 0.000000 0.000000 0.000000 0.040695
#
#
# Mechanical properties :
#
#
# Convention : Reuss Voigt Hill
#
# Bulk Modulus (GPa) = 53.14294 65.87388 59.50841
# Shear Modulus (GPa) = 25.07837 26.53188 25.80512
#
# Velocity S-wave (km/s) = 3.64283 3.74691 3.69524
# Velocity P-wave (km/s) = 6.76862 7.31959 7.04949
#
# Compressibility (1/GPa) = 0.01881717
#
# Stress axis : x y z
#
# Youngs Moduli (GPa) = 74.12394 41.42922 76.63096
#
# Poissons Ratio (x) = 0.16816 0.44439
# Poissons Ratio (y) = 0.30088 0.46533
# Poissons Ratio (z) = 0.42985 0.25157
#
# Static dielectric constant tensor:
#      x y z
#    x 3.250550 0.000000 0.000000 
#    y 0.000000 3.254300 0.000000 
#    z 0.000000 0.000000 3.597150 
# 
# 
# High freq. dielectric constant tensor:
#      x y z
#    x 1.732010 0.000000 0.000000 
#    y 0.000000 1.710850 0.000000 
#    z 0.000000 0.000000 1.745870 
# 
# From -- ./inp_files/21044.got.cif
#   From: 2010.03.12/outbox.cif.g09.slc.cpg/sg59_11_cif.got.tgz:21044.got - 2010.04.16 16:29:54.
