data_PCOD8243359
_publ_section_title
;
Structure prediction by ZEFSAII (Michael W. Deem and Ramdas Pophale) SiO2 
 PCOD8243359
Probable space group: P M M N
;
_chemical_formula_sum "Si O2"
_cell_formula_units_Z 56
_cell_length_a 8.879676
_cell_length_b 14.161574
_cell_length_c 24.239112
_cell_angle_alpha 90.000000
_cell_angle_beta 90.000000
_cell_angle_gamma 90.000000
_cell_volume 3048.072910
_symmetry_space_group_name_H-M "P M M N"
_symmetry_group_IT_number 59
_space_group.IT_coordinate_system_code '2'
_symmetry_cell_setting 'orthorhombic'
loop_
_space_group_symop_operation_xyz
x,y,z
1/2-x,1/2-y,z
1/2+x,-y,-z
-x,1/2+y,-z
-x,-y,-z
1/2+x,1/2+y,-z
1/2-x,y,z
x,1/2-y,z
loop_
_atom_site_type_symbol
_atom_site_label
_atom_site_fract_x
_atom_site_fract_y
_atom_site_fract_z
Si Si1 0.071587 0.750000 0.388321
Si Si2 0.924633 0.983034 0.227640
Si Si3 0.928046 0.988183 0.940814
Si Si4 0.427100 0.057219 0.648490
Si Si5 0.072483 0.645047 0.144203
Si Si6 0.426771 0.857536 0.855825
Si Si7 0.920296 0.750000 0.504707
Si Si8 0.575373 0.949986 0.551261
O O1 0.250000 0.750000 0.381851
O O2 0.005077 0.841720 0.358571
O O3 0.032283 0.750000 0.453068
O O4 0.750000 0.964257 0.218162
O O5 0.964828 0.986696 0.291961
O O6 0.010507 0.894418 0.201654
O O7 0.973579 0.080927 0.197920
O O8 0.750000 0.980795 0.946442
O O9 0.988495 0.894657 0.910326
O O10 0.980578 0.079461 0.906127
O O11 0.000000 0.000000 0.000000
O O12 0.250000 0.070250 0.638612
O O13 0.491675 0.981058 0.606312
O O14 0.250000 0.646288 0.148827
O O15 0.008418 0.750000 0.134053
O O16 0.250000 0.864661 0.867510
O O17 0.476627 0.750000 0.844480
O O18 0.750000 0.750000 0.480791
O O19 0.947643 0.661375 0.544268
O O20 0.750000 0.979108 0.554530
O O21 0.500000 0.000000 0.500000
#
# Coordination Sequence:
#
# PCOD8243359 Si02
#       8
#     4   8   8   8   8   8   4   8
#     4  12  24  36  58  86 110 146 192 227 270 343
#     4   9  20  37  56  80 108 142 181 224 274 326
#     4  10  20  34  53  80 114 146 182 226 273 324
#     4  11  23  39  57  83 118 148 180 232 287 334
#     4   9  19  35  54  77 106 141 178 221 270 319
#     4   9  18  36  60  81 106 144 189 232 277 327
#     4  10  22  40  60  80 112 148 182 231 286 333
#     4  11  22  38  60  84 112 148 188 231 282 337
#
# _framework density 18.372264000000001
#
# number of rings (size 3 to 8) (size 9 to 14) (size 15 to 20)
#    0.000    2.000    1.429    1.929    1.000    3.429 
#    1.286    1.429    0.000    0.000    0.000    0.000 
#    0.000    0.000    0.000    0.000    0.000    0.000 
#
# Total GULP energy -694525.384028 kJ/mol
# GULP energy per Si atom -12402.239000 kJ/mol
# Density = 1.833045 g / cm^3
# Si number density = 18.372264 Si / 1000 Ang^3
#
#
#
# Elastic Constant Matrix: (Units=GPa)
#
#
# Indices 1 2 3 4 5 6 
#
# 1 79.5801 48.5913 54.2859 0.0000 0.0000 0.0000
# 2 48.5913 148.2249 68.4436 0.0000 0.0000 0.0000
# 3 54.2859 68.4436 143.2124 0.0000 0.0000 0.0000
# 4 0.0000 0.0000 0.0000 18.2864 0.0000 0.0000
# 5 0.0000 0.0000 0.0000 0.0000 32.3444 0.0000
# 6 0.0000 0.0000 0.0000 0.0000 0.0000 27.0910
#
#
#
# Elastic Compliance Matrix: (Units=1/GPa)
#
#
# Indices 1 2 3 4 5 6 
#
# 1 0.018328 -0.003593 -0.005230 0.000000 0.000000 0.000000
# 2 -0.003593 0.009361 -0.003112 0.000000 0.000000 0.000000
# 3 -0.005230 -0.003112 0.010452 0.000000 0.000000 0.000000
# 4 0.000000 0.000000 0.000000 0.054686 0.000000 0.000000
# 5 0.000000 0.000000 0.000000 0.000000 0.030917 0.000000
# 6 0.000000 0.000000 0.000000 0.000000 0.000000 0.036913
#
#
# Mechanical properties :
#
#
# Convention : Reuss Voigt Hill
#
# Bulk Modulus (GPa) = 70.07167 79.29544 74.68356
# Shear Modulus (GPa) = 26.41533 28.85747 27.63640
#
# Velocity S-wave (km/s) = 3.79592 3.96752 3.88267
# Velocity P-wave (km/s) = 7.57857 8.01513 7.79991
#
# Compressibility (1/GPa) = 0.01427110
#
# Stress axis : x y z
#
# Youngs Moduli (GPa) = 54.56249 106.82189 95.67226
#
# Poissons Ratio (x) = 0.38383 0.50037
# Poissons Ratio (y) = 0.19605 0.29772
# Poissons Ratio (z) = 0.28536 0.33242
#
# Static dielectric constant tensor:
#      x y z
#    x 3.460300 0.000000 0.000000 
#    y 0.000000 4.909720 0.000000 
#    z 0.000000 0.000000 3.395810 
# 
# 
# High freq. dielectric constant tensor:
#      x y z
#    x 1.717300 0.000000 0.000000 
#    y 0.000000 1.718960 0.000000 
#    z 0.000000 0.000000 1.711480 
# 
# From -- ./inp_files/29224.got.cif
#   From: 2010.03.12/outbox.cif.g09.slc.cpg/sg59_15_cif.got.tgz:29224.got - 2010.04.16 16:29:54.
