data_PCOD8244374
_publ_section_title
;
Structure prediction by ZEFSAII (Michael W. Deem and Ramdas Pophale) SiO2 
 PCOD8244374
Probable space group: P M M N
;
_chemical_formula_sum "Si O2"
_cell_formula_units_Z 48
_cell_length_a 8.680740
_cell_length_b 14.629054
_cell_length_c 18.417171
_cell_angle_alpha 90.000000
_cell_angle_beta 90.000000
_cell_angle_gamma 90.000000
_cell_volume 2338.815224
_symmetry_space_group_name_H-M "P M M N"
_symmetry_group_IT_number 59
_space_group.IT_coordinate_system_code '2'
_symmetry_cell_setting 'orthorhombic'
loop_
_space_group_symop_operation_xyz
x,y,z
1/2-x,1/2-y,z
1/2+x,-y,-z
-x,1/2+y,-z
-x,-y,-z
1/2+x,1/2+y,-z
1/2-x,y,z
x,1/2-y,z
loop_
_atom_site_type_symbol
_atom_site_label
_atom_site_fract_x
_atom_site_fract_y
_atom_site_fract_z
Si Si1 0.424130 0.250000 0.728661
Si Si2 0.428109 0.750000 0.417409
Si Si3 0.067360 0.250000 0.244813
Si Si4 0.933372 0.250000 0.083975
Si Si5 0.569490 0.093597 0.979329
Si Si6 0.072979 0.446691 0.297750
Si Si7 0.067582 0.053898 0.566958
Si Si8 0.573450 0.097829 0.813805
O O1 0.250000 0.250000 0.696597
O O2 0.556369 0.250000 0.668661
O O3 0.448786 0.159428 0.774162
O O4 0.250000 0.750000 0.441065
O O5 0.509182 0.842540 0.444537
O O6 0.250000 0.250000 0.237193
O O7 0.012708 0.341723 0.288166
O O8 0.000176 0.250000 0.164287
O O9 0.750000 0.250000 0.089822
O O10 0.997232 0.334359 0.036753
O O11 0.750000 0.091202 0.986452
O O12 0.522376 0.110130 0.896491
O O13 0.500000 0.000000 0.000000
O O14 0.250000 0.445694 0.323074
O O15 0.055646 0.495544 0.218920
O O16 0.981581 0.504567 0.358112
O O17 0.250000 0.054557 0.564233
O O18 0.000000 0.000000 0.500000
O O19 0.750000 0.131427 0.803087
#
# Coordination Sequence:
#
# PCOD8244374 Si02
#       8
#     4   4   4   4   8   8   8   8
#     4  12  23  35  58  93 124 155 202 256 311 369
#     4  12  24  44  70  98 133 170 208 255 314 374
#     4  10  22  40  64  90 120 165 219 264 315 381
#     4  10  21  37  56  83 123 164 207 259 320 380
#     4  10  21  37  57  83 116 160 208 258 319 381
#     4  10  21  39  63  91 123 164 215 270 321 379
#     4  12  26  45  70 101 137 175 215 261 314 379
#     4  10  20  36  59  84 119 166 210 256 322 387
#
# _framework density 20.523212000000001
#
# number of rings (size 3 to 8) (size 9 to 14) (size 15 to 20)
#    0.000    1.333    1.667    4.500    0.000    5.333 
#    0.000    3.333    0.000    0.000    0.000    0.000 
#    0.000    0.000    0.000    0.000    0.000    0.000 
#
# Total GULP energy -594941.341376 kJ/mol
# GULP energy per Si atom -12394.611279 kJ/mol
# Density = 2.047650 g / cm^3
# Si number density = 20.523212 Si / 1000 Ang^3
#
#
#
# Elastic Constant Matrix: (Units=GPa)
#
#
# Indices 1 2 3 4 5 6 
#
# 1 82.6418 46.1105 40.3826 0.0000 0.0000 0.0000
# 2 46.1105 177.8363 58.9681 0.0000 0.0000 0.0000
# 3 40.3826 58.9681 108.6765 0.0000 0.0000 0.0000
# 4 0.0000 0.0000 0.0000 55.5389 0.0000 0.0000
# 5 0.0000 0.0000 0.0000 0.0000 32.7914 0.0000
# 6 0.0000 0.0000 0.0000 0.0000 0.0000 27.7796
#
#
#
# Elastic Compliance Matrix: (Units=1/GPa)
#
#
# Indices 1 2 3 4 5 6 
#
# 1 0.015718 -0.002608 -0.004425 0.000000 0.000000 0.000000
# 2 -0.002608 0.007290 -0.002986 0.000000 0.000000 0.000000
# 3 -0.004425 -0.002986 0.012466 0.000000 0.000000 0.000000
# 4 0.000000 0.000000 0.000000 0.018005 0.000000 0.000000
# 5 0.000000 0.000000 0.000000 0.000000 0.030496 0.000000
# 6 0.000000 0.000000 0.000000 0.000000 0.000000 0.035998
#
#
# Mechanical properties :
#
#
# Convention : Reuss Voigt Hill
#
# Bulk Modulus (GPa) = 64.78971 73.34188 69.06579
# Shear Modulus (GPa) = 34.44539 38.13486 36.29013
#
# Velocity S-wave (km/s) = 4.10123 4.31528 4.20962
# Velocity P-wave (km/s) = 7.35284 7.78733 7.57320
#
# Compressibility (1/GPa) = 0.01543455
#
# Stress axis : x y z
#
# Youngs Moduli (GPa) = 63.62095 137.18228 80.21568
#
# Poissons Ratio (x) = 0.35778 0.35499
# Poissons Ratio (y) = 0.16593 0.23954
# Poissons Ratio (z) = 0.28155 0.40966
#
# Static dielectric constant tensor:
#      x y z
#    x 3.623390 0.000000 0.000000 
#    y 0.000000 4.095910 0.000000 
#    z 0.000000 0.000000 3.671620 
# 
# 
# High freq. dielectric constant tensor:
#      x y z
#    x 1.792740 0.000000 0.000000 
#    y 0.000000 1.821040 0.000000 
#    z 0.000000 0.000000 1.804600 
# 
# From -- ./inp_files/25636.got.cif
#   From: 2010.03.12/outbox.cif.g09.slc.cpg/sg59_13_cif.got.tgz:25636.got - 2010.04.16 16:29:54.
