data_PCOD8244518
_publ_section_title
;
Structure prediction by ZEFSAII (Michael W. Deem and Ramdas Pophale) SiO2 
 PCOD8244518
Probable space group: P M M N
;
_chemical_formula_sum "Si O2"
_cell_formula_units_Z 56
_cell_length_a 13.874233
_cell_length_b 20.464918
_cell_length_c 9.651732
_cell_angle_alpha 90.000000
_cell_angle_beta 90.000000
_cell_angle_gamma 90.000000
_cell_volume 2740.464918
_symmetry_space_group_name_H-M "P M M N"
_symmetry_group_IT_number 59
_space_group.IT_coordinate_system_code '2'
_symmetry_cell_setting 'orthorhombic'
loop_
_space_group_symop_operation_xyz
x,y,z
1/2-x,1/2-y,z
1/2+x,-y,-z
-x,1/2+y,-z
-x,-y,-z
1/2+x,1/2+y,-z
1/2-x,y,z
x,1/2-y,z
loop_
_atom_site_type_symbol
_atom_site_label
_atom_site_fract_x
_atom_site_fract_y
_atom_site_fract_z
Si Si1 0.979458 0.574122 0.456024
Si Si2 0.859947 0.489262 0.917066
Si Si3 0.043340 0.176155 0.049536
Si Si4 0.053275 0.068898 0.848507
Si Si5 0.353533 0.672766 0.817648
Si Si6 0.358617 0.388060 0.284381
Si Si7 0.139472 0.674091 0.498732
O O1 0.918509 0.570347 0.313122
O O2 0.918769 0.609216 0.574880
O O3 0.000000 0.500000 0.500000
O O4 0.072574 0.620241 0.422857
O O5 0.750000 0.462543 0.916973
O O6 0.871386 0.548309 0.809490
O O7 0.936954 0.436678 0.863216
O O8 0.889606 0.510692 0.073555
O O9 0.035499 0.250000 0.999791
O O10 0.107585 0.172416 0.188685
O O11 0.938623 0.144254 0.087666
O O12 0.086749 0.136340 0.920850
O O13 0.250000 0.644707 0.868860
O O14 0.353941 0.750000 0.830833
O O15 0.369885 0.654341 0.658832
O O16 0.250000 0.376493 0.330986
O O17 0.250000 0.665443 0.448346
O O18 0.107396 0.750000 0.472429
#
# Coordination Sequence:
#
# PCOD8244518 Si02
#       7
#     8   8   8   8   8   8   8
#     4  12  23  37  59  92 128 161 201 256 316 372
#     4   9  19  39  60  79 112 155 197 243 290 351
#     4  10  20  37  59  85 116 154 199 250 300 354
#     4  10  22  36  57  87 119 151 197 243 305 366
#     4   8  14  28  53  82 109 143 193 244 287 344
#     4  10  21  38  60  83 113 157 205 246 290 359
#     4   9  19  36  59  87 121 162 202 244 302 368
#
# _framework density 20.434488999999999
#
# number of rings (size 3 to 8) (size 9 to 14) (size 15 to 20)
#    0.000    2.286    2.857    0.857    0.000    3.143 
#    0.000    1.429    0.000    1.714    0.000    2.000 
#    0.000    0.000    0.000    0.000    0.000    0.000 
#
# Total GULP energy -694004.436185 kJ/mol
# GULP energy per Si atom -12392.936360 kJ/mol
# Density = 2.038798 g / cm^3
# Si number density = 20.434489 Si / 1000 Ang^3
#
#
#
# Elastic Constant Matrix: (Units=GPa)
#
#
# Indices 1 2 3 4 5 6 
#
# 1 83.2862 13.9968 15.9629 0.0000 0.0000 0.0000
# 2 13.9968 64.5305 16.0508 0.0000 0.0000 0.0000
# 3 15.9629 16.0508 116.6388 0.0000 0.0000 0.0000
# 4 0.0000 0.0000 0.0000 17.9926 0.0000 0.0000
# 5 0.0000 0.0000 0.0000 0.0000 16.1210 0.0000
# 6 0.0000 0.0000 0.0000 0.0000 0.0000 25.6806
#
#
#
# Elastic Compliance Matrix: (Units=1/GPa)
#
#
# Indices 1 2 3 4 5 6 
#
# 1 0.012680 -0.002401 -0.001405 0.000000 0.000000 0.000000
# 2 -0.002401 0.016500 -0.001942 0.000000 0.000000 0.000000
# 3 -0.001405 -0.001942 0.009033 0.000000 0.000000 0.000000
# 4 0.000000 0.000000 0.000000 0.055579 0.000000 0.000000
# 5 0.000000 0.000000 0.000000 0.000000 0.062031 0.000000
# 6 0.000000 0.000000 0.000000 0.000000 0.000000 0.038940
#
#
# Mechanical properties :
#
#
# Convention : Reuss Voigt Hill
#
# Bulk Modulus (GPa) = 37.42885 39.60849 38.51867
# Shear Modulus (GPa) = 23.23813 26.52183 24.87998
#
# Velocity S-wave (km/s) = 3.37590 3.60654 3.49312
# Velocity P-wave (km/s) = 5.79240 6.06367 5.92958
#
# Compressibility (1/GPa) = 0.02671736
#
# Stress axis : x y z
#
# Youngs Moduli (GPa) = 78.86729 60.60485 110.70526
#
# Poissons Ratio (x) = 0.14550 0.15553
# Poissons Ratio (y) = 0.18934 0.21500
# Poissons Ratio (z) = 0.11080 0.11770
#
# Static dielectric constant tensor:
#      x y z
#    x 4.079990 0.000000 0.000000 
#    y 0.000000 3.428820 0.000000 
#    z 0.000000 0.000000 3.623130 
# 
# 
# High freq. dielectric constant tensor:
#      x y z
#    x 1.791140 0.000000 0.000000 
#    y 0.000000 1.784280 0.000000 
#    z 0.000000 0.000000 1.787100 
# 
# From -- ./inp_files/9347.got.cif
#   From: 2010.03.12/outbox.cif.g09.slc.cpg/sg59_5_cif.got.tgz:9347.got - 2010.04.16 16:29:54.
