data_PCOD8244370
_publ_section_title
;
Structure prediction by ZEFSAII (Michael W. Deem and Ramdas Pophale) SiO2 
 PCOD8244370
Probable space group: P M M N
;
_chemical_formula_sum "Si O2"
_cell_formula_units_Z 64
_cell_length_a 19.050057
_cell_length_b 9.283463
_cell_length_c 20.210870
_cell_angle_alpha 90.000000
_cell_angle_beta 90.000000
_cell_angle_gamma 90.000000
_cell_volume 3574.302451
_symmetry_space_group_name_H-M "P M M N"
_symmetry_group_IT_number 59
_space_group.IT_coordinate_system_code '2'
_symmetry_cell_setting 'orthorhombic'
loop_
_space_group_symop_operation_xyz
x,y,z
1/2-x,1/2-y,z
1/2+x,-y,-z
-x,1/2+y,-z
-x,-y,-z
1/2+x,1/2+y,-z
1/2-x,y,z
x,1/2-y,z
loop_
_atom_site_type_symbol
_atom_site_label
_atom_site_fract_x
_atom_site_fract_y
_atom_site_fract_z
Si Si1 0.170257 0.420312 0.270649
Si Si2 0.667467 0.917459 0.069900
Si Si3 0.333640 0.588338 0.540303
Si Si4 0.934813 0.084220 0.821992
Si Si5 0.431066 0.917459 0.023110
Si Si6 0.331734 0.418065 0.668297
Si Si7 0.166465 0.410130 0.417403
Si Si8 0.408659 0.079095 0.798525
O O1 0.250000 0.472232 0.259258
O O2 0.164980 0.250000 0.262501
O O3 0.122684 0.494441 0.216472
O O4 0.144340 0.465195 0.344400
O O5 0.750000 0.941098 0.072653
O O6 0.647915 0.750000 0.058449
O O7 0.634702 0.976561 0.138242
O O8 0.636916 0.012074 0.010416
O O9 0.250000 0.586572 0.538244
O O10 0.363087 0.750000 0.544194
O O11 0.360316 0.501290 0.604117
O O12 0.364117 0.515715 0.473586
O O13 0.928338 0.250000 0.800843
O O14 0.921096 0.063868 0.899128
O O15 0.011687 0.023543 0.803419
O O16 0.437841 0.750000 0.003563
O O17 0.500000 0.000000 0.000000
O O18 0.250000 0.448245 0.680910
O O19 0.345950 0.250000 0.656577
O O20 0.373543 0.479857 0.731446
O O21 0.250000 0.403915 0.420801
O O22 0.136430 0.250000 0.430483
O O23 0.405435 0.250000 0.798594
#
# Coordination Sequence:
#
# PCOD8244370 Si02
#       8
#     8   8   8   8   8   8   8   8
#     4   9  19  35  54  78 106 133 168 216 262 308
#     4  10  20  36  59  84 110 141 178 221 268 318
#     4   9  16  25  40  67 102 134 164 205 256 306
#     4  10  21  36  55  77 104 137 171 211 258 313
#     4  11  22  38  58  79 107 141 179 222 267 318
#     4   9  16  27  47  72  97 131 173 213 252 298
#     4   8  14  27  47  69  95 128 166 209 254 302
#     4   9  17  33  53  75 103 136 177 216 253 305
#
# _framework density 17.905591999999999
#
# number of rings (size 3 to 8) (size 9 to 14) (size 15 to 20)
#    0.000    2.625    1.250    1.875    0.000    5.500 
#    0.000    5.000    0.000    2.250    0.000    0.000 
#    0.000    0.000    0.000    0.000    0.000    0.000 
#
# Total GULP energy -793550.083142 kJ/mol
# GULP energy per Si atom -12399.220049 kJ/mol
# Density = 1.786484 g / cm^3
# Si number density = 17.905592 Si / 1000 Ang^3
#
#
#
# Elastic Constant Matrix: (Units=GPa)
#
#
# Indices 1 2 3 4 5 6 
#
# 1 84.2376 43.5293 61.3786 0.0000 0.0000 0.0000
# 2 43.5293 80.0888 65.3855 0.0000 0.0000 0.0000
# 3 61.3786 65.3855 136.1970 0.0000 0.0000 0.0000
# 4 0.0000 0.0000 0.0000 27.1797 0.0000 0.0000
# 5 0.0000 0.0000 0.0000 0.0000 20.2845 0.0000
# 6 0.0000 0.0000 0.0000 0.0000 0.0000 22.2575
#
#
#
# Elastic Compliance Matrix: (Units=1/GPa)
#
#
# Indices 1 2 3 4 5 6 
#
# 1 0.019042 -0.005499 -0.005942 0.000000 0.000000 0.000000
# 2 -0.005499 0.022122 -0.008142 0.000000 0.000000 0.000000
# 3 -0.005942 -0.008142 0.013929 0.000000 0.000000 0.000000
# 4 0.000000 0.000000 0.000000 0.036792 0.000000 0.000000
# 5 0.000000 0.000000 0.000000 0.000000 0.049299 0.000000
# 6 0.000000 0.000000 0.000000 0.000000 0.000000 0.044929
#
#
# Mechanical properties :
#
#
# Convention : Reuss Voigt Hill
#
# Bulk Modulus (GPa) = 62.78372 71.23446 67.00909
# Shear Modulus (GPa) = 21.68376 22.62636 22.15506
#
# Velocity S-wave (km/s) = 3.48372 3.55864 3.52138
# Velocity P-wave (km/s) = 7.16391 7.53359 7.35107
#
# Compressibility (1/GPa) = 0.01592770
#
# Stress axis : x y z
#
# Youngs Moduli (GPa) = 52.51583 45.20311 71.79272
#
# Poissons Ratio (x) = 0.24856 0.42656
# Poissons Ratio (y) = 0.28877 0.58457
# Poissons Ratio (z) = 0.31203 0.36806
#
# Static dielectric constant tensor:
#      x y z
#    x 3.096780 0.000000 0.000000 
#    y 0.000000 3.297330 0.000000 
#    z 0.000000 0.000000 3.588650 
# 
# 
# High freq. dielectric constant tensor:
#      x y z
#    x 1.664940 0.000000 0.000000 
#    y 0.000000 1.678940 0.000000 
#    z 0.000000 0.000000 1.707700 
# 
# From -- ./inp_files/30721.got.cif
#   From: 2010.03.12/outbox.cif.g09.slc.cpg/sg59_16_cif.got.tgz:30721.got - 2010.04.16 16:29:54.
