data_PCOD8244839
_publ_section_title
;
Structure prediction by ZEFSAII (Michael W. Deem and Ramdas Pophale) SiO2 
 PCOD8244839
Probable space group: P M M N
;
_chemical_formula_sum "Si O2"
_cell_formula_units_Z 64
_cell_length_a 9.153701
_cell_length_b 23.360874
_cell_length_c 15.355650
_cell_angle_alpha 90.000000
_cell_angle_beta 90.000000
_cell_angle_gamma 90.000000
_cell_volume 3283.628482
_symmetry_space_group_name_H-M "P M M N"
_symmetry_group_IT_number 59
_space_group.IT_coordinate_system_code '2'
_symmetry_cell_setting 'orthorhombic'
loop_
_space_group_symop_operation_xyz
x,y,z
1/2-x,1/2-y,z
1/2+x,-y,-z
-x,1/2+y,-z
-x,-y,-z
1/2+x,1/2+y,-z
1/2-x,y,z
x,1/2-y,z
loop_
_atom_site_type_symbol
_atom_site_label
_atom_site_fract_x
_atom_site_fract_y
_atom_site_fract_z
Si Si1 0.921094 0.812297 0.981773
Si Si2 0.079230 0.875241 0.645548
Si Si3 0.921061 0.392803 0.687583
Si Si4 0.576022 0.184351 0.527823
Si Si5 0.093605 0.869122 0.125689
Si Si6 0.423696 0.509031 0.735169
Si Si7 0.088601 0.182233 0.205927
Si Si8 0.413484 0.500011 0.091252
O O1 0.750000 0.805362 0.985992
O O2 0.995543 0.750000 0.992766
O O3 0.967834 0.851775 0.060618
O O4 0.963317 0.841249 0.889165
O O5 0.250000 0.867743 0.640775
O O6 0.012822 0.850413 0.555682
O O7 0.037543 0.941070 0.665324
O O8 0.026870 0.835098 0.723018
O O9 0.750000 0.408664 0.675966
O O10 0.979351 0.352142 0.610469
O O11 0.946526 0.354590 0.774542
O O12 0.013514 0.451291 0.692444
O O13 0.750000 0.186463 0.527126
O O14 0.515476 0.250000 0.529513
O O15 0.250000 0.840714 0.100214
O O16 0.110617 0.936402 0.122883
O O17 0.250000 0.502758 0.749371
O O18 0.495026 0.527911 0.828484
O O19 0.250000 0.158379 0.229872
O O20 0.095804 0.250000 0.196797
O O21 0.250000 0.471742 0.080514
O O22 0.500000 0.500000 0.000000
#
# Coordination Sequence:
#
# PCOD8244839 Si02
#       8
#     8   8   8   8   8   8   8   8
#     4   9  19  34  50  72 103 140 180 217 264 328
#     4  10  21  35  55  83 112 143 185 233 278 333
#     4   9  19  37  58  80 108 143 185 231 279 338
#     4   9  18  35  60  86 110 141 184 234 288 340
#     4   9  19  33  50  75 104 133 173 224 269 313
#     4  10  21  36  53  80 116 150 186 230 280 332
#     4   9  19  35  52  73 105 143 181 224 276 335
#     4  10  21  36  54  78 109 145 186 229 271 322
#
# _framework density 19.490634
#
# number of rings (size 3 to 8) (size 9 to 14) (size 15 to 20)
#    0.000    2.625    0.000    2.625    1.750    6.000 
#    0.000    3.125    0.000    1.125    0.000    0.000 
#    0.000    0.000    0.000    0.000    0.000    0.000 
#
# Total GULP energy -793063.369577 kJ/mol
# GULP energy per Si atom -12391.615150 kJ/mol
# Density = 1.944627 g / cm^3
# Si number density = 19.490634 Si / 1000 Ang^3
#
#
#
# Elastic Constant Matrix: (Units=GPa)
#
#
# Indices 1 2 3 4 5 6 
#
# 1 49.3719 31.4203 42.4766 0.0000 0.0000 0.0000
# 2 31.4203 66.2350 60.3824 0.0000 0.0000 0.0000
# 3 42.4766 60.3824 166.2353 0.0000 0.0000 0.0000
# 4 0.0000 0.0000 0.0000 28.2919 0.0000 0.0000
# 5 0.0000 0.0000 0.0000 0.0000 22.9483 0.0000
# 6 0.0000 0.0000 0.0000 0.0000 0.0000 24.3667
#
#
#
# Elastic Compliance Matrix: (Units=1/GPa)
#
#
# Indices 1 2 3 4 5 6 
#
# 1 0.030538 -0.011023 -0.003799 0.000000 0.000000 0.000000
# 2 -0.011023 0.026551 -0.006828 0.000000 0.000000 0.000000
# 3 -0.003799 -0.006828 0.009466 0.000000 0.000000 0.000000
# 4 0.000000 0.000000 0.000000 0.035346 0.000000 0.000000
# 5 0.000000 0.000000 0.000000 0.000000 0.043576 0.000000
# 6 0.000000 0.000000 0.000000 0.000000 0.000000 0.041040
#
#
# Mechanical properties :
#
#
# Convention : Reuss Voigt Hill
#
# Bulk Modulus (GPa) = 42.99991 61.15563 52.07777
# Shear Modulus (GPa) = 21.04650 24.95891 23.00270
#
# Velocity S-wave (km/s) = 3.28964 3.58237 3.43912
# Velocity P-wave (km/s) = 6.04472 6.96823 6.52284
#
# Compressibility (1/GPa) = 0.02325586
#
# Stress axis : x y z
#
# Youngs Moduli (GPa) = 32.74596 37.66301 105.63688
#
# Poissons Ratio (x) = 0.41516 0.40133
# Poissons Ratio (y) = 0.36096 0.72126
# Poissons Ratio (z) = 0.12441 0.25715
#
# Static dielectric constant tensor:
#      x y z
#    x 3.514020 0.000000 0.000000 
#    y 0.000000 3.674370 0.000000 
#    z 0.000000 0.000000 3.887280 
# 
# 
# High freq. dielectric constant tensor:
#      x y z
#    x 1.739490 0.000000 0.000000 
#    y 0.000000 1.753070 0.000000 
#    z 0.000000 0.000000 1.766970 
# 
# From -- ./inp_files/21463.got.cif
#   From: 2010.03.12/outbox.cif.g09.slc.cpg/sg59_11_cif.got.tgz:21463.got - 2010.04.16 16:29:54.
