data_PCOD8244859
_publ_section_title
;
Structure prediction by ZEFSAII (Michael W. Deem and Ramdas Pophale) SiO2 
 PCOD8244859
Probable space group: P M M N
;
_chemical_formula_sum "Si O2"
_cell_formula_units_Z 48
_cell_length_a 20.326176
_cell_length_b 21.727016
_cell_length_c 5.047319
_cell_angle_alpha 90.000000
_cell_angle_beta 90.000000
_cell_angle_gamma 90.000000
_cell_volume 2229.033111
_symmetry_space_group_name_H-M "P M M N"
_symmetry_group_IT_number 59
_space_group.IT_coordinate_system_code '2'
_symmetry_cell_setting 'orthorhombic'
loop_
_space_group_symop_operation_xyz
x,y,z
1/2-x,1/2-y,z
1/2+x,-y,-z
-x,1/2+y,-z
-x,-y,-z
1/2+x,1/2+y,-z
1/2-x,y,z
x,1/2-y,z
loop_
_atom_site_type_symbol
_atom_site_label
_atom_site_fract_x
_atom_site_fract_y
_atom_site_fract_z
Si Si1 0.674009 0.383524 0.898113
Si Si2 0.324592 0.478960 0.235077
Si Si3 0.903248 0.138621 0.376624
Si Si4 0.434423 0.503262 0.657531
Si Si5 0.545021 0.820252 0.549409
Si Si6 0.908046 0.607720 0.048268
O O1 0.750000 0.366090 0.918082
O O2 0.664250 0.457939 0.935678
O O3 0.648849 0.364977 0.610294
O O4 0.636171 0.340138 0.113590
O O5 0.250000 0.476673 0.341068
O O6 0.372580 0.477426 0.487932
O O7 0.336747 0.417303 0.053182
O O8 0.965546 0.177951 0.479579
O O9 0.927216 0.073411 0.265467
O O10 0.500000 0.500000 0.500000
O O11 0.445002 0.458222 0.911411
O O12 0.568658 0.750000 0.545410
O O13 0.587379 0.855231 0.325074
O O14 0.558330 0.849430 0.833655
#
# Coordination Sequence:
#
# PCOD8244859 Si02
#       6
#     8   8   8   8   8   8
#     4  10  21  35  57  93 132 164 195 240 309 389
#     4  10  22  37  60  97 135 166 200 250 321 399
#     4  11  21  36  61  87 127 164 198 255 314 380
#     4  11  21  36  64 100 132 163 207 257 331 388
#     4  12  27  43  63  89 120 164 219 271 319 364
#     4  12  22  42  64  92 123 165 203 265 316 382
#
# _framework density 21.534002999999998
#
# number of rings (size 3 to 8) (size 9 to 14) (size 15 to 20)
#    0.000    1.000    5.000    2.000    2.333    2.667 
#    0.000    0.000    0.000    6.000    0.000    0.000 
#    0.000    0.000    0.000    0.000    0.000    0.000 
#
# Total GULP energy -594644.953882 kJ/mol
# GULP energy per Si atom -12388.436539 kJ/mol
# Density = 2.148499 g / cm^3
# Si number density = 21.534003 Si / 1000 Ang^3
#
#
#
# Elastic Constant Matrix: (Units=GPa)
#
#
# Indices 1 2 3 4 5 6 
#
# 1 86.6804 4.4132 2.9742 0.0000 0.0000 0.0000
# 2 4.4132 62.3477 12.3801 0.0000 0.0000 0.0000
# 3 2.9742 12.3801 79.2803 0.0000 0.0000 0.0000
# 4 0.0000 0.0000 0.0000 14.9894 0.0000 0.0000
# 5 0.0000 0.0000 0.0000 0.0000 31.0045 0.0000
# 6 0.0000 0.0000 0.0000 0.0000 0.0000 14.5291
#
#
#
# Elastic Compliance Matrix: (Units=1/GPa)
#
#
# Indices 1 2 3 4 5 6 
#
# 1 0.011586 -0.000757 -0.000316 0.000000 0.000000 0.000000
# 2 -0.000757 0.016602 -0.002564 0.000000 0.000000 0.000000
# 3 -0.000316 -0.002564 0.013026 0.000000 0.000000 0.000000
# 4 0.000000 0.000000 0.000000 0.066714 0.000000 0.000000
# 5 0.000000 0.000000 0.000000 0.000000 0.032253 0.000000
# 6 0.000000 0.000000 0.000000 0.000000 0.000000 0.068828
#
#
# Mechanical properties :
#
#
# Convention : Reuss Voigt Hill
#
# Bulk Modulus (GPa) = 29.46538 29.76037 29.61288
# Shear Modulus (GPa) = 21.96872 26.00733 23.98803
#
# Velocity S-wave (km/s) = 3.19750 3.47902 3.34123
# Velocity P-wave (km/s) = 5.22924 5.47615 5.35412
#
# Compressibility (1/GPa) = 0.03393813
#
# Stress axis : x y z
#
# Youngs Moduli (GPa) = 86.31077 60.23440 76.77108
#
# Poissons Ratio (x) = 0.04561 0.02429
# Poissons Ratio (y) = 0.06536 0.19685
# Poissons Ratio (z) = 0.02731 0.15444
#
# Static dielectric constant tensor:
#      x y z
#    x 3.949680 0.000000 0.000000 
#    y 0.000000 3.626720 0.000000 
#    z 0.000000 0.000000 20.791820 
# 
# 
# High freq. dielectric constant tensor:
#      x y z
#    x 1.838750 0.000000 0.000000 
#    y 0.000000 1.812240 0.000000 
#    z 0.000000 0.000000 1.858930 
# 
# From -- ./inp_files/2853.got.cif
#   From: 2010.03.12/outbox.cif.g09.slc.cpg/sg59_2_cif.got.tgz:2853.got - 2010.04.16 16:29:54.
