data_PCOD8244583
_publ_section_title
;
Structure prediction by ZEFSAII (Michael W. Deem and Ramdas Pophale) SiO2 
 PCOD8244583
Probable space group: P M M N
;
_chemical_formula_sum "Si O2"
_cell_formula_units_Z 48
_cell_length_a 8.543309
_cell_length_b 17.792876
_cell_length_c 15.749566
_cell_angle_alpha 90.000000
_cell_angle_beta 90.000000
_cell_angle_gamma 90.000000
_cell_volume 2394.092121
_symmetry_space_group_name_H-M "P M M N"
_symmetry_group_IT_number 59
_space_group.IT_coordinate_system_code '2'
_symmetry_cell_setting 'orthorhombic'
loop_
_space_group_symop_operation_xyz
x,y,z
1/2-x,1/2-y,z
1/2+x,-y,-z
-x,1/2+y,-z
-x,-y,-z
1/2+x,1/2+y,-z
1/2-x,y,z
x,1/2-y,z
loop_
_atom_site_type_symbol
_atom_site_label
_atom_site_fract_x
_atom_site_fract_y
_atom_site_fract_z
Si Si1 0.073317 0.750000 0.890798
Si Si2 0.070843 0.966162 0.126755
Si Si3 0.434065 0.540626 0.320846
Si Si4 0.931885 0.750000 0.712326
Si Si5 0.568728 0.836597 0.437466
Si Si6 0.426781 0.384707 0.022657
Si Si7 0.067255 0.611854 0.611734
O O1 0.250000 0.750000 0.855733
O O2 0.951930 0.750000 0.813218
O O3 0.047393 0.678625 0.950142
O O4 0.250000 0.939684 0.120206
O O5 0.012525 0.967619 0.223450
O O6 0.049398 0.048734 0.089361
O O7 0.964821 0.908995 0.073400
O O8 0.250000 0.553759 0.329348
O O9 0.523938 0.612828 0.357111
O O10 0.477962 0.465725 0.371831
O O11 0.750000 0.750000 0.687889
O O12 0.010119 0.675317 0.676201
O O13 0.750000 0.847839 0.461218
O O14 0.532925 0.750000 0.414842
O O15 0.463942 0.861748 0.516423
O O16 0.250000 0.354106 0.025031
O O17 0.250000 0.598149 0.625105
#
# Coordination Sequence:
#
# PCOD8244583 Si02
#       7
#     4   8   8   4   8   8   8
#     4  12  24  38  58  89 124 159 202 248 298 359
#     4   9  20  39  61  87 118 158 201 247 301 359
#     4  11  23  40  64  92 124 163 209 257 306 366
#     4  12  24  40  62  91 128 163 202 254 312 365
#     4  11  24  43  64  87 122 165 208 259 313 364
#     4  10  20  37  62  88 120 159 200 249 304 360
#     4  12  24  40  64  93 125 161 206 252 307 371
#
# _framework density 20.049354999999998
#
# number of rings (size 3 to 8) (size 9 to 14) (size 15 to 20)
#    0.000    1.167    0.833    6.000    0.000    4.333 
#    1.500    0.000    0.000    0.000    0.000    0.000 
#    0.000    0.000    0.000    0.000    0.000    0.000 
#
# Total GULP energy -595527.617187 kJ/mol
# GULP energy per Si atom -12406.825358 kJ/mol
# Density = 2.000372 g / cm^3
# Si number density = 20.049355 Si / 1000 Ang^3
#
#
#
# Elastic Constant Matrix: (Units=GPa)
#
#
# Indices 1 2 3 4 5 6 
#
# 1 65.8088 24.3621 32.7352 0.0000 0.0000 0.0000
# 2 24.3621 112.3490 56.2062 0.0000 0.0000 0.0000
# 3 32.7352 56.2062 87.0230 0.0000 0.0000 0.0000
# 4 0.0000 0.0000 0.0000 28.1989 0.0000 0.0000
# 5 0.0000 0.0000 0.0000 0.0000 34.0931 0.0000
# 6 0.0000 0.0000 0.0000 0.0000 0.0000 27.3124
#
#
#
# Elastic Compliance Matrix: (Units=1/GPa)
#
#
# Indices 1 2 3 4 5 6 
#
# 1 0.018741 -0.000793 -0.006537 0.000000 0.000000 0.000000
# 2 -0.000793 0.013183 -0.008216 0.000000 0.000000 0.000000
# 3 -0.006537 -0.008216 0.019257 0.000000 0.000000 0.000000
# 4 0.000000 0.000000 0.000000 0.035462 0.000000 0.000000
# 5 0.000000 0.000000 0.000000 0.000000 0.029331 0.000000
# 6 0.000000 0.000000 0.000000 0.000000 0.000000 0.036613
#
#
# Mechanical properties :
#
#
# Convention : Reuss Voigt Hill
#
# Bulk Modulus (GPa) = 49.78254 54.64308 52.21281
# Shear Modulus (GPa) = 26.26340 28.04604 27.15472
#
# Velocity S-wave (km/s) = 3.62323 3.74418 3.68420
# Velocity P-wave (km/s) = 6.51058 6.78272 6.64804
#
# Compressibility (1/GPa) = 0.02008736
#
# Stress axis : x y z
#
# Youngs Moduli (GPa) = 53.35863 75.85304 51.92874
#
# Poissons Ratio (x) = 0.06018 0.33948
# Poissons Ratio (y) = 0.04233 0.42667
# Poissons Ratio (z) = 0.34883 0.62324
#
# Static dielectric constant tensor:
#      x y z
#    x 3.673380 0.000000 0.000000 
#    y 0.000000 3.690020 0.000000 
#    z 0.000000 0.000000 3.668810 
# 
# 
# High freq. dielectric constant tensor:
#      x y z
#    x 1.792540 0.000000 0.000000 
#    y 0.000000 1.786070 0.000000 
#    z 0.000000 0.000000 1.785960 
# 
# From -- ./inp_files/20538.got.cif
#   From: 2010.03.12/outbox.cif.g09.slc.cpg/sg59_11_cif.got.tgz:20538.got - 2010.04.16 16:29:54.
