data_PCOD8244314
_publ_section_title
;
Structure prediction by ZEFSAII (Michael W. Deem and Ramdas Pophale) SiO2 
 PCOD8244314
Probable space group: P M M N
;
_chemical_formula_sum "Si O2"
_cell_formula_units_Z 64
_cell_length_a 9.212836
_cell_length_b 24.220747
_cell_length_c 15.132727
_cell_angle_alpha 90.000000
_cell_angle_beta 90.000000
_cell_angle_gamma 90.000000
_cell_volume 3376.743486
_symmetry_space_group_name_H-M "P M M N"
_symmetry_group_IT_number 59
_space_group.IT_coordinate_system_code '2'
_symmetry_cell_setting 'orthorhombic'
loop_
_space_group_symop_operation_xyz
x,y,z
1/2-x,1/2-y,z
1/2+x,-y,-z
-x,1/2+y,-z
-x,-y,-z
1/2+x,1/2+y,-z
1/2-x,y,z
x,1/2-y,z
loop_
_atom_site_type_symbol
_atom_site_label
_atom_site_fract_x
_atom_site_fract_y
_atom_site_fract_z
Si Si1 0.585363 0.811147 0.431855
Si Si2 0.412718 0.623256 0.786056
Si Si3 0.581644 0.537935 0.564965
Si Si4 0.080408 0.186320 0.067385
Si Si5 0.418829 0.685926 0.108887
Si Si6 0.412388 0.504607 0.725379
Si Si7 0.916373 0.877074 0.258864
Si Si8 0.919456 0.145246 0.416513
O O1 0.750000 0.823221 0.462951
O O2 0.574793 0.750000 0.388223
O O3 0.539196 0.857187 0.358029
O O4 0.480875 0.807100 0.519262
O O5 0.250000 0.641843 0.812409
O O6 0.528568 0.649433 0.851270
O O7 0.423041 0.556111 0.793897
O O8 0.448202 0.648698 0.688669
O O9 0.500000 0.500000 0.500000
O O10 0.750000 0.537916 0.546287
O O11 0.545966 0.516287 0.661741
O O12 0.516825 0.596920 0.544477
O O13 0.250000 0.176834 0.053290
O O14 0.043670 0.250000 0.088092
O O15 0.999645 0.166075 0.979467
O O16 0.250000 0.673217 0.096818
O O17 0.449509 0.750000 0.126628
O O18 0.477721 0.652331 0.191324
O O19 0.250000 0.508578 0.681298
O O20 0.434412 0.442704 0.760758
O O21 0.750000 0.859323 0.241431
O O22 0.750000 0.136042 0.433928
#
# Coordination Sequence:
#
# PCOD8244314 Si02
#       8
#     8   8   8   8   8   8   8   8
#     4  10  21  35  52  78 112 149 188 231 279 330
#     4   9  19  36  56  80 112 145 179 224 275 325
#     4  11  20  31  50  74 101 135 177 225 271 317
#     4  10  21  37  59  85 109 137 178 225 272 328
#     4  10  21  37  58  84 112 141 177 225 278 330
#     4   9  19  35  54  79 110 144 183 225 270 324
#     4  10  20  36  58  81 109 146 185 226 273 324
#     4  10  21  36  53  75 105 143 184 224 269 321
#
# _framework density 18.953171999999999
#
# number of rings (size 3 to 8) (size 9 to 14) (size 15 to 20)
#    0.000    2.125    0.000    4.125    0.000    7.250 
#    0.000    3.125    0.000    0.000    0.000    0.000 
#    0.000    0.000    0.000    0.000    0.000    0.000 
#
# Total GULP energy -793008.215785 kJ/mol
# GULP energy per Si atom -12390.753372 kJ/mol
# Density = 1.891003 g / cm^3
# Si number density = 18.953172 Si / 1000 Ang^3
#
#
#
# Elastic Constant Matrix: (Units=GPa)
#
#
# Indices 1 2 3 4 5 6 
#
# 1 111.9187 45.0258 55.3168 0.0000 0.0000 0.0000
# 2 45.0258 83.8033 44.7047 0.0000 0.0000 0.0000
# 3 55.3168 44.7047 96.1522 0.0000 0.0000 0.0000
# 4 0.0000 0.0000 0.0000 25.3146 0.0000 0.0000
# 5 0.0000 0.0000 0.0000 0.0000 39.3158 0.0000
# 6 0.0000 0.0000 0.0000 0.0000 0.0000 30.2528
#
#
#
# Elastic Compliance Matrix: (Units=1/GPa)
#
#
# Indices 1 2 3 4 5 6 
#
# 1 0.013481 -0.004130 -0.005835 0.000000 0.000000 0.000000
# 2 -0.004130 0.017134 -0.005590 0.000000 0.000000 0.000000
# 3 -0.005835 -0.005590 0.016356 0.000000 0.000000 0.000000
# 4 0.000000 0.000000 0.000000 0.039503 0.000000 0.000000
# 5 0.000000 0.000000 0.000000 0.000000 0.025435 0.000000
# 6 0.000000 0.000000 0.000000 0.000000 0.000000 0.033055
#
#
# Mechanical properties :
#
#
# Convention : Reuss Voigt Hill
#
# Bulk Modulus (GPa) = 63.05222 64.66320 63.85771
# Shear Modulus (GPa) = 27.56930 28.76509 28.16720
#
# Velocity S-wave (km/s) = 3.81806 3.89998 3.85924
# Velocity P-wave (km/s) = 7.26474 7.38046 7.32283
#
# Compressibility (1/GPa) = 0.01585987
#
# Stress axis : x y z
#
# Youngs Moduli (GPa) = 74.17954 58.36450 61.13865
#
# Poissons Ratio (x) = 0.24105 0.35676
# Poissons Ratio (y) = 0.30637 0.34177
# Poissons Ratio (z) = 0.43286 0.32626
#
# Static dielectric constant tensor:
#      x y z
#    x 3.436540 0.000000 0.000000 
#    y 0.000000 3.573530 0.000000 
#    z 0.000000 0.000000 3.266030 
# 
# 
# High freq. dielectric constant tensor:
#      x y z
#    x 1.743750 0.000000 0.000000 
#    y 0.000000 1.739300 0.000000 
#    z 0.000000 0.000000 1.718020 
# 
# From -- ./inp_files/21445.got.cif
#   From: 2010.03.12/outbox.cif.g09.slc.cpg/sg59_11_cif.got.tgz:21445.got - 2010.04.16 16:29:54.
