data_PCOD8244261
_publ_section_title
;
Structure prediction by ZEFSAII (Michael W. Deem and Ramdas Pophale) SiO2 
 PCOD8244261
Probable space group: P M M N
;
_chemical_formula_sum "Si O2"
_cell_formula_units_Z 64
_cell_length_a 8.791390
_cell_length_b 33.429094
_cell_length_c 11.130046
_cell_angle_alpha 90.000000
_cell_angle_beta 90.000000
_cell_angle_gamma 90.000000
_cell_volume 3270.989215
_symmetry_space_group_name_H-M "P M M N"
_symmetry_group_IT_number 59
_space_group.IT_coordinate_system_code '2'
_symmetry_cell_setting 'orthorhombic'
loop_
_space_group_symop_operation_xyz
x,y,z
1/2-x,1/2-y,z
1/2+x,-y,-z
-x,1/2+y,-z
-x,-y,-z
1/2+x,1/2+y,-z
1/2-x,y,z
x,1/2-y,z
loop_
_atom_site_type_symbol
_atom_site_label
_atom_site_fract_x
_atom_site_fract_y
_atom_site_fract_z
Si Si1 0.578708 0.361373 0.835957
Si Si2 0.424288 0.942408 0.038087
Si Si3 0.570847 0.793804 0.021347
Si Si4 0.928768 0.704075 0.751756
Si Si5 0.070487 0.443008 0.214335
Si Si6 0.071370 0.871882 0.651990
Si Si7 0.429084 0.907644 0.395897
Si Si8 0.430297 0.478993 0.726052
O O1 0.750000 0.346090 0.819603
O O2 0.568818 0.395194 0.937588
O O3 0.478999 0.324268 0.876736
O O4 0.515276 0.377889 0.709566
O O5 0.250000 0.956328 0.018616
O O6 0.494448 0.965911 0.149251
O O7 0.523887 0.952267 0.922210
O O8 0.750000 0.792532 0.016988
O O9 0.506977 0.750000 0.055939
O O10 0.514065 0.805135 0.887471
O O11 0.750000 0.696286 0.738299
O O12 0.967718 0.750000 0.716905
O O13 0.018057 0.674028 0.663832
O O14 0.250000 0.445836 0.228935
O O15 0.013869 0.399003 0.250219
O O16 0.989328 0.475959 0.300165
O O17 0.250000 0.875022 0.674336
O O18 0.025786 0.887434 0.520502
O O19 0.250000 0.915967 0.382615
O O20 0.515372 0.949955 0.381542
O O21 0.250000 0.478286 0.735295
#
# Coordination Sequence:
#
# PCOD8244261 Si02
#       8
#     8   8   8   8   8   8   8   8
#     4   9  18  33  54  77 102 136 175 218 267 318
#     4  10  20  36  56  81 113 144 180 226 277 332
#     4   9  18  32  51  78 111 142 171 210 264 325
#     4   9  19  37  59  83 114 148 179 218 273 333
#     4  12  24  37  55  81 114 148 183 227 279 332
#     4  11  23  39  59  82 109 144 189 236 279 327
#     4   9  21  41  58  75 106 146 186 229 276 327
#     4  11  22  37  58  83 110 144 186 228 276 330
#
# _framework density 19.565947000000001
#
# number of rings (size 3 to 8) (size 9 to 14) (size 15 to 20)
#    0.000    2.000    0.000    5.625    0.000    7.000 
#    0.000    1.875    0.000    3.750    0.000    0.000 
#    0.000    0.000    0.000    0.000    0.000    0.000 
#
# Total GULP energy -793713.063130 kJ/mol
# GULP energy per Si atom -12401.766611 kJ/mol
# Density = 1.952141 g / cm^3
# Si number density = 19.565947 Si / 1000 Ang^3
#
#
#
# Elastic Constant Matrix: (Units=GPa)
#
#
# Indices 1 2 3 4 5 6 
#
# 1 80.5346 36.4428 21.9143 0.0000 0.0000 0.0000
# 2 36.4428 106.7846 24.3024 0.0000 0.0000 0.0000
# 3 21.9143 24.3024 46.9265 0.0000 0.0000 0.0000
# 4 0.0000 0.0000 0.0000 23.5407 0.0000 0.0000
# 5 0.0000 0.0000 0.0000 0.0000 27.3763 0.0000
# 6 0.0000 0.0000 0.0000 0.0000 0.0000 37.5107
#
#
#
# Elastic Compliance Matrix: (Units=1/GPa)
#
#
# Indices 1 2 3 4 5 6 
#
# 1 0.015719 -0.004187 -0.005172 0.000000 0.000000 0.000000
# 2 -0.004187 0.011731 -0.004120 0.000000 0.000000 0.000000
# 3 -0.005172 -0.004120 0.025859 0.000000 0.000000 0.000000
# 4 0.000000 0.000000 0.000000 0.042480 0.000000 0.000000
# 5 0.000000 0.000000 0.000000 0.000000 0.036528 0.000000
# 6 0.000000 0.000000 0.000000 0.000000 0.000000 0.026659
#
#
# Mechanical properties :
#
#
# Convention : Reuss Voigt Hill
#
# Bulk Modulus (GPa) = 37.95009 44.39608 41.17308
# Shear Modulus (GPa) = 25.67803 27.79127 26.73465
#
# Velocity S-wave (km/s) = 3.62661 3.77289 3.70048
# Velocity P-wave (km/s) = 6.08067 6.45905 6.27272
#
# Compressibility (1/GPa) = 0.02635040
#
# Stress axis : x y z
#
# Youngs Moduli (GPa) = 63.61597 85.24164 38.67136
#
# Poissons Ratio (x) = 0.35695 0.20002
# Poissons Ratio (y) = 0.26639 0.15932
# Poissons Ratio (z) = 0.32903 0.35119
#
# Static dielectric constant tensor:
#      x y z
#    x 3.450380 0.000000 0.000000 
#    y 0.000000 3.763060 0.000000 
#    z 0.000000 0.000000 3.462960 
# 
# 
# High freq. dielectric constant tensor:
#      x y z
#    x 1.760470 0.000000 0.000000 
#    y 0.000000 1.770190 0.000000 
#    z 0.000000 0.000000 1.747550 
# 
# From -- ./inp_files/14887.got.cif
#   From: 2010.03.12/outbox.cif.g09.slc.cpg/sg59_8_cif.got.tgz:14887.got - 2010.04.16 16:29:54.
