data_PCOD8244130
_publ_section_title
;
Structure prediction by ZEFSAII (Michael W. Deem and Ramdas Pophale) SiO2 
 PCOD8244130
Probable space group: P M M N
;
_chemical_formula_sum "Si O2"
_cell_formula_units_Z 48
_cell_length_a 9.146402
_cell_length_b 14.902507
_cell_length_c 17.159076
_cell_angle_alpha 90.000000
_cell_angle_beta 90.000000
_cell_angle_gamma 90.000000
_cell_volume 2338.856183
_symmetry_space_group_name_H-M "P M M N"
_symmetry_group_IT_number 59
_space_group.IT_coordinate_system_code '2'
_symmetry_cell_setting 'orthorhombic'
loop_
_space_group_symop_operation_xyz
x,y,z
1/2-x,1/2-y,z
1/2+x,-y,-z
-x,1/2+y,-z
-x,-y,-z
1/2+x,1/2+y,-z
1/2-x,y,z
x,1/2-y,z
loop_
_atom_site_type_symbol
_atom_site_label
_atom_site_fract_x
_atom_site_fract_y
_atom_site_fract_z
Si Si1 0.078465 0.250000 0.873316
Si Si2 0.578486 0.250000 0.706814
Si Si3 0.409327 0.648419 0.857891
Si Si4 0.418527 0.590197 0.407537
Si Si5 0.923384 0.596767 0.004641
Si Si6 0.582396 0.092722 0.415993
Si Si7 0.591556 0.850462 0.721248
O O1 0.250000 0.250000 0.858127
O O2 0.035310 0.158481 0.920285
O O3 0.999925 0.250000 0.790024
O O4 0.750000 0.250000 0.722904
O O5 0.533204 0.163803 0.655600
O O6 0.250000 0.601740 0.873816
O O7 0.378119 0.750000 0.833485
O O8 0.490445 0.598569 0.785394
O O9 0.515851 0.649806 0.931148
O O10 0.250000 0.560871 0.395153
O O11 0.437749 0.626711 0.495621
O O12 0.526137 0.507206 0.398617
O O13 0.750000 0.584684 0.998217
O O14 0.000000 0.500000 0.000000
O O15 0.750000 0.097651 0.390274
O O16 0.486866 0.156766 0.361970
O O17 0.750000 0.899343 0.714956
O O18 0.618219 0.750000 0.751102
#
# Coordination Sequence:
#
# PCOD8244130 Si02
#       7
#     4   4   8   8   8   8   8
#     4  10  24  44  64  89 126 163 202 259 314 373
#     4  10  22  40  64  89 116 159 208 255 306 363
#     4  10  20  36  59  86 116 150 191 240 295 356
#     4   9  20  38  58  82 115 155 199 246 302 358
#     4  11  23  41  64  91 123 162 205 251 311 373
#     4  10  20  35  58  84 117 156 197 248 299 353
#     4  10  21  35  54  83 117 152 190 233 288 351
#
# _framework density 20.522852
#
# number of rings (size 3 to 8) (size 9 to 14) (size 15 to 20)
#    0.000    2.000    0.833    2.000    1.167    5.667 
#    0.000    3.333    0.000    0.000    0.000    0.000 
#    0.000    0.000    0.000    0.000    0.000    0.000 
#
# Total GULP energy -594804.069234 kJ/mol
# GULP energy per Si atom -12391.751442 kJ/mol
# Density = 2.047614 g / cm^3
# Si number density = 20.522852 Si / 1000 Ang^3
#
#
#
# Elastic Constant Matrix: (Units=GPa)
#
#
# Indices 1 2 3 4 5 6 
#
# 1 137.7508 37.5943 76.5268 0.0000 0.0000 0.0000
# 2 37.5943 76.2102 46.8187 0.0000 0.0000 0.0000
# 3 76.5268 46.8187 159.3993 0.0000 0.0000 0.0000
# 4 0.0000 0.0000 0.0000 16.9629 0.0000 0.0000
# 5 0.0000 0.0000 0.0000 0.0000 39.9000 0.0000
# 6 0.0000 0.0000 0.0000 0.0000 0.0000 26.1330
#
#
#
# Elastic Compliance Matrix: (Units=1/GPa)
#
#
# Indices 1 2 3 4 5 6 
#
# 1 0.010272 -0.002486 -0.004201 0.000000 0.000000 0.000000
# 2 -0.002486 0.016612 -0.003686 0.000000 0.000000 0.000000
# 3 -0.004201 -0.003686 0.009373 0.000000 0.000000 0.000000
# 4 0.000000 0.000000 0.000000 0.058952 0.000000 0.000000
# 5 0.000000 0.000000 0.000000 0.000000 0.025063 0.000000
# 6 0.000000 0.000000 0.000000 0.000000 0.000000 0.038266
#
#
# Mechanical properties :
#
#
# Convention : Reuss Voigt Hill
#
# Bulk Modulus (GPa) = 64.47026 77.24890 70.85958
# Shear Modulus (GPa) = 27.10690 30.76054 28.93372
#
# Velocity S-wave (km/s) = 3.63824 3.87569 3.75884
# Velocity P-wave (km/s) = 7.00936 7.59935 7.31031
#
# Compressibility (1/GPa) = 0.01551103
#
# Stress axis : x y z
#
# Youngs Moduli (GPa) = 97.35195 60.19634 106.68745
#
# Poissons Ratio (x) = 0.14966 0.44823
# Poissons Ratio (y) = 0.24203 0.39323
# Poissons Ratio (z) = 0.40901 0.22187
#
# Static dielectric constant tensor:
#      x y z
#    x 4.080830 0.000000 0.000000 
#    y 0.000000 3.529030 0.000000 
#    z 0.000000 0.000000 3.807920 
# 
# 
# High freq. dielectric constant tensor:
#      x y z
#    x 1.816070 0.000000 0.000000 
#    y 0.000000 1.778980 0.000000 
#    z 0.000000 0.000000 1.809120 
# 
# From -- ./inp_files/25621.got.cif
#   From: 2010.03.12/outbox.cif.g09.slc.cpg/sg59_13_cif.got.tgz:25621.got - 2010.04.16 16:29:54.
