data_PCOD8244195
_publ_section_title
;
Structure prediction by ZEFSAII (Michael W. Deem and Ramdas Pophale) SiO2 
 PCOD8244195
Probable space group: P M M N
;
_chemical_formula_sum "Si O2"
_cell_formula_units_Z 48
_cell_length_a 20.628176
_cell_length_b 13.386281
_cell_length_c 8.319911
_cell_angle_alpha 90.000000
_cell_angle_beta 90.000000
_cell_angle_gamma 90.000000
_cell_volume 2297.414967
_symmetry_space_group_name_H-M "P M M N"
_symmetry_group_IT_number 59
_space_group.IT_coordinate_system_code '2'
_symmetry_cell_setting 'orthorhombic'
loop_
_space_group_symop_operation_xyz
x,y,z
1/2-x,1/2-y,z
1/2+x,-y,-z
-x,1/2+y,-z
-x,-y,-z
1/2+x,1/2+y,-z
1/2-x,y,z
x,1/2-y,z
loop_
_atom_site_type_symbol
_atom_site_label
_atom_site_fract_x
_atom_site_fract_y
_atom_site_fract_z
Si Si1 0.178122 0.452907 0.779186
Si Si2 0.930269 0.132460 0.777225
Si Si3 0.412791 0.501154 0.526814
Si Si4 0.679339 0.139117 0.022263
Si Si5 0.007726 0.130903 0.307645
Si Si6 0.442580 0.132782 0.959904
O O1 0.250000 0.402783 0.788527
O O2 0.153752 0.453355 0.594000
O O3 0.182695 0.568559 0.824765
O O4 0.128605 0.396773 0.898648
O O5 0.930222 0.250000 0.742782
O O6 0.906372 0.078108 0.617825
O O7 0.877072 0.101110 0.907088
O O8 0.000272 0.093534 0.841117
O O9 0.453142 0.403908 0.467611
O O10 0.442683 0.563679 0.678776
O O11 0.750000 0.137641 0.934088
O O12 0.662587 0.250000 0.084951
O O13 0.994370 0.250000 0.314908
O O14 0.045076 0.098063 0.144441
O O15 0.447907 0.250000 0.960156
#
# Coordination Sequence:
#
# PCOD8244195 Si02
#       6
#     8   8   8   8   8   8
#     4  11  24  39  55  78 111 151 193 234 277 329
#     4  10  20  35  59  89 116 144 182 228 278 335
#     4  11  22  34  55  85 119 149 175 220 287 345
#     4   9  19  36  56  79 111 151 191 230 274 330
#     4  10  21  37  59  87 115 142 179 231 285 338
#     4  10  21  39  62  84 107 141 190 240 280 323
#
# _framework density 20.893048
#
# number of rings (size 3 to 8) (size 9 to 14) (size 15 to 20)
#    0.000    1.833    0.000    4.500    0.000    7.667 
#    0.000    0.833    0.000    1.000    0.000    0.000 
#    0.000    0.000    0.000    0.000    0.000    0.000 
#
# Total GULP energy -594766.186478 kJ/mol
# GULP energy per Si atom -12390.962218 kJ/mol
# Density = 2.084549 g / cm^3
# Si number density = 20.893048 Si / 1000 Ang^3
#
#
#
# Elastic Constant Matrix: (Units=GPa)
#
#
# Indices 1 2 3 4 5 6 
#
# 1 119.7206 5.0190 27.9021 0.0000 0.0000 0.0000
# 2 5.0190 46.1074 12.6151 0.0000 0.0000 0.0000
# 3 27.9021 12.6151 84.7095 0.0000 0.0000 0.0000
# 4 0.0000 0.0000 0.0000 32.2599 0.0000 0.0000
# 5 0.0000 0.0000 0.0000 0.0000 32.7163 0.0000
# 6 0.0000 0.0000 0.0000 0.0000 0.0000 22.5113
#
#
#
# Elastic Compliance Matrix: (Units=1/GPa)
#
#
# Indices 1 2 3 4 5 6 
#
# 1 0.009049 -0.000177 -0.002954 0.000000 0.000000 0.000000
# 2 -0.000177 0.022613 -0.003309 0.000000 0.000000 0.000000
# 3 -0.002954 -0.003309 0.013271 0.000000 0.000000 0.000000
# 4 0.000000 0.000000 0.000000 0.030998 0.000000 0.000000
# 5 0.000000 0.000000 0.000000 0.000000 0.030566 0.000000
# 6 0.000000 0.000000 0.000000 0.000000 0.000000 0.044422
#
#
# Mechanical properties :
#
#
# Convention : Reuss Voigt Hill
#
# Bulk Modulus (GPa) = 31.19907 37.95666 34.57786
# Shear Modulus (GPa) = 28.65600 31.16428 29.91014
#
# Velocity S-wave (km/s) = 3.70747 3.86633 3.78773
# Velocity P-wave (km/s) = 5.76995 6.17559 5.97621
#
# Compressibility (1/GPa) = 0.03205224
#
# Stress axis : x y z
#
# Youngs Moduli (GPa) = 110.51320 44.22198 75.35257
#
# Poissons Ratio (x) = 0.00782 0.22261
# Poissons Ratio (y) = 0.01953 0.24937
# Poissons Ratio (z) = 0.32648 0.14635
#
# Static dielectric constant tensor:
#      x y z
#    x 4.103700 0.000000 0.000000 
#    y 0.000000 3.781380 0.000000 
#    z 0.000000 0.000000 3.733130 
# 
# 
# High freq. dielectric constant tensor:
#      x y z
#    x 1.809810 0.000000 0.000000 
#    y 0.000000 1.828800 0.000000 
#    z 0.000000 0.000000 1.811230 
# 
# From -- ./inp_files/10262.got.cif
#   From: 2010.03.12/outbox.cif.g09.slc.cpg/sg59_6_cif.got.tgz:10262.got - 2010.04.16 16:29:54.
