data_PCOD8244662
_publ_section_title
;
Structure prediction by ZEFSAII (Michael W. Deem and Ramdas Pophale) SiO2 
 PCOD8244662
Probable space group: P M M N
;
_chemical_formula_sum "Si O2"
_cell_formula_units_Z 38
_cell_length_a 10.225170
_cell_length_b 19.178600
_cell_length_c 9.987520
_cell_angle_alpha 90.000000
_cell_angle_beta 90.000000
_cell_angle_gamma 90.000000
_cell_volume 1958.597070
_symmetry_space_group_name_H-M "P M M N"
_symmetry_group_IT_number 59
_space_group.IT_coordinate_system_code '2'
_symmetry_cell_setting 'orthorhombic'
loop_
_space_group_symop_operation_xyz
x,y,z
1/2-x,1/2-y,z
1/2+x,-y,-z
-x,1/2+y,-z
-x,-y,-z
1/2+x,1/2+y,-z
1/2-x,y,z
x,1/2-y,z
loop_
_atom_site_type_symbol
_atom_site_label
_atom_site_fract_x
_atom_site_fract_y
_atom_site_fract_z
Si Si1 0.750000 0.102877 0.239504
Si Si2 0.250000 0.750000 0.882817
Si Si3 0.995597 0.626615 0.301516
Si Si4 0.750000 0.669138 0.477521
Si Si5 0.007827 0.517084 0.845667
Si Si6 0.896031 0.250000 0.859309
Si Si7 0.250000 0.442342 0.298896
Si Si8 0.750000 0.415424 0.551865
O O1 0.750000 0.184995 0.215955
O O2 0.876772 0.071476 0.170567
O O3 0.750000 0.085848 0.394146
O O4 0.379095 0.750000 0.979010
O O5 0.023281 0.681741 0.183658
O O6 0.122316 0.623410 0.395012
O O7 0.876786 0.650859 0.392042
O O8 0.961622 0.552539 0.237433
O O9 0.750000 0.750000 0.514446
O O10 0.750000 0.629206 0.618742
O O11 0.875276 0.553330 0.796502
O O12 0.000000 0.500000 0.000000
O O13 0.750000 0.250000 0.793472
O O14 0.250000 0.504213 0.406237
#
# Coordination Sequence:
#
# PCOD8244662 Si02
#       8
#     4   2   8   4   8   4   4   4
#     4  12  23  40  60  95 119 162 209 263 306 370
#     4  10  24  40  60  86 130 160 202 268 316 358
#     4  11  21  39  64  94 120 164 209 257 304 381
#     4  12  24  38  59  92 134 165 204 252 321 380
#     4  11  23  40  67  90 123 163 215 258 315 375
#     4  10  20  38  63  86 119 161 211 248 304 359
#     4  10  23  43  60  93 129 165 196 265 323 369
#     4  10  21  39  66  89 120 158 211 255 308 364
#
# _framework density 19.401641000000001
#
# number of rings (size 3 to 8) (size 9 to 14) (size 15 to 20)
#    0.316    0.842    2.105    5.053    0.000    4.211 
#    5.684    0.000    0.000    0.000    0.000    0.000 
#    0.000    0.000    0.000    0.000    0.000    0.000 
#
# Total GULP energy -471342.786711 kJ/mol
# GULP energy per Si atom -12403.757545 kJ/mol
# Density = 1.935748 g / cm^3
# Si number density = 19.401641 Si / 1000 Ang^3
#
#
#
# Elastic Constant Matrix: (Units=GPa)
#
#
# Indices 1 2 3 4 5 6 
#
# 1 145.2368 66.6717 58.2500 0.0000 0.0000 0.0000
# 2 66.6717 114.2175 34.2090 0.0000 0.0000 0.0000
# 3 58.2500 34.2090 130.6100 0.0000 0.0000 0.0000
# 4 0.0000 0.0000 0.0000 22.5127 0.0000 0.0000
# 5 0.0000 0.0000 0.0000 0.0000 60.1200 0.0000
# 6 0.0000 0.0000 0.0000 0.0000 0.0000 34.1865
#
#
#
# Elastic Compliance Matrix: (Units=1/GPa)
#
#
# Indices 1 2 3 4 5 6 
#
# 1 0.010622 -0.005189 -0.003378 0.000000 0.000000 0.000000
# 2 -0.005189 0.012035 -0.000838 0.000000 0.000000 0.000000
# 3 -0.003378 -0.000838 0.009383 0.000000 0.000000 0.000000
# 4 0.000000 0.000000 0.000000 0.044419 0.000000 0.000000
# 5 0.000000 0.000000 0.000000 0.000000 0.016633 0.000000
# 6 0.000000 0.000000 0.000000 0.000000 0.000000 0.029251
#
#
# Mechanical properties :
#
#
# Convention : Reuss Voigt Hill
#
# Bulk Modulus (GPa) = 75.58813 78.70284 77.14548
# Shear Modulus (GPa) = 34.34927 38.75942 36.55434
#
# Velocity S-wave (km/s) = 4.21221 4.47446 4.34531
# Velocity P-wave (km/s) = 7.91841 8.20655 8.06377
#
# Compressibility (1/GPa) = 0.01322959
#
# Stress axis : x y z
#
# Youngs Moduli (GPa) = 94.14362 83.09137 106.58053
#
# Poissons Ratio (x) = 0.43112 0.36006
# Poissons Ratio (y) = 0.48847 0.08933
# Poissons Ratio (z) = 0.31805 0.06964
#
# Static dielectric constant tensor:
#      x y z
#    x 3.718400 0.000000 0.000000 
#    y 0.000000 3.686640 0.000000 
#    z 0.000000 0.000000 3.463530 
# 
# 
# High freq. dielectric constant tensor:
#      x y z
#    x 1.765180 0.000000 0.000000 
#    y 0.000000 1.763250 0.000000 
#    z 0.000000 0.000000 1.757450 
# 
# From -- ./inp_files/7184.got.cif
#   From: 2010.03.12/outbox.cif.g09.slc.cpg/sg59_4_cif.got.tgz:7184.got - 2010.04.16 16:29:54.
