data_PCOD8244626
_publ_section_title
;
Structure prediction by ZEFSAII (Michael W. Deem and Ramdas Pophale) SiO2 
 PCOD8244626
Probable space group: P M M N
;
_chemical_formula_sum "Si O2"
_cell_formula_units_Z 40
_cell_length_a 9.989053
_cell_length_b 9.343577
_cell_length_c 23.495172
_cell_angle_alpha 90.000000
_cell_angle_beta 90.000000
_cell_angle_gamma 90.000000
_cell_volume 2192.886304
_symmetry_space_group_name_H-M "P M M N"
_symmetry_group_IT_number 59
_space_group.IT_coordinate_system_code '2'
_symmetry_cell_setting 'orthorhombic'
loop_
_space_group_symop_operation_xyz
x,y,z
1/2-x,1/2-y,z
1/2+x,-y,-z
-x,1/2+y,-z
-x,-y,-z
1/2+x,1/2+y,-z
1/2-x,y,z
x,1/2-y,z
loop_
_atom_site_type_symbol
_atom_site_label
_atom_site_fract_x
_atom_site_fract_y
_atom_site_fract_z
Si Si1 0.097064 0.582827 0.041456
Si Si2 0.750000 0.079230 0.585444
Si Si3 0.507889 0.083653 0.378912
Si Si4 0.097992 0.913956 0.748853
Si Si5 0.750000 0.080968 0.455128
Si Si6 0.599027 0.081684 0.829309
O O1 0.250000 0.542932 0.026783
O O2 0.072789 0.750000 0.032918
O O3 0.063925 0.537686 0.106121
O O4 0.000000 0.500000 0.000000
O O5 0.750000 0.250000 0.591377
O O6 0.750000 0.028490 0.519933
O O7 0.621743 0.014851 0.616534
O O8 0.470869 0.250000 0.389820
O O9 0.570058 0.061194 0.317194
O O10 0.616012 0.024555 0.424384
O O11 0.250000 0.959705 0.761675
O O12 0.073580 0.750000 0.765516
O O13 0.001520 0.008430 0.786536
O O14 0.750000 0.250000 0.449372
O O15 0.750000 0.032603 0.814596
O O16 0.585523 0.250000 0.821715
#
# Coordination Sequence:
#
# PCOD8244626 Si02
#       6
#     8   4   8   8   4   8
#     4   9  19  36  56  80 112 148 184 221 265 316
#     4  11  23  35  53  85 113 137 176 223 270 325
#     4  10  20  38  59  78 105 144 182 220 270 325
#     4  10  21  37  57  80 105 138 183 228 269 319
#     4   9  18  37  61  79 105 143 180 221 270 323
#     4   9  20  38  57  79 111 148 180 218 271 323
#
# _framework density 18.2408
#
# number of rings (size 3 to 8) (size 9 to 14) (size 15 to 20)
#    0.000    2.400    1.000    2.100    1.400    3.600 
#    0.000    7.500    0.000    0.000    0.000    0.000 
#    0.000    0.000    0.000    0.000    0.000    0.000 
#
# Total GULP energy -496043.549567 kJ/mol
# GULP energy per Si atom -12401.088739 kJ/mol
# Density = 1.819928 g / cm^3
# Si number density = 18.240800 Si / 1000 Ang^3
#
#
#
# Elastic Constant Matrix: (Units=GPa)
#
#
# Indices 1 2 3 4 5 6 
#
# 1 100.1533 37.6891 33.6964 0.0000 0.0000 0.0000
# 2 37.6891 48.8461 31.1017 0.0000 0.0000 0.0000
# 3 33.6964 31.1017 69.9022 0.0000 0.0000 0.0000
# 4 0.0000 0.0000 0.0000 33.4148 0.0000 0.0000
# 5 0.0000 0.0000 0.0000 0.0000 42.1118 0.0000
# 6 0.0000 0.0000 0.0000 0.0000 0.0000 24.9565
#
#
#
# Elastic Compliance Matrix: (Units=1/GPa)
#
#
# Indices 1 2 3 4 5 6 
#
# 1 0.014452 -0.009369 -0.002798 0.000000 0.000000 0.000000
# 2 -0.009369 0.034639 -0.010896 0.000000 0.000000 0.000000
# 3 -0.002798 -0.010896 0.020502 0.000000 0.000000 0.000000
# 4 0.000000 0.000000 0.000000 0.029927 0.000000 0.000000
# 5 0.000000 0.000000 0.000000 0.000000 0.023746 0.000000
# 6 0.000000 0.000000 0.000000 0.000000 0.000000 0.040070
#
#
# Mechanical properties :
#
#
# Convention : Reuss Voigt Hill
#
# Bulk Modulus (GPa) = 42.61168 47.09732 44.85450
# Shear Modulus (GPa) = 23.01130 27.85759 25.43445
#
# Velocity S-wave (km/s) = 3.55565 3.91220 3.73818
# Velocity P-wave (km/s) = 6.34573 6.80315 6.57842
#
# Compressibility (1/GPa) = 0.02346775
#
# Stress axis : x y z
#
# Youngs Moduli (GPa) = 69.19527 28.86882 48.77535
#
# Poissons Ratio (x) = 0.27049 0.13646
# Poissons Ratio (y) = 0.64832 0.53144
# Poissons Ratio (z) = 0.19359 0.31454
#
# Static dielectric constant tensor:
#      x y z
#    x 3.345220 0.000000 0.000000 
#    y 0.000000 3.196990 0.000000 
#    z 0.000000 0.000000 3.474810 
# 
# 
# High freq. dielectric constant tensor:
#      x y z
#    x 1.719300 0.000000 0.000000 
#    y 0.000000 1.691960 0.000000 
#    z 0.000000 0.000000 1.714200 
# 
# From -- ./inp_files/32402.got.cif
#   From: 2010.03.12/outbox.cif.g09.slc.cpg/sg59_17_cif.got.tgz:32402.got - 2010.04.16 16:29:54.
