data_PCOD8244621
_publ_section_title
;
Structure prediction by ZEFSAII (Michael W. Deem and Ramdas Pophale) SiO2 
 PCOD8244621
Probable space group: P M M N
;
_chemical_formula_sum "Si O2"
_cell_formula_units_Z 48
_cell_length_a 16.911123
_cell_length_b 15.954939
_cell_length_c 9.594994
_cell_angle_alpha 90.000000
_cell_angle_beta 90.000000
_cell_angle_gamma 90.000000
_cell_volume 2588.882286
_symmetry_space_group_name_H-M "P M M N"
_symmetry_group_IT_number 59
_space_group.IT_coordinate_system_code '2'
_symmetry_cell_setting 'orthorhombic'
loop_
_space_group_symop_operation_xyz
x,y,z
1/2-x,1/2-y,z
1/2+x,-y,-z
-x,1/2+y,-z
-x,-y,-z
1/2+x,1/2+y,-z
1/2-x,y,z
x,1/2-y,z
loop_
_atom_site_type_symbol
_atom_site_label
_atom_site_fract_x
_atom_site_fract_y
_atom_site_fract_z
Si Si1 0.476663 0.884312 0.126787
Si Si2 0.162526 0.345179 0.358104
Si Si3 0.928992 0.411319 0.398992
Si Si4 0.064048 0.406133 0.606927
Si Si5 0.653831 0.250000 0.813100
Si Si6 0.160586 0.750000 0.515069
Si Si7 0.045658 0.420235 0.158118
O O1 0.541415 0.861070 0.246854
O O2 0.395038 0.830526 0.129299
O O3 0.451446 0.980533 0.138546
O O4 0.525333 0.871083 0.983863
O O5 0.250000 0.379879 0.386690
O O6 0.163015 0.250000 0.309823
O O7 0.115674 0.349461 0.504680
O O8 0.129274 0.396493 0.226615
O O9 0.891050 0.503890 0.371937
O O10 0.869131 0.335306 0.414878
O O11 0.977924 0.421405 0.540955
O O12 0.981254 0.387741 0.266908
O O13 0.750000 0.250000 0.852816
O O14 0.644024 0.250000 0.648132
O O15 0.250000 0.750000 0.554209
#
# Coordination Sequence:
#
# PCOD8244621 Si02
#       7
#     8   8   8   8   4   4   8
#     4  10  20  38  57  86 110 148 195 222 268 338
#     4  10  22  36  54  83 108 139 185 236 288 323
#     4   9  18  34  52  81 104 143 188 222 266 333
#     4   9  18  34  57  76 105 144 186 226 269 325
#     4  11  24  35  55  91 122 148 179 228 291 343
#     4  11  22  33  53  85 118 146 179 232 291 337
#     4   9  21  37  60  79 110 151 190 230 271 325
#
# _framework density 18.540818999999999
#
# number of rings (size 3 to 8) (size 9 to 14) (size 15 to 20)
#    0.000    2.333    1.667    1.000    7.000    1.333 
#    0.000    2.500    0.000    8.000    0.000    0.000 
#    0.000    0.000    0.000    0.000    0.000    0.000 
#
# Total GULP energy -594646.377620 kJ/mol
# GULP energy per Si atom -12388.466200 kJ/mol
# Density = 1.849862 g / cm^3
# Si number density = 18.540819 Si / 1000 Ang^3
#
#
#
# Elastic Constant Matrix: (Units=GPa)
#
#
# Indices 1 2 3 4 5 6 
#
# 1 99.9365 47.2723 41.3150 0.0000 0.0000 0.0000
# 2 47.2723 83.5926 21.9102 0.0000 0.0000 0.0000
# 3 41.3150 21.9102 118.6257 0.0000 0.0000 0.0000
# 4 0.0000 0.0000 0.0000 16.4849 0.0000 0.0000
# 5 0.0000 0.0000 0.0000 0.0000 16.1792 0.0000
# 6 0.0000 0.0000 0.0000 0.0000 0.0000 12.8583
#
#
#
# Elastic Compliance Matrix: (Units=1/GPa)
#
#
# Indices 1 2 3 4 5 6 
#
# 1 0.015199 -0.007575 -0.003895 0.000000 0.000000 0.000000
# 2 -0.007575 0.016346 -0.000381 0.000000 0.000000 0.000000
# 3 -0.003895 -0.000381 0.009857 0.000000 0.000000 0.000000
# 4 0.000000 0.000000 0.000000 0.060662 0.000000 0.000000
# 5 0.000000 0.000000 0.000000 0.000000 0.061808 0.000000
# 6 0.000000 0.000000 0.000000 0.000000 0.000000 0.077771
#
#
# Mechanical properties :
#
#
# Convention : Reuss Voigt Hill
#
# Bulk Modulus (GPa) = 56.49176 58.12775 57.30976
# Shear Modulus (GPa) = 18.43360 21.88161 20.15761
#
# Velocity S-wave (km/s) = 3.15654 3.43911 3.30085
# Velocity P-wave (km/s) = 6.61967 6.86944 6.74571
#
# Compressibility (1/GPa) = 0.01770170
#
# Stress axis : x y z
#
# Youngs Moduli (GPa) = 65.79212 61.17651 101.45406
#
# Poissons Ratio (x) = 0.46339 0.39513
# Poissons Ratio (y) = 0.49835 0.03866
# Poissons Ratio (z) = 0.25624 0.02331
#
# Static dielectric constant tensor:
#      x y z
#    x 3.310350 0.000000 0.000000 
#    y 0.000000 3.518600 0.000000 
#    z 0.000000 0.000000 3.567560 
# 
# 
# High freq. dielectric constant tensor:
#      x y z
#    x 1.689720 0.000000 0.000000 
#    y 0.000000 1.726560 0.000000 
#    z 0.000000 0.000000 1.720730 
# 
# From -- ./inp_files/10281.got.cif
#   From: 2010.03.12/outbox.cif.g09.slc.cpg/sg59_6_cif.got.tgz:10281.got - 2010.04.16 16:29:54.
