data_PCOD8244343
_publ_section_title
;
Structure prediction by ZEFSAII (Michael W. Deem and Ramdas Pophale) SiO2 
 PCOD8244343
Probable space group: P M M N
;
_chemical_formula_sum "Si O2"
_cell_formula_units_Z 40
_cell_length_a 14.082276
_cell_length_b 15.786926
_cell_length_c 8.930581
_cell_angle_alpha 90.000000
_cell_angle_beta 90.000000
_cell_angle_gamma 90.000000
_cell_volume 1985.409698
_symmetry_space_group_name_H-M "P M M N"
_symmetry_group_IT_number 59
_space_group.IT_coordinate_system_code '2'
_symmetry_cell_setting 'orthorhombic'
loop_
_space_group_symop_operation_xyz
x,y,z
1/2-x,1/2-y,z
1/2+x,-y,-z
-x,1/2+y,-z
-x,-y,-z
1/2+x,1/2+y,-z
1/2-x,y,z
x,1/2-y,z
loop_
_atom_site_type_symbol
_atom_site_label
_atom_site_fract_x
_atom_site_fract_y
_atom_site_fract_z
Si Si1 0.393049 0.843923 0.619170
Si Si2 0.861566 0.063504 0.079933
Si Si3 0.149191 0.997514 0.413261
Si Si4 0.078203 0.158465 0.552382
Si Si5 0.991782 0.431092 0.811875
O O1 0.349247 0.750000 0.591558
O O2 0.374139 0.867662 0.790937
O O3 0.344800 0.913078 0.512914
O O4 0.504606 0.840941 0.584908
O O5 0.750000 0.045823 0.048734
O O6 0.914899 0.100830 0.933215
O O7 0.915548 0.975526 0.117715
O O8 0.250000 0.003268 0.326136
O O9 0.061082 0.997820 0.299468
O O10 0.145918 0.078395 0.524761
O O11 0.131508 0.250000 0.555392
O O12 0.025416 0.148461 0.712801
#
# Coordination Sequence:
#
# PCOD8244343 Si02
#       5
#     8   8   8   8   8
#     4  10  20  36  58  84 116 149 187 237 288 339
#     4  11  21  35  58  84 113 150 191 235 286 343
#     4  11  20  36  59  86 118 152 190 233 284 341
#     4  10  20  37  58  82 114 153 192 236 284 331
#     4  10  21  38  55  83 117 150 189 233 290 340
#
# _framework density 20.146975999999999
#
# number of rings (size 3 to 8) (size 9 to 14) (size 15 to 20)
#    0.000    1.600    4.000    2.400    0.000    2.800 
#    0.000    0.000    0.000    3.600    0.000    0.000 
#    0.000    0.000    0.000    0.000    0.000    0.000 
#
# Total GULP energy -495642.269165 kJ/mol
# GULP energy per Si atom -12391.056729 kJ/mol
# Density = 2.010112 g / cm^3
# Si number density = 20.146976 Si / 1000 Ang^3
#
#
#
# Elastic Constant Matrix: (Units=GPa)
#
#
# Indices 1 2 3 4 5 6 
#
# 1 94.1510 31.2375 20.3834 0.0000 0.0000 0.0000
# 2 31.2375 120.6583 16.2344 0.0000 0.0000 0.0000
# 3 20.3834 16.2344 86.7925 0.0000 0.0000 0.0000
# 4 0.0000 0.0000 0.0000 17.7097 0.0000 0.0000
# 5 0.0000 0.0000 0.0000 0.0000 9.4714 0.0000
# 6 0.0000 0.0000 0.0000 0.0000 0.0000 -16.4581
#
#
#
# Elastic Compliance Matrix: (Units=1/GPa)
#
#
# Indices 1 2 3 4 5 6 
#
# 1 0.012053 -0.002810 -0.002305 0.000000 0.000000 0.000000
# 2 -0.002810 0.009157 -0.001053 0.000000 0.000000 0.000000
# 3 -0.002305 -0.001053 0.012260 0.000000 0.000000 0.000000
# 4 0.000000 0.000000 0.000000 0.056466 0.000000 0.000000
# 5 0.000000 0.000000 0.000000 0.000000 0.105581 0.000000
# 6 0.000000 0.000000 0.000000 0.000000 0.000000 -0.060760
#
#
# Mechanical properties :
#
#
# Convention : Reuss Voigt Hill
#
# Bulk Modulus (GPa) = 47.31773 48.59025 47.95399
# Shear Modulus (GPa) = 32.43873 17.72770 25.08322
#
# Velocity S-wave (km/s) = 4.01696 2.96956 3.53230
# Velocity P-wave (km/s) = 6.71207 5.99399 6.36317
#
# Compressibility (1/GPa) = 0.02113373
#
# Stress axis : x y z
#
# Youngs Moduli (GPa) = 82.96954 109.20532 81.56615
#
# Poissons Ratio (x) = 0.30689 0.18801
# Poissons Ratio (y) = 0.23316 0.08588
# Poissons Ratio (z) = 0.19124 0.11497
#
# Static dielectric constant tensor:
#      x y z
#    x 3.624500 0.000000 0.000000 
#    y 0.000000 3.616490 0.000000 
#    z 0.000000 0.000000 3.721980 
# 
# 
# High freq. dielectric constant tensor:
#      x y z
#    x 1.783540 0.000000 0.000000 
#    y 0.000000 1.772670 0.000000 
#    z 0.000000 0.000000 1.778150 
# 
# From -- ./inp_files/8590.got.cif
#   From: 2010.03.12/outbox.cif.g09.slc.cpg/sg59_5_cif.got.tgz:8590.got - 2010.04.16 16:29:54.
