data_PCOD8244926
_publ_section_title
;
Structure prediction by ZEFSAII (Michael W. Deem and Ramdas Pophale) SiO2 
 PCOD8244926
Probable space group: P M M N
;
_chemical_formula_sum "Si O2"
_cell_formula_units_Z 48
_cell_length_a 9.597896
_cell_length_b 9.327085
_cell_length_c 30.726153
_cell_angle_alpha 90.000000
_cell_angle_beta 90.000000
_cell_angle_gamma 90.000000
_cell_volume 2750.617255
_symmetry_space_group_name_H-M "P M M N"
_symmetry_group_IT_number 59
_space_group.IT_coordinate_system_code '2'
_symmetry_cell_setting 'orthorhombic'
loop_
_space_group_symop_operation_xyz
x,y,z
1/2-x,1/2-y,z
1/2+x,-y,-z
-x,1/2+y,-z
-x,-y,-z
1/2+x,1/2+y,-z
1/2-x,y,z
x,1/2-y,z
loop_
_atom_site_type_symbol
_atom_site_label
_atom_site_fract_x
_atom_site_fract_y
_atom_site_fract_z
Si Si1 0.910757 0.585440 0.378002
Si Si2 0.915892 0.090618 0.868530
Si Si3 0.083999 0.410925 0.211831
Si Si4 0.411079 0.583612 0.295371
Si Si5 0.090906 0.581317 0.034791
Si Si6 0.087465 0.916929 0.535713
O O1 0.750000 0.567230 0.365057
O O2 0.944072 0.750000 0.390867
O O3 0.951670 0.483427 0.417779
O O4 0.002322 0.534948 0.337306
O O5 0.750000 0.095607 0.866696
O O6 0.974355 0.250000 0.859234
O O7 0.976573 0.984544 0.831827
O O8 0.961388 0.038617 0.916659
O O9 0.250000 0.413049 0.210395
O O10 0.025523 0.250000 0.213975
O O11 0.031473 0.495780 0.254197
O O12 0.250000 0.549172 0.304815
O O13 0.434033 0.750000 0.284749
O O14 0.250000 0.533263 0.028355
O O15 0.074749 0.750000 0.027893
O O16 0.000000 0.500000 0.000000
O O17 0.250000 0.939264 0.525413
O O18 0.046614 0.750000 0.535706
O O19 0.000000 0.000000 0.500000
#
# Coordination Sequence:
#
# PCOD8244926 Si02
#       6
#     8   8   8   8   8   8
#     4   9  18  33  51  70  95 127 160 193 231 278
#     4   8  14  26  43  62  87 119 152 186 227 276
#     4   9  16  25  40  65  93 117 146 188 233 273
#     4   9  17  29  46  68  93 121 152 187 229 275
#     4   9  18  31  47  69  95 123 157 196 238 286
#     4  10  21  36  54  76 101 130 164 201 242 287
#
# _framework density 17.450627999999998
#
# number of rings (size 3 to 8) (size 9 to 14) (size 15 to 20)
#    0.000    3.000    0.000    2.000    0.000    5.333 
#    0.000    3.333    0.000    1.000    0.000    2.333 
#    0.000    0.000    0.000    0.000    0.000    0.000 
#
# Total GULP energy -595128.512594 kJ/mol
# GULP energy per Si atom -12398.510679 kJ/mol
# Density = 1.741091 g / cm^3
# Si number density = 17.450628 Si / 1000 Ang^3
#
#
#
# Elastic Constant Matrix: (Units=GPa)
#
#
# Indices 1 2 3 4 5 6 
#
# 1 43.0181 40.2951 61.1867 0.0000 0.0000 0.0000
# 2 40.2951 114.1144 100.5657 0.0000 0.0000 0.0000
# 3 61.1867 100.5657 183.1092 0.0000 0.0000 0.0000
# 4 0.0000 0.0000 0.0000 37.4122 0.0000 0.0000
# 5 0.0000 0.0000 0.0000 0.0000 27.0252 0.0000
# 6 0.0000 0.0000 0.0000 0.0000 0.0000 19.8659
#
#
#
# Elastic Compliance Matrix: (Units=1/GPa)
#
#
# Indices 1 2 3 4 5 6 
#
# 1 0.045846 -0.005209 -0.012459 0.000000 0.000000 0.000000
# 2 -0.005209 0.017575 -0.007912 0.000000 0.000000 0.000000
# 3 -0.012459 -0.007912 0.013969 0.000000 0.000000 0.000000
# 4 0.000000 0.000000 0.000000 0.026729 0.000000 0.000000
# 5 0.000000 0.000000 0.000000 0.000000 0.037003 0.000000
# 6 0.000000 0.000000 0.000000 0.000000 0.000000 0.050338
#
#
# Mechanical properties :
#
#
# Convention : Reuss Voigt Hill
#
# Bulk Modulus (GPa) = 38.12244 82.70408 60.41326
# Shear Modulus (GPa) = 19.89157 26.07359 22.98258
#
# Velocity S-wave (km/s) = 3.37987 3.86960 3.63299
# Velocity P-wave (km/s) = 6.09300 8.21347 7.23138
#
# Compressibility (1/GPa) = 0.02623127
#
# Stress axis : x y z
#
# Youngs Moduli (GPa) = 21.81210 56.89943 71.58474
#
# Poissons Ratio (x) = 0.29641 0.89185
# Poissons Ratio (y) = 0.11363 0.56635
# Poissons Ratio (z) = 0.27175 0.45016
#
# Static dielectric constant tensor:
#      x y z
#    x 2.874570 0.000000 0.000000 
#    y 0.000000 3.499010 0.000000 
#    z 0.000000 0.000000 3.457280 
# 
# 
# High freq. dielectric constant tensor:
#      x y z
#    x 1.631140 0.000000 0.000000 
#    y 0.000000 1.676290 0.000000 
#    z 0.000000 0.000000 1.687100 
# 
# From -- ./inp_files/31856.got.cif
#   From: 2010.03.12/outbox.cif.g09.slc.cpg/sg59_16_cif.got.tgz:31856.got - 2010.04.16 16:29:54.
