data_PCOD8244457
_publ_section_title
;
Structure prediction by ZEFSAII (Michael W. Deem and Ramdas Pophale) SiO2 
 PCOD8244457
Probable space group: P M M N
;
_chemical_formula_sum "Si O2"
_cell_formula_units_Z 64
_cell_length_a 23.737045
_cell_length_b 8.671979
_cell_length_c 15.210867
_cell_angle_alpha 90.000000
_cell_angle_beta 90.000000
_cell_angle_gamma 90.000000
_cell_volume 3131.113709
_symmetry_space_group_name_H-M "P M M N"
_symmetry_group_IT_number 59
_space_group.IT_coordinate_system_code '2'
_symmetry_cell_setting 'orthorhombic'
loop_
_space_group_symop_operation_xyz
x,y,z
1/2-x,1/2-y,z
1/2+x,-y,-z
-x,1/2+y,-z
-x,-y,-z
1/2+x,1/2+y,-z
1/2-x,y,z
x,1/2-y,z
loop_
_atom_site_type_symbol
_atom_site_label
_atom_site_fract_x
_atom_site_fract_y
_atom_site_fract_z
Si Si1 0.814891 0.927592 0.758440
Si Si2 0.379101 0.570449 0.084830
Si Si3 0.501376 0.927218 0.648403
Si Si4 0.115887 0.926678 0.393894
Si Si5 0.620649 0.428069 0.406865
Si Si6 0.187068 0.067949 0.748060
Si Si7 0.390914 0.431858 0.905451
Si Si8 0.493894 0.072632 0.145370
O O1 0.750000 0.962703 0.738954
O O2 0.825936 0.750000 0.782450
O O3 0.834541 0.030382 0.839686
O O4 0.849600 0.964637 0.670925
O O5 0.375733 0.750000 0.063586
O O6 0.441413 0.528936 0.116482
O O7 0.361808 0.475671 0.997661
O O8 0.513891 0.750000 0.623876
O O9 0.443187 0.986714 0.606454
O O10 0.496493 0.950283 0.752024
O O11 0.549983 0.033565 0.608843
O O12 0.124058 0.750000 0.364897
O O13 0.138737 0.953413 0.492328
O O14 0.624063 0.250000 0.378834
O O15 0.663302 0.522522 0.346781
O O16 0.250000 0.999315 0.758704
O O17 0.189242 0.250000 0.754508
O O18 0.147737 0.003049 0.826283
O O19 0.399472 0.250000 0.897256
O O20 0.451194 0.514805 0.905450
O O21 0.482182 0.250000 0.120498
#
# Coordination Sequence:
#
# PCOD8244457 Si02
#       8
#     8   8   8   8   8   8   8   8
#     4  11  25  45  66  87 117 160 207 253 302 357
#     4  12  25  41  64  93 125 158 199 249 304 366
#     4  10  20  36  61  89 124 162 200 243 299 363
#     4  11  23  38  62  93 126 159 199 247 302 361
#     4  10  22  40  61  91 125 161 200 247 301 356
#     4  10  23  42  63  88 118 157 205 253 298 351
#     4  11  23  40  63  91 125 162 203 250 304 363
#     4  11  21  37  63  92 125 161 201 247 301 364
#
# _framework density 20.440010999999998
#
# number of rings (size 3 to 8) (size 9 to 14) (size 15 to 20)
#    0.000    1.250    2.500    3.375    0.000    4.750 
#    0.000    3.750    0.000    0.000    0.000    0.000 
#    0.000    0.000    0.000    0.000    0.000    0.000 
#
# Total GULP energy -794018.730044 kJ/mol
# GULP energy per Si atom -12406.542657 kJ/mol
# Density = 2.039349 g / cm^3
# Si number density = 20.440011 Si / 1000 Ang^3
#
#
#
# Elastic Constant Matrix: (Units=GPa)
#
#
# Indices 1 2 3 4 5 6 
#
# 1 98.7745 20.0058 19.5001 0.0000 0.0000 0.0000
# 2 20.0058 49.9363 17.9953 0.0000 0.0000 0.0000
# 3 19.5001 17.9953 89.0524 0.0000 0.0000 0.0000
# 4 0.0000 0.0000 0.0000 32.6122 0.0000 0.0000
# 5 0.0000 0.0000 0.0000 0.0000 10.8945 0.0000
# 6 0.0000 0.0000 0.0000 0.0000 0.0000 29.6412
#
#
#
# Elastic Compliance Matrix: (Units=1/GPa)
#
#
# Indices 1 2 3 4 5 6 
#
# 1 0.011245 -0.003902 -0.001674 0.000000 0.000000 0.000000
# 2 -0.003902 0.022952 -0.003784 0.000000 0.000000 0.000000
# 3 -0.001674 -0.003784 0.012360 0.000000 0.000000 0.000000
# 4 0.000000 0.000000 0.000000 0.030663 0.000000 0.000000
# 5 0.000000 0.000000 0.000000 0.000000 0.091789 0.000000
# 6 0.000000 0.000000 0.000000 0.000000 0.000000 0.033737
#
#
# Mechanical properties :
#
#
# Convention : Reuss Voigt Hill
#
# Bulk Modulus (GPa) = 35.92109 39.19618 37.55863
# Shear Modulus (GPa) = 21.66891 26.64704 24.15797
#
# Velocity S-wave (km/s) = 3.25948 3.61455 3.44160
# Velocity P-wave (km/s) = 5.63717 6.05292 5.84874
#
# Compressibility (1/GPa) = 0.02783880
#
# Stress axis : x y z
#
# Youngs Moduli (GPa) = 88.93008 43.56890 80.90310
#
# Poissons Ratio (x) = 0.17000 0.13542
# Poissons Ratio (y) = 0.34698 0.30611
# Poissons Ratio (z) = 0.14886 0.16485
#
# Static dielectric constant tensor:
#      x y z
#    x 3.737290 0.000000 0.000000 
#    y 0.000000 3.644060 0.000000 
#    z 0.000000 0.000000 3.824320 
# 
# 
# High freq. dielectric constant tensor:
#      x y z
#    x 1.794810 0.000000 0.000000 
#    y 0.000000 1.797380 0.000000 
#    z 0.000000 0.000000 1.813170 
# 
# From -- ./inp_files/24696.got.cif
#   From: 2010.03.12/outbox.cif.g09.slc.cpg/sg59_13_cif.got.tgz:24696.got - 2010.04.16 16:29:54.
