data_PCOD8244945
_publ_section_title
;
Structure prediction by ZEFSAII (Michael W. Deem and Ramdas Pophale) SiO2 
 PCOD8244945
Probable space group: P M M N
;
_chemical_formula_sum "Si O2"
_cell_formula_units_Z 48
_cell_length_a 9.312942
_cell_length_b 14.101249
_cell_length_c 18.805087
_cell_angle_alpha 90.000000
_cell_angle_beta 90.000000
_cell_angle_gamma 90.000000
_cell_volume 2469.561390
_symmetry_space_group_name_H-M "P M M N"
_symmetry_group_IT_number 59
_space_group.IT_coordinate_system_code '2'
_symmetry_cell_setting 'orthorhombic'
loop_
_space_group_symop_operation_xyz
x,y,z
1/2-x,1/2-y,z
1/2+x,-y,-z
-x,1/2+y,-z
-x,-y,-z
1/2+x,1/2+y,-z
1/2-x,y,z
x,1/2-y,z
loop_
_atom_site_type_symbol
_atom_site_label
_atom_site_fract_x
_atom_site_fract_y
_atom_site_fract_z
Si Si1 0.918685 0.142276 0.024620
Si Si2 0.412550 0.137341 0.622274
Si Si3 0.085026 0.510045 0.103416
Si Si4 0.417374 0.858598 0.668689
Si Si5 0.917253 0.021681 0.734845
Si Si6 0.408775 0.862932 0.509749
O O1 0.750000 0.139319 0.038353
O O2 0.975819 0.250000 0.024625
O O3 0.993128 0.084179 0.088054
O O4 0.960102 0.095361 0.949019
O O5 0.250000 0.099368 0.627833
O O6 0.418741 0.250000 0.623774
O O7 0.477610 0.098213 0.547841
O O8 0.503051 0.100933 0.688788
O O9 0.250000 0.481650 0.091993
O O10 0.057434 0.547186 0.182875
O O11 0.250000 0.870649 0.687583
O O12 0.464894 0.750000 0.676587
O O13 0.515394 0.918360 0.721737
O O14 0.448038 0.898241 0.589032
O O15 0.750000 0.020926 0.714880
O O16 0.250000 0.898757 0.487993
O O17 0.409040 0.750000 0.511822
#
# Coordination Sequence:
#
# PCOD8244945 Si02
#       6
#     8   8   8   8   8   8
#     4   9  18  35  60  84 104 133 172 211 255 306
#     4  10  21  36  54  77 105 138 178 225 273 318
#     4   9  20  37  54  78 111 140 171 212 253 302
#     4   9  19  36  56  77 104 140 181 226 273 317
#     4  11  23  36  53  78 109 146 180 213 259 314
#     4   8  15  31  54  76  99 132 177 226 272 318
#
# _framework density 19.436648999999999
#
# number of rings (size 3 to 8) (size 9 to 14) (size 15 to 20)
#    0.000    2.667    0.000    2.000    0.000    5.667 
#    0.000    6.667    0.000    0.000    0.000    0.000 
#    0.000    0.000    0.000    0.000    0.000    0.000 
#
# Total GULP energy -595231.338740 kJ/mol
# GULP energy per Si atom -12400.652890 kJ/mol
# Density = 1.939241 g / cm^3
# Si number density = 19.436649 Si / 1000 Ang^3
#
#
#
# Elastic Constant Matrix: (Units=GPa)
#
#
# Indices 1 2 3 4 5 6 
#
# 1 84.8065 16.0758 35.0163 0.0000 0.0000 0.0000
# 2 16.0758 41.2408 -5.4181 0.0000 0.0000 0.0000
# 3 35.0163 -5.4181 70.5068 0.0000 0.0000 0.0000
# 4 0.0000 0.0000 0.0000 24.0734 0.0000 0.0000
# 5 0.0000 0.0000 0.0000 0.0000 32.0280 0.0000
# 6 0.0000 0.0000 0.0000 0.0000 0.0000 30.6404
#
#
#
# Elastic Compliance Matrix: (Units=1/GPa)
#
#
# Indices 1 2 3 4 5 6 
#
# 1 0.017010 -0.007819 -0.009049 0.000000 0.000000 0.000000
# 2 -0.007819 0.028090 0.006042 0.000000 0.000000 0.000000
# 3 -0.009049 0.006042 0.019141 0.000000 0.000000 0.000000
# 4 0.000000 0.000000 0.000000 0.041540 0.000000 0.000000
# 5 0.000000 0.000000 0.000000 0.000000 0.031223 0.000000
# 6 0.000000 0.000000 0.000000 0.000000 0.000000 0.032637
#
#
# Mechanical properties :
#
#
# Convention : Reuss Voigt Hill
#
# Bulk Modulus (GPa) = 23.48044 31.98911 27.73477
# Shear Modulus (GPa) = 24.33233 27.40703 25.86968
#
# Velocity S-wave (km/s) = 3.54203 3.75916 3.65221
# Velocity P-wave (km/s) = 5.36979 5.94438 5.66438
#
# Compressibility (1/GPa) = 0.04258864
#
# Stress axis : x y z
#
# Youngs Moduli (GPa) = 58.78925 35.60043 52.24327
#
# Poissons Ratio (x) = 0.27837 0.47273
# Poissons Ratio (y) = 0.45969 -0.31565
# Poissons Ratio (z) = 0.53196 -0.21509
#
# Static dielectric constant tensor:
#      x y z
#    x 3.610210 0.000000 0.000000 
#    y 0.000000 3.445180 0.000000 
#    z 0.000000 0.000000 3.555040 
# 
# 
# High freq. dielectric constant tensor:
#      x y z
#    x 1.755600 0.000000 0.000000 
#    y 0.000000 1.755760 0.000000 
#    z 0.000000 0.000000 1.752530 
# 
# From -- ./inp_files/25440.got.cif
#   From: 2010.03.12/outbox.cif.g09.slc.cpg/sg59_13_cif.got.tgz:25440.got - 2010.04.16 16:29:54.
