data_PCOD8244807
_publ_section_title
;
Structure prediction by ZEFSAII (Michael W. Deem and Ramdas Pophale) SiO2 
 PCOD8244807
Probable space group: P M M N
;
_chemical_formula_sum "Si O2"
_cell_formula_units_Z 64
_cell_length_a 9.019588
_cell_length_b 23.897843
_cell_length_c 15.246640
_cell_angle_alpha 90.000000
_cell_angle_beta 90.000000
_cell_angle_gamma 90.000000
_cell_volume 3286.393400
_symmetry_space_group_name_H-M "P M M N"
_symmetry_group_IT_number 59
_space_group.IT_coordinate_system_code '2'
_symmetry_cell_setting 'orthorhombic'
loop_
_space_group_symop_operation_xyz
x,y,z
1/2-x,1/2-y,z
1/2+x,-y,-z
-x,1/2+y,-z
-x,-y,-z
1/2+x,1/2+y,-z
1/2-x,y,z
x,1/2-y,z
loop_
_atom_site_type_symbol
_atom_site_label
_atom_site_fract_x
_atom_site_fract_y
_atom_site_fract_z
Si Si1 0.911288 0.814945 0.973165
Si Si2 0.073229 0.883778 0.646042
Si Si3 0.080288 0.392614 0.670026
Si Si4 0.424734 0.184429 0.508879
Si Si5 0.918146 0.877453 0.137775
Si Si6 0.573670 0.507654 0.713532
Si Si7 0.923897 0.187146 0.190444
Si Si8 0.422130 0.514873 0.091443
O O1 0.750000 0.841182 0.953201
O O2 0.910553 0.750000 0.959072
O O3 0.021802 0.840722 0.901018
O O4 0.954075 0.825768 0.073954
O O5 0.250000 0.889709 0.639835
O O6 0.017780 0.850709 0.731292
O O7 0.015120 0.847788 0.565223
O O8 0.000235 0.944951 0.652608
O O9 0.250000 0.411326 0.654095
O O10 0.029196 0.347850 0.597686
O O11 0.062490 0.359140 0.761722
O O12 0.981757 0.448633 0.673636
O O13 0.250000 0.179619 0.490519
O O14 0.471869 0.250000 0.514247
O O15 0.750000 0.900804 0.123659
O O16 0.041842 0.921306 0.110107
O O17 0.750000 0.509700 0.703146
O O18 0.527998 0.516262 0.817099
O O19 0.750000 0.188334 0.187544
O O20 0.986380 0.250000 0.204374
O O21 0.250000 0.505432 0.075668
O O22 0.500000 0.500000 0.000000
#
# Coordination Sequence:
#
# PCOD8244807 Si02
#       8
#     8   8   8   8   8   8   8   8
#     4   9  18  31  49  76 108 143 183 225 273 328
#     4  11  23  38  59  85 114 150 192 240 291 349
#     4   9  19  38  61  84 115 151 189 235 286 343
#     4  10  22  40  63  91 118 148 189 237 291 347
#     4   9  18  33  53  78 109 144 183 228 275 327
#     4  10  22  39  58  84 116 152 194 239 289 344
#     4   9  19  35  52  73 105 144 185 230 281 338
#     4  10  21  35  53  78 110 147 188 232 277 328
#
# _framework density 19.474235
#
# number of rings (size 3 to 8) (size 9 to 14) (size 15 to 20)
#    0.000    2.375    0.000    1.500    1.750    5.250 
#    0.000    3.750    0.000    0.000    0.000    5.250 
#    0.000    0.000    0.000    0.000    0.000    0.000 
#
# Total GULP energy -792980.239325 kJ/mol
# GULP energy per Si atom -12390.316239 kJ/mol
# Density = 1.942991 g / cm^3
# Si number density = 19.474235 Si / 1000 Ang^3
#
#
#
# Elastic Constant Matrix: (Units=GPa)
#
#
# Indices 1 2 3 4 5 6 
#
# 1 54.5391 40.8614 49.5384 0.0000 0.0000 0.0000
# 2 40.8614 86.7852 75.6327 0.0000 0.0000 0.0000
# 3 49.5384 75.6327 154.7092 0.0000 0.0000 0.0000
# 4 0.0000 0.0000 0.0000 37.1278 0.0000 0.0000
# 5 0.0000 0.0000 0.0000 0.0000 25.7002 0.0000
# 6 0.0000 0.0000 0.0000 0.0000 0.0000 24.3200
#
#
#
# Elastic Compliance Matrix: (Units=1/GPa)
#
#
# Indices 1 2 3 4 5 6 
#
# 1 0.030197 -0.010090 -0.004737 0.000000 0.000000 0.000000
# 2 -0.010090 0.023447 -0.008232 0.000000 0.000000 0.000000
# 3 -0.004737 -0.008232 0.012005 0.000000 0.000000 0.000000
# 4 0.000000 0.000000 0.000000 0.026934 0.000000 0.000000
# 5 0.000000 0.000000 0.000000 0.000000 0.038910 0.000000
# 6 0.000000 0.000000 0.000000 0.000000 0.000000 0.041118
#
#
# Mechanical properties :
#
#
# Convention : Reuss Voigt Hill
#
# Bulk Modulus (GPa) = 51.19668 69.78872 60.49270
# Shear Modulus (GPa) = 22.19856 26.09634 24.14745
#
# Velocity S-wave (km/s) = 3.37989 3.66463 3.52514
# Velocity P-wave (km/s) = 6.44811 7.33623 6.90646
#
# Compressibility (1/GPa) = 0.01953252
#
# Stress axis : x y z
#
# Youngs Moduli (GPa) = 33.11559 42.64859 83.30047
#
# Poissons Ratio (x) = 0.43032 0.39456
# Poissons Ratio (y) = 0.33414 0.68572
# Poissons Ratio (z) = 0.15685 0.35108
#
# Static dielectric constant tensor:
#      x y z
#    x 3.043350 0.000000 0.000000 
#    y 0.000000 3.528150 0.000000 
#    z 0.000000 0.000000 3.954130 
# 
# 
# High freq. dielectric constant tensor:
#      x y z
#    x 1.752410 0.000000 0.000000 
#    y 0.000000 1.747130 0.000000 
#    z 0.000000 0.000000 1.770760 
# 
# From -- ./inp_files/21459.got.cif
#   From: 2010.03.12/outbox.cif.g09.slc.cpg/sg59_11_cif.got.tgz:21459.got - 2010.04.16 16:29:54.
