data_PCOD8244015
_publ_section_title
;
Structure prediction by ZEFSAII (Michael W. Deem and Ramdas Pophale) SiO2 
 PCOD8244015
Probable space group: P M M N
;
_chemical_formula_sum "Si O2"
_cell_formula_units_Z 48
_cell_length_a 8.889135
_cell_length_b 15.424089
_cell_length_c 19.207564
_cell_angle_alpha 90.000000
_cell_angle_beta 90.000000
_cell_angle_gamma 90.000000
_cell_volume 2633.487816
_symmetry_space_group_name_H-M "P M M N"
_symmetry_group_IT_number 59
_space_group.IT_coordinate_system_code '2'
_symmetry_cell_setting 'orthorhombic'
loop_
_space_group_symop_operation_xyz
x,y,z
1/2-x,1/2-y,z
1/2+x,-y,-z
-x,1/2+y,-z
-x,-y,-z
1/2+x,1/2+y,-z
1/2-x,y,z
x,1/2-y,z
loop_
_atom_site_type_symbol
_atom_site_label
_atom_site_fract_x
_atom_site_fract_y
_atom_site_fract_z
Si Si1 0.428075 0.002362 0.830914
Si Si2 0.428583 0.845458 0.923774
Si Si3 0.075036 0.849926 0.081551
Si Si4 0.581151 0.750000 0.292042
Si Si5 0.918578 0.750000 0.457090
Si Si6 0.926827 0.425276 0.705337
Si Si7 0.927284 0.074593 0.544906
O O1 0.250000 0.998691 0.823973
O O2 0.475034 0.089863 0.869802
O O3 0.500158 0.000261 0.753526
O O4 0.492460 0.918585 0.871909
O O5 0.250000 0.844596 0.921612
O O6 0.489185 0.750000 0.901413
O O7 0.479232 0.866434 0.002414
O O8 0.250000 0.873981 0.090836
O O9 0.046654 0.750000 0.102317
O O10 0.750000 0.750000 0.261111
O O11 0.586704 0.750000 0.374709
O O12 0.492241 0.665649 0.266625
O O13 0.750000 0.750000 0.488467
O O14 0.006787 0.665208 0.483040
O O15 0.750000 0.423118 0.715952
O O16 0.970662 0.442315 0.625326
O O17 0.750000 0.076083 0.534116
O O18 0.000000 0.000000 0.500000
#
# Coordination Sequence:
#
# PCOD8244015 Si02
#       7
#     8   8   8   4   4   8   8
#     4  11  21  31  50  77 104 133 171 221 263 303
#     4   8  16  33  54  73  95 130 176 220 265 311
#     4   9  18  33  52  73 101 137 171 207 260 320
#     4   9  17  31  51  75 103 133 168 209 252 301
#     4   9  17  31  53  81 109 137 168 209 260 311
#     4  10  21  35  51  74 107 143 174 205 258 322
#     4  10  20  35  57  81 107 141 180 220 262 316
#
# _framework density 18.226779000000001
#
# number of rings (size 3 to 8) (size 9 to 14) (size 15 to 20)
#    0.000    2.500    0.000    3.500    1.167    4.333 
#    0.000    0.833    1.833    4.000    0.000    0.000 
#    0.000    0.000    0.000    0.000    0.000    0.000 
#
# Total GULP energy -595154.964660 kJ/mol
# GULP energy per Si atom -12399.061764 kJ/mol
# Density = 1.818529 g / cm^3
# Si number density = 18.226779 Si / 1000 Ang^3
#
#
#
# Elastic Constant Matrix: (Units=GPa)
#
#
# Indices 1 2 3 4 5 6 
#
# 1 78.5891 44.5719 40.5999 0.0000 0.0000 0.0000
# 2 44.5719 117.6517 64.6037 0.0000 0.0000 0.0000
# 3 40.5999 64.6037 85.1258 0.0000 0.0000 0.0000
# 4 0.0000 0.0000 0.0000 29.9934 0.0000 0.0000
# 5 0.0000 0.0000 0.0000 0.0000 27.9843 0.0000
# 6 0.0000 0.0000 0.0000 0.0000 0.0000 28.1625
#
#
#
# Elastic Compliance Matrix: (Units=1/GPa)
#
#
# Indices 1 2 3 4 5 6 
#
# 1 0.017710 -0.003551 -0.005751 0.000000 0.000000 0.000000
# 2 -0.003551 0.015284 -0.009906 0.000000 0.000000 0.000000
# 3 -0.005751 -0.009906 0.022008 0.000000 0.000000 0.000000
# 4 0.000000 0.000000 0.000000 0.033341 0.000000 0.000000
# 5 0.000000 0.000000 0.000000 0.000000 0.035734 0.000000
# 6 0.000000 0.000000 0.000000 0.000000 0.000000 0.035508
#
#
# Mechanical properties :
#
#
# Convention : Reuss Voigt Hill
#
# Bulk Modulus (GPa) = 60.29436 64.54639 62.42038
# Shear Modulus (GPa) = 24.56625 26.00079 25.28352
#
# Velocity S-wave (km/s) = 3.67524 3.78102 3.72850
# Velocity P-wave (km/s) = 7.15274 7.38589 7.27025
#
# Compressibility (1/GPa) = 0.01658530
#
# Stress axis : x y z
#
# Youngs Moduli (GPa) = 56.46628 65.42583 45.43731
#
# Poissons Ratio (x) = 0.23233 0.26133
# Poissons Ratio (y) = 0.20051 0.45010
# Poissons Ratio (z) = 0.32477 0.64811
#
# Static dielectric constant tensor:
#      x y z
#    x 3.288600 0.000000 0.000000 
#    y 0.000000 3.637530 0.000000 
#    z 0.000000 0.000000 3.352500 
# 
# 
# High freq. dielectric constant tensor:
#      x y z
#    x 1.700900 0.000000 0.000000 
#    y 0.000000 1.701820 0.000000 
#    z 0.000000 0.000000 1.693490 
# 
# From -- ./inp_files/25522.got.cif
#   From: 2010.03.12/outbox.cif.g09.slc.cpg/sg59_13_cif.got.tgz:25522.got - 2010.04.16 16:29:54.
