data_PCOD8244895
_publ_section_title
;
Structure prediction by ZEFSAII (Michael W. Deem and Ramdas Pophale) SiO2 
 PCOD8244895
Probable space group: P M M N
;
_chemical_formula_sum "Si O2"
_cell_formula_units_Z 64
_cell_length_a 9.276358
_cell_length_b 14.994893
_cell_length_c 23.770923
_cell_angle_alpha 90.000000
_cell_angle_beta 90.000000
_cell_angle_gamma 90.000000
_cell_volume 3306.487744
_symmetry_space_group_name_H-M "P M M N"
_symmetry_group_IT_number 59
_space_group.IT_coordinate_system_code '2'
_symmetry_cell_setting 'orthorhombic'
loop_
_space_group_symop_operation_xyz
x,y,z
1/2-x,1/2-y,z
1/2+x,-y,-z
-x,1/2+y,-z
-x,-y,-z
1/2+x,1/2+y,-z
1/2-x,y,z
x,1/2-y,z
loop_
_atom_site_type_symbol
_atom_site_label
_atom_site_fract_x
_atom_site_fract_y
_atom_site_fract_z
Si Si1 0.417890 0.355191 0.001796
Si Si2 0.088523 0.847754 0.276652
Si Si3 0.079366 0.495388 0.198887
Si Si4 0.411769 0.907029 0.609910
Si Si5 0.911327 0.611110 0.382130
Si Si6 0.080963 0.513347 0.918000
Si Si7 0.912019 0.849226 0.712798
Si Si8 0.586308 0.852791 0.505871
O O1 0.250000 0.360060 0.018705
O O2 0.462039 0.250000 0.992397
O O3 0.447435 0.416611 0.946839
O O4 0.511004 0.401501 0.050657
O O5 0.250000 0.878356 0.292273
O O6 0.085702 0.750000 0.248598
O O7 0.002122 0.841221 0.334429
O O8 0.025979 0.915878 0.231001
O O9 0.250000 0.495620 0.185531
O O10 0.031842 0.412895 0.237900
O O11 0.989755 0.490632 0.142535
O O12 0.250000 0.869615 0.603002
O O13 0.493036 0.849793 0.656662
O O14 0.489027 0.906036 0.549683
O O15 0.411367 0.007266 0.631707
O O16 0.750000 0.650653 0.380467
O O17 0.977873 0.632278 0.443467
O O18 0.250000 0.532571 0.913257
O O19 0.750000 0.877412 0.695293
O O20 0.916288 0.750000 0.737919
O O21 0.750000 0.889926 0.508408
O O22 0.581313 0.750000 0.523053
#
# Coordination Sequence:
#
# PCOD8244895 Si02
#       8
#     8   8   8   8   8   8   8   8
#     4   9  19  38  62  87 120 162 200 233 279 339
#     4  10  21  37  58  83 110 144 187 234 283 333
#     4  10  21  38  57  81 116 154 192 233 277 333
#     4  11  22  35  54  80 107 136 176 228 286 339
#     4  10  21  37  56  78 105 140 181 225 280 343
#     4  10  21  36  58  90 123 154 195 244 286 326
#     4  10  21  38  59  79 103 145 193 230 275 337
#     4  10  21  36  53  74 102 138 179 222 275 345
#
# _framework density 19.355886000000002
#
# number of rings (size 3 to 8) (size 9 to 14) (size 15 to 20)
#    0.000    2.000    1.250    1.875    0.000    6.500 
#    0.000    1.250    0.000    0.000    0.000    0.000 
#    0.000    0.000    0.000    0.000    0.000    0.000 
#
# Total GULP energy -793545.746912 kJ/mol
# GULP energy per Si atom -12399.152295 kJ/mol
# Density = 1.931183 g / cm^3
# Si number density = 19.355886 Si / 1000 Ang^3
#
#
#
# Elastic Constant Matrix: (Units=GPa)
#
#
# Indices 1 2 3 4 5 6 
#
# 1 84.5618 33.5467 62.5687 0.0000 0.0000 0.0000
# 2 33.5467 113.0763 43.9363 0.0000 0.0000 0.0000
# 3 62.5687 43.9363 140.1879 0.0000 0.0000 0.0000
# 4 0.0000 0.0000 0.0000 7.8306 0.0000 0.0000
# 5 0.0000 0.0000 0.0000 0.0000 38.1038 0.0000
# 6 0.0000 0.0000 0.0000 0.0000 0.0000 70.5799
#
#
#
# Elastic Compliance Matrix: (Units=1/GPa)
#
#
# Indices 1 2 3 4 5 6 
#
# 1 0.018288 -0.002567 -0.007358 0.000000 0.000000 0.000000
# 2 -0.002567 0.010430 -0.002123 0.000000 0.000000 0.000000
# 3 -0.007358 -0.002123 0.011083 0.000000 0.000000 0.000000
# 4 0.000000 0.000000 0.000000 0.127705 0.000000 0.000000
# 5 0.000000 0.000000 0.000000 0.000000 0.026244 0.000000
# 6 0.000000 0.000000 0.000000 0.000000 0.000000 0.014168
#
#
# Mechanical properties :
#
#
# Convention : Reuss Voigt Hill
#
# Bulk Modulus (GPa) = 63.67353 68.65881 66.16617
# Shear Modulus (GPa) = 21.07491 36.48782 28.78136
#
# Velocity S-wave (km/s) = 3.30329 4.34649 3.86029
# Velocity P-wave (km/s) = 6.89323 7.79346 7.35713
#
# Compressibility (1/GPa) = 0.01570511
#
# Stress axis : x y z
#
# Youngs Moduli (GPa) = 54.68016 95.87661 90.23014
#
# Poissons Ratio (x) = 0.24608 0.66391
# Poissons Ratio (y) = 0.14034 0.19159
# Poissons Ratio (z) = 0.40233 0.20358
#
# Static dielectric constant tensor:
#      x y z
#    x 3.549410 0.000000 0.000000 
#    y 0.000000 3.673450 0.000000 
#    z 0.000000 0.000000 3.346410 
# 
# 
# High freq. dielectric constant tensor:
#      x y z
#    x 1.747070 0.000000 0.000000 
#    y 0.000000 1.765920 0.000000 
#    z 0.000000 0.000000 1.743650 
# 
# From -- ./inp_files/31508.got.cif
#   From: 2010.03.12/outbox.cif.g09.slc.cpg/sg59_16_cif.got.tgz:31508.got - 2010.04.16 16:29:54.
