data_PCOD8244285
_publ_section_title
;
Structure prediction by ZEFSAII (Michael W. Deem and Ramdas Pophale) SiO2 
 PCOD8244285
Probable space group: P M M N
;
_chemical_formula_sum "Si O2"
_cell_formula_units_Z 48
_cell_length_a 9.252344
_cell_length_b 28.449671
_cell_length_c 9.922326
_cell_angle_alpha 90.000000
_cell_angle_beta 90.000000
_cell_angle_gamma 90.000000
_cell_volume 2611.815600
_symmetry_space_group_name_H-M "P M M N"
_symmetry_group_IT_number 59
_space_group.IT_coordinate_system_code '2'
_symmetry_cell_setting 'orthorhombic'
loop_
_space_group_symop_operation_xyz
x,y,z
1/2-x,1/2-y,z
1/2+x,-y,-z
-x,1/2+y,-z
-x,-y,-z
1/2+x,1/2+y,-z
1/2-x,y,z
x,1/2-y,z
loop_
_atom_site_type_symbol
_atom_site_label
_atom_site_fract_x
_atom_site_fract_y
_atom_site_fract_z
Si Si1 0.083423 0.531953 0.602510
Si Si2 0.919773 0.133278 0.501538
Si Si3 0.421582 0.302299 0.998958
Si Si4 0.578307 0.622130 0.218374
Si Si5 0.918529 0.981622 0.128822
Si Si6 0.087748 0.194607 0.299308
O O1 0.250000 0.521565 0.575829
O O2 0.043356 0.585867 0.579075
O O3 0.040266 0.517892 0.753413
O O4 0.000000 0.500000 0.500000
O O5 0.750000 0.139614 0.526661
O O6 0.000291 0.134217 0.643252
O O7 0.977886 0.175103 0.409514
O O8 0.250000 0.300253 0.997024
O O9 0.482392 0.250000 0.964099
O O10 0.478122 0.340068 0.891001
O O11 0.470133 0.318023 0.149113
O O12 0.750000 0.624926 0.240625
O O13 0.530171 0.570634 0.168936
O O14 0.750000 0.981440 0.096114
O O15 0.000000 0.000000 0.000000
O O16 0.250000 0.174193 0.321506
O O17 0.091930 0.250000 0.316942
#
# Coordination Sequence:
#
# PCOD8244285 Si02
#       6
#     8   8   8   8   8   8
#     4  10  21  38  56  77 109 148 186 223 269 323
#     4  11  23  36  54  82 113 147 182 224 275 325
#     4   8  16  33  57  83 107 133 174 226 272 316
#     4  10  20  36  57  81 109 144 185 227 271 326
#     4  10  22  37  54  80 110 142 183 228 274 328
#     4   9  19  37  60  83 107 140 182 224 269 326
#
# _framework density 18.378019999999999
#
# number of rings (size 3 to 8) (size 9 to 14) (size 15 to 20)
#    0.000    2.333    1.667    1.500    2.333    3.000 
#    0.000    2.500    0.000    1.000    0.000    0.000 
#    0.000    0.000    0.000    0.000    0.000    0.000 
#
# Total GULP energy -595209.025361 kJ/mol
# GULP energy per Si atom -12400.188028 kJ/mol
# Density = 1.833619 g / cm^3
# Si number density = 18.378020 Si / 1000 Ang^3
#
#
#
# Elastic Constant Matrix: (Units=GPa)
#
#
# Indices 1 2 3 4 5 6 
#
# 1 46.3868 32.7237 52.5977 0.0000 0.0000 0.0000
# 2 32.7237 84.0338 74.1157 0.0000 0.0000 0.0000
# 3 52.5977 74.1157 163.6191 0.0000 0.0000 0.0000
# 4 0.0000 0.0000 0.0000 39.9439 0.0000 0.0000
# 5 0.0000 0.0000 0.0000 0.0000 30.9733 0.0000
# 6 0.0000 0.0000 0.0000 0.0000 0.0000 23.4173
#
#
#
# Elastic Compliance Matrix: (Units=1/GPa)
#
#
# Indices 1 2 3 4 5 6 
#
# 1 0.035830 -0.006318 -0.008656 0.000000 0.000000 0.000000
# 2 -0.006318 0.020931 -0.007450 0.000000 0.000000 0.000000
# 3 -0.008656 -0.007450 0.012269 0.000000 0.000000 0.000000
# 4 0.000000 0.000000 0.000000 0.025035 0.000000 0.000000
# 5 0.000000 0.000000 0.000000 0.000000 0.032286 0.000000
# 6 0.000000 0.000000 0.000000 0.000000 0.000000 0.042703
#
#
# Mechanical properties :
#
#
# Convention : Reuss Voigt Hill
#
# Bulk Modulus (GPa) = 41.35406 68.10155 54.72780
# Shear Modulus (GPa) = 22.52605 27.84039 25.18322
#
# Velocity S-wave (km/s) = 3.50481 3.89636 3.70576
# Velocity P-wave (km/s) = 6.23931 7.57487 6.93929
#
# Compressibility (1/GPa) = 0.02418142
#
# Stress axis : x y z
#
# Youngs Moduli (GPa) = 27.90941 47.77518 81.50464
#
# Poissons Ratio (x) = 0.30185 0.70552
# Poissons Ratio (y) = 0.17634 0.60724
# Poissons Ratio (z) = 0.24159 0.35594
#
# Static dielectric constant tensor:
#      x y z
#    x 2.869890 0.000000 0.000000 
#    y 0.000000 3.615760 0.000000 
#    z 0.000000 0.000000 3.514390 
# 
# 
# High freq. dielectric constant tensor:
#      x y z
#    x 1.690510 0.000000 0.000000 
#    y 0.000000 1.719630 0.000000 
#    z 0.000000 0.000000 1.723680 
# 
# From -- ./inp_files/6205.got.cif
#   From: 2010.03.12/outbox.cif.g09.slc.cpg/sg59_4_cif.got.tgz:6205.got - 2010.04.16 16:29:54.
