data_PCOD8244302
_publ_section_title
;
Structure prediction by ZEFSAII (Michael W. Deem and Ramdas Pophale) SiO2 
 PCOD8244302
Probable space group: P M M N
;
_chemical_formula_sum "Si O2"
_cell_formula_units_Z 48
_cell_length_a 8.727264
_cell_length_b 17.022980
_cell_length_c 16.420752
_cell_angle_alpha 90.000000
_cell_angle_beta 90.000000
_cell_angle_gamma 90.000000
_cell_volume 2439.533266
_symmetry_space_group_name_H-M "P M M N"
_symmetry_group_IT_number 59
_space_group.IT_coordinate_system_code '2'
_symmetry_cell_setting 'orthorhombic'
loop_
_space_group_symop_operation_xyz
x,y,z
1/2-x,1/2-y,z
1/2+x,-y,-z
-x,1/2+y,-z
-x,-y,-z
1/2+x,1/2+y,-z
1/2-x,y,z
x,1/2-y,z
loop_
_atom_site_type_symbol
_atom_site_label
_atom_site_fract_x
_atom_site_fract_y
_atom_site_fract_z
Si Si1 0.426801 0.107831 0.805624
Si Si2 0.569302 0.923067 0.546137
Si Si3 0.067754 0.250000 0.699742
Si Si4 0.932030 0.750000 0.482543
Si Si5 0.432056 0.663883 0.862808
Si Si6 0.071994 0.555350 0.719511
Si Si7 0.569562 0.082063 0.977136
O O1 0.250000 0.120177 0.828380
O O2 0.493716 0.175185 0.748204
O O3 0.518448 0.110970 0.889270
O O4 0.451741 0.031164 0.752701
O O5 0.750000 0.927286 0.531096
O O6 0.509756 0.834407 0.520449
O O7 0.529705 0.931495 0.640495
O O8 0.500000 0.000000 0.500000
O O9 0.250000 0.250000 0.694777
O O10 0.001707 0.250000 0.608849
O O11 0.750000 0.750000 0.487036
O O12 0.250000 0.658641 0.861612
O O13 0.494306 0.750000 0.844109
O O14 0.496198 0.610003 0.790709
O O15 0.490384 0.640532 0.952575
O O16 0.250000 0.572643 0.699151
O O17 0.750000 0.074639 0.978346
O O18 0.500000 0.000000 0.000000
#
# Coordination Sequence:
#
# PCOD8244302 Si02
#       7
#     8   8   4   4   8   8   8
#     4  10  20  36  57  84 114 150 193 233 283 341
#     4  11  23  40  63  91 121 154 196 243 297 355
#     4   9  18  34  59  82 109 148 190 230 276 343
#     4   9  20  40  63  86 117 158 194 236 294 357
#     4   9  19  35  55  80 111 151 192 231 280 338
#     4  10  20  37  60  83 113 153 194 236 286 346
#     4  11  21  36  57  80 111 151 193 236 283 334
#
# _framework density 19.675894
#
# number of rings (size 3 to 8) (size 9 to 14) (size 15 to 20)
#    0.000    2.000    1.667    2.000    2.333    3.333 
#    0.000    1.250    0.000    4.000    0.000    0.000 
#    0.000    0.000    0.000    0.000    0.000    0.000 
#
# Total GULP energy -594869.051553 kJ/mol
# GULP energy per Si atom -12393.105241 kJ/mol
# Density = 1.963111 g / cm^3
# Si number density = 19.675894 Si / 1000 Ang^3
#
#
#
# Elastic Constant Matrix: (Units=GPa)
#
#
# Indices 1 2 3 4 5 6 
#
# 1 41.7407 32.1793 34.2108 0.0000 0.0000 0.0000
# 2 32.1793 149.5139 59.6119 0.0000 0.0000 0.0000
# 3 34.2108 59.6119 153.2807 0.0000 0.0000 0.0000
# 4 0.0000 0.0000 0.0000 751.0080 0.0000 0.0000
# 5 0.0000 0.0000 0.0000 0.0000 35.6169 0.0000
# 6 0.0000 0.0000 0.0000 0.0000 0.0000 -23.0748
#
#
#
# Elastic Compliance Matrix: (Units=1/GPa)
#
#
# Indices 1 2 3 4 5 6 
#
# 1 0.031964 -0.004776 -0.005277 0.000000 0.000000 0.000000
# 2 -0.004776 0.008629 -0.002290 0.000000 0.000000 0.000000
# 3 -0.005277 -0.002290 0.008592 0.000000 0.000000 0.000000
# 4 0.000000 0.000000 0.000000 0.001332 0.000000 0.000000
# 5 0.000000 0.000000 0.000000 0.000000 0.028077 0.000000
# 6 0.000000 0.000000 0.000000 0.000000 0.000000 -0.043337
#
#
# Mechanical properties :
#
#
# Convention : Reuss Voigt Hill
#
# Bulk Modulus (GPa) = 40.81533 66.28214 53.54873
# Shear Modulus (GPa) = 73.41248 167.27889 120.34569
#
# Velocity S-wave (km/s) = 6.11489 9.23048 7.82923
# Velocity P-wave (km/s) = 8.40504 12.13929 10.44048
#
# Compressibility (1/GPa) = 0.02450060
#
# Stress axis : x y z
#
# Youngs Moduli (GPa) = 31.28516 115.88484 116.38261
#
# Poissons Ratio (x) = 0.55342 0.61413
# Poissons Ratio (y) = 0.14941 0.26653
# Poissons Ratio (z) = 0.16509 0.26539
#
# Static dielectric constant tensor:
#      x y z
#    x 3.704830 0.000000 0.000000 
#    y 0.000000 4.014970 0.000000 
#    z 0.000000 0.000000 2.947100 
# 
# 
# High freq. dielectric constant tensor:
#      x y z
#    x 1.728020 0.000000 0.000000 
#    y 0.000000 1.786050 0.000000 
#    z 0.000000 0.000000 1.784660 
# 
# From -- ./inp_files/20544.got.cif
#   From: 2010.03.12/outbox.cif.g09.slc.cpg/sg59_11_cif.got.tgz:20544.got - 2010.04.16 16:29:54.
