data_PCOD8244478
_publ_section_title
;
Structure prediction by ZEFSAII (Michael W. Deem and Ramdas Pophale) SiO2 
 PCOD8244478
Probable space group: P M M N
;
_chemical_formula_sum "Si O2"
_cell_formula_units_Z 48
_cell_length_a 15.594056
_cell_length_b 18.344087
_cell_length_c 8.683399
_cell_angle_alpha 90.000000
_cell_angle_beta 90.000000
_cell_angle_gamma 90.000000
_cell_volume 2483.962003
_symmetry_space_group_name_H-M "P M M N"
_symmetry_group_IT_number 59
_space_group.IT_coordinate_system_code '2'
_symmetry_cell_setting 'orthorhombic'
loop_
_space_group_symop_operation_xyz
x,y,z
1/2-x,1/2-y,z
1/2+x,-y,-z
-x,1/2+y,-z
-x,-y,-z
1/2+x,1/2+y,-z
1/2-x,y,z
x,1/2-y,z
loop_
_atom_site_type_symbol
_atom_site_label
_atom_site_fract_x
_atom_site_fract_y
_atom_site_fract_z
Si Si1 0.994669 0.165689 0.433625
Si Si2 0.845068 0.427563 0.563754
Si Si3 0.151187 0.082894 0.570335
Si Si4 0.657285 0.897698 0.075242
Si Si5 0.108097 0.972188 0.106581
Si Si6 0.997991 0.606833 0.891253
O O1 0.998667 0.250000 0.475130
O O2 0.918028 0.131891 0.533750
O O3 0.973645 0.154910 0.253140
O O4 0.087519 0.131091 0.467450
O O5 0.750000 0.398058 0.519232
O O6 0.867090 0.498347 0.462496
O O7 0.841026 0.446919 0.743931
O O8 0.250000 0.102398 0.527746
O O9 0.130394 0.099198 0.747114
O O10 0.750000 0.858651 0.057329
O O11 0.583851 0.855305 0.978402
O O12 0.667241 0.980007 0.007964
O O13 0.075281 0.900608 0.014062
O O14 0.027443 0.023696 0.159974
#
# Coordination Sequence:
#
# PCOD8244478 Si02
#       6
#     8   8   8   8   8   8
#     4  12  25  39  57  81 122 165 196 238 299 365
#     4  11  22  37  63  89 114 150 200 250 293 344
#     4  10  20  36  63  93 118 149 192 243 295 352
#     4   9  16  29  53  85 115 138 176 235 291 340
#     4   9  17  32  58  85 110 139 185 248 292 334
#     4   9  19  33  53  81 114 147 187 236 292 347
#
# _framework density 19.323967
#
# number of rings (size 3 to 8) (size 9 to 14) (size 15 to 20)
#    1.000    1.000    1.667    3.000    0.000    1.333 
#    0.000    4.167    0.000    1.000    0.000    0.000 
#    0.000    0.000    0.000    0.000    0.000    0.000 
#
# Total GULP energy -594827.243929 kJ/mol
# GULP energy per Si atom -12392.234249 kJ/mol
# Density = 1.927998 g / cm^3
# Si number density = 19.323967 Si / 1000 Ang^3
#
#
#
# Elastic Constant Matrix: (Units=GPa)
#
#
# Indices 1 2 3 4 5 6 
#
# 1 82.6343 29.1211 12.3618 0.0000 0.0000 0.0000
# 2 29.1211 60.7055 3.4041 0.0000 0.0000 0.0000
# 3 12.3618 3.4041 73.6056 0.0000 0.0000 0.0000
# 4 0.0000 0.0000 0.0000 17.8148 0.0000 0.0000
# 5 0.0000 0.0000 0.0000 0.0000 23.1993 0.0000
# 6 0.0000 0.0000 0.0000 0.0000 0.0000 10.9165
#
#
#
# Elastic Compliance Matrix: (Units=1/GPa)
#
#
# Indices 1 2 3 4 5 6 
#
# 1 0.014904 -0.007027 -0.002178 0.000000 0.000000 0.000000
# 2 -0.007027 0.019829 0.000263 0.000000 0.000000 0.000000
# 3 -0.002178 0.000263 0.013940 0.000000 0.000000 0.000000
# 4 0.000000 0.000000 0.000000 0.056133 0.000000 0.000000
# 5 0.000000 0.000000 0.000000 0.000000 0.043105 0.000000
# 6 0.000000 0.000000 0.000000 0.000000 0.000000 0.091605
#
#
# Mechanical properties :
#
#
# Convention : Reuss Voigt Hill
#
# Bulk Modulus (GPa) = 32.48000 34.07992 33.27996
# Shear Modulus (GPa) = 18.68024 21.85669 20.26846
#
# Velocity S-wave (km/s) = 3.11253 3.36678 3.24215
# Velocity P-wave (km/s) = 5.45544 5.72608 5.59240
#
# Compressibility (1/GPa) = 0.03078818
#
# Stress axis : x y z
#
# Youngs Moduli (GPa) = 67.09669 50.43031 71.73834
#
# Poissons Ratio (x) = 0.35439 0.15625
# Poissons Ratio (y) = 0.47152 -0.01888
# Poissons Ratio (z) = 0.14614 -0.01327
#
# Static dielectric constant tensor:
#      x y z
#    x 3.529810 0.000000 0.000000 
#    y 0.000000 2.956470 0.000000 
#    z 0.000000 0.000000 3.477140 
# 
# 
# High freq. dielectric constant tensor:
#      x y z
#    x 1.757910 0.000000 0.000000 
#    y 0.000000 1.686500 0.000000 
#    z 0.000000 0.000000 1.762230 
# 
# From -- ./inp_files/8983.got.cif
#   From: 2010.03.12/outbox.cif.g09.slc.cpg/sg59_5_cif.got.tgz:8983.got - 2010.04.16 16:29:54.
