data_PCOD8244465
_publ_section_title
;
Structure prediction by ZEFSAII (Michael W. Deem and Ramdas Pophale) SiO2 
 PCOD8244465
Probable space group: P M M N
;
_chemical_formula_sum "Si O2"
_cell_formula_units_Z 56
_cell_length_a 23.209933
_cell_length_b 18.105273
_cell_length_c 6.723125
_cell_angle_alpha 90.000000
_cell_angle_beta 90.000000
_cell_angle_gamma 90.000000
_cell_volume 2825.206199
_symmetry_space_group_name_H-M "P M M N"
_symmetry_group_IT_number 59
_space_group.IT_coordinate_system_code '2'
_symmetry_cell_setting 'orthorhombic'
loop_
_space_group_symop_operation_xyz
x,y,z
1/2-x,1/2-y,z
1/2+x,-y,-z
-x,1/2+y,-z
-x,-y,-z
1/2+x,1/2+y,-z
1/2-x,y,z
x,1/2-y,z
loop_
_atom_site_type_symbol
_atom_site_label
_atom_site_fract_x
_atom_site_fract_y
_atom_site_fract_z
Si Si1 0.815817 0.334355 0.424699
Si Si2 0.396190 0.075361 0.516377
Si Si3 0.612433 0.073495 0.699596
Si Si4 0.411927 0.336961 0.121420
Si Si5 0.011480 0.068375 0.852490
Si Si6 0.313428 0.558109 0.925388
Si Si7 0.814735 0.610536 0.165044
O O1 0.750000 0.349361 0.489829
O O2 0.826012 0.250000 0.365934
O O3 0.857555 0.354855 0.606216
O O4 0.833146 0.382919 0.236762
O O5 0.420053 0.124488 0.335380
O O6 0.443378 0.050395 0.678598
O O7 0.347098 0.125667 0.624869
O O8 0.372868 0.998175 0.431875
O O9 0.545523 0.090693 0.732439
O O10 0.637839 0.057990 0.913127
O O11 0.416827 0.250000 0.150013
O O12 0.464343 0.363632 0.981925
O O13 0.350169 0.357206 0.022287
O O14 0.000000 0.000000 0.000000
O O15 0.250000 0.578883 0.010137
O O16 0.311514 0.477305 0.834432
O O17 0.750000 0.644749 0.163022
#
# Coordination Sequence:
#
# PCOD8244465 Si02
#       7
#     8   8   8   8   8   8   8
#     4  10  23  40  58  89 131 164 198 258 321 369
#     4  11  22  39  65  96 123 164 210 262 313 376
#     4  12  21  36  66  93 118 159 218 255 305 372
#     4  11  25  44  63  91 131 167 204 262 323 368
#     4  11  24  41  67  92 123 164 212 265 315 373
#     4  10  20  36  61  92 124 162 204 251 308 375
#     4  10  21  39  65  95 125 163 212 257 306 380
#
# _framework density 19.821560999999999
#
# number of rings (size 3 to 8) (size 9 to 14) (size 15 to 20)
#    0.000    1.286    4.286    1.714    0.000    4.857 
#    0.000    2.857    0.000    0.000    0.000    0.000 
#    0.000    0.000    0.000    0.000    0.000    0.000 
#
# Total GULP energy -694323.765257 kJ/mol
# GULP energy per Si atom -12398.638665 kJ/mol
# Density = 1.977645 g / cm^3
# Si number density = 19.821561 Si / 1000 Ang^3
#
#
#
# Elastic Constant Matrix: (Units=GPa)
#
#
# Indices 1 2 3 4 5 6 
#
# 1 96.1517 16.9618 39.6211 0.0000 0.0000 0.0000
# 2 16.9618 96.6822 36.5436 0.0000 0.0000 0.0000
# 3 39.6211 36.5436 104.5178 0.0000 0.0000 0.0000
# 4 0.0000 0.0000 0.0000 26.5977 0.0000 0.0000
# 5 0.0000 0.0000 0.0000 0.0000 32.5099 0.0000
# 6 0.0000 0.0000 0.0000 0.0000 0.0000 20.7146
#
#
#
# Elastic Compliance Matrix: (Units=1/GPa)
#
#
# Indices 1 2 3 4 5 6 
#
# 1 0.012343 -0.000457 -0.004519 0.000000 0.000000 0.000000
# 2 -0.000457 0.011935 -0.004000 0.000000 0.000000 0.000000
# 3 -0.004519 -0.004000 0.012679 0.000000 0.000000 0.000000
# 4 0.000000 0.000000 0.000000 0.037597 0.000000 0.000000
# 5 0.000000 0.000000 0.000000 0.000000 0.030760 0.000000
# 6 0.000000 0.000000 0.000000 0.000000 0.000000 0.048275
#
#
# Mechanical properties :
#
#
# Convention : Reuss Voigt Hill
#
# Bulk Modulus (GPa) = 52.61683 53.73385 53.17534
# Shear Modulus (GPa) = 28.10927 29.57947 28.84437
#
# Velocity S-wave (km/s) = 3.76987 3.86720 3.81885
# Velocity P-wave (km/s) = 6.74923 6.86353 6.80662
#
# Compressibility (1/GPa) = 0.01900532
#
# Stress axis : x y z
#
# Youngs Moduli (GPa) = 81.01683 83.78597 78.86847
#
# Poissons Ratio (x) = 0.03832 0.35642
# Poissons Ratio (y) = 0.03705 0.31545
# Poissons Ratio (z) = 0.36613 0.33512
#
# Static dielectric constant tensor:
#      x y z
#    x 4.020850 0.000000 0.000000 
#    y 0.000000 3.452670 0.000000 
#    z 0.000000 0.000000 3.734210 
# 
# 
# High freq. dielectric constant tensor:
#      x y z
#    x 1.779580 0.000000 0.000000 
#    y 0.000000 1.755010 0.000000 
#    z 0.000000 0.000000 1.783350 
# 
# From -- ./inp_files/3442.got.cif
#   From: 2010.03.12/outbox.cif.g09.slc.cpg/sg59_2_cif.got.tgz:3442.got - 2010.04.16 16:29:54.
