data_PCOD8244176
_publ_section_title
;
Structure prediction by ZEFSAII (Michael W. Deem and Ramdas Pophale) SiO2 
 PCOD8244176
Probable space group: P M M N
;
_chemical_formula_sum "Si O2"
_cell_formula_units_Z 56
_cell_length_a 13.618202
_cell_length_b 8.906196
_cell_length_c 22.758508
_cell_angle_alpha 90.000000
_cell_angle_beta 90.000000
_cell_angle_gamma 90.000000
_cell_volume 2760.296963
_symmetry_space_group_name_H-M "P M M N"
_symmetry_group_IT_number 59
_space_group.IT_coordinate_system_code '2'
_symmetry_cell_setting 'orthorhombic'
loop_
_space_group_symop_operation_xyz
x,y,z
1/2-x,1/2-y,z
1/2+x,-y,-z
-x,1/2+y,-z
-x,-y,-z
1/2+x,1/2+y,-z
1/2-x,y,z
x,1/2-y,z
loop_
_atom_site_type_symbol
_atom_site_label
_atom_site_fract_x
_atom_site_fract_y
_atom_site_fract_z
Si Si1 0.362633 0.570988 0.661578
Si Si2 0.974857 0.423376 0.858794
Si Si3 0.750000 0.411572 0.559698
Si Si4 0.366040 0.080592 0.039013
Si Si5 0.449332 0.575030 0.276792
Si Si6 0.360832 0.572953 0.921307
Si Si7 0.250000 0.073964 0.324978
Si Si8 0.582725 0.083762 0.466747
O O1 0.250000 0.523513 0.679702
O O2 0.371584 0.750000 0.666679
O O3 0.447683 0.496943 0.701525
O O4 0.380915 0.512705 0.594834
O O5 0.986975 0.250000 0.874860
O O6 0.895040 0.496724 0.901572
O O7 0.940403 0.446951 0.792659
O O8 0.078870 0.506485 0.866906
O O9 0.750000 0.250000 0.593651
O O10 0.750000 0.548316 0.605199
O O11 0.838290 0.420414 0.516313
O O12 0.250000 0.081815 0.036134
O O13 0.408674 0.250000 0.039528
O O14 0.406477 0.993686 0.981552
O O15 0.449672 0.750000 0.294611
O O16 0.351095 0.498023 0.301532
O O17 0.250000 0.519732 0.911893
O O18 0.370077 0.750000 0.923543
O O19 0.250000 0.250000 0.310459
O O20 0.546475 0.250000 0.451245
O O21 0.500000 0.000000 0.500000
#
# Coordination Sequence:
#
# PCOD8244176 Si02
#       8
#     8   8   4   8   8   8   4   8
#     4  10  21  41  66  93 129 168 210 261 315 372
#     4  11  24  40  60  85 118 159 204 253 306 366
#     4  10  20  38  62  88 122 160 195 240 303 366
#     4  10  21  37  60  90 122 156 197 250 309 366
#     4  11  26  45  64  90 124 170 217 263 321 380
#     4  10  21  38  61  89 122 159 200 248 304 366
#     4  12  26  44  66  92 126 164 213 268 319 378
#     4  10  20  35  58  89 123 158 196 243 300 362
#
# _framework density 20.287673000000002
#
# number of rings (size 3 to 8) (size 9 to 14) (size 15 to 20)
#    0.000    1.571    0.714    3.643    1.000    8.286 
#    0.000    2.857    0.000    0.000    0.000    0.000 
#    0.000    0.000    0.000    0.000    0.000    0.000 
#
# Total GULP energy -694076.911956 kJ/mol
# GULP energy per Si atom -12394.230571 kJ/mol
# Density = 2.024150 g / cm^3
# Si number density = 20.287673 Si / 1000 Ang^3
#
#
#
# Elastic Constant Matrix: (Units=GPa)
#
#
# Indices 1 2 3 4 5 6 
#
# 1 101.6038 40.5569 10.9567 0.0000 0.0000 0.0000
# 2 40.5569 92.6647 37.6903 0.0000 0.0000 0.0000
# 3 10.9567 37.6903 73.4008 0.0000 0.0000 0.0000
# 4 0.0000 0.0000 0.0000 33.7089 0.0000 0.0000
# 5 0.0000 0.0000 0.0000 0.0000 27.6632 0.0000
# 6 0.0000 0.0000 0.0000 0.0000 0.0000 51.0882
#
#
#
# Elastic Compliance Matrix: (Units=1/GPa)
#
#
# Indices 1 2 3 4 5 6 
#
# 1 0.012001 -0.005718 0.001145 0.000000 0.000000 0.000000
# 2 -0.005718 0.016365 -0.007550 0.000000 0.000000 0.000000
# 3 0.001145 -0.007550 0.017330 0.000000 0.000000 0.000000
# 4 0.000000 0.000000 0.000000 0.029666 0.000000 0.000000
# 5 0.000000 0.000000 0.000000 0.000000 0.036149 0.000000
# 6 0.000000 0.000000 0.000000 0.000000 0.000000 0.019574
#
#
# Mechanical properties :
#
#
# Convention : Reuss Voigt Hill
#
# Bulk Modulus (GPa) = 46.62080 49.56412 48.09246
# Shear Modulus (GPa) = 30.77283 34.38974 32.58128
#
# Velocity S-wave (km/s) = 3.89887 4.12163 4.01180
# Velocity P-wave (km/s) = 6.58012 6.86543 6.72429
#
# Compressibility (1/GPa) = 0.02144965
#
# Stress axis : x y z
#
# Youngs Moduli (GPa) = 83.32467 61.10573 57.70472
#
# Poissons Ratio (x) = 0.34942 -0.06606
# Poissons Ratio (y) = 0.47647 0.43565
# Poissons Ratio (z) = -0.09539 0.46133
#
# Static dielectric constant tensor:
#      x y z
#    x 3.789110 0.000000 0.000000 
#    y 0.000000 4.135520 0.000000 
#    z 0.000000 0.000000 3.664740 
# 
# 
# High freq. dielectric constant tensor:
#      x y z
#    x 1.813220 0.000000 0.000000 
#    y 0.000000 1.794920 0.000000 
#    z 0.000000 0.000000 1.793590 
# 
# From -- ./inp_files/30494.got.cif
#   From: 2010.03.12/outbox.cif.g09.slc.cpg/sg59_16_cif.got.tgz:30494.got - 2010.04.16 16:29:54.
