data_PCOD8244624
_publ_section_title
;
Structure prediction by ZEFSAII (Michael W. Deem and Ramdas Pophale) SiO2 
 PCOD8244624
Probable space group: P M M N
;
_chemical_formula_sum "Si O2"
_cell_formula_units_Z 38
_cell_length_a 11.067156
_cell_length_b 14.346166
_cell_length_c 12.984371
_cell_angle_alpha 90.000000
_cell_angle_beta 90.000000
_cell_angle_gamma 90.000000
_cell_volume 2061.544907
_symmetry_space_group_name_H-M "P M M N"
_symmetry_group_IT_number 59
_space_group.IT_coordinate_system_code '2'
_symmetry_cell_setting 'orthorhombic'
loop_
_space_group_symop_operation_xyz
x,y,z
1/2-x,1/2-y,z
1/2+x,-y,-z
-x,1/2+y,-z
-x,-y,-z
1/2+x,1/2+y,-z
1/2-x,y,z
x,1/2-y,z
loop_
_atom_site_type_symbol
_atom_site_label
_atom_site_fract_x
_atom_site_fract_y
_atom_site_fract_z
Si Si1 0.000048 0.451106 0.798647
Si Si2 0.497703 0.250000 0.706298
Si Si3 0.109920 0.250000 0.479882
Si Si4 0.250000 0.540933 0.866985
Si Si5 0.250000 0.642579 0.664583
Si Si6 0.750000 0.250000 0.759306
Si Si7 0.505012 0.065401 0.402860
Si Si8 0.250000 0.927689 0.101800
O O1 0.125667 0.482990 0.851470
O O2 0.964318 0.507599 0.696345
O O3 0.028514 0.342480 0.773715
O O4 0.880665 0.473569 0.868370
O O5 0.433949 0.250000 0.597199
O O6 0.639548 0.250000 0.680645
O O7 0.250000 0.250000 0.489552
O O8 0.073516 0.341689 0.416756
O O9 0.250000 0.626355 0.787167
O O10 0.250000 0.584908 0.979693
O O11 0.250000 0.750000 0.640845
O O12 0.358540 0.594321 0.607935
O O13 0.750000 0.167111 0.838413
O O14 0.500000 0.000000 0.500000
#
# Coordination Sequence:
#
# PCOD8244624 Si02
#       8
#     8   4   4   4   4   2   8   4
#     4  10  22  37  62  88 119 154 196 247 294 352
#     4  10  20  38  58  88 116 152 195 246 292 338
#     4  12  26  36  57  84 127 162 194 234 295 353
#     4  10  22  37  61  85 115 156 198 242 302 357
#     4  10  22  40  59  83 116 156 200 244 292 346
#     4   8  20  36  58  90 108 142 202 258 288 340
#     4  11  23  39  59  88 118 160 197 237 289 355
#     4  10  20  39  61  84 118 150 199 249 304 338
#
# _framework density 18.432777999999999
#
# number of rings (size 3 to 8) (size 9 to 14) (size 15 to 20)
#    0.000    1.684    3.158    0.632    5.158    0.842 
#    0.000    0.000    0.000    1.263    0.000    0.000 
#    0.000    0.000    0.000    0.000    0.000    0.000 
#
# Total GULP energy -470801.411659 kJ/mol
# GULP energy per Si atom -12389.510833 kJ/mol
# Density = 1.839082 g / cm^3
# Si number density = 18.432778 Si / 1000 Ang^3
#
#
#
# Elastic Constant Matrix: (Units=GPa)
#
#
# Indices 1 2 3 4 5 6 
#
# 1 147.2977 22.5832 54.8448 0.0000 0.0000 0.0000
# 2 22.5832 89.2716 29.7302 0.0000 0.0000 0.0000
# 3 54.8448 29.7302 102.6469 0.0000 0.0000 0.0000
# 4 0.0000 0.0000 0.0000 37.4570 0.0000 0.0000
# 5 0.0000 0.0000 0.0000 0.0000 31.2765 0.0000
# 6 0.0000 0.0000 0.0000 0.0000 0.0000 17.6799
#
#
#
# Elastic Compliance Matrix: (Units=1/GPa)
#
#
# Indices 1 2 3 4 5 6 
#
# 1 0.008515 -0.000707 -0.004345 0.000000 0.000000 0.000000
# 2 -0.000707 0.012456 -0.003230 0.000000 0.000000 0.000000
# 3 -0.004345 -0.003230 0.012999 0.000000 0.000000 0.000000
# 4 0.000000 0.000000 0.000000 0.026697 0.000000 0.000000
# 5 0.000000 0.000000 0.000000 0.000000 0.031973 0.000000
# 6 0.000000 0.000000 0.000000 0.000000 0.000000 0.056562
#
#
# Mechanical properties :
#
#
# Convention : Reuss Voigt Hill
#
# Bulk Modulus (GPa) = 57.44924 61.50362 59.47643
# Shear Modulus (GPa) = 29.14288 32.75321 30.94805
#
# Velocity S-wave (km/s) = 3.98054 4.21990 4.10197
# Velocity P-wave (km/s) = 7.23608 7.56190 7.40078
#
# Compressibility (1/GPa) = 0.01740667
#
# Stress axis : x y z
#
# Youngs Moduli (GPa) = 117.43765 80.28043 76.92810
#
# Poissons Ratio (x) = 0.05677 0.33424
# Poissons Ratio (y) = 0.08304 0.24848
# Poissons Ratio (z) = 0.51025 0.25930
#
# Static dielectric constant tensor:
#      x y z
#    x 3.565150 0.000000 0.000000 
#    y 0.000000 3.700000 0.000000 
#    z 0.000000 0.000000 3.360370 
# 
# 
# High freq. dielectric constant tensor:
#      x y z
#    x 1.736290 0.000000 0.000000 
#    y 0.000000 1.718580 0.000000 
#    z 0.000000 0.000000 1.712170 
# 
# From -- ./inp_files/15600.got.cif
#   From: 2010.03.12/outbox.cif.g09.slc.cpg/sg59_8_cif.got.tgz:15600.got - 2010.04.16 16:29:54.
