data_PCOD8244225
_publ_section_title
;
Structure prediction by ZEFSAII (Michael W. Deem and Ramdas Pophale) SiO2 
 PCOD8244225
Probable space group: P M M N
;
_chemical_formula_sum "Si O2"
_cell_formula_units_Z 56
_cell_length_a 9.124441
_cell_length_b 23.025404
_cell_length_c 15.227485
_cell_angle_alpha 90.000000
_cell_angle_beta 90.000000
_cell_angle_gamma 90.000000
_cell_volume 3199.202324
_symmetry_space_group_name_H-M "P M M N"
_symmetry_group_IT_number 59
_space_group.IT_coordinate_system_code '2'
_symmetry_cell_setting 'orthorhombic'
loop_
_space_group_symop_operation_xyz
x,y,z
1/2-x,1/2-y,z
1/2+x,-y,-z
-x,1/2+y,-z
-x,-y,-z
1/2+x,1/2+y,-z
1/2-x,y,z
x,1/2-y,z
loop_
_atom_site_type_symbol
_atom_site_label
_atom_site_fract_x
_atom_site_fract_y
_atom_site_fract_z
Si Si1 0.920652 0.559855 0.680139
Si Si2 0.918768 0.940179 0.009120
Si Si3 0.924198 0.250000 0.905531
Si Si4 0.917754 0.425301 0.679451
Si Si5 0.922077 0.864164 0.847637
Si Si6 0.420883 0.361448 0.828069
Si Si7 0.576728 0.250000 0.109034
Si Si8 0.918449 0.059665 0.486087
O O1 0.750000 0.564266 0.658488
O O2 0.966319 0.492462 0.692090
O O3 0.964118 0.594586 0.766914
O O4 0.006523 0.590004 0.598390
O O5 0.750000 0.953295 0.991780
O O6 0.948982 0.913631 0.104259
O O7 0.976088 0.895444 0.936160
O O8 0.000000 0.000000 0.000000
O O9 0.750000 0.250000 0.896124
O O10 0.988553 0.194164 0.857520
O O11 0.973424 0.250000 0.007247
O O12 0.750000 0.417907 0.711340
O O13 0.933391 0.404945 0.577497
O O14 0.022852 0.383248 0.734098
O O15 0.750000 0.849815 0.850147
O O16 0.012043 0.805075 0.839981
O O17 0.250000 0.344944 0.822554
O O18 0.750000 0.250000 0.117818
O O19 0.750000 0.047584 0.464027
O O20 0.000000 0.000000 0.500000
#
# Coordination Sequence:
#
# PCOD8244225 Si02
#       8
#     8   8   4   8   8   8   4   8
#     4   9  18  32  53  80 108 141 177 213 260 314
#     4  10  21  34  50  74 105 138 169 205 255 309
#     4  11  23  39  57  74  99 138 179 221 266 310
#     4   9  18  33  52  77 110 142 172 209 262 319
#     4  10  20  36  55  74 104 142 174 213 263 312
#     4  11  22  35  54  78 103 135 177 221 258 303
#     4  11  23  37  55  78  99 132 183 227 260 302
#     4   9  17  30  50  75 107 143 175 213 259 310
#
# _framework density 17.504363000000001
#
# number of rings (size 3 to 8) (size 9 to 14) (size 15 to 20)
#    0.000    2.143    1.429    3.000    0.000    6.857 
#    0.000    0.000    0.000    0.857    0.000    4.000 
#    0.000    0.000    0.000    0.000    0.000    0.000 
#
# Total GULP energy -694392.761142 kJ/mol
# GULP energy per Si atom -12399.870735 kJ/mol
# Density = 1.746452 g / cm^3
# Si number density = 17.504363 Si / 1000 Ang^3
#
#
#
# Elastic Constant Matrix: (Units=GPa)
#
#
# Indices 1 2 3 4 5 6 
#
# 1 74.3534 34.7553 41.1152 0.0000 0.0000 0.0000
# 2 34.7553 70.0662 14.1329 0.0000 0.0000 0.0000
# 3 41.1152 14.1329 89.0163 0.0000 0.0000 0.0000
# 4 0.0000 0.0000 0.0000 13.6823 0.0000 0.0000
# 5 0.0000 0.0000 0.0000 0.0000 32.4237 0.0000
# 6 0.0000 0.0000 0.0000 0.0000 0.0000 31.6204
#
#
#
# Elastic Compliance Matrix: (Units=1/GPa)
#
#
# Indices 1 2 3 4 5 6 
#
# 1 0.022928 -0.009543 -0.009075 0.000000 0.000000 0.000000
# 2 -0.009543 0.018716 0.001436 0.000000 0.000000 0.000000
# 3 -0.009075 0.001436 0.015198 0.000000 0.000000 0.000000
# 4 0.000000 0.000000 0.000000 0.073087 0.000000 0.000000
# 5 0.000000 0.000000 0.000000 0.000000 0.030842 0.000000
# 6 0.000000 0.000000 0.000000 0.000000 0.000000 0.031625
#
#
# Mechanical properties :
#
#
# Convention : Reuss Voigt Hill
#
# Bulk Modulus (GPa) = 44.48710 45.93810 45.21260
# Shear Modulus (GPa) = 21.34457 25.10745 23.22601
#
# Velocity S-wave (km/s) = 3.49576 3.79140 3.64657
# Velocity P-wave (km/s) = 6.46249 6.74292 6.60420
#
# Compressibility (1/GPa) = 0.02247842
#
# Stress axis : x y z
#
# Youngs Moduli (GPa) = 43.61471 53.43019 65.80027
#
# Poissons Ratio (x) = 0.50986 0.59714
# Poissons Ratio (y) = 0.41620 -0.09449
# Poissons Ratio (z) = 0.39581 -0.07673
#
# Static dielectric constant tensor:
#      x y z
#    x 3.344960 0.000000 0.000000 
#    y 0.000000 3.059370 0.000000 
#    z 0.000000 0.000000 3.059410 
# 
# 
# High freq. dielectric constant tensor:
#      x y z
#    x 1.682040 0.000000 0.000000 
#    y 0.000000 1.649790 0.000000 
#    z 0.000000 0.000000 1.684350 
# 
# From -- ./inp_files/21167.got.cif
#   From: 2010.03.12/outbox.cif.g09.slc.cpg/sg59_11_cif.got.tgz:21167.got - 2010.04.16 16:29:54.
