data_PCOD8244104
_publ_section_title
;
Structure prediction by ZEFSAII (Michael W. Deem and Ramdas Pophale) SiO2 
 PCOD8244104
Probable space group: P M M N
;
_chemical_formula_sum "Si O2"
_cell_formula_units_Z 56
_cell_length_a 8.556072
_cell_length_b 14.231091
_cell_length_c 22.645530
_cell_angle_alpha 90.000000
_cell_angle_beta 90.000000
_cell_angle_gamma 90.000000
_cell_volume 2757.370441
_symmetry_space_group_name_H-M "P M M N"
_symmetry_group_IT_number 59
_space_group.IT_coordinate_system_code '2'
_symmetry_cell_setting 'orthorhombic'
loop_
_space_group_symop_operation_xyz
x,y,z
1/2-x,1/2-y,z
1/2+x,-y,-z
-x,1/2+y,-z
-x,-y,-z
1/2+x,1/2+y,-z
1/2-x,y,z
x,1/2-y,z
loop_
_atom_site_type_symbol
_atom_site_label
_atom_site_fract_x
_atom_site_fract_y
_atom_site_fract_z
Si Si1 0.935123 0.352440 0.404544
Si Si2 0.068862 0.044181 0.644732
Si Si3 0.072642 0.859242 0.463594
Si Si4 0.068708 0.858620 0.244652
Si Si5 0.429199 0.857092 0.028235
Si Si6 0.432222 0.356509 0.095225
Si Si7 0.430422 0.463989 0.863934
O O1 0.750000 0.346542 0.409930
O O2 0.000050 0.250000 0.383399
O O3 0.982698 0.434039 0.358447
O O4 0.995647 0.376101 0.470550
O O5 0.250000 0.054405 0.662780
O O6 0.043229 0.087544 0.580379
O O7 0.960797 0.097144 0.691442
O O8 0.250000 0.897498 0.456765
O O9 0.069316 0.750000 0.447603
O O10 0.250000 0.868364 0.228217
O O11 0.016836 0.750000 0.244895
O O12 0.966185 0.914839 0.197743
O O13 0.250000 0.872283 0.009854
O O14 0.462790 0.750000 0.046801
O O15 0.466991 0.919928 0.084291
O O16 0.534529 0.886289 0.972486
O O17 0.250000 0.365556 0.108094
O O18 0.491531 0.250000 0.106277
O O19 0.524969 0.425545 0.139501
O O20 0.250000 0.450761 0.878987
#
# Coordination Sequence:
#
# PCOD8244104 Si02
#       7
#     8   8   8   8   8   8   8
#     4   8  16  32  53  78 109 144 181 219 264 323
#     4  11  21  33  54  82 109 140 180 229 279 322
#     4   9  17  31  52  77 108 147 183 216 264 327
#     4  11  25  44  62  79 105 144 186 226 272 332
#     4  10  20  35  57  86 120 155 190 230 278 332
#     4  10  21  38  60  86 117 152 190 231 273 323
#     4  12  24  38  59  85 114 147 185 233 285 334
#
# _framework density 20.309203
#
# number of rings (size 3 to 8) (size 9 to 14) (size 15 to 20)
#    0.000    1.857    0.000    5.571    0.000    6.571 
#    0.000    1.429    0.000    6.000    0.000    0.000 
#    0.000    0.000    0.000    0.000    0.000    0.000 
#
# Total GULP energy -694498.962728 kJ/mol
# GULP energy per Si atom -12401.767192 kJ/mol
# Density = 2.026298 g / cm^3
# Si number density = 20.309203 Si / 1000 Ang^3
#
#
#
# Elastic Constant Matrix: (Units=GPa)
#
#
# Indices 1 2 3 4 5 6 
#
# 1 55.0422 25.6868 13.5555 0.0000 0.0000 0.0000
# 2 25.6868 117.4108 57.1019 0.0000 0.0000 0.0000
# 3 13.5555 57.1019 64.2069 0.0000 0.0000 0.0000
# 4 0.0000 0.0000 0.0000 34.5877 0.0000 0.0000
# 5 0.0000 0.0000 0.0000 0.0000 29.2032 0.0000
# 6 0.0000 0.0000 0.0000 0.0000 0.0000 27.3515
#
#
#
# Elastic Compliance Matrix: (Units=1/GPa)
#
#
# Indices 1 2 3 4 5 6 
#
# 1 0.020246 -0.004142 -0.000591 0.000000 0.000000 0.000000
# 2 -0.004142 0.015856 -0.013227 0.000000 0.000000 0.000000
# 3 -0.000591 -0.013227 0.027463 0.000000 0.000000 0.000000
# 4 0.000000 0.000000 0.000000 0.028912 0.000000 0.000000
# 5 0.000000 0.000000 0.000000 0.000000 0.034243 0.000000
# 6 0.000000 0.000000 0.000000 0.000000 0.000000 0.036561
#
#
# Mechanical properties :
#
#
# Convention : Reuss Voigt Hill
#
# Bulk Modulus (GPa) = 36.17223 47.70536 41.93879
# Shear Modulus (GPa) = 23.99043 27.58285 25.78664
#
# Velocity S-wave (km/s) = 3.44067 3.68930 3.56715
# Velocity P-wave (km/s) = 5.79946 6.45666 6.13686
#
# Compressibility (1/GPa) = 0.02764552
#
# Stress axis : x y z
#
# Youngs Moduli (GPa) = 49.39153 63.06665 36.41290
#
# Poissons Ratio (x) = 0.26123 0.02151
# Poissons Ratio (y) = 0.20459 0.48164
# Poissons Ratio (z) = 0.02917 0.83419
#
# Static dielectric constant tensor:
#      x y z
#    x 3.471710 0.000000 0.000000 
#    y 0.000000 4.151480 0.000000 
#    z 0.000000 0.000000 3.420570 
# 
# 
# High freq. dielectric constant tensor:
#      x y z
#    x 1.782330 0.000000 0.000000 
#    y 0.000000 1.811550 0.000000 
#    z 0.000000 0.000000 1.768900 
# 
# From -- ./inp_files/29081.got.cif
#   From: 2010.03.12/outbox.cif.g09.slc.cpg/sg59_15_cif.got.tgz:29081.got - 2010.04.16 16:29:54.
