data_PCOD8244369
_publ_section_title
;
Structure prediction by ZEFSAII (Michael W. Deem and Ramdas Pophale) SiO2 
 PCOD8244369
Probable space group: P M M N
;
_chemical_formula_sum "Si O2"
_cell_formula_units_Z 64
_cell_length_a 31.400122
_cell_length_b 9.031928
_cell_length_c 11.561766
_cell_angle_alpha 90.000000
_cell_angle_beta 90.000000
_cell_angle_gamma 90.000000
_cell_volume 3278.958935
_symmetry_space_group_name_H-M "P M M N"
_symmetry_group_IT_number 59
_space_group.IT_coordinate_system_code '2'
_symmetry_cell_setting 'orthorhombic'
loop_
_space_group_symop_operation_xyz
x,y,z
1/2-x,1/2-y,z
1/2+x,-y,-z
-x,1/2+y,-z
-x,-y,-z
1/2+x,1/2+y,-z
1/2-x,y,z
x,1/2-y,z
loop_
_atom_site_type_symbol
_atom_site_label
_atom_site_fract_x
_atom_site_fract_y
_atom_site_fract_z
Si Si1 0.201630 0.573357 0.080904
Si Si2 0.298543 0.924075 0.330194
Si Si3 0.378538 0.575139 0.938562
Si Si4 0.483250 0.920305 0.330197
Si Si5 0.037118 0.577287 0.071232
Si Si6 0.438371 0.920400 0.563351
Si Si7 0.630207 0.575660 0.297958
Si Si8 0.800252 0.078465 0.420806
O O1 0.250000 0.514493 0.054404
O O2 0.203269 0.750000 0.083276
O O3 0.183301 0.517632 0.206963
O O4 0.167227 0.518343 0.987288
O O5 0.250000 0.971626 0.326297
O O6 0.303600 0.750000 0.337004
O O7 0.317239 0.981998 0.452841
O O8 0.377489 0.750000 0.916834
O O9 0.388023 0.492337 0.819653
O O10 0.416370 0.530129 0.025575
O O11 0.499313 0.750000 0.330268
O O12 0.464510 0.966977 0.206229
O O13 0.446774 0.941955 0.426792
O O14 0.522146 0.027200 0.359113
O O15 0.029878 0.750000 0.054510
O O16 0.000000 0.500000 0.000000
O O17 0.429279 0.750000 0.593452
O O18 0.397732 0.018472 0.594734
O O19 0.628668 0.750000 0.288818
O O20 0.678159 0.519332 0.321003
O O21 0.750000 0.057419 0.409960
O O22 0.812626 0.250000 0.402417
#
# Coordination Sequence:
#
# PCOD8244369 Si02
#       8
#     8   8   8   8   8   8   8   8
#     4   8  14  27  51  82 111 136 166 213 268 316
#     4   7  11  23  47  79 107 128 157 203 260 317
#     4  10  21  36  54  78 105 137 184 229 265 318
#     4   9  19  36  58  85 114 141 172 216 270 320
#     4  10  21  36  55  80 109 142 178 220 269 318
#     4  10  20  36  59  84 110 141 177 217 263 320
#     4  12  25  38  52  73 107 147 183 225 274 318
#     4   9  18  34  57  82 106 136 177 222 268 323
#
# _framework density 19.518391999999999
#
# number of rings (size 3 to 8) (size 9 to 14) (size 15 to 20)
#    0.000    2.625    0.000    3.750    0.000    5.250 
#    0.000    5.000    0.000    2.250    0.000    1.750 
#    0.000    0.000    0.000    0.000    0.000    0.000 
#
# Total GULP energy -793074.345804 kJ/mol
# GULP energy per Si atom -12391.786653 kJ/mol
# Density = 1.947397 g / cm^3
# Si number density = 19.518392 Si / 1000 Ang^3
#
#
#
# Elastic Constant Matrix: (Units=GPa)
#
#
# Indices 1 2 3 4 5 6 
#
# 1 97.2384 37.4693 56.8417 0.0000 0.0000 0.0000
# 2 37.4693 61.6076 45.2931 0.0000 0.0000 0.0000
# 3 56.8417 45.2931 132.5238 0.0000 0.0000 0.0000
# 4 0.0000 0.0000 0.0000 16.0146 0.0000 0.0000
# 5 0.0000 0.0000 0.0000 0.0000 32.2265 0.0000
# 6 0.0000 0.0000 0.0000 0.0000 0.0000 23.5306
#
#
#
# Elastic Compliance Matrix: (Units=1/GPa)
#
#
# Indices 1 2 3 4 5 6 
#
# 1 0.015197 -0.005944 -0.004487 0.000000 0.000000 0.000000
# 2 -0.005944 0.024004 -0.005654 0.000000 0.000000 0.000000
# 3 -0.004487 -0.005654 0.011403 0.000000 0.000000 0.000000
# 4 0.000000 0.000000 0.000000 0.062443 0.000000 0.000000
# 5 0.000000 0.000000 0.000000 0.000000 0.031030 0.000000
# 6 0.000000 0.000000 0.000000 0.000000 0.000000 0.042498
#
#
# Mechanical properties :
#
#
# Convention : Reuss Voigt Hill
#
# Bulk Modulus (GPa) = 54.24958 63.39756 58.82357
# Shear Modulus (GPa) = 22.23304 24.47206 23.35255
#
# Velocity S-wave (km/s) = 3.37869 3.54474 3.46271
# Velocity P-wave (km/s) = 6.56317 7.02175 6.79633
#
# Compressibility (1/GPa) = 0.01843332
#
# Stress axis : x y z
#
# Youngs Moduli (GPa) = 65.80102 41.65969 87.69783
#
# Poissons Ratio (x) = 0.24764 0.39348
# Poissons Ratio (y) = 0.39114 0.49587
# Poissons Ratio (z) = 0.29524 0.23556
#
# Static dielectric constant tensor:
#      x y z
#    x 3.571750 0.000000 0.000000 
#    y 0.000000 3.206650 0.000000 
#    z 0.000000 0.000000 3.900630 
# 
# 
# High freq. dielectric constant tensor:
#      x y z
#    x 1.753650 0.000000 0.000000 
#    y 0.000000 1.718300 0.000000 
#    z 0.000000 0.000000 1.775790 
# 
# From -- ./inp_files/19324.got.cif
#   From: 2010.03.12/outbox.cif.g09.slc.cpg/sg59_10_cif.got.tgz:19324.got - 2010.04.16 16:29:54.
