data_PCOD8244021
_publ_section_title
;
Structure prediction by ZEFSAII (Michael W. Deem and Ramdas Pophale) SiO2 
 PCOD8244021
Probable space group: P M M N
;
_chemical_formula_sum "Si O2"
_cell_formula_units_Z 64
_cell_length_a 14.633446
_cell_length_b 8.794187
_cell_length_c 24.662910
_cell_angle_alpha 90.000000
_cell_angle_beta 90.000000
_cell_angle_gamma 90.000000
_cell_volume 3173.851652
_symmetry_space_group_name_H-M "P M M N"
_symmetry_group_IT_number 59
_space_group.IT_coordinate_system_code '2'
_symmetry_cell_setting 'orthorhombic'
loop_
_space_group_symop_operation_xyz
x,y,z
1/2-x,1/2-y,z
1/2+x,-y,-z
-x,1/2+y,-z
-x,-y,-z
1/2+x,1/2+y,-z
1/2-x,y,z
x,1/2-y,z
loop_
_atom_site_type_symbol
_atom_site_label
_atom_site_fract_x
_atom_site_fract_y
_atom_site_fract_z
Si Si1 0.650563 0.924918 0.775496
Si Si2 0.643811 0.430383 0.152577
Si Si3 0.148688 0.430638 0.536433
Si Si4 0.649556 0.421526 0.888113
Si Si5 0.531022 0.573749 0.250837
Si Si6 0.978624 0.925476 0.370291
Si Si7 0.510864 0.075007 0.057890
Si Si8 0.647456 0.570619 0.584604
O O1 0.750000 0.935629 0.745057
O O2 0.632678 0.750000 0.792978
O O3 0.656082 0.037556 0.825844
O O4 0.565131 0.985930 0.741873
O O5 0.750000 0.480430 0.149091
O O6 0.633981 0.250000 0.158000
O O7 0.597736 0.502840 0.205826
O O8 0.591762 0.487579 0.097710
O O9 0.250000 0.495703 0.546541
O O10 0.150903 0.250000 0.541325
O O11 0.084007 0.501235 0.582988
O O12 0.115951 0.478446 0.476202
O O13 0.750000 0.431175 0.915218
O O14 0.610250 0.250000 0.894964
O O15 0.585687 0.547454 0.914282
O O16 0.515658 0.750000 0.235897
O O17 0.571256 0.554796 0.311667
O O18 0.994600 0.750000 0.382914
O O19 0.078325 0.002133 0.371543
O O20 0.529525 0.250000 0.047616
O O21 0.500000 0.000000 0.000000
O O22 0.750000 0.509953 0.596055
O O23 0.646471 0.750000 0.590726
#
# Coordination Sequence:
#
# PCOD8244021 Si02
#       8
#     8   8   8   8   8   8   8   8
#     4  10  20  35  57  82 108 144 188 231 281 342
#     4  10  23  44  66  86 114 156 200 239 285 339
#     4   8  15  31  54  77 105 142 185 233 286 343
#     4  10  20  35  58  87 118 149 182 228 284 339
#     4  11  23  37  56  84 117 152 194 240 288 343
#     4  10  21  34  52  81 112 145 185 234 288 338
#     4  11  23  39  62  91 123 158 194 238 289 339
#     4   9  18  33  54  79 107 145 189 231 282 345
#
# _framework density 20.164774000000001
#
# number of rings (size 3 to 8) (size 9 to 14) (size 15 to 20)
#    0.000    2.125    1.250    2.625    0.000    5.000 
#    0.000    5.000    0.000    1.125    0.000    0.000 
#    0.000    0.000    0.000    0.000    0.000    0.000 
#
# Total GULP energy -793036.526234 kJ/mol
# GULP energy per Si atom -12391.195722 kJ/mol
# Density = 2.011888 g / cm^3
# Si number density = 20.164774 Si / 1000 Ang^3
#
#
#
# Elastic Constant Matrix: (Units=GPa)
#
#
# Indices 1 2 3 4 5 6 
#
# 1 115.1725 32.3882 57.2292 0.0000 0.0000 0.0000
# 2 32.3882 50.0658 28.1062 0.0000 0.0000 0.0000
# 3 57.2292 28.1062 115.2372 0.0000 0.0000 0.0000
# 4 0.0000 0.0000 0.0000 25.9132 0.0000 0.0000
# 5 0.0000 0.0000 0.0000 0.0000 16.0660 0.0000
# 6 0.0000 0.0000 0.0000 0.0000 0.0000 27.2298
#
#
#
# Elastic Compliance Matrix: (Units=1/GPa)
#
#
# Indices 1 2 3 4 5 6 
#
# 1 0.012676 -0.005406 -0.004976 0.000000 0.000000 0.000000
# 2 -0.005406 0.025448 -0.003522 0.000000 0.000000 0.000000
# 3 -0.004976 -0.003522 0.012008 0.000000 0.000000 0.000000
# 4 0.000000 0.000000 0.000000 0.038590 0.000000 0.000000
# 5 0.000000 0.000000 0.000000 0.000000 0.062243 0.000000
# 6 0.000000 0.000000 0.000000 0.000000 0.000000 0.036724
#
#
# Mechanical properties :
#
#
# Convention : Reuss Voigt Hill
#
# Bulk Modulus (GPa) = 44.79730 57.32474 51.06102
# Shear Modulus (GPa) = 22.42749 24.69193 23.55971
#
# Velocity S-wave (km/s) = 3.33860 3.50309 3.42184
# Velocity P-wave (km/s) = 6.09307 6.69717 6.40225
#
# Compressibility (1/GPa) = 0.02232277
#
# Stress axis : x y z
#
# Youngs Moduli (GPa) = 78.89053 39.29535 83.27683
#
# Poissons Ratio (x) = 0.21245 0.41442
# Poissons Ratio (y) = 0.42652 0.29329
# Poissons Ratio (z) = 0.39259 0.13839
#
# Static dielectric constant tensor:
#      x y z
#    x 3.213150 0.000000 0.000000 
#    y 0.000000 3.459330 0.000000 
#    z 0.000000 0.000000 4.292760 
# 
# 
# High freq. dielectric constant tensor:
#      x y z
#    x 1.789470 0.000000 0.000000 
#    y 0.000000 1.771170 0.000000 
#    z 0.000000 0.000000 1.785060 
# 
# From -- ./inp_files/32120.got.cif
#   From: 2010.03.12/outbox.cif.g09.slc.cpg/sg59_17_cif.got.tgz:32120.got - 2010.04.16 16:29:54.
