data_PCOD8244239
_publ_section_title
;
Structure prediction by ZEFSAII (Michael W. Deem and Ramdas Pophale) SiO2 
 PCOD8244239
Probable space group: P M M N
;
_chemical_formula_sum "Si O2"
_cell_formula_units_Z 64
_cell_length_a 8.561510
_cell_length_b 22.170633
_cell_length_c 16.812198
_cell_angle_alpha 90.000000
_cell_angle_beta 90.000000
_cell_angle_gamma 90.000000
_cell_volume 3191.192167
_symmetry_space_group_name_H-M "P M M N"
_symmetry_group_IT_number 59
_space_group.IT_coordinate_system_code '2'
_symmetry_cell_setting 'orthorhombic'
loop_
_space_group_symop_operation_xyz
x,y,z
1/2-x,1/2-y,z
1/2+x,-y,-z
-x,1/2+y,-z
-x,-y,-z
1/2+x,1/2+y,-z
1/2-x,y,z
x,1/2-y,z
loop_
_atom_site_type_symbol
_atom_site_label
_atom_site_fract_x
_atom_site_fract_y
_atom_site_fract_z
Si Si1 0.435323 0.437005 0.532240
Si Si2 0.065220 0.314416 0.801230
Si Si3 0.426385 0.179989 0.257287
Si Si4 0.064505 0.318120 0.437817
Si Si5 0.432135 0.124058 0.958914
Si Si6 0.435467 0.428991 0.712431
Si Si7 0.069844 0.517772 0.137648
Si Si8 0.570811 0.107332 0.118523
O O1 0.500000 0.500000 0.500000
O O2 0.250000 0.437661 0.524449
O O3 0.499726 0.375069 0.490110
O O4 0.492913 0.436758 0.622909
O O5 0.250000 0.313565 0.793356
O O6 0.993036 0.250000 0.776847
O O7 0.019069 0.327765 0.892075
O O8 0.999775 0.364154 0.741057
O O9 0.250000 0.154912 0.248337
O O10 0.430164 0.250000 0.236374
O O11 0.487811 0.169175 0.347084
O O12 0.540020 0.146878 0.196363
O O13 0.250000 0.316400 0.443114
O O14 0.004461 0.250000 0.464152
O O15 0.250000 0.126946 0.979816
O O16 0.470499 0.058271 0.922974
O O17 0.531395 0.142466 0.036854
O O18 0.250000 0.434747 0.719832
O O19 0.512524 0.477897 0.770658
O O20 0.250000 0.535734 0.130226
O O21 0.044689 0.449145 0.113646
O O22 0.750000 0.086713 0.120105
#
# Coordination Sequence:
#
# PCOD8244239 Si02
#       8
#     8   8   8   8   8   8   8   8
#     4  10  21  35  55  86 120 150 187 237 293 343
#     4   8  15  30  54  80 106 140 179 221 269 321
#     4   9  19  37  58  80 108 144 190 236 277 328
#     4   8  16  34  59  84 111 147 193 240 283 335
#     4  10  20  36  55  80 113 144 182 229 280 333
#     4   9  19  35  53  80 115 145 181 230 278 332
#     4  11  22  37  57  78 106 145 188 229 280 338
#     4  12  24  36  54  80 110 144 186 231 280 335
#
# _framework density 20.055199999999999
#
# number of rings (size 3 to 8) (size 9 to 14) (size 15 to 20)
#    0.000    2.375    0.000    4.500    1.750    1.750 
#    0.000    3.750    0.000   10.125    0.000    3.500 
#    0.000    0.000    0.000    0.000    0.000    0.000 
#
# Total GULP energy -793247.370952 kJ/mol
# GULP energy per Si atom -12394.490171 kJ/mol
# Density = 2.000955 g / cm^3
# Si number density = 20.055200 Si / 1000 Ang^3
#
#
#
# Elastic Constant Matrix: (Units=GPa)
#
#
# Indices 1 2 3 4 5 6 
#
# 1 41.3330 14.8946 24.4761 0.0000 0.0000 0.0000
# 2 14.8946 84.4767 33.1899 0.0000 0.0000 0.0000
# 3 24.4761 33.1899 112.0285 0.0000 0.0000 0.0000
# 4 0.0000 0.0000 0.0000 33.6827 0.0000 0.0000
# 5 0.0000 0.0000 0.0000 0.0000 20.8485 0.0000
# 6 0.0000 0.0000 0.0000 0.0000 0.0000 21.9445
#
#
#
# Elastic Compliance Matrix: (Units=1/GPa)
#
#
# Indices 1 2 3 4 5 6 
#
# 1 0.028407 -0.002909 -0.005345 0.000000 0.000000 0.000000
# 2 -0.002909 0.013695 -0.003422 0.000000 0.000000 0.000000
# 3 -0.005345 -0.003422 0.011108 0.000000 0.000000 0.000000
# 4 0.000000 0.000000 0.000000 0.029689 0.000000 0.000000
# 5 0.000000 0.000000 0.000000 0.000000 0.047965 0.000000
# 6 0.000000 0.000000 0.000000 0.000000 0.000000 0.045570
#
#
# Mechanical properties :
#
#
# Convention : Reuss Voigt Hill
#
# Bulk Modulus (GPa) = 33.49058 42.55105 38.02082
# Shear Modulus (GPa) = 23.83948 26.31364 25.07656
#
# Velocity S-wave (km/s) = 3.45148 3.62617 3.53990
# Velocity P-wave (km/s) = 5.71131 6.22858 5.97554
#
# Compressibility (1/GPa) = 0.02985914
#
# Stress axis : x y z
#
# Youngs Moduli (GPa) = 35.20282 73.02037 90.02736
#
# Poissons Ratio (x) = 0.21240 0.48116
# Poissons Ratio (y) = 0.10240 0.30805
# Poissons Ratio (z) = 0.18814 0.24986
#
# Static dielectric constant tensor:
#      x y z
#    x 3.264460 0.000000 0.000000 
#    y 0.000000 3.853120 0.000000 
#    z 0.000000 0.000000 3.838440 
# 
# 
# High freq. dielectric constant tensor:
#      x y z
#    x 1.749850 0.000000 0.000000 
#    y 0.000000 1.782540 0.000000 
#    z 0.000000 0.000000 1.789270 
# 
# From -- ./inp_files/21410.got.cif
#   From: 2010.03.12/outbox.cif.g09.slc.cpg/sg59_11_cif.got.tgz:21410.got - 2010.04.16 16:29:54.
