data_PCOD8244083
_publ_section_title
;
Structure prediction by ZEFSAII (Michael W. Deem and Ramdas Pophale) SiO2 
 PCOD8244083
Probable space group: P M M N
;
_chemical_formula_sum "Si O2"
_cell_formula_units_Z 56
_cell_length_a 19.861312
_cell_length_b 8.793420
_cell_length_c 17.166347
_cell_angle_alpha 90.000000
_cell_angle_beta 90.000000
_cell_angle_gamma 90.000000
_cell_volume 2998.082902
_symmetry_space_group_name_H-M "P M M N"
_symmetry_group_IT_number 59
_space_group.IT_coordinate_system_code '2'
_symmetry_cell_setting 'orthorhombic'
loop_
_space_group_symop_operation_xyz
x,y,z
1/2-x,1/2-y,z
1/2+x,-y,-z
-x,1/2+y,-z
-x,-y,-z
1/2+x,1/2+y,-z
1/2-x,y,z
x,1/2-y,z
loop_
_atom_site_type_symbol
_atom_site_label
_atom_site_fract_x
_atom_site_fract_y
_atom_site_fract_z
Si Si1 0.004450 0.923428 0.288615
Si Si2 0.825326 0.077087 0.482340
Si Si3 0.000393 0.428183 0.122523
Si Si4 0.052993 0.428154 0.440471
Si Si5 0.250000 0.572023 0.789136
Si Si6 0.349146 0.075997 0.677714
Si Si7 0.101271 0.425596 0.988283
Si Si8 0.750000 0.925050 0.049483
O O1 0.029000 0.750000 0.286903
O O2 0.928242 0.936802 0.315370
O O3 0.015382 0.992784 0.203984
O O4 0.047337 0.013304 0.352435
O O5 0.750000 0.067532 0.516615
O O6 0.852546 0.250000 0.485800
O O7 0.871902 0.967089 0.532659
O O8 0.823438 0.023705 0.393500
O O9 0.995171 0.250000 0.136788
O O10 0.063123 0.473635 0.067191
O O11 0.929915 0.482738 0.084684
O O12 0.041274 0.250000 0.442479
O O13 0.000000 0.500000 0.500000
O O14 0.250000 0.750000 0.771272
O O15 0.183331 0.493730 0.755006
O O16 0.250000 0.542724 0.880404
O O17 0.326112 0.250000 0.666739
O O18 0.087541 0.250000 0.969558
O O19 0.181386 0.457298 0.999368
O O20 0.750000 0.750000 0.078996
#
# Coordination Sequence:
#
# PCOD8244083 Si02
#       8
#     8   8   8   8   4   8   8   4
#     4  11  23  38  58  84 113 148 192 241 289 338
#     4  11  23  39  60  84 114 151 190 235 288 344
#     4  10  20  35  57  85 114 146 186 234 287 340
#     4  12  24  39  61  87 117 153 196 242 290 343
#     4  12  24  34  48  78 119 152 185 230 284 344
#     4  11  22  35  54  78 110 151 191 230 279 341
#     4   9  19  36  58  83 112 148 188 228 280 341
#     4  10  20  36  56  78 109 148 187 226 272 338
#
# _framework density 18.678604
#
# number of rings (size 3 to 8) (size 9 to 14) (size 15 to 20)
#    0.000    1.286    2.143    4.500    0.000    7.143 
#    0.000    0.000    1.571    0.000    0.000    0.000 
#    0.000    0.000    0.000    0.000    0.000    0.000 
#
# Total GULP energy -694571.875850 kJ/mol
# GULP energy per Si atom -12403.069212 kJ/mol
# Density = 1.863609 g / cm^3
# Si number density = 18.678604 Si / 1000 Ang^3
#
#
#
# Elastic Constant Matrix: (Units=GPa)
#
#
# Indices 1 2 3 4 5 6 
#
# 1 104.2954 36.5059 43.1434 0.0000 0.0000 0.0000
# 2 36.5059 115.3516 49.8038 0.0000 0.0000 0.0000
# 3 43.1434 49.8038 105.4815 0.0000 0.0000 0.0000
# 4 0.0000 0.0000 0.0000 35.0529 0.0000 0.0000
# 5 0.0000 0.0000 0.0000 0.0000 30.1750 0.0000
# 6 0.0000 0.0000 0.0000 0.0000 0.0000 26.7928
#
#
#
# Elastic Compliance Matrix: (Units=1/GPa)
#
#
# Indices 1 2 3 4 5 6 
#
# 1 0.011931 -0.002096 -0.003890 0.000000 0.000000 0.000000
# 2 -0.002096 0.011257 -0.004458 0.000000 0.000000 0.000000
# 3 -0.003890 -0.004458 0.013176 0.000000 0.000000 0.000000
# 4 0.000000 0.000000 0.000000 0.028528 0.000000 0.000000
# 5 0.000000 0.000000 0.000000 0.000000 0.033140 0.000000
# 6 0.000000 0.000000 0.000000 0.000000 0.000000 0.037323
#
#
# Mechanical properties :
#
#
# Convention : Reuss Voigt Hill
#
# Bulk Modulus (GPa) = 64.61582 64.89273 64.75427
# Shear Modulus (GPa) = 30.97824 31.44918 31.21371
#
# Velocity S-wave (km/s) = 4.07687 4.10774 4.09234
# Velocity P-wave (km/s) = 7.53855 7.57068 7.55464
#
# Compressibility (1/GPa) = 0.01547609
#
# Stress axis : x y z
#
# Youngs Moduli (GPa) = 83.81416 88.83174 75.89406
#
# Poissons Ratio (x) = 0.18622 0.29525
# Poissons Ratio (y) = 0.17570 0.33832
# Poissons Ratio (z) = 0.32606 0.39599
#
# Static dielectric constant tensor:
#      x y z
#    x 3.472870 0.000000 0.000000 
#    y 0.000000 3.608630 0.000000 
#    z 0.000000 0.000000 3.350410 
# 
# 
# High freq. dielectric constant tensor:
#      x y z
#    x 1.724610 0.000000 0.000000 
#    y 0.000000 1.739400 0.000000 
#    z 0.000000 0.000000 1.712750 
# 
# From -- ./inp_files/24352.got.cif
#   From: 2010.03.12/outbox.cif.g09.slc.cpg/sg59_13_cif.got.tgz:24352.got - 2010.04.16 16:29:54.
