data_PCOD8244724
_publ_section_title
;
Structure prediction by ZEFSAII (Michael W. Deem and Ramdas Pophale) SiO2 
 PCOD8244724
Probable space group: P M M N
;
_chemical_formula_sum "Si O2"
_cell_formula_units_Z 64
_cell_length_a 24.190437
_cell_length_b 20.214753
_cell_length_c 6.690317
_cell_angle_alpha 90.000000
_cell_angle_beta 90.000000
_cell_angle_gamma 90.000000
_cell_volume 3271.589827
_symmetry_space_group_name_H-M "P M M N"
_symmetry_group_IT_number 59
_space_group.IT_coordinate_system_code '2'
_symmetry_cell_setting 'orthorhombic'
loop_
_space_group_symop_operation_xyz
x,y,z
1/2-x,1/2-y,z
1/2+x,-y,-z
-x,1/2+y,-z
-x,-y,-z
1/2+x,1/2+y,-z
1/2-x,y,z
x,1/2-y,z
loop_
_atom_site_type_symbol
_atom_site_label
_atom_site_fract_x
_atom_site_fract_y
_atom_site_fract_z
Si Si1 0.019891 0.178380 0.833093
Si Si2 0.452634 0.629085 0.813026
Si Si3 0.814975 0.559237 0.962405
Si Si4 0.685403 0.825558 0.654600
Si Si5 0.388528 0.557973 0.134250
Si Si6 0.119620 0.395320 0.670152
Si Si7 0.084340 0.675326 0.407075
Si Si8 0.541794 0.961828 0.632044
O O1 0.047750 0.250000 0.825958
O O2 0.070573 0.128148 0.817976
O O3 0.980361 0.166276 0.643790
O O4 0.978424 0.177187 0.021539
O O5 0.415390 0.664969 0.645683
O O6 0.509009 0.597751 0.730773
O O7 0.407658 0.580848 0.914703
O O8 0.750000 0.556863 0.977958
O O9 0.838520 0.566158 0.186181
O O10 0.833765 0.621898 0.824998
O O11 0.834241 0.488323 0.873652
O O12 0.750000 0.835299 0.608199
O O13 0.673408 0.750000 0.726981
O O14 0.652172 0.837431 0.447940
O O15 0.379344 0.620410 0.286486
O O16 0.439321 0.512411 0.199339
O O17 0.094998 0.442161 0.498935
O O18 0.105680 0.750000 0.356953
O O19 0.500000 0.000000 0.500000
#
# Coordination Sequence:
#
# PCOD8244724 Si02
#       8
#     8   8   8   8   8   8   8   8
#     4  10  21  34  52  84 123 163 201 236 284 352
#     4  11  20  36  56  86 122 161 194 240 294 354
#     4  11  25  43  63  89 116 152 206 261 307 354
#     4  10  23  43  63  83 114 159 210 262 308 349
#     4  11  22  38  62  88 118 156 201 247 303 358
#     4  12  22  38  57  86 120 160 204 249 296 346
#     4  10  21  38  58  87 123 160 197 236 296 374
#     4  12  20  35  55  86 120 156 194 236 286 353
#
# _framework density 19.562355
#
# number of rings (size 3 to 8) (size 9 to 14) (size 15 to 20)
#    0.000    1.125    3.750    3.750    0.000    1.500 
#    0.000    1.250    0.000    0.375    0.000    0.000 
#    0.000    0.000    0.000    0.000    0.000    0.000 
#
# Total GULP energy -793173.499236 kJ/mol
# GULP energy per Si atom -12393.335926 kJ/mol
# Density = 1.951783 g / cm^3
# Si number density = 19.562355 Si / 1000 Ang^3
#
#
#
# Elastic Constant Matrix: (Units=GPa)
#
#
# Indices 1 2 3 4 5 6 
#
# 1 63.7385 39.8913 34.1862 0.0000 0.0000 0.0000
# 2 39.8913 124.4642 47.3786 0.0000 0.0000 0.0000
# 3 34.1862 47.3786 104.5176 0.0000 0.0000 0.0000
# 4 0.0000 0.0000 0.0000 24.2632 0.0000 0.0000
# 5 0.0000 0.0000 0.0000 0.0000 25.3572 0.0000
# 6 0.0000 0.0000 0.0000 0.0000 0.0000 31.6680
#
#
#
# Elastic Compliance Matrix: (Units=1/GPa)
#
#
# Indices 1 2 3 4 5 6 
#
# 1 0.021377 -0.005064 -0.004697 0.000000 0.000000 0.000000
# 2 -0.005064 0.010909 -0.003289 0.000000 0.000000 0.000000
# 3 -0.004697 -0.003289 0.012595 0.000000 0.000000 0.000000
# 4 0.000000 0.000000 0.000000 0.041215 0.000000 0.000000
# 5 0.000000 0.000000 0.000000 0.000000 0.039436 0.000000
# 6 0.000000 0.000000 0.000000 0.000000 0.000000 0.031578
#
#
# Mechanical properties :
#
#
# Convention : Reuss Voigt Hill
#
# Bulk Modulus (GPa) = 53.24061 59.51473 56.37767
# Shear Modulus (GPa) = 26.38933 27.67530 27.03231
#
# Velocity S-wave (km/s) = 3.67684 3.76536 3.72136
# Velocity P-wave (km/s) = 6.73056 7.02802 6.88090
#
# Compressibility (1/GPa) = 0.01878266
#
# Stress axis : x y z
#
# Youngs Moduli (GPa) = 46.77844 91.66426 79.39670
#
# Poissons Ratio (x) = 0.46416 0.37291
# Poissons Ratio (y) = 0.23687 0.26114
# Poissons Ratio (z) = 0.21971 0.30149
#
# Static dielectric constant tensor:
#      x y z
#    x 3.210670 0.000000 0.000000 
#    y 0.000000 3.689220 0.000000 
#    z 0.000000 0.000000 3.670100 
# 
# 
# High freq. dielectric constant tensor:
#      x y z
#    x 1.726910 0.000000 0.000000 
#    y 0.000000 1.765320 0.000000 
#    z 0.000000 0.000000 1.775180 
# 
# From -- ./inp_files/4328.got.cif
#   From: 2010.03.12/outbox.cif.g09.slc.cpg/sg59_3_cif.got.tgz:4328.got - 2010.04.16 16:29:54.
