data_PCOD8244377
_publ_section_title
;
Structure prediction by ZEFSAII (Michael W. Deem and Ramdas Pophale) SiO2 
 PCOD8244377
Probable space group: P M M N
;
_chemical_formula_sum "Si O2"
_cell_formula_units_Z 48
_cell_length_a 10.158115
_cell_length_b 8.823858
_cell_length_c 28.897672
_cell_angle_alpha 90.000000
_cell_angle_beta 90.000000
_cell_angle_gamma 90.000000
_cell_volume 2590.207121
_symmetry_space_group_name_H-M "P M M N"
_symmetry_group_IT_number 59
_space_group.IT_coordinate_system_code '2'
_symmetry_cell_setting 'orthorhombic'
loop_
_space_group_symop_operation_xyz
x,y,z
1/2-x,1/2-y,z
1/2+x,-y,-z
-x,1/2+y,-z
-x,-y,-z
1/2+x,1/2+y,-z
1/2-x,y,z
x,1/2-y,z
loop_
_atom_site_type_symbol
_atom_site_label
_atom_site_fract_x
_atom_site_fract_y
_atom_site_fract_z
Si Si1 0.400779 0.926808 0.290255
Si Si2 0.250000 0.929724 0.943283
Si Si3 0.896051 0.072046 0.466064
Si Si4 0.097002 0.073868 0.194214
Si Si5 0.750000 0.070355 0.952263
Si Si6 0.999348 0.929389 0.104330
Si Si7 0.901753 0.073676 0.360214
O O1 0.250000 0.966816 0.304190
O O2 0.415007 0.750000 0.279500
O O3 0.444347 0.019154 0.244987
O O4 0.498870 0.972009 0.331021
O O5 0.250000 0.750000 0.943328
O O6 0.375005 0.989635 0.916709
O O7 0.250000 0.994049 0.995659
O O8 0.750000 0.011243 0.478436
O O9 0.900228 0.250000 0.472717
O O10 0.929547 0.029993 0.413305
O O11 0.000000 0.000000 0.500000
O O12 0.250000 0.040109 0.185538
O O13 0.062867 0.250000 0.189172
O O14 0.013695 0.978542 0.157438
O O15 0.750000 0.250000 0.952567
O O16 0.622689 0.010042 0.925277
O O17 0.982647 0.750000 0.101526
O O18 0.750000 0.037174 0.347272
O O19 0.931448 0.250000 0.351203
#
# Coordination Sequence:
#
# PCOD8244377 Si02
#       7
#     8   4   8   8   4   8   8
#     4  10  21  36  56  83 112 142 179 227 277 329
#     4  11  23  39  55  83 119 149 185 229 272 327
#     4   9  19  35  54  78 110 147 187 231 277 327
#     4  10  20  36  59  85 110 142 184 228 275 331
#     4   9  20  37  61  85 111 147 187 227 276 329
#     4  11  21  38  60  84 113 148 184 228 280 329
#     4   9  19  37  57  78 109 148 187 228 277 330
#
# _framework density 18.531337000000001
#
# number of rings (size 3 to 8) (size 9 to 14) (size 15 to 20)
#    0.000    2.167    0.833    3.250    0.000    3.667 
#    1.500    7.500    0.000    0.000    0.000    0.000 
#    0.000    0.000    0.000    0.000    0.000    0.000 
#
# Total GULP energy -595302.254714 kJ/mol
# GULP energy per Si atom -12402.130307 kJ/mol
# Density = 1.848916 g / cm^3
# Si number density = 18.531337 Si / 1000 Ang^3
#
#
#
# Elastic Constant Matrix: (Units=GPa)
#
#
# Indices 1 2 3 4 5 6 
#
# 1 122.6893 37.6387 73.5348 0.0000 0.0000 0.0000
# 2 37.6387 61.7604 37.8301 0.0000 0.0000 0.0000
# 3 73.5348 37.8301 121.7608 0.0000 0.0000 0.0000
# 4 0.0000 0.0000 0.0000 33.1058 0.0000 0.0000
# 5 0.0000 0.0000 0.0000 0.0000 35.8865 0.0000
# 6 0.0000 0.0000 0.0000 0.0000 0.0000 45.1908
#
#
#
# Elastic Compliance Matrix: (Units=1/GPa)
#
#
# Indices 1 2 3 4 5 6 
#
# 1 0.013531 -0.004002 -0.006928 0.000000 0.000000 0.000000
# 2 -0.004002 0.021181 -0.004164 0.000000 0.000000 0.000000
# 3 -0.006928 -0.004164 0.013691 0.000000 0.000000 0.000000
# 4 0.000000 0.000000 0.000000 0.030206 0.000000 0.000000
# 5 0.000000 0.000000 0.000000 0.000000 0.027866 0.000000
# 6 0.000000 0.000000 0.000000 0.000000 0.000000 0.022128
#
#
# Mechanical properties :
#
#
# Convention : Reuss Voigt Hill
#
# Bulk Modulus (GPa) = 54.90241 67.13530 61.01886
# Shear Modulus (GPa) = 30.32819 33.31707 31.82263
#
# Velocity S-wave (km/s) = 4.04987 4.24474 4.14845
# Velocity P-wave (km/s) = 7.18051 7.76726 7.47964
#
# Compressibility (1/GPa) = 0.01821414
#
# Stress axis : x y z
#
# Youngs Moduli (GPa) = 73.90399 47.21179 73.04286
#
# Poissons Ratio (x) = 0.18896 0.50606
# Poissons Ratio (y) = 0.29580 0.30412
# Poissons Ratio (z) = 0.51203 0.19657
#
# Static dielectric constant tensor:
#      x y z
#    x 3.258260 0.000000 0.000000 
#    y 0.000000 3.313610 0.000000 
#    z 0.000000 0.000000 3.135350 
# 
# 
# High freq. dielectric constant tensor:
#      x y z
#    x 1.718620 0.000000 0.000000 
#    y 0.000000 1.717200 0.000000 
#    z 0.000000 0.000000 1.726950 
# 
# From -- ./inp_files/32974.got.cif
#   From: 2010.03.12/outbox.cif.g09.slc.cpg/sg59_17_cif.got.tgz:32974.got - 2010.04.16 16:29:54.
