data_PCOD8244974
_publ_section_title
;
Structure prediction by ZEFSAII (Michael W. Deem and Ramdas Pophale) SiO2 
 PCOD8244974
Probable space group: P M M N
;
_chemical_formula_sum "Si O2"
_cell_formula_units_Z 48
_cell_length_a 14.584507
_cell_length_b 8.715918
_cell_length_c 19.523754
_cell_angle_alpha 90.000000
_cell_angle_beta 90.000000
_cell_angle_gamma 90.000000
_cell_volume 2481.808204
_symmetry_space_group_name_H-M "P M M N"
_symmetry_group_IT_number 59
_space_group.IT_coordinate_system_code '2'
_symmetry_cell_setting 'orthorhombic'
loop_
_space_group_symop_operation_xyz
x,y,z
1/2-x,1/2-y,z
1/2+x,-y,-z
-x,1/2+y,-z
-x,-y,-z
1/2+x,1/2+y,-z
1/2-x,y,z
x,1/2-y,z
loop_
_atom_site_type_symbol
_atom_site_label
_atom_site_fract_x
_atom_site_fract_y
_atom_site_fract_z
Si Si1 0.750000 0.073484 0.881941
Si Si2 0.750000 0.569414 0.027866
Si Si3 0.981048 0.929690 0.676455
Si Si4 0.941401 0.069202 0.061584
Si Si5 0.646457 0.930854 0.553744
Si Si6 0.055471 0.927693 0.179519
Si Si7 0.852294 0.428631 0.413710
O O1 0.750000 0.250000 0.907042
O O2 0.661295 0.035766 0.836675
O O3 0.750000 0.964476 0.947364
O O4 0.750000 0.750000 0.039777
O O5 0.660599 0.498290 0.063259
O O6 0.966240 0.750000 0.692844
O O7 0.913100 0.989586 0.617350
O O8 0.084318 0.964617 0.651511
O O9 0.962226 0.030876 0.742399
O O10 0.935770 0.250000 0.050839
O O11 0.989662 0.030724 0.132963
O O12 0.000000 0.000000 0.000000
O O13 0.750000 0.990411 0.564626
O O14 0.641206 0.750000 0.550060
O O15 0.607289 0.993450 0.482011
O O16 0.032801 0.750000 0.166183
O O17 0.750000 0.489747 0.396804
O O18 0.852073 0.250000 0.429466
#
# Coordination Sequence:
#
# PCOD8244974 Si02
#       7
#     4   4   8   8   8   8   8
#     4  10  22  40  62  88 122 157 194 245 302 354
#     4  12  24  40  68  98 122 159 204 249 302 358
#     4  10  21  36  54  79 113 152 192 235 293 355
#     4  12  24  42  66  94 126 161 203 251 300 356
#     4   9  18  32  52  80 110 142 184 238 291 347
#     4  11  24  41  61  88 122 158 199 246 298 361
#     4   9  18  34  55  78 106 144 190 240 289 346
#
# _framework density 19.340737000000001
#
# number of rings (size 3 to 8) (size 9 to 14) (size 15 to 20)
#    0.000    1.667    1.667    3.250    1.167    2.000 
#    1.500    0.000    0.000    0.000    0.000    0.000 
#    0.000    0.000    0.000    0.000    0.000    0.000 
#
# Total GULP energy -595364.154935 kJ/mol
# GULP energy per Si atom -12403.419894 kJ/mol
# Density = 1.929672 g / cm^3
# Si number density = 19.340737 Si / 1000 Ang^3
#
#
#
# Elastic Constant Matrix: (Units=GPa)
#
#
# Indices 1 2 3 4 5 6 
#
# 1 135.6229 48.2626 57.2794 0.0000 0.0000 0.0000
# 2 48.2626 87.5092 35.5134 0.0000 0.0000 0.0000
# 3 57.2794 35.5134 108.5811 0.0000 0.0000 0.0000
# 4 0.0000 0.0000 0.0000 36.9444 0.0000 0.0000
# 5 0.0000 0.0000 0.0000 0.0000 25.7975 0.0000
# 6 0.0000 0.0000 0.0000 0.0000 0.0000 25.3585
#
#
#
# Elastic Compliance Matrix: (Units=1/GPa)
#
#
# Indices 1 2 3 4 5 6 
#
# 1 0.010648 -0.004143 -0.004262 0.000000 0.000000 0.000000
# 2 -0.004143 0.014788 -0.002651 0.000000 0.000000 0.000000
# 3 -0.004262 -0.002651 0.012325 0.000000 0.000000 0.000000
# 4 0.000000 0.000000 0.000000 0.027068 0.000000 0.000000
# 5 0.000000 0.000000 0.000000 0.000000 0.038763 0.000000
# 6 0.000000 0.000000 0.000000 0.000000 0.000000 0.039435
#
#
# Mechanical properties :
#
#
# Convention : Reuss Voigt Hill
#
# Bulk Modulus (GPa) = 63.90220 68.20266 66.05243
# Shear Modulus (GPa) = 29.35050 30.33059 29.84054
#
# Velocity S-wave (km/s) = 3.89980 3.96438 3.93222
# Velocity P-wave (km/s) = 7.30683 7.50302 7.40558
#
# Compressibility (1/GPa) = 0.01564891
#
# Stress axis : x y z
#
# Youngs Moduli (GPa) = 93.91768 67.62187 81.13480
#
# Poissons Ratio (x) = 0.28014 0.34579
# Poissons Ratio (y) = 0.38907 0.21511
# Poissons Ratio (z) = 0.40027 0.17929
#
# Static dielectric constant tensor:
#      x y z
#    x 4.053610 0.000000 0.000000 
#    y 0.000000 3.540260 0.000000 
#    z 0.000000 0.000000 3.432560 
# 
# 
# High freq. dielectric constant tensor:
#      x y z
#    x 1.768390 0.000000 0.000000 
#    y 0.000000 1.750950 0.000000 
#    z 0.000000 0.000000 1.745990 
# 
# From -- ./inp_files/27451.got.cif
#   From: 2010.03.12/outbox.cif.g09.slc.cpg/sg59_14_cif.got.tgz:27451.got - 2010.04.16 16:29:54.
