data_PCOD8244394
_publ_section_title
;
Structure prediction by ZEFSAII (Michael W. Deem and Ramdas Pophale) SiO2 
 PCOD8244394
Probable space group: P M M N
;
_chemical_formula_sum "Si O2"
_cell_formula_units_Z 64
_cell_length_a 22.615079
_cell_length_b 8.910369
_cell_length_c 16.477410
_cell_angle_alpha 90.000000
_cell_angle_beta 90.000000
_cell_angle_gamma 90.000000
_cell_volume 3320.341450
_symmetry_space_group_name_H-M "P M M N"
_symmetry_group_IT_number 59
_space_group.IT_coordinate_system_code '2'
_symmetry_cell_setting 'orthorhombic'
loop_
_space_group_symop_operation_xyz
x,y,z
1/2-x,1/2-y,z
1/2+x,-y,-z
-x,1/2+y,-z
-x,-y,-z
1/2+x,1/2+y,-z
1/2-x,y,z
x,1/2-y,z
loop_
_atom_site_type_symbol
_atom_site_label
_atom_site_fract_x
_atom_site_fract_y
_atom_site_fract_z
Si Si1 0.817903 0.923767 0.398922
Si Si2 0.316448 0.413849 0.295895
Si Si3 0.138150 0.572824 0.438467
Si Si4 0.973688 0.576163 0.119505
Si Si5 0.928162 0.923347 0.294530
Si Si6 0.916520 0.575339 0.950583
Si Si7 0.517328 0.572216 0.584275
Si Si8 0.318856 0.924055 0.138956
O O1 0.750000 0.972972 0.379886
O O2 0.819564 0.750000 0.425057
O O3 0.859571 0.952539 0.320371
O O4 0.845454 0.019796 0.471713
O O5 0.250000 0.385090 0.268937
O O6 0.346790 0.250000 0.311693
O O7 0.312264 0.519824 0.375498
O O8 0.346010 0.498896 0.220006
O O9 0.129193 0.750000 0.440689
O O10 0.081924 0.491578 0.397202
O O11 0.991768 0.750000 0.119534
O O12 0.936930 0.533596 0.200382
O O13 0.033764 0.481534 0.112667
O O14 0.932759 0.536855 0.043055
O O15 0.944630 0.750000 0.310702
O O16 0.971562 0.026479 0.346493
O O17 0.907592 0.750000 0.935752
O O18 0.854695 0.491392 0.936520
O O19 0.500000 0.500000 0.500000
O O20 0.517913 0.750000 0.575611
O O21 0.250000 0.955934 0.123739
O O22 0.331957 0.750000 0.147860
#
# Coordination Sequence:
#
# PCOD8244394 Si02
#       8
#     8   8   8   8   8   8   8   8
#     4  10  21  38  60  83 111 150 194 241 290 338
#     4  10  21  37  56  80 112 149 191 237 282 334
#     4  12  24  37  56  82 113 152 193 235 283 338
#     4   9  20  38  60  86 116 151 191 237 287 345
#     4  10  21  39  61  85 116 151 191 238 288 344
#     4  10  20  36  59  87 117 150 189 236 289 346
#     4  12  24  39  58  83 115 150 188 235 286 337
#     4  10  21  37  57  82 115 154 193 236 289 349
#
# _framework density 19.275126
#
# number of rings (size 3 to 8) (size 9 to 14) (size 15 to 20)
#    0.000    1.625    1.250    3.750    1.750    4.250 
#    0.000    0.625    0.000    2.250    0.000    0.000 
#    0.000    0.000    0.000    0.000    0.000    0.000 
#
# Total GULP energy -793499.160641 kJ/mol
# GULP energy per Si atom -12398.424385 kJ/mol
# Density = 1.923126 g / cm^3
# Si number density = 19.275126 Si / 1000 Ang^3
#
#
#
# Elastic Constant Matrix: (Units=GPa)
#
#
# Indices 1 2 3 4 5 6 
#
# 1 101.8382 58.8399 57.0307 0.0000 0.0000 0.0000
# 2 58.8399 128.2045 55.4433 0.0000 0.0000 0.0000
# 3 57.0307 55.4433 118.1473 0.0000 0.0000 0.0000
# 4 0.0000 0.0000 0.0000 28.8285 0.0000 0.0000
# 5 0.0000 0.0000 0.0000 0.0000 27.6427 0.0000
# 6 0.0000 0.0000 0.0000 0.0000 0.0000 29.8042
#
#
#
# Elastic Compliance Matrix: (Units=1/GPa)
#
#
# Indices 1 2 3 4 5 6 
#
# 1 0.015567 -0.004886 -0.005221 0.000000 0.000000 0.000000
# 2 -0.004886 0.011320 -0.002953 0.000000 0.000000 0.000000
# 3 -0.005221 -0.002953 0.012370 0.000000 0.000000 0.000000
# 4 0.000000 0.000000 0.000000 0.034688 0.000000 0.000000
# 5 0.000000 0.000000 0.000000 0.000000 0.036176 0.000000
# 6 0.000000 0.000000 0.000000 0.000000 0.000000 0.033552
#
#
# Mechanical properties :
#
#
# Convention : Reuss Voigt Hill
#
# Bulk Modulus (GPa) = 76.13287 76.75754 76.44521
# Shear Modulus (GPa) = 28.70707 29.04682 28.87695
#
# Velocity S-wave (km/s) = 3.86337 3.88617 3.87479
# Velocity P-wave (km/s) = 7.71263 7.74887 7.73077
#
# Compressibility (1/GPa) = 0.01313493
#
# Stress axis : x y z
#
# Youngs Moduli (GPa) = 64.23988 88.33985 80.83934
#
# Poissons Ratio (x) = 0.43167 0.42207
# Poissons Ratio (y) = 0.31391 0.23875
# Poissons Ratio (z) = 0.33540 0.26090
#
# Static dielectric constant tensor:
#      x y z
#    x 2.872480 0.000000 0.000000 
#    y 0.000000 3.634870 0.000000 
#    z 0.000000 0.000000 3.776950 
# 
# 
# High freq. dielectric constant tensor:
#      x y z
#    x 1.748960 0.000000 0.000000 
#    y 0.000000 1.758670 0.000000 
#    z 0.000000 0.000000 1.741750 
# 
# From -- ./inp_files/24791.got.cif
#   From: 2010.03.12/outbox.cif.g09.slc.cpg/sg59_13_cif.got.tgz:24791.got - 2010.04.16 16:29:54.
