data_PCOD8244995
_publ_section_title
;
Structure prediction by ZEFSAII (Michael W. Deem and Ramdas Pophale) SiO2 
 PCOD8244995
Probable space group: P M M N
;
_chemical_formula_sum "Si O2"
_cell_formula_units_Z 64
_cell_length_a 9.001130
_cell_length_b 14.452678
_cell_length_c 25.207664
_cell_angle_alpha 90.000000
_cell_angle_beta 90.000000
_cell_angle_gamma 90.000000
_cell_volume 3279.275938
_symmetry_space_group_name_H-M "P M M N"
_symmetry_group_IT_number 59
_space_group.IT_coordinate_system_code '2'
_symmetry_cell_setting 'orthorhombic'
loop_
_space_group_symop_operation_xyz
x,y,z
1/2-x,1/2-y,z
1/2+x,-y,-z
-x,1/2+y,-z
-x,-y,-z
1/2+x,1/2+y,-z
1/2-x,y,z
x,1/2-y,z
loop_
_atom_site_type_symbol
_atom_site_label
_atom_site_fract_x
_atom_site_fract_y
_atom_site_fract_z
Si Si1 0.427169 0.644469 0.731284
Si Si2 0.079806 0.857232 0.524990
Si Si3 0.424993 0.352521 0.583609
Si Si4 0.424654 0.523210 0.830004
Si Si5 0.416753 0.148901 0.092925
Si Si6 0.577849 0.354779 0.873178
Si Si7 0.919457 0.909736 0.020444
Si Si8 0.574140 0.459743 0.371768
O O1 0.250000 0.646077 0.730518
O O2 0.488050 0.750000 0.733112
O O3 0.484488 0.586644 0.781939
O O4 0.492736 0.591360 0.679755
O O5 0.250000 0.884858 0.514659
O O6 0.063661 0.750000 0.538915
O O7 0.011842 0.912408 0.574891
O O8 0.989203 0.883952 0.472771
O O9 0.250000 0.349186 0.576754
O O10 0.484920 0.250000 0.600522
O O11 0.469324 0.430624 0.627143
O O12 0.250000 0.508202 0.826345
O O13 0.466986 0.573989 0.884961
O O14 0.502230 0.422675 0.829926
O O15 0.250000 0.118220 0.109599
O O16 0.454794 0.250000 0.116763
O O17 0.425856 0.159141 0.029481
O O18 0.750000 0.380704 0.878889
O O19 0.556244 0.250000 0.852653
O O20 0.503168 0.364128 0.930483
O O21 0.750000 0.930986 0.037695
O O22 0.000000 0.000000 0.000000
O O23 0.750000 0.446927 0.370341
#
# Coordination Sequence:
#
# PCOD8244995 Si02
#       8
#     8   8   8   8   8   8   8   8
#     4   9  18  33  53  79 107 132 166 217 271 318
#     4   9  16  26  44  70  97 129 169 209 251 304
#     4   9  17  28  43  67 100 135 168 205 252 305
#     4  11  22  36  57  82 107 136 174 225 277 323
#     4  10  21  36  55  79 110 146 178 211 258 317
#     4  11  24  41  60  81 109 147 186 223 266 319
#     4  11  21  35  57  85 116 149 182 218 264 316
#     4   9  16  28  47  70  98 133 171 211 257 309
#
# _framework density 19.516504000000001
#
# number of rings (size 3 to 8) (size 9 to 14) (size 15 to 20)
#    0.000    2.125    1.250    2.625    0.000    4.250 
#    0.000    0.625    0.000    5.250    0.000    3.500 
#    0.000    0.000    0.000    0.000    0.000    0.000 
#
# Total GULP energy -793384.074904 kJ/mol
# GULP energy per Si atom -12396.626170 kJ/mol
# Density = 1.947208 g / cm^3
# Si number density = 19.516504 Si / 1000 Ang^3
#
#
#
# Elastic Constant Matrix: (Units=GPa)
#
#
# Indices 1 2 3 4 5 6 
#
# 1 63.7593 42.8947 23.8131 0.0000 0.0000 0.0000
# 2 42.8947 144.0887 67.4081 0.0000 0.0000 0.0000
# 3 23.8131 67.4081 97.6919 0.0000 0.0000 0.0000
# 4 0.0000 0.0000 0.0000 34.8640 0.0000 0.0000
# 5 0.0000 0.0000 0.0000 0.0000 19.3577 0.0000
# 6 0.0000 0.0000 0.0000 0.0000 0.0000 23.7295
#
#
#
# Elastic Compliance Matrix: (Units=1/GPa)
#
#
# Indices 1 2 3 4 5 6 
#
# 1 0.019694 -0.005341 -0.001115 0.000000 0.000000 0.000000
# 2 -0.005341 0.011697 -0.006769 0.000000 0.000000 0.000000
# 3 -0.001115 -0.006769 0.015179 0.000000 0.000000 0.000000
# 4 0.000000 0.000000 0.000000 0.028683 0.000000 0.000000
# 5 0.000000 0.000000 0.000000 0.000000 0.051659 0.000000
# 6 0.000000 0.000000 0.000000 0.000000 0.000000 0.042142
#
#
# Mechanical properties :
#
#
# Convention : Reuss Voigt Hill
#
# Bulk Modulus (GPa) = 49.70435 63.75243 56.72839
# Shear Modulus (GPa) = 24.72682 27.01850 25.87266
#
# Velocity S-wave (km/s) = 3.56331 3.72478 3.64494
# Velocity P-wave (km/s) = 6.51558 7.15789 6.84428
#
# Compressibility (1/GPa) = 0.02011896
#
# Stress axis : x y z
#
# Youngs Moduli (GPa) = 50.77757 85.49278 65.88158
#
# Poissons Ratio (x) = 0.45662 0.07347
# Poissons Ratio (y) = 0.27121 0.44595
# Poissons Ratio (z) = 0.05662 0.57870
#
# Static dielectric constant tensor:
#      x y z
#    x 3.335250 0.000000 0.000000 
#    y 0.000000 3.835630 0.000000 
#    z 0.000000 0.000000 3.650350 
# 
# 
# High freq. dielectric constant tensor:
#      x y z
#    x 1.731470 0.000000 0.000000 
#    y 0.000000 1.778810 0.000000 
#    z 0.000000 0.000000 1.738860 
# 
# From -- ./inp_files/31669.got.cif
#   From: 2010.03.12/outbox.cif.g09.slc.cpg/sg59_16_cif.got.tgz:31669.got - 2010.04.16 16:29:54.
