data_PCOD8244482
_publ_section_title
;
Structure prediction by ZEFSAII (Michael W. Deem and Ramdas Pophale) SiO2 
 PCOD8244482
Probable space group: P M M N
;
_chemical_formula_sum "Si O2"
_cell_formula_units_Z 56
_cell_length_a 26.593922
_cell_length_b 21.784585
_cell_length_c 5.109969
_cell_angle_alpha 90.000000
_cell_angle_beta 90.000000
_cell_angle_gamma 90.000000
_cell_volume 2960.396943
_symmetry_space_group_name_H-M "P M M N"
_symmetry_group_IT_number 59
_space_group.IT_coordinate_system_code '2'
_symmetry_cell_setting 'orthorhombic'
loop_
_space_group_symop_operation_xyz
x,y,z
1/2-x,1/2-y,z
1/2+x,-y,-z
-x,1/2+y,-z
-x,-y,-z
1/2+x,1/2+y,-z
1/2-x,y,z
x,1/2-y,z
loop_
_atom_site_type_symbol
_atom_site_label
_atom_site_fract_x
_atom_site_fract_y
_atom_site_fract_z
Si Si1 0.306496 0.972357 0.376075
Si Si2 0.406358 0.467152 0.458895
Si Si3 0.454868 0.910600 0.369089
Si Si4 0.193596 0.607638 0.877980
Si Si5 0.895274 0.317674 0.935196
Si Si6 0.996891 0.317960 0.245590
Si Si7 0.546270 0.912958 0.056290
O O1 0.250000 0.999974 0.392463
O O2 0.313184 0.918662 0.588133
O O3 0.346203 0.026748 0.430153
O O4 0.317468 0.945710 0.088561
O O5 0.431463 0.533214 0.533945
O O6 0.429901 0.449736 0.182067
O O7 0.417174 0.419298 0.692041
O O8 0.407935 0.868483 0.283206
O O9 0.495227 0.869243 0.527854
O O10 0.489505 0.936656 0.130240
O O11 0.250000 0.633285 0.918874
O O12 0.155300 0.663808 0.912979
O O13 0.887702 0.250000 0.807968
O O14 0.940899 0.314670 0.135860
O O15 0.012998 0.250000 0.345396
O O16 0.037918 0.341517 0.031744
#
# Coordination Sequence:
#
# PCOD8244482 Si02
#       7
#     8   8   8   8   8   8   8
#     4  10  21  37  58  80 107 145 181 221 282 340
#     4  12  22  35  58  82 116 140 181 231 279 330
#     4  11  21  35  56  77 114 150 187 226 278 330
#     4  10  20  37  55  76 104 142 191 238 283 322
#     4  10  21  34  52  78 105 148 200 239 278 321
#     4  10  22  39  56  77 113 152 189 226 269 332
#     4  11  24  36  54  86 110 146 181 226 276 327
#
# _framework density 18.916383
#
# number of rings (size 3 to 8) (size 9 to 14) (size 15 to 20)
#    0.000    1.429    2.857    3.000    4.000    0.857 
#    0.000    0.000    0.000    2.571    0.000    0.000 
#    0.000    3.429    0.000    0.000    0.000    0.000 
#
# Total GULP energy -694048.046796 kJ/mol
# GULP energy per Si atom -12393.715121 kJ/mol
# Density = 1.887333 g / cm^3
# Si number density = 18.916383 Si / 1000 Ang^3
#
#
#
# Elastic Constant Matrix: (Units=GPa)
#
#
# Indices 1 2 3 4 5 6 
#
# 1 106.7004 57.9446 20.4160 0.0000 0.0000 0.0000
# 2 57.9446 62.9076 24.6732 0.0000 0.0000 0.0000
# 3 20.4160 24.6732 77.8273 0.0000 0.0000 0.0000
# 4 0.0000 0.0000 0.0000 19.4570 0.0000 0.0000
# 5 0.0000 0.0000 0.0000 0.0000 20.9085 0.0000
# 6 0.0000 0.0000 0.0000 0.0000 0.0000 20.7786
#
#
#
# Elastic Compliance Matrix: (Units=1/GPa)
#
#
# Indices 1 2 3 4 5 6 
#
# 1 0.018780 -0.017548 0.000637 0.000000 0.000000 0.000000
# 2 -0.017548 0.034550 -0.006350 0.000000 0.000000 0.000000
# 3 0.000637 -0.006350 0.014695 0.000000 0.000000 0.000000
# 4 0.000000 0.000000 0.000000 0.051395 0.000000 0.000000
# 5 0.000000 0.000000 0.000000 0.000000 0.047827 0.000000
# 6 0.000000 0.000000 0.000000 0.000000 0.000000 0.048127
#
#
# Mechanical properties :
#
#
# Convention : Reuss Voigt Hill
#
# Bulk Modulus (GPa) = 46.50576 50.38920 48.44748
# Shear Modulus (GPa) = 18.58294 21.85560 20.21927
#
# Velocity S-wave (km/s) = 3.13768 3.40278 3.27291
# Velocity P-wave (km/s) = 6.14533 6.49109 6.32057
#
# Compressibility (1/GPa) = 0.02150271
#
# Stress axis : x y z
#
# Youngs Moduli (GPa) = 53.24899 28.94333 68.05007
#
# Poissons Ratio (x) = 0.50789 -0.04333
# Poissons Ratio (y) = 0.93440 0.43212
# Poissons Ratio (z) = -0.03390 0.18379
#
# Static dielectric constant tensor:
#      x y z
#    x 3.581640 0.000000 0.000000 
#    y 0.000000 3.435940 0.000000 
#    z 0.000000 0.000000 3.543460 
# 
# 
# High freq. dielectric constant tensor:
#      x y z
#    x 1.722610 0.000000 0.000000 
#    y 0.000000 1.699700 0.000000 
#    z 0.000000 0.000000 1.746370 
# 
# From -- ./inp_files/4296.got.cif
#   From: 2010.03.12/outbox.cif.g09.slc.cpg/sg59_3_cif.got.tgz:4296.got - 2010.04.16 16:29:54.
