data_PCOD8244474
_publ_section_title
;
Structure prediction by ZEFSAII (Michael W. Deem and Ramdas Pophale) SiO2 
 PCOD8244474
Probable space group: P M M N
;
_chemical_formula_sum "Si O2"
_cell_formula_units_Z 64
_cell_length_a 8.636297
_cell_length_b 30.568952
_cell_length_c 11.974746
_cell_angle_alpha 90.000000
_cell_angle_beta 90.000000
_cell_angle_gamma 90.000000
_cell_volume 3161.363461
_symmetry_space_group_name_H-M "P M M N"
_symmetry_group_IT_number 59
_space_group.IT_coordinate_system_code '2'
_symmetry_cell_setting 'orthorhombic'
loop_
_space_group_symop_operation_xyz
x,y,z
1/2-x,1/2-y,z
1/2+x,-y,-z
-x,1/2+y,-z
-x,-y,-z
1/2+x,1/2+y,-z
1/2-x,y,z
x,1/2-y,z
loop_
_atom_site_type_symbol
_atom_site_label
_atom_site_fract_x
_atom_site_fract_y
_atom_site_fract_z
Si Si1 0.925660 0.177745 0.737228
Si Si2 0.569204 0.547896 0.496632
Si Si3 0.434310 0.798837 0.502920
Si Si4 0.930541 0.875947 0.890999
Si Si5 0.573383 0.076443 0.728524
Si Si6 0.070327 0.701056 0.025230
Si Si7 0.067728 0.620695 0.649053
Si Si8 0.066945 0.456004 0.950639
O O1 0.750000 0.193533 0.726180
O O2 0.006623 0.191882 0.620742
O O3 0.939199 0.126660 0.760992
O O4 0.996142 0.200532 0.847508
O O5 0.500000 0.500000 0.500000
O O6 0.750000 0.544455 0.514299
O O7 0.531040 0.569739 0.379234
O O8 0.502576 0.577136 0.596184
O O9 0.250000 0.802950 0.498592
O O10 0.484505 0.750000 0.541850
O O11 0.498891 0.835337 0.588828
O O12 0.750000 0.878547 0.862284
O O13 0.027812 0.878662 0.778493
O O14 0.982084 0.915540 0.971188
O O15 0.967359 0.830066 0.949123
O O16 0.750000 0.062565 0.702748
O O17 0.508542 0.048002 0.829405
O O18 0.250000 0.685541 0.023237
O O19 0.054248 0.750000 0.977278
O O20 0.250000 0.618522 0.632586
O O21 0.250000 0.458914 0.937626
O O22 0.000000 0.500000 0.000000
#
# Coordination Sequence:
#
# PCOD8244474 Si02
#       8
#     8   8   8   8   8   8   8   8
#     4   9  16  31  58  92 126 156 194 249 307 358
#     4  12  26  44  66  93 127 165 208 255 310 372
#     4   9  17  32  58  92 124 155 197 250 304 359
#     4  11  25  43  61  86 123 167 210 257 316 376
#     4  11  21  39  67  96 127 162 204 255 313 369
#     4  10  20  36  62  94 123 159 209 259 309 369
#     4  11  23  41  64  92 124 163 211 261 312 367
#     4  11  25  43  64  91 123 163 210 258 313 374
#
# _framework density 20.244429
#
# number of rings (size 3 to 8) (size 9 to 14) (size 15 to 20)
#    0.000    1.500    2.500    3.000    1.750    3.750 
#    0.000    1.250    0.000    1.125    0.000    0.000 
#    0.000    0.000    0.000    0.000    0.000    0.000 
#
# Total GULP energy -793675.499431 kJ/mol
# GULP energy per Si atom -12401.179679 kJ/mol
# Density = 2.019835 g / cm^3
# Si number density = 20.244429 Si / 1000 Ang^3
#
#
#
# Elastic Constant Matrix: (Units=GPa)
#
#
# Indices 1 2 3 4 5 6 
#
# 1 67.9740 35.9889 23.8718 0.0000 0.0000 0.0000
# 2 35.9889 111.0422 32.0531 0.0000 0.0000 0.0000
# 3 23.8718 32.0531 99.7880 0.0000 0.0000 0.0000
# 4 0.0000 0.0000 0.0000 30.7172 0.0000 0.0000
# 5 0.0000 0.0000 0.0000 0.0000 31.9724 0.0000
# 6 0.0000 0.0000 0.0000 0.0000 0.0000 27.1368
#
#
#
# Elastic Compliance Matrix: (Units=1/GPa)
#
#
# Indices 1 2 3 4 5 6 
#
# 1 0.018416 -0.005177 -0.002743 0.000000 0.000000 0.000000
# 2 -0.005177 0.011381 -0.002417 0.000000 0.000000 0.000000
# 3 -0.002743 -0.002417 0.011454 0.000000 0.000000 0.000000
# 4 0.000000 0.000000 0.000000 0.032555 0.000000 0.000000
# 5 0.000000 0.000000 0.000000 0.000000 0.031277 0.000000
# 6 0.000000 0.000000 0.000000 0.000000 0.000000 0.036850
#
#
# Mechanical properties :
#
#
# Convention : Reuss Voigt Hill
#
# Bulk Modulus (GPa) = 48.59793 51.40354 50.00073
# Shear Modulus (GPa) = 29.50452 30.42464 29.96458
#
# Velocity S-wave (km/s) = 3.82175 3.88089 3.85143
# Velocity P-wave (km/s) = 6.59788 6.74746 6.67309
#
# Compressibility (1/GPa) = 0.02057701
#
# Stress axis : x y z
#
# Youngs Moduli (GPa) = 54.30192 87.86422 87.30714
#
# Poissons Ratio (x) = 0.45486 0.23945
# Poissons Ratio (y) = 0.28111 0.21105
# Poissons Ratio (z) = 0.14893 0.21240
#
# Static dielectric constant tensor:
#      x y z
#    x 3.191750 0.000000 0.000000 
#    y 0.000000 -1.010700 0.000000 
#    z 0.000000 0.000000 3.802360 
# 
# 
# High freq. dielectric constant tensor:
#      x y z
#    x 1.764840 0.000000 0.000000 
#    y 0.000000 1.804790 0.000000 
#    z 0.000000 0.000000 1.800130 
# 
# From -- ./inp_files/14934.got.cif
#   From: 2010.03.12/outbox.cif.g09.slc.cpg/sg59_8_cif.got.tgz:14934.got - 2010.04.16 16:29:54.
