data_PCOD8244827
_publ_section_title
;
Structure prediction by ZEFSAII (Michael W. Deem and Ramdas Pophale) SiO2 
 PCOD8244827
Probable space group: P M M N
;
_chemical_formula_sum "Si O2"
_cell_formula_units_Z 40
_cell_length_a 13.669327
_cell_length_b 14.695248
_cell_length_c 10.026348
_cell_angle_alpha 90.000000
_cell_angle_beta 90.000000
_cell_angle_gamma 90.000000
_cell_volume 2014.034135
_symmetry_space_group_name_H-M "P M M N"
_symmetry_group_IT_number 59
_space_group.IT_coordinate_system_code '2'
_symmetry_cell_setting 'orthorhombic'
loop_
_space_group_symop_operation_xyz
x,y,z
1/2-x,1/2-y,z
1/2+x,-y,-z
-x,1/2+y,-z
-x,-y,-z
1/2+x,1/2+y,-z
1/2-x,y,z
x,1/2-y,z
loop_
_atom_site_type_symbol
_atom_site_label
_atom_site_fract_x
_atom_site_fract_y
_atom_site_fract_z
Si Si1 0.640152 0.426437 0.260267
Si Si2 0.452324 0.647670 0.480905
Si Si3 0.638516 0.351282 0.974875
Si Si4 0.861982 0.853745 0.644704
Si Si5 0.550358 0.476908 0.763383
O O1 0.750000 0.465298 0.270602
O O2 0.615077 0.367561 0.390282
O O3 0.566488 0.511007 0.244470
O O4 0.627908 0.361145 0.133201
O O5 0.437822 0.750000 0.429581
O O6 0.566401 0.629398 0.518516
O O7 0.416172 0.581702 0.364099
O O8 0.750000 0.366192 0.929418
O O9 0.603069 0.250000 0.936304
O O10 0.573221 0.425877 0.900324
O O11 0.750000 0.870729 0.600296
O O12 0.875419 0.750000 0.698544
O O13 0.893477 0.925465 0.759857
#
# Coordination Sequence:
#
# PCOD8244827 Si02
#       5
#     8   8   8   8   8
#     4  10  21  37  56  78 109 150 188 220 264 325
#     4  10  21  35  54  81 109 139 178 224 272 322
#     4  10  21  37  57  81 110 144 181 225 278 329
#     4   9  18  33  52  75 105 140 176 216 267 328
#     4  11  21  35  56  83 111 139 179 230 277 318
#
# _framework density 19.860636
#
# number of rings (size 3 to 8) (size 9 to 14) (size 15 to 20)
#    0.000    2.000    0.000    4.800    0.000    6.000 
#    0.000    0.000    0.000    1.800    0.000    2.800 
#    0.000    0.000    0.000    0.000    0.000    0.000 
#
# Total GULP energy -495978.422794 kJ/mol
# GULP energy per Si atom -12399.460570 kJ/mol
# Density = 1.981543 g / cm^3
# Si number density = 19.860636 Si / 1000 Ang^3
#
#
#
# Elastic Constant Matrix: (Units=GPa)
#
#
# Indices 1 2 3 4 5 6 
#
# 1 106.9799 38.3188 38.9661 0.0000 0.0000 0.0000
# 2 38.3188 107.0884 36.8244 0.0000 0.0000 0.0000
# 3 38.9661 36.8244 75.4698 0.0000 0.0000 0.0000
# 4 0.0000 0.0000 0.0000 25.5047 0.0000 0.0000
# 5 0.0000 0.0000 0.0000 0.0000 18.1954 0.0000
# 6 0.0000 0.0000 0.0000 0.0000 0.0000 25.7288
#
#
#
# Elastic Compliance Matrix: (Units=1/GPa)
#
#
# Indices 1 2 3 4 5 6 
#
# 1 0.012095 -0.002620 -0.004966 0.000000 0.000000 0.000000
# 2 -0.002620 0.011788 -0.004399 0.000000 0.000000 0.000000
# 3 -0.004966 -0.004399 0.017961 0.000000 0.000000 0.000000
# 4 0.000000 0.000000 0.000000 0.039208 0.000000 0.000000
# 5 0.000000 0.000000 0.000000 0.000000 0.054959 0.000000
# 6 0.000000 0.000000 0.000000 0.000000 0.000000 0.038867
#
#
# Mechanical properties :
#
#
# Convention : Reuss Voigt Hill
#
# Bulk Modulus (GPa) = 55.94991 57.52851 56.73921
# Shear Modulus (GPa) = 24.41312 25.58102 24.99707
#
# Velocity S-wave (km/s) = 3.50983 3.59280 3.55156
# Velocity P-wave (km/s) = 6.68264 6.80000 6.74157
#
# Compressibility (1/GPa) = 0.01787313
#
# Stress axis : x y z
#
# Youngs Moduli (GPa) = 82.67903 84.82953 55.67603
#
# Poissons Ratio (x) = 0.22226 0.27651
# Poissons Ratio (y) = 0.21663 0.24493
# Poissons Ratio (z) = 0.41061 0.37318
#
# Static dielectric constant tensor:
#      x y z
#    x 3.740780 0.000000 0.000000 
#    y 0.000000 3.705690 0.000000 
#    z 0.000000 0.000000 3.341450 
# 
# 
# High freq. dielectric constant tensor:
#      x y z
#    x 1.775040 0.000000 0.000000 
#    y 0.000000 1.778650 0.000000 
#    z 0.000000 0.000000 1.755270 
# 
# From -- ./inp_files/8614.got.cif
#   From: 2010.03.12/outbox.cif.g09.slc.cpg/sg59_5_cif.got.tgz:8614.got - 2010.04.16 16:29:54.
