data_PCOD8244675
_publ_section_title
;
Structure prediction by ZEFSAII (Michael W. Deem and Ramdas Pophale) SiO2 
 PCOD8244675
Probable space group: P M M N
;
_chemical_formula_sum "Si O2"
_cell_formula_units_Z 48
_cell_length_a 18.074771
_cell_length_b 9.134820
_cell_length_c 14.469923
_cell_angle_alpha 90.000000
_cell_angle_beta 90.000000
_cell_angle_gamma 90.000000
_cell_volume 2389.125798
_symmetry_space_group_name_H-M "P M M N"
_symmetry_group_IT_number 59
_space_group.IT_coordinate_system_code '2'
_symmetry_cell_setting 'orthorhombic'
loop_
_space_group_symop_operation_xyz
x,y,z
1/2-x,1/2-y,z
1/2+x,-y,-z
-x,1/2+y,-z
-x,-y,-z
1/2+x,1/2+y,-z
1/2-x,y,z
x,1/2-y,z
loop_
_atom_site_type_symbol
_atom_site_label
_atom_site_fract_x
_atom_site_fract_y
_atom_site_fract_z
Si Si1 0.250000 0.918356 0.513495
Si Si2 0.750000 0.924072 0.292031
Si Si3 0.170731 0.083137 0.179807
Si Si4 0.394244 0.917777 0.756623
Si Si5 0.482563 0.422555 0.094843
Si Si6 0.638572 0.079279 0.647321
Si Si7 0.499487 0.417398 0.404576
O O1 0.250000 0.750000 0.547354
O O2 0.177949 0.950161 0.450930
O O3 0.250000 0.021284 0.602332
O O4 0.750000 0.750000 0.291495
O O5 0.821791 0.981433 0.236482
O O6 0.250000 0.075729 0.124528
O O7 0.154781 0.250000 0.211644
O O8 0.100623 0.026153 0.121475
O O9 0.186186 0.980706 0.268174
O O10 0.372217 0.750000 0.777306
O O11 0.457180 0.971203 0.828375
O O12 0.424117 0.931248 0.651494
O O13 0.485428 0.250000 0.080241
O O14 0.500000 0.500000 0.000000
O O15 0.623282 0.250000 0.659495
O O16 0.563140 0.989756 0.657658
O O17 0.500000 0.500000 0.500000
O O18 0.479973 0.250000 0.424617
#
# Coordination Sequence:
#
# PCOD8244675 Si02
#       7
#     4   4   8   8   8   8   8
#     4  10  22  38  54  81 126 173 208 249 310 370
#     4  12  26  40  60  91 120 157 218 271 308 358
#     4  10  20  38  64  92 125 160 197 247 309 371
#     4  10  22  43  65  83 122 170 206 250 315 382
#     4  10  22  43  68  96 125 163 206 253 319 380
#     4  11  21  34  55  85 121 161 205 251 301 362
#     4  11  22  37  57  85 118 159 208 255 305 372
#
# _framework density 20.091031999999998
#
# number of rings (size 3 to 8) (size 9 to 14) (size 15 to 20)
#    0.000    1.500    2.500    2.750    0.000    8.000 
#    1.500    0.000    0.000    0.000    0.000    0.000 
#    0.000    0.000    0.000    0.000    0.000    0.000 
#
# Total GULP energy -595058.230770 kJ/mol
# GULP energy per Si atom -12397.046474 kJ/mol
# Density = 2.004530 g / cm^3
# Si number density = 20.091032 Si / 1000 Ang^3
#
#
#
# Elastic Constant Matrix: (Units=GPa)
#
#
# Indices 1 2 3 4 5 6 
#
# 1 158.7757 66.2035 53.9398 0.0000 0.0000 0.0000
# 2 66.2035 106.6096 44.9641 0.0000 0.0000 0.0000
# 3 53.9398 44.9641 107.8309 0.0000 0.0000 0.0000
# 4 0.0000 0.0000 0.0000 35.7764 0.0000 0.0000
# 5 0.0000 0.0000 0.0000 0.0000 19.5853 0.0000
# 6 0.0000 0.0000 0.0000 0.0000 0.0000 24.0173
#
#
#
# Elastic Compliance Matrix: (Units=1/GPa)
#
#
# Indices 1 2 3 4 5 6 
#
# 1 0.009087 -0.004521 -0.002660 0.000000 0.000000 0.000000
# 2 -0.004521 0.013631 -0.003422 0.000000 0.000000 0.000000
# 3 -0.002660 -0.003422 0.012032 0.000000 0.000000 0.000000
# 4 0.000000 0.000000 0.000000 0.027951 0.000000 0.000000
# 5 0.000000 0.000000 0.000000 0.000000 0.051059 0.000000
# 6 0.000000 0.000000 0.000000 0.000000 0.000000 0.041637
#
#
# Mechanical properties :
#
#
# Convention : Reuss Voigt Hill
#
# Bulk Modulus (GPa) = 73.84355 78.15900 76.00128
# Shear Modulus (GPa) = 27.60632 29.74973 28.67802
#
# Velocity S-wave (km/s) = 3.71086 3.85222 3.78220
# Velocity P-wave (km/s) = 7.42933 7.66636 7.54877
#
# Compressibility (1/GPa) = 0.01354214
#
# Stress axis : x y z
#
# Youngs Moduli (GPa) = 110.04681 73.36262 83.11379
#
# Poissons Ratio (x) = 0.33166 0.22112
# Poissons Ratio (y) = 0.49751 0.28445
# Poissons Ratio (z) = 0.29277 0.25108
#
# Static dielectric constant tensor:
#      x y z
#    x 3.951380 0.000000 0.000000 
#    y 0.000000 3.561440 0.000000 
#    z 0.000000 0.000000 3.377720 
# 
# 
# High freq. dielectric constant tensor:
#      x y z
#    x 1.804820 0.000000 0.000000 
#    y 0.000000 1.779410 0.000000 
#    z 0.000000 0.000000 1.761110 
# 
# From -- ./inp_files/20498.got.cif
#   From: 2010.03.12/outbox.cif.g09.slc.cpg/sg59_11_cif.got.tgz:20498.got - 2010.04.16 16:29:54.
