data_PCOD8244174
_publ_section_title
;
Structure prediction by ZEFSAII (Michael W. Deem and Ramdas Pophale) SiO2 
 PCOD8244174
Probable space group: P M M N
;
_chemical_formula_sum "Si O2"
_cell_formula_units_Z 48
_cell_length_a 27.651756
_cell_length_b 8.926592
_cell_length_c 9.900207
_cell_angle_alpha 90.000000
_cell_angle_beta 90.000000
_cell_angle_gamma 90.000000
_cell_volume 2443.726940
_symmetry_space_group_name_H-M "P M M N"
_symmetry_group_IT_number 59
_space_group.IT_coordinate_system_code '2'
_symmetry_cell_setting 'orthorhombic'
loop_
_space_group_symop_operation_xyz
x,y,z
1/2-x,1/2-y,z
1/2+x,-y,-z
-x,1/2+y,-z
-x,-y,-z
1/2+x,1/2+y,-z
1/2-x,y,z
x,1/2-y,z
loop_
_atom_site_type_symbol
_atom_site_label
_atom_site_fract_x
_atom_site_fract_y
_atom_site_fract_z
Si Si1 0.695400 0.076883 0.657939
Si Si2 0.893714 0.421324 0.273849
Si Si3 0.450610 0.423318 0.957931
Si Si4 0.804531 0.576201 0.370169
Si Si5 0.548777 0.421856 0.544024
Si Si6 0.107285 0.423452 0.224584
O O1 0.750000 0.058619 0.712794
O O2 0.681336 0.250000 0.638476
O O3 0.689132 0.997340 0.515465
O O4 0.659569 0.001781 0.765517
O O5 0.889127 0.250000 0.227277
O O6 0.841093 0.499206 0.264416
O O7 0.911579 0.435562 0.427121
O O8 0.931958 0.503237 0.179136
O O9 0.461181 0.250000 0.931061
O O10 0.410245 0.446133 0.072194
O O11 0.500000 0.500000 0.000000
O O12 0.750000 0.552378 0.315976
O O13 0.817581 0.750000 0.383139
O O14 0.500000 0.500000 0.500000
O O15 0.537614 0.250000 0.578733
O O16 0.568522 0.501833 0.676787
O O17 0.111933 0.250000 0.263290
#
# Coordination Sequence:
#
# PCOD8244174 Si02
#       6
#     8   8   8   8   8   8
#     4  10  20  35  58  89 122 155 194 241 295 354
#     4  11  23  39  60  88 119 156 201 245 296 355
#     4  11  25  43  62  86 118 160 204 247 300 360
#     4  10  20  35  59  90 122 157 196 241 296 353
#     4  11  23  37  57  86 117 150 194 247 299 353
#     4  11  23  39  60  87 118 154 199 245 296 356
#
# _framework density 19.642130000000002
#
# number of rings (size 3 to 8) (size 9 to 14) (size 15 to 20)
#    0.000    1.333    1.667    4.000    0.000   10.667 
#    0.000    0.833    0.000    1.000    0.000    0.000 
#    0.000    0.000    0.000    0.000    0.000    0.000 
#
# Total GULP energy -595465.308896 kJ/mol
# GULP energy per Si atom -12405.527269 kJ/mol
# Density = 1.959742 g / cm^3
# Si number density = 19.642130 Si / 1000 Ang^3
#
#
#
# Elastic Constant Matrix: (Units=GPa)
#
#
# Indices 1 2 3 4 5 6 
#
# 1 108.1127 55.5808 1.0771 0.0000 0.0000 0.0000
# 2 55.5808 155.4415 26.4257 0.0000 0.0000 0.0000
# 3 1.0771 26.4257 33.6253 0.0000 0.0000 0.0000
# 4 0.0000 0.0000 0.0000 30.4578 0.0000 0.0000
# 5 0.0000 0.0000 0.0000 0.0000 32.7780 0.0000
# 6 0.0000 0.0000 0.0000 0.0000 0.0000 42.2543
#
#
#
# Elastic Compliance Matrix: (Units=1/GPa)
#
#
# Indices 1 2 3 4 5 6 
#
# 1 0.011651 -0.004735 0.003348 0.000000 0.000000 0.000000
# 2 -0.004735 0.009350 -0.007196 0.000000 0.000000 0.000000
# 3 0.003348 -0.007196 0.035288 0.000000 0.000000 0.000000
# 4 0.000000 0.000000 0.000000 0.032832 0.000000 0.000000
# 5 0.000000 0.000000 0.000000 0.000000 0.030508 0.000000
# 6 0.000000 0.000000 0.000000 0.000000 0.000000 0.023666
#
#
# Mechanical properties :
#
#
# Convention : Reuss Voigt Hill
#
# Bulk Modulus (GPa) = 25.56138 51.48295 38.52217
# Shear Modulus (GPa) = 28.81816 35.37106 32.09461
#
# Velocity S-wave (km/s) = 3.83451 4.24816 4.04662
# Velocity P-wave (km/s) = 5.71370 7.09435 6.44113
#
# Compressibility (1/GPa) = 0.03912152
#
# Stress axis : x y z
#
# Youngs Moduli (GPa) = 85.83305 106.95468 28.33854
#
# Poissons Ratio (x) = 0.50643 -0.09488
# Poissons Ratio (y) = 0.40642 0.20393
# Poissons Ratio (z) = -0.28737 0.76966
#
# Static dielectric constant tensor:
#      x y z
#    x 1.667400 0.000000 0.000000 
#    y 0.000000 3.853150 0.000000 
#    z 0.000000 0.000000 3.371340 
# 
# 
# High freq. dielectric constant tensor:
#      x y z
#    x 1.782200 0.000000 0.000000 
#    y 0.000000 1.787500 0.000000 
#    z 0.000000 0.000000 1.741240 
# 
# From -- ./inp_files/12934.got.cif
#   From: 2010.03.12/outbox.cif.g09.slc.cpg/sg59_7_cif.got.tgz:12934.got - 2010.04.16 16:29:54.
