data_PCOD8244979
_publ_section_title
;
Structure prediction by ZEFSAII (Michael W. Deem and Ramdas Pophale) SiO2 
 PCOD8244979
Probable space group: P M M N
;
_chemical_formula_sum "Si O2"
_cell_formula_units_Z 56
_cell_length_a 15.975571
_cell_length_b 9.041005
_cell_length_c 19.491268
_cell_angle_alpha 90.000000
_cell_angle_beta 90.000000
_cell_angle_gamma 90.000000
_cell_volume 2815.225529
_symmetry_space_group_name_H-M "P M M N"
_symmetry_group_IT_number 59
_space_group.IT_coordinate_system_code '2'
_symmetry_cell_setting 'orthorhombic'
loop_
_space_group_symop_operation_xyz
x,y,z
1/2-x,1/2-y,z
1/2+x,-y,-z
-x,1/2+y,-z
-x,-y,-z
1/2+x,1/2+y,-z
1/2-x,y,z
x,1/2-y,z
loop_
_atom_site_type_symbol
_atom_site_label
_atom_site_fract_x
_atom_site_fract_y
_atom_site_fract_z
Si Si1 0.349258 0.583043 0.928557
Si Si2 0.341062 0.422586 0.656061
Si Si3 0.156528 0.920557 0.335141
Si Si4 0.588332 0.925331 0.790512
Si Si5 0.917556 0.922085 0.202829
Si Si6 0.848823 0.917878 0.937329
Si Si7 0.999206 0.426077 0.573346
O O1 0.250000 0.577749 0.926568
O O2 0.383017 0.750000 0.920032
O O3 0.383848 0.482492 0.868401
O O4 0.382456 0.519337 0.000752
O O5 0.250000 0.490439 0.634226
O O6 0.340382 0.250000 0.640560
O O7 0.350177 0.450233 0.737461
O O8 0.419261 0.489533 0.613804
O O9 0.250000 0.942074 0.366705
O O10 0.139381 0.750000 0.316986
O O11 0.085994 0.976843 0.388343
O O12 0.153649 0.012753 0.264751
O O13 0.587770 0.750000 0.785889
O O14 0.612504 0.978496 0.866834
O O15 0.498909 0.991722 0.772062
O O16 0.938813 0.750000 0.194517
O O17 0.750000 0.927782 0.930621
O O18 0.877402 0.750000 0.951726
O O19 0.001748 0.250000 0.566063
O O20 0.000000 0.500000 0.500000
#
# Coordination Sequence:
#
# PCOD8244979 Si02
#       7
#     8   8   8   8   8   8   8
#     4  10  21  36  54  80 113 147 190 246 301 352
#     4   9  18  35  60  86 113 149 194 239 282 337
#     4  10  21  39  62  87 119 159 199 238 288 355
#     4  11  22  36  57  85 117 149 193 251 302 345
#     4  11  21  36  58  82 112 152 198 242 294 357
#     4   9  19  36  55  76 106 147 193 240 293 354
#     4  10  21  39  60  88 122 154 192 235 284 344
#
# _framework density 19.891833999999999
#
# number of rings (size 3 to 8) (size 9 to 14) (size 15 to 20)
#    0.000    2.000    1.429    2.143    0.000    5.143 
#    0.000    1.429    0.000    1.714    0.000    0.000 
#    0.000    0.000    0.000    0.000    0.000    0.000 
#
# Total GULP energy -694361.662572 kJ/mol
# GULP energy per Si atom -12399.315403 kJ/mol
# Density = 1.984656 g / cm^3
# Si number density = 19.891834 Si / 1000 Ang^3
#
#
#
# Elastic Constant Matrix: (Units=GPa)
#
#
# Indices 1 2 3 4 5 6 
#
# 1 118.5610 23.8902 68.1216 0.0000 0.0000 0.0000
# 2 23.8902 51.0833 47.9332 0.0000 0.0000 0.0000
# 3 68.1216 47.9332 135.1740 0.0000 0.0000 0.0000
# 4 0.0000 0.0000 0.0000 35.9960 0.0000 0.0000
# 5 0.0000 0.0000 0.0000 0.0000 27.6435 0.0000
# 6 0.0000 0.0000 0.0000 0.0000 0.0000 20.8212
#
#
#
# Elastic Compliance Matrix: (Units=1/GPa)
#
#
# Indices 1 2 3 4 5 6 
#
# 1 0.011872 0.000093 -0.006016 0.000000 0.000000 0.000000
# 2 0.000093 0.029338 -0.010450 0.000000 0.000000 0.000000
# 3 -0.006016 -0.010450 0.014135 0.000000 0.000000 0.000000
# 4 0.000000 0.000000 0.000000 0.027781 0.000000 0.000000
# 5 0.000000 0.000000 0.000000 0.000000 0.036175 0.000000
# 6 0.000000 0.000000 0.000000 0.000000 0.000000 0.048028
#
#
# Mechanical properties :
#
#
# Convention : Reuss Voigt Hill
#
# Bulk Modulus (GPa) = 44.24977 64.96757 54.60867
# Shear Modulus (GPa) = 24.08364 27.88370 25.98367
#
# Velocity S-wave (km/s) = 3.48333 3.74808 3.61813
# Velocity P-wave (km/s) = 6.20255 7.17371 6.70573
#
# Compressibility (1/GPa) = 0.02259899
#
# Stress axis : x y z
#
# Youngs Moduli (GPa) = 84.22874 34.08518 70.74472
#
# Poissons Ratio (x) = -0.00316 0.42560
# Poissons Ratio (y) = -0.00780 0.73929
# Poissons Ratio (z) = 0.50672 0.35619
#
# Static dielectric constant tensor:
#      x y z
#    x 3.917600 0.000000 0.000000 
#    y 0.000000 3.512840 0.000000 
#    z 0.000000 0.000000 3.648650 
# 
# 
# High freq. dielectric constant tensor:
#      x y z
#    x 1.784790 0.000000 0.000000 
#    y 0.000000 1.758320 0.000000 
#    z 0.000000 0.000000 1.776100 
# 
# From -- ./inp_files/30300.got.cif
#   From: 2010.03.12/outbox.cif.g09.slc.cpg/sg59_16_cif.got.tgz:30300.got - 2010.04.16 16:29:54.
