data_PCOD8244494
_publ_section_title
;
Structure prediction by ZEFSAII (Michael W. Deem and Ramdas Pophale) SiO2 
 PCOD8244494
Probable space group: P M M N
;
_chemical_formula_sum "Si O2"
_cell_formula_units_Z 48
_cell_length_a 8.741834
_cell_length_b 28.891711
_cell_length_c 9.949068
_cell_angle_alpha 90.000000
_cell_angle_beta 90.000000
_cell_angle_gamma 90.000000
_cell_volume 2512.801696
_symmetry_space_group_name_H-M "P M M N"
_symmetry_group_IT_number 59
_space_group.IT_coordinate_system_code '2'
_symmetry_cell_setting 'orthorhombic'
loop_
_space_group_symop_operation_xyz
x,y,z
1/2-x,1/2-y,z
1/2+x,-y,-z
-x,1/2+y,-z
-x,-y,-z
1/2+x,1/2+y,-z
1/2-x,y,z
x,1/2-y,z
loop_
_atom_site_type_symbol
_atom_site_label
_atom_site_fract_x
_atom_site_fract_y
_atom_site_fract_z
Si Si1 0.431140 0.372727 0.482819
Si Si2 0.931707 0.878045 0.212562
Si Si3 0.568779 0.474773 0.873388
Si Si4 0.570167 0.529835 0.615003
Si Si5 0.428099 0.196714 0.261151
Si Si6 0.071041 0.696147 0.019106
O O1 0.250000 0.371502 0.493169
O O2 0.496013 0.371966 0.635056
O O3 0.489272 0.417900 0.402782
O O4 0.489924 0.329740 0.393479
O O5 0.750000 0.882752 0.210463
O O6 0.001683 0.923638 0.145054
O O7 0.980793 0.832951 0.129999
O O8 0.750000 0.470576 0.885418
O O9 0.515224 0.508445 0.754329
O O10 0.500000 0.500000 0.000000
O O11 0.500000 0.500000 0.500000
O O12 0.750000 0.527928 0.600784
O O13 0.250000 0.186068 0.234908
O O14 0.459077 0.250000 0.291598
O O15 0.519227 0.180244 0.129365
O O16 0.250000 0.686758 0.034560
O O17 0.029658 0.750000 0.041568
#
# Coordination Sequence:
#
# PCOD8244494 Si02
#       6
#     8   8   8   8   8   8
#     4   9  19  35  57  85 114 146 187 237 286 336
#     4  11  22  38  61  86 116 152 193 240 288 343
#     4  11  24  39  58  86 119 156 196 239 287 341
#     4  10  20  37  58  81 113 152 191 232 281 337
#     4   9  18  35  60  87 113 145 188 236 286 343
#     4  10  22  40  59  83 118 154 190 237 289 343
#
# _framework density 19.102183
#
# number of rings (size 3 to 8) (size 9 to 14) (size 15 to 20)
#    0.000    2.000    1.667    1.500    2.333    2.333 
#    0.000    4.167    0.000    2.000    0.000    0.000 
#    0.000    0.000    0.000    0.000    0.000    0.000 
#
# Total GULP energy -595193.834711 kJ/mol
# GULP energy per Si atom -12399.871556 kJ/mol
# Density = 1.905871 g / cm^3
# Si number density = 19.102183 Si / 1000 Ang^3
#
#
#
# Elastic Constant Matrix: (Units=GPa)
#
#
# Indices 1 2 3 4 5 6 
#
# 1 46.9832 30.3121 40.2737 0.0000 0.0000 0.0000
# 2 30.3121 118.3322 83.2676 0.0000 0.0000 0.0000
# 3 40.2737 83.2676 162.1556 0.0000 0.0000 0.0000
# 4 0.0000 0.0000 0.0000 45.1540 0.0000 0.0000
# 5 0.0000 0.0000 0.0000 0.0000 23.7047 0.0000
# 6 0.0000 0.0000 0.0000 0.0000 0.0000 27.7060
#
#
#
# Elastic Compliance Matrix: (Units=1/GPa)
#
#
# Indices 1 2 3 4 5 6 
#
# 1 0.027970 -0.003565 -0.005116 0.000000 0.000000 0.000000
# 2 -0.003565 0.013686 -0.006143 0.000000 0.000000 0.000000
# 3 -0.005116 -0.006143 0.010592 0.000000 0.000000 0.000000
# 4 0.000000 0.000000 0.000000 0.022146 0.000000 0.000000
# 5 0.000000 0.000000 0.000000 0.000000 0.042186 0.000000
# 6 0.000000 0.000000 0.000000 0.000000 0.000000 0.036093
#
#
# Mechanical properties :
#
#
# Convention : Reuss Voigt Hill
#
# Bulk Modulus (GPa) = 44.24609 70.57532 57.41070
# Shear Modulus (GPa) = 26.33609 30.88748 28.61178
#
# Velocity S-wave (km/s) = 3.71711 4.02551 3.87438
# Velocity P-wave (km/s) = 6.45257 7.65720 7.08055
#
# Compressibility (1/GPa) = 0.02260087
#
# Stress axis : x y z
#
# Youngs Moduli (GPa) = 35.75321 73.06550 94.41165
#
# Poissons Ratio (x) = 0.26044 0.48303
# Poissons Ratio (y) = 0.12744 0.57994
# Poissons Ratio (z) = 0.18292 0.44882
#
# Static dielectric constant tensor:
#      x y z
#    x 3.425670 0.000000 0.000000 
#    y 0.000000 3.723920 0.000000 
#    z 0.000000 0.000000 3.680540 
# 
# 
# High freq. dielectric constant tensor:
#      x y z
#    x 1.728530 0.000000 0.000000 
#    y 0.000000 1.753020 0.000000 
#    z 0.000000 0.000000 1.754800 
# 
# From -- ./inp_files/6242.got.cif
#   From: 2010.03.12/outbox.cif.g09.slc.cpg/sg59_4_cif.got.tgz:6242.got - 2010.04.16 16:29:54.
