data_PCOD8244613
_publ_section_title
;
Structure prediction by ZEFSAII (Michael W. Deem and Ramdas Pophale) SiO2 
 PCOD8244613
Probable space group: P M M N
;
_chemical_formula_sum "Si O2"
_cell_formula_units_Z 64
_cell_length_a 14.389890
_cell_length_b 17.535726
_cell_length_c 12.112396
_cell_angle_alpha 90.000000
_cell_angle_beta 90.000000
_cell_angle_gamma 90.000000
_cell_volume 3056.407707
_symmetry_space_group_name_H-M "P M M N"
_symmetry_group_IT_number 59
_space_group.IT_coordinate_system_code '2'
_symmetry_cell_setting 'orthorhombic'
loop_
_space_group_symop_operation_xyz
x,y,z
1/2-x,1/2-y,z
1/2+x,-y,-z
-x,1/2+y,-z
-x,-y,-z
1/2+x,1/2+y,-z
1/2-x,y,z
x,1/2-y,z
loop_
_atom_site_type_symbol
_atom_site_label
_atom_site_fract_x
_atom_site_fract_y
_atom_site_fract_z
Si Si1 0.642273 0.122006 0.583749
Si Si2 0.425615 0.945690 0.055489
Si Si3 0.856115 0.100087 0.333474
Si Si4 0.146624 0.408852 0.152697
Si Si5 0.994887 0.165863 0.756097
Si Si6 0.857341 0.545131 0.605459
Si Si7 0.545866 0.338232 0.125620
Si Si8 0.641776 0.575893 0.369915
O O1 0.750000 0.131928 0.616435
O O2 0.628542 0.137700 0.453586
O O3 0.582176 0.177401 0.660199
O O4 0.598832 0.038945 0.614295
O O5 0.465291 0.892654 0.150450
O O6 0.349979 0.003738 0.107005
O O7 0.390260 0.888712 0.958223
O O8 0.500000 0.000000 0.000000
O O9 0.750000 0.112323 0.295313
O O10 0.925245 0.142251 0.250060
O O11 0.881510 0.010866 0.335102
O O12 0.250000 0.374455 0.129013
O O13 0.126731 0.407300 0.284055
O O14 0.063709 0.357812 0.102400
O O15 0.011364 0.250000 0.807381
O O16 0.091375 0.136031 0.707299
O O17 0.750000 0.528008 0.580057
O O18 0.894255 0.589178 0.496600
O O19 0.562836 0.250000 0.100769
O O20 0.750000 0.593019 0.356706
#
# Coordination Sequence:
#
# PCOD8244613 Si02
#       8
#     8   8   8   8   8   8   8   8
#     4   9  19  36  58  87 120 152 194 249 301 358
#     4  10  22  42  62  83 111 153 210 260 294 337
#     4   9  20  39  63  88 116 159 212 254 292 351
#     4  10  20  37  64  91 116 153 202 254 299 350
#     4  12  24  36  57  88 124 161 194 241 315 382
#     4   8  15  31  57  86 112 144 192 243 287 337
#     4  11  24  40  60  87 126 163 196 245 306 364
#     4   9  19  36  58  86 118 155 201 249 291 350
#
# _framework density 20.939615
#
# number of rings (size 3 to 8) (size 9 to 14) (size 15 to 20)
#    0.000    2.250    1.250    3.375    1.750    3.000 
#    0.000    5.000    0.000    7.500    0.000    0.000 
#    0.000    0.000    0.000    0.000    0.000    0.000 
#
# Total GULP energy -793133.978900 kJ/mol
# GULP energy per Si atom -12392.718420 kJ/mol
# Density = 2.089196 g / cm^3
# Si number density = 20.939615 Si / 1000 Ang^3
#
#
#
# Elastic Constant Matrix: (Units=GPa)
#
#
# Indices 1 2 3 4 5 6 
#
# 1 57.4220 28.3704 23.7408 0.0000 0.0000 0.0000
# 2 28.3704 81.5150 25.9435 0.0000 0.0000 0.0000
# 3 23.7408 25.9435 87.6839 0.0000 0.0000 0.0000
# 4 0.0000 0.0000 0.0000 13.6816 0.0000 0.0000
# 5 0.0000 0.0000 0.0000 0.0000 15.5619 0.0000
# 6 0.0000 0.0000 0.0000 0.0000 0.0000 5.9947
#
#
#
# Elastic Compliance Matrix: (Units=1/GPa)
#
#
# Indices 1 2 3 4 5 6 
#
# 1 0.022310 -0.006450 -0.004132 0.000000 0.000000 0.000000
# 2 -0.006450 0.015407 -0.002812 0.000000 0.000000 0.000000
# 3 -0.004132 -0.002812 0.013356 0.000000 0.000000 0.000000
# 4 0.000000 0.000000 0.000000 0.073091 0.000000 0.000000
# 5 0.000000 0.000000 0.000000 0.000000 0.064260 0.000000
# 6 0.000000 0.000000 0.000000 0.000000 0.000000 0.166815
#
#
# Mechanical properties :
#
#
# Convention : Reuss Voigt Hill
#
# Bulk Modulus (GPa) = 41.17859 42.52557 41.85208
# Shear Modulus (GPa) = 12.81649 16.95203 14.88426
#
# Velocity S-wave (km/s) = 2.47669 2.84838 2.66901
# Velocity P-wave (km/s) = 5.28079 5.58305 5.43402
#
# Compressibility (1/GPa) = 0.02428446
#
# Stress axis : x y z
#
# Youngs Moduli (GPa) = 44.82314 64.90348 74.87519
#
# Poissons Ratio (x) = 0.41860 0.30940
# Poissons Ratio (y) = 0.28909 0.21058
# Poissons Ratio (z) = 0.18522 0.18254
#
# Static dielectric constant tensor:
#      x y z
#    x 3.647050 0.000000 0.000000 
#    y 0.000000 3.602250 0.000000 
#    z 0.000000 0.000000 3.975980 
# 
# 
# High freq. dielectric constant tensor:
#      x y z
#    x 1.809780 0.000000 0.000000 
#    y 0.000000 1.793880 0.000000 
#    z 0.000000 0.000000 1.826010 
# 
# From -- ./inp_files/17190.got.cif
#   From: 2010.03.12/outbox.cif.g09.slc.cpg/sg59_9_cif.got.tgz:17190.got - 2010.04.16 16:29:54.
