data_PCOD8244666
_publ_section_title
;
Structure prediction by ZEFSAII (Michael W. Deem and Ramdas Pophale) SiO2 
 PCOD8244666
Probable space group: P M M N
;
_chemical_formula_sum "Si O2"
_cell_formula_units_Z 64
_cell_length_a 24.455547
_cell_length_b 13.810101
_cell_length_c 9.291599
_cell_angle_alpha 90.000000
_cell_angle_beta 90.000000
_cell_angle_gamma 90.000000
_cell_volume 3138.084939
_symmetry_space_group_name_H-M "P M M N"
_symmetry_group_IT_number 59
_space_group.IT_coordinate_system_code '2'
_symmetry_cell_setting 'orthorhombic'
loop_
_space_group_symop_operation_xyz
x,y,z
1/2-x,1/2-y,z
1/2+x,-y,-z
-x,1/2+y,-z
-x,-y,-z
1/2+x,1/2+y,-z
1/2-x,y,z
x,1/2-y,z
loop_
_atom_site_type_symbol
_atom_site_label
_atom_site_fract_x
_atom_site_fract_y
_atom_site_fract_z
Si Si1 0.811536 0.861760 0.325123
Si Si2 0.474757 0.639638 0.576238
Si Si3 0.906874 0.863663 0.107662
Si Si4 0.311944 0.015310 0.407357
Si Si5 0.153383 0.860209 0.609756
Si Si6 0.992309 0.048783 0.725442
Si Si7 0.383254 0.506231 0.132738
Si Si8 0.813248 0.363108 0.078149
O O1 0.750000 0.897146 0.285241
O O2 0.811705 0.750000 0.363361
O O3 0.851121 0.884694 0.193178
O O4 0.833868 0.913383 0.468304
O O5 0.491803 0.750000 0.614636
O O6 0.410731 0.623833 0.595360
O O7 0.504845 0.564800 0.682244
O O8 0.491434 0.618050 0.412744
O O9 0.920026 0.750000 0.095589
O O10 0.956444 0.920151 0.180443
O O11 0.898525 0.908111 0.950347
O O12 0.250000 0.038940 0.362656
O O13 0.316145 0.908359 0.474863
O O14 0.349202 0.028803 0.269445
O O15 0.171479 0.750000 0.602386
O O16 0.173536 0.904348 0.762222
O O17 0.937578 0.062992 0.818051
O O18 0.349093 0.580923 0.037679
O O19 0.750000 0.380106 0.041236
O O20 0.829014 0.250000 0.070210
#
# Coordination Sequence:
#
# PCOD8244666 Si02
#       8
#     8   8   8   8   8   8   8   8
#     4   9  20  40  65  89 115 155 207 260 310 364
#     4  10  21  38  64  96 125 160 207 262 324 381
#     4  11  25  43  65  90 121 167 218 262 313 380
#     4  11  22  37  60  90 124 160 199 253 317 377
#     4  10  20  38  63  91 121 158 207 256 305 369
#     4  11  23  41  63  90 128 168 208 264 318 379
#     4  12  25  40  60  90 131 166 205 258 321 379
#     4  10  22  40  63  91 126 171 217 259 310 379
#
# _framework density 20.394606
#
# number of rings (size 3 to 8) (size 9 to 14) (size 15 to 20)
#    0.000    1.500    1.250    3.750    1.750    5.250 
#    0.000    1.250    0.000    0.000    0.000    0.000 
#    0.000    0.000    0.000    0.000    0.000    0.000 
#
# Total GULP energy -793868.393576 kJ/mol
# GULP energy per Si atom -12404.193650 kJ/mol
# Density = 2.034819 g / cm^3
# Si number density = 20.394606 Si / 1000 Ang^3
#
#
#
# Elastic Constant Matrix: (Units=GPa)
#
#
# Indices 1 2 3 4 5 6 
#
# 1 82.9438 31.3690 45.8944 0.0000 0.0000 0.0000
# 2 31.3690 81.2809 38.2526 0.0000 0.0000 0.0000
# 3 45.8944 38.2526 120.0345 0.0000 0.0000 0.0000
# 4 0.0000 0.0000 0.0000 22.7584 0.0000 0.0000
# 5 0.0000 0.0000 0.0000 0.0000 12.1532 0.0000
# 6 0.0000 0.0000 0.0000 0.0000 0.0000 27.3496
#
#
#
# Elastic Compliance Matrix: (Units=1/GPa)
#
#
# Indices 1 2 3 4 5 6 
#
# 1 0.016303 -0.003951 -0.004974 0.000000 0.000000 0.000000
# 2 -0.003951 0.015431 -0.003407 0.000000 0.000000 0.000000
# 3 -0.004974 -0.003407 0.011319 0.000000 0.000000 0.000000
# 4 0.000000 0.000000 0.000000 0.043940 0.000000 0.000000
# 5 0.000000 0.000000 0.000000 0.000000 0.082283 0.000000
# 6 0.000000 0.000000 0.000000 0.000000 0.000000 0.036564
#
#
# Mechanical properties :
#
#
# Convention : Reuss Voigt Hill
#
# Bulk Modulus (GPa) = 54.38207 57.25456 55.81832
# Shear Modulus (GPa) = 21.12981 23.70179 22.41580
#
# Velocity S-wave (km/s) = 3.22226 3.41274 3.31887
# Velocity P-wave (km/s) = 6.36921 6.60783 6.48962
#
# Compressibility (1/GPa) = 0.01838841
#
# Stress axis : x y z
#
# Youngs Moduli (GPa) = 61.33876 64.80379 88.35039
#
# Poissons Ratio (x) = 0.25603 0.43948
# Poissons Ratio (y) = 0.24234 0.30101
# Poissons Ratio (z) = 0.30512 0.22079
#
# Static dielectric constant tensor:
#      x y z
#    x 3.799090 0.000000 0.000000 
#    y 0.000000 3.814200 0.000000 
#    z 0.000000 0.000000 3.711970 
# 
# 
# High freq. dielectric constant tensor:
#      x y z
#    x 1.807740 0.000000 0.000000 
#    y 0.000000 1.803110 0.000000 
#    z 0.000000 0.000000 1.795320 
# 
# From -- ./inp_files/9561.got.cif
#   From: 2010.03.12/outbox.cif.g09.slc.cpg/sg59_5_cif.got.tgz:9561.got - 2010.04.16 16:29:54.
