data_PCOD8244982
_publ_section_title
;
Structure prediction by ZEFSAII (Michael W. Deem and Ramdas Pophale) SiO2 
 PCOD8244982
Probable space group: P M M N
;
_chemical_formula_sum "Si O2"
_cell_formula_units_Z 64
_cell_length_a 14.540242
_cell_length_b 8.833071
_cell_length_c 26.061757
_cell_angle_alpha 90.000000
_cell_angle_beta 90.000000
_cell_angle_gamma 90.000000
_cell_volume 3347.241498
_symmetry_space_group_name_H-M "P M M N"
_symmetry_group_IT_number 59
_space_group.IT_coordinate_system_code '2'
_symmetry_cell_setting 'orthorhombic'
loop_
_space_group_symop_operation_xyz
x,y,z
1/2-x,1/2-y,z
1/2+x,-y,-z
-x,1/2+y,-z
-x,-y,-z
1/2+x,1/2+y,-z
1/2-x,y,z
x,1/2-y,z
loop_
_atom_site_type_symbol
_atom_site_label
_atom_site_fract_x
_atom_site_fract_y
_atom_site_fract_z
Si Si1 0.357056 0.076653 0.375752
Si Si2 0.649155 0.570296 0.739481
Si Si3 0.858241 0.577480 0.264886
Si Si4 0.356631 0.425541 0.005617
Si Si5 0.504358 0.425332 0.920400
Si Si6 0.503532 0.927999 0.444521
Si Si7 0.857394 0.425817 0.369477
Si Si8 0.512147 0.070938 0.188628
O O1 0.250000 0.061827 0.388506
O O2 0.389937 0.250000 0.382784
O O3 0.378094 0.019764 0.317987
O O4 0.411181 0.969542 0.414296
O O5 0.750000 0.505032 0.753923
O O6 0.653405 0.750000 0.740753
O O7 0.576292 0.507821 0.780408
O O8 0.750000 0.564648 0.259376
O O9 0.891032 0.750000 0.269860
O O10 0.893392 0.488127 0.314978
O O11 0.898234 0.503324 0.213565
O O12 0.250000 0.474055 0.998436
O O13 0.364048 0.250000 0.021350
O O14 0.403288 0.524579 0.050083
O O15 0.412117 0.456104 0.953194
O O16 0.513718 0.250000 0.905987
O O17 0.495518 0.524551 0.869970
O O18 0.511641 0.750000 0.450246
O O19 0.500000 0.000000 0.500000
O O20 0.593007 0.988828 0.415426
O O21 0.750000 0.457677 0.376098
O O22 0.882006 0.250000 0.371720
O O23 0.520264 0.250000 0.192689
#
# Coordination Sequence:
#
# PCOD8244982 Si02
#       8
#     8   8   8   8   8   8   8   8
#     4   9  18  36  61  84 108 141 182 228 277 329
#     4   8  16  32  54  79 106 140 180 217 258 313
#     4  10  21  37  57  82 113 149 187 227 276 331
#     4   9  19  38  61  79 100 139 188 233 280 335
#     4  10  21  36  54  81 114 144 180 228 282 334
#     4  12  25  39  57  81 111 145 183 229 280 335
#     4  10  21  39  62  85 111 144 184 231 281 336
#     4  11  21  33  54  83 116 152 187 227 271 319
#
# _framework density 19.120221999999998
#
# number of rings (size 3 to 8) (size 9 to 14) (size 15 to 20)
#    0.000    2.125    0.000    4.125    0.000    5.000 
#    0.000    3.125    0.000    2.625    0.000    0.000 
#    0.000    0.000    0.000    0.000    0.000    0.000 
#
# Total GULP energy -793752.401344 kJ/mol
# GULP energy per Si atom -12402.381271 kJ/mol
# Density = 1.907670 g / cm^3
# Si number density = 19.120222 Si / 1000 Ang^3
#
#
#
# Elastic Constant Matrix: (Units=GPa)
#
#
# Indices 1 2 3 4 5 6 
#
# 1 100.0686 48.1552 54.3119 0.0000 0.0000 0.0000
# 2 48.1552 103.4864 50.5693 0.0000 0.0000 0.0000
# 3 54.3119 50.5693 122.1501 0.0000 0.0000 0.0000
# 4 0.0000 0.0000 0.0000 36.9553 0.0000 0.0000
# 5 0.0000 0.0000 0.0000 0.0000 14.2565 0.0000
# 6 0.0000 0.0000 0.0000 0.0000 0.0000 30.6319
#
#
#
# Elastic Compliance Matrix: (Units=1/GPa)
#
#
# Indices 1 2 3 4 5 6 
#
# 1 0.014719 -0.004577 -0.004650 0.000000 0.000000 0.000000
# 2 -0.004577 0.013537 -0.003569 0.000000 0.000000 0.000000
# 3 -0.004650 -0.003569 0.011732 0.000000 0.000000 0.000000
# 4 0.000000 0.000000 0.000000 0.027060 0.000000 0.000000
# 5 0.000000 0.000000 0.000000 0.000000 0.070143 0.000000
# 6 0.000000 0.000000 0.000000 0.000000 0.000000 0.032646
#
#
# Mechanical properties :
#
#
# Convention : Reuss Voigt Hill
#
# Bulk Modulus (GPa) = 69.46378 70.19756 69.83067
# Shear Modulus (GPa) = 24.97155 27.87999 26.42577
#
# Velocity S-wave (km/s) = 3.61782 3.82270 3.72167
# Velocity P-wave (km/s) = 7.33896 7.50184 7.42085
#
# Compressibility (1/GPa) = 0.01439599
#
# Stress axis : x y z
#
# Youngs Moduli (GPa) = 67.93709 73.87123 85.23929
#
# Poissons Ratio (x) = 0.33813 0.39635
# Poissons Ratio (y) = 0.31096 0.30422
# Poissons Ratio (z) = 0.31590 0.26365
#
# Static dielectric constant tensor:
#      x y z
#    x 3.678630 0.000000 0.000000 
#    y 0.000000 3.493450 0.000000 
#    z 0.000000 0.000000 3.428110 
# 
# 
# High freq. dielectric constant tensor:
#      x y z
#    x 1.753140 0.000000 0.000000 
#    y 0.000000 1.738510 0.000000 
#    z 0.000000 0.000000 1.743060 
# 
# From -- ./inp_files/32228.got.cif
#   From: 2010.03.12/outbox.cif.g09.slc.cpg/sg59_17_cif.got.tgz:32228.got - 2010.04.16 16:29:54.
