data_PCOD8244493
_publ_section_title
;
Structure prediction by ZEFSAII (Michael W. Deem and Ramdas Pophale) SiO2 
 PCOD8244493
Probable space group: P M M N
;
_chemical_formula_sum "Si O2"
_cell_formula_units_Z 64
_cell_length_a 17.897883
_cell_length_b 8.898828
_cell_length_c 21.499997
_cell_angle_alpha 90.000000
_cell_angle_beta 90.000000
_cell_angle_gamma 90.000000
_cell_volume 3424.308443
_symmetry_space_group_name_H-M "P M M N"
_symmetry_group_IT_number 59
_space_group.IT_coordinate_system_code '2'
_symmetry_cell_setting 'orthorhombic'
loop_
_space_group_symop_operation_xyz
x,y,z
1/2-x,1/2-y,z
1/2+x,-y,-z
-x,1/2+y,-z
-x,-y,-z
1/2+x,1/2+y,-z
1/2-x,y,z
x,1/2-y,z
loop_
_atom_site_type_symbol
_atom_site_label
_atom_site_fract_x
_atom_site_fract_y
_atom_site_fract_z
Si Si1 0.835513 0.926937 0.728724
Si Si2 0.336763 0.922102 0.511631
Si Si3 0.082965 0.575374 0.385412
Si Si4 0.666037 0.575780 0.136126
Si Si5 0.976241 0.575450 0.063145
Si Si6 0.949679 0.427274 0.810364
Si Si7 0.091822 0.927484 0.752175
Si Si8 0.910118 0.575210 0.374291
O O1 0.750000 0.979089 0.724061
O O2 0.842843 0.750000 0.736283
O O3 0.878836 0.977399 0.667565
O O4 0.870479 0.003994 0.790262
O O5 0.250000 0.944039 0.496939
O O6 0.355415 0.750000 0.529179
O O7 0.381860 0.972553 0.450820
O O8 0.359910 0.029661 0.567522
O O9 0.097584 0.750000 0.370514
O O10 0.995842 0.536712 0.388960
O O11 0.750000 0.549199 0.111322
O O12 0.651354 0.750000 0.153165
O O13 0.607690 0.525271 0.082692
O O14 0.653629 0.478615 0.197933
O O15 0.979073 0.750000 0.050393
O O16 0.033449 0.529648 0.118104
O O17 0.000000 0.500000 0.000000
O O18 0.949726 0.250000 0.800251
O O19 0.012666 0.494897 0.765536
O O20 0.082337 0.750000 0.754609
O O21 0.118912 0.979998 0.684521
O O22 0.898463 0.750000 0.360037
#
# Coordination Sequence:
#
# PCOD8244493 Si02
#       8
#     8   8   8   8   8   8   8   8
#     4  11  23  36  55  86 117 146 185 234 285 333
#     4  10  22  39  56  77 107 144 187 234 285 338
#     4  10  21  38  60  81 106 145 189 232 281 342
#     4   9  19  37  59  83 114 151 192 236 280 332
#     4   9  19  35  58  86 114 149 191 231 276 330
#     4  10  20  37  58  81 112 149 189 227 270 330
#     4  11  21  34  56  84 113 144 180 229 284 333
#     4  11  22  36  57  83 109 144 188 230 280 342
#
# _framework density 18.689906000000001
#
# number of rings (size 3 to 8) (size 9 to 14) (size 15 to 20)
#    0.000    1.875    1.250    3.750    0.000    6.000 
#    0.000    0.625    0.000    2.250    0.000    0.000 
#    0.000    0.000    0.000    0.000    0.000    0.000 
#
# Total GULP energy -793826.383464 kJ/mol
# GULP energy per Si atom -12403.537242 kJ/mol
# Density = 1.864737 g / cm^3
# Si number density = 18.689906 Si / 1000 Ang^3
#
#
#
# Elastic Constant Matrix: (Units=GPa)
#
#
# Indices 1 2 3 4 5 6 
#
# 1 78.0621 26.6112 41.5514 0.0000 0.0000 0.0000
# 2 26.6112 69.3968 38.2892 0.0000 0.0000 0.0000
# 3 41.5514 38.2892 128.2916 0.0000 0.0000 0.0000
# 4 0.0000 0.0000 0.0000 35.9698 0.0000 0.0000
# 5 0.0000 0.0000 0.0000 0.0000 21.4337 0.0000
# 6 0.0000 0.0000 0.0000 0.0000 0.0000 27.1499
#
#
#
# Elastic Compliance Matrix: (Units=1/GPa)
#
#
# Indices 1 2 3 4 5 6 
#
# 1 0.016361 -0.004011 -0.004102 0.000000 0.000000 0.000000
# 2 -0.004011 0.018234 -0.004143 0.000000 0.000000 0.000000
# 3 -0.004102 -0.004143 0.010360 0.000000 0.000000 0.000000
# 4 0.000000 0.000000 0.000000 0.027801 0.000000 0.000000
# 5 0.000000 0.000000 0.000000 0.000000 0.046656 0.000000
# 6 0.000000 0.000000 0.000000 0.000000 0.000000 0.036833
#
#
# Mechanical properties :
#
#
# Convention : Reuss Voigt Hill
#
# Bulk Modulus (GPa) = 48.91590 54.29490 51.60540
# Shear Modulus (GPa) = 26.65684 28.19727 27.42705
#
# Velocity S-wave (km/s) = 3.78069 3.88840 3.83493
# Velocity P-wave (km/s) = 6.72959 7.01947 6.87606
#
# Compressibility (1/GPa) = 0.02044325
#
# Stress axis : x y z
#
# Youngs Moduli (GPa) = 61.12105 54.84368 96.52692
#
# Poissons Ratio (x) = 0.21995 0.39596
# Poissons Ratio (y) = 0.24513 0.39991
# Poissons Ratio (z) = 0.25072 0.22721
#
# Static dielectric constant tensor:
#      x y z
#    x 3.611770 0.000000 0.000000 
#    y 0.000000 3.415830 0.000000 
#    z 0.000000 0.000000 3.437000 
# 
# 
# High freq. dielectric constant tensor:
#      x y z
#    x 1.725440 0.000000 0.000000 
#    y 0.000000 1.727510 0.000000 
#    z 0.000000 0.000000 1.722470 
# 
# From -- ./inp_files/30785.got.cif
#   From: 2010.03.12/outbox.cif.g09.slc.cpg/sg59_16_cif.got.tgz:30785.got - 2010.04.16 16:29:54.
