data_PCOD8244658
_publ_section_title
;
Structure prediction by ZEFSAII (Michael W. Deem and Ramdas Pophale) SiO2 
 PCOD8244658
Probable space group: P M M N
;
_chemical_formula_sum "Si O2"
_cell_formula_units_Z 48
_cell_length_a 13.884358
_cell_length_b 14.264291
_cell_length_c 11.653292
_cell_angle_alpha 90.000000
_cell_angle_beta 90.000000
_cell_angle_gamma 90.000000
_cell_volume 2307.940574
_symmetry_space_group_name_H-M "P M M N"
_symmetry_group_IT_number 59
_space_group.IT_coordinate_system_code '2'
_symmetry_cell_setting 'orthorhombic'
loop_
_space_group_symop_operation_xyz
x,y,z
1/2-x,1/2-y,z
1/2+x,-y,-z
-x,1/2+y,-z
-x,-y,-z
1/2+x,1/2+y,-z
1/2-x,y,z
x,1/2-y,z
loop_
_atom_site_type_symbol
_atom_site_label
_atom_site_fract_x
_atom_site_fract_y
_atom_site_fract_z
Si Si1 0.938860 0.644567 0.784476
Si Si2 0.142816 0.417322 0.666605
Si Si3 0.405527 0.976532 0.067701
Si Si4 0.647403 0.412356 0.163504
Si Si5 0.443445 0.645948 0.283805
Si Si6 0.639180 0.525757 0.591046
O O1 0.897361 0.750000 0.794456
O O2 0.877923 0.573675 0.866632
O O3 0.924533 0.605000 0.655696
O O4 0.052864 0.650827 0.816904
O O5 0.250000 0.370903 0.670838
O O6 0.131110 0.495439 0.762614
O O7 0.123965 0.464061 0.543722
O O8 0.058479 0.343867 0.693762
O O9 0.420893 0.893082 0.157680
O O10 0.333264 0.941539 0.969760
O O11 0.500000 0.000000 0.000000
O O12 0.750000 0.363721 0.200103
O O13 0.399017 0.750000 0.294074
O O14 0.395146 0.578812 0.377823
O O15 0.750000 0.538926 0.627190
#
# Coordination Sequence:
#
# PCOD8244658 Si02
#       6
#     8   8   8   8   8   8
#     4  10  21  37  61  89 117 154 202 247 295 353
#     4  10  20  39  64  87 119 158 195 241 301 360
#     4   9  18  37  55  83 115 155 191 240 296 352
#     4  10  20  38  62  86 118 155 195 245 301 357
#     4  11  22  37  63  93 120 155 203 252 302 352
#     4  10  22  41  61  85 122 163 201 245 300 354
#
# _framework density 20.797761999999999
#
# number of rings (size 3 to 8) (size 9 to 14) (size 15 to 20)
#    0.000    2.000    5.000    0.500    0.000    7.333 
#    0.000    1.667    0.000    3.000    0.000    0.000 
#    0.000    0.000    0.000    0.000    0.000    0.000 
#
# Total GULP energy -594646.730962 kJ/mol
# GULP energy per Si atom -12388.473562 kJ/mol
# Density = 2.075043 g / cm^3
# Si number density = 20.797762 Si / 1000 Ang^3
#
#
#
# Elastic Constant Matrix: (Units=GPa)
#
#
# Indices 1 2 3 4 5 6 
#
# 1 79.7415 20.5542 30.7135 0.0000 0.0000 0.0000
# 2 20.5542 141.5895 41.4044 0.0000 0.0000 0.0000
# 3 30.7135 41.4044 117.9023 0.0000 0.0000 0.0000
# 4 0.0000 0.0000 0.0000 -5.0639 0.0000 0.0000
# 5 0.0000 0.0000 0.0000 0.0000 22.2888 0.0000
# 6 0.0000 0.0000 0.0000 0.0000 0.0000 -6.9238
#
#
#
# Elastic Compliance Matrix: (Units=1/GPa)
#
#
# Indices 1 2 3 4 5 6 
#
# 1 0.014087 -0.001083 -0.003289 0.000000 0.000000 0.000000
# 2 -0.001083 0.007954 -0.002511 0.000000 0.000000 0.000000
# 3 -0.003289 -0.002511 0.010220 0.000000 0.000000 0.000000
# 4 0.000000 0.000000 0.000000 -0.197476 0.000000 0.000000
# 5 0.000000 0.000000 0.000000 0.000000 0.044866 0.000000
# 6 0.000000 0.000000 0.000000 0.000000 0.000000 -0.144430
#
#
# Mechanical properties :
#
#
# Convention : Reuss Voigt Hill
#
# Bulk Modulus (GPa) = 54.07103 58.28638 56.17870
# Shear Modulus (GPa) = -20.42090 18.49762 -0.96164
#
# Velocity S-wave (km/s) = -3.13690 2.98552 -0.68072
# Velocity P-wave (km/s) = 3.59649 6.32223 5.14322
#
# Compressibility (1/GPa) = 0.01849419
#
# Stress axis : x y z
#
# Youngs Moduli (GPa) = 70.98959 125.71921 97.84442
#
# Poissons Ratio (x) = 0.13616 0.32183
# Poissons Ratio (y) = 0.07689 0.24571
# Poissons Ratio (z) = 0.23350 0.31571
#
# Static dielectric constant tensor:
#      x y z
#    x 4.152930 0.000000 0.000000 
#    y 0.000000 3.358650 0.000000 
#    z 0.000000 0.000000 4.097510 
# 
# 
# High freq. dielectric constant tensor:
#      x y z
#    x 1.819450 0.000000 0.000000 
#    y 0.000000 1.782010 0.000000 
#    z 0.000000 0.000000 1.825330 
# 
# From -- ./inp_files/16814.got.cif
#   From: 2010.03.12/outbox.cif.g09.slc.cpg/sg59_9_cif.got.tgz:16814.got - 2010.04.16 16:29:54.
