data_PCOD8244521
_publ_section_title
;
Structure prediction by ZEFSAII (Michael W. Deem and Ramdas Pophale) SiO2 
 PCOD8244521
Probable space group: P M M N
;
_chemical_formula_sum "Si O2"
_cell_formula_units_Z 48
_cell_length_a 31.072398
_cell_length_b 8.536005
_cell_length_c 8.920217
_cell_angle_alpha 90.000000
_cell_angle_beta 90.000000
_cell_angle_gamma 90.000000
_cell_volume 2365.946126
_symmetry_space_group_name_H-M "P M M N"
_symmetry_group_IT_number 59
_space_group.IT_coordinate_system_code '2'
_symmetry_cell_setting 'orthorhombic'
loop_
_space_group_symop_operation_xyz
x,y,z
1/2-x,1/2-y,z
1/2+x,-y,-z
-x,1/2+y,-z
-x,-y,-z
1/2+x,1/2+y,-z
1/2-x,y,z
x,1/2-y,z
loop_
_atom_site_type_symbol
_atom_site_label
_atom_site_fract_x
_atom_site_fract_y
_atom_site_fract_z
Si Si1 0.083937 0.564166 0.834068
Si Si2 0.333462 0.933792 0.650365
Si Si3 0.918014 0.433914 0.827045
Si Si4 0.999793 0.434071 0.334514
Si Si5 0.335126 0.433863 0.325983
Si Si6 0.250000 0.067380 0.165748
Si Si7 0.750000 0.430366 0.156972
O O1 0.083339 0.750000 0.837072
O O2 0.125369 0.505545 0.742854
O O3 0.041091 0.496314 0.755533
O O4 0.086589 0.501408 0.003887
O O5 0.336711 0.750000 0.611041
O O6 0.291680 0.972238 0.747247
O O7 0.330402 0.035403 0.501426
O O8 0.927559 0.250000 0.822498
O O9 0.874985 0.469110 0.736684
O O10 0.957097 0.523057 0.750943
O O11 0.995308 0.250000 0.345977
O O12 0.000000 0.500000 0.500000
O O13 0.342110 0.250000 0.296060
O O14 0.292768 0.502040 0.243311
O O15 0.250000 0.250000 0.196511
O O16 0.250000 0.034598 0.990377
O O17 0.750000 0.250000 0.107005
#
# Coordination Sequence:
#
# PCOD8244521 Si02
#       7
#     8   8   8   8   8   4   4
#     4   9  20  37  58  82 113 150 191 236 285 338
#     4  10  20  37  59  86 116 150 192 240 287 339
#     4  11  22  39  61  85 114 151 190 239 295 344
#     4  11  22  38  59  86 117 153 195 239 287 346
#     4  11  23  39  58  85 117 153 194 237 284 344
#     4  10  23  40  58  82 118 156 193 238 290 342
#     4  10  21  36  60  90 118 150 195 240 284 340
#
# _framework density 20.287866999999999
#
# number of rings (size 3 to 8) (size 9 to 14) (size 15 to 20)
#    0.000    1.667    0.000    4.500    0.000    4.667 
#    0.000    5.000    0.000    0.000    0.000    0.000 
#    0.000    0.000    0.000    0.000    0.000    0.000 
#
# Total GULP energy -595440.766656 kJ/mol
# GULP energy per Si atom -12405.015972 kJ/mol
# Density = 2.024169 g / cm^3
# Si number density = 20.287867 Si / 1000 Ang^3
#
#
#
# Elastic Constant Matrix: (Units=GPa)
#
#
# Indices 1 2 3 4 5 6 
#
# 1 172.5468 9.6291 65.1822 0.0000 0.0000 0.0000
# 2 9.6291 31.3785 14.2022 0.0000 0.0000 0.0000
# 3 65.1822 14.2022 147.0557 0.0000 0.0000 0.0000
# 4 0.0000 0.0000 0.0000 33.9503 0.0000 0.0000
# 5 0.0000 0.0000 0.0000 0.0000 41.4020 0.0000
# 6 0.0000 0.0000 0.0000 0.0000 0.0000 -0.8728
#
#
#
# Elastic Compliance Matrix: (Units=1/GPa)
#
#
# Indices 1 2 3 4 5 6 
#
# 1 0.006979 -0.000775 -0.003019 0.000000 0.000000 0.000000
# 2 -0.000775 0.033412 -0.002883 0.000000 0.000000 0.000000
# 3 -0.003019 -0.002883 0.008417 0.000000 0.000000 0.000000
# 4 0.000000 0.000000 0.000000 0.029455 0.000000 0.000000
# 5 0.000000 0.000000 0.000000 0.000000 0.024153 0.000000
# 6 0.000000 0.000000 0.000000 0.000000 0.000000 -1.145755
#
#
# Mechanical properties :
#
#
# Convention : Reuss Voigt Hill
#
# Bulk Modulus (GPa) = 28.20617 58.77867 43.49242
# Shear Modulus (GPa) = -4.91079 32.36039 13.72480
#
# Velocity S-wave (km/s) = -1.55750 3.99815 2.60379
# Velocity P-wave (km/s) = 3.27089 7.09569 5.52484
#
# Compressibility (1/GPa) = 0.03545323
#
# Stress axis : x y z
#
# Youngs Moduli (GPa) = 143.28447 29.92954 118.81321
#
# Poissons Ratio (x) = 0.02321 0.35865
# Poissons Ratio (y) = 0.11111 0.34255
# Poissons Ratio (z) = 0.43252 0.08629
#
# Static dielectric constant tensor:
#      x y z
#    x 3.988070 0.000000 0.000000 
#    y 0.000000 3.423250 0.000000 
#    z 0.000000 0.000000 3.830090 
# 
# 
# High freq. dielectric constant tensor:
#      x y z
#    x 1.814430 0.000000 0.000000 
#    y 0.000000 1.772540 0.000000 
#    z 0.000000 0.000000 1.809780 
# 
# From -- ./inp_files/13051.got.cif
#   From: 2010.03.12/outbox.cif.g09.slc.cpg/sg59_7_cif.got.tgz:13051.got - 2010.04.16 16:29:54.
