data_PCOD8244713
_publ_section_title
;
Structure prediction by ZEFSAII (Michael W. Deem and Ramdas Pophale) SiO2 
 PCOD8244713
Probable space group: P M M N
;
_chemical_formula_sum "Si O2"
_cell_formula_units_Z 64
_cell_length_a 18.780844
_cell_length_b 30.011672
_cell_length_c 5.407368
_cell_angle_alpha 90.000000
_cell_angle_beta 90.000000
_cell_angle_gamma 90.000000
_cell_volume 3047.833395
_symmetry_space_group_name_H-M "P M M N"
_symmetry_group_IT_number 59
_space_group.IT_coordinate_system_code '2'
_symmetry_cell_setting 'orthorhombic'
loop_
_space_group_symop_operation_xyz
x,y,z
1/2-x,1/2-y,z
1/2+x,-y,-z
-x,1/2+y,-z
-x,-y,-z
1/2+x,1/2+y,-z
1/2-x,y,z
x,1/2-y,z
loop_
_atom_site_type_symbol
_atom_site_label
_atom_site_fract_x
_atom_site_fract_y
_atom_site_fract_z
Si Si1 0.584328 0.612866 0.240751
Si Si2 0.671981 0.381671 0.126506
Si Si3 0.328707 0.700039 0.510545
Si Si4 0.107602 0.560558 0.503347
Si Si5 0.666835 0.598356 0.731044
Si Si6 0.950965 0.514879 0.223692
Si Si7 0.169990 0.498368 0.120939
Si Si8 0.437245 0.856413 0.263707
O O1 0.632190 0.621149 0.486277
O O2 0.539045 0.566948 0.280748
O O3 0.521963 0.650814 0.214219
O O4 0.630471 0.614529 0.988825
O O5 0.750000 0.384446 0.994749
O O6 0.669472 0.335059 0.270919
O O7 0.665413 0.427697 0.284909
O O8 0.603859 0.381908 0.952212
O O9 0.250000 0.697254 0.380739
O O10 0.341625 0.750000 0.612244
O O11 0.393617 0.688912 0.321571
O O12 0.047049 0.521764 0.552073
O O13 0.147894 0.543830 0.258350
O O14 0.067811 0.608113 0.487120
O O15 0.750000 0.611830 0.741912
O O16 0.657011 0.544983 0.702602
O O17 0.869741 0.508940 0.136342
O O18 0.000000 0.500000 0.000000
O O19 0.250000 0.501577 0.036624
#
# Coordination Sequence:
#
# PCOD8244713 Si02
#       8
#     8   8   8   8   8   8   8   8
#     4  11  23  38  60  84 119 158 202 260 311 365
#     4  10  21  36  53  79 116 155 200 249 301 361
#     4   9  20  40  65  89 117 156 198 240 291 358
#     4  11  21  34  50  73 106 149 205 250 300 355
#     4  10  22  40  60  82 112 156 208 257 309 364
#     4  11  23  35  50  72 106 153 204 251 308 365
#     4  10  21  34  49  71  99 144 201 257 298 336
#     4  11  24  35  56  84 119 152 192 244 308 362
#
# _framework density 20.998524
#
# number of rings (size 3 to 8) (size 9 to 14) (size 15 to 20)
#    0.000    1.625    1.250    3.375    7.000    5.500 
#    0.000    1.250    0.000    0.000    0.000    0.000 
#    0.000    3.000    0.000    0.000    0.000    0.000 
#
# Total GULP energy -792905.910352 kJ/mol
# GULP energy per Si atom -12389.154849 kJ/mol
# Density = 2.095073 g / cm^3
# Si number density = 20.998524 Si / 1000 Ang^3
#
#
#
# Elastic Constant Matrix: (Units=GPa)
#
#
# Indices 1 2 3 4 5 6 
#
# 1 128.1993 38.2596 17.0683 0.0000 0.0000 0.0000
# 2 38.2596 73.7029 6.4713 0.0000 0.0000 0.0000
# 3 17.0683 6.4713 52.4986 0.0000 0.0000 0.0000
# 4 0.0000 0.0000 0.0000 16.2198 0.0000 0.0000
# 5 0.0000 0.0000 0.0000 0.0000 29.8166 0.0000
# 6 0.0000 0.0000 0.0000 0.0000 0.0000 23.6031
#
#
#
# Elastic Compliance Matrix: (Units=1/GPa)
#
#
# Indices 1 2 3 4 5 6 
#
# 1 0.009549 -0.004736 -0.002521 0.000000 0.000000 0.000000
# 2 -0.004736 0.016065 -0.000441 0.000000 0.000000 0.000000
# 3 -0.002521 -0.000441 0.019922 0.000000 0.000000 0.000000
# 4 0.000000 0.000000 0.000000 0.061653 0.000000 0.000000
# 5 0.000000 0.000000 0.000000 0.000000 0.033538 0.000000
# 6 0.000000 0.000000 0.000000 0.000000 0.000000 0.042367
#
#
# Mechanical properties :
#
#
# Convention : Reuss Voigt Hill
#
# Bulk Modulus (GPa) = 33.17645 41.99992 37.58818
# Shear Modulus (GPa) = 23.97656 26.76801 25.37229
#
# Velocity S-wave (km/s) = 3.38275 3.57425 3.47982
# Velocity P-wave (km/s) = 5.57594 6.08921 5.83821
#
# Compressibility (1/GPa) = 0.03014186
#
# Stress axis : x y z
#
# Youngs Moduli (GPa) = 104.71955 62.24697 50.19570
#
# Poissons Ratio (x) = 0.29479 0.12654
# Poissons Ratio (y) = 0.49593 0.02212
# Poissons Ratio (z) = 0.26399 0.02743
#
# Static dielectric constant tensor:
#      x y z
#    x 4.115590 0.000000 0.000000 
#    y 0.000000 3.526230 0.000000 
#    z 0.000000 0.000000 3.742510 
# 
# 
# High freq. dielectric constant tensor:
#      x y z
#    x 1.838710 0.000000 0.000000 
#    y 0.000000 1.768940 0.000000 
#    z 0.000000 0.000000 1.820970 
# 
# From -- ./inp_files/3042.got.cif
#   From: 2010.03.12/outbox.cif.g09.slc.cpg/sg59_2_cif.got.tgz:3042.got - 2010.04.16 16:29:54.
