data_PCOD8244005
_publ_section_title
;
Structure prediction by ZEFSAII (Michael W. Deem and Ramdas Pophale) SiO2 
 PCOD8244005
Probable space group: P M M N
;
_chemical_formula_sum "Si O2"
_cell_formula_units_Z 40
_cell_length_a 12.467102
_cell_length_b 18.693722
_cell_length_c 9.179084
_cell_angle_alpha 90.000000
_cell_angle_beta 90.000000
_cell_angle_gamma 90.000000
_cell_volume 2139.245548
_symmetry_space_group_name_H-M "P M M N"
_symmetry_group_IT_number 59
_space_group.IT_coordinate_system_code '2'
_symmetry_cell_setting 'orthorhombic'
loop_
_space_group_symop_operation_xyz
x,y,z
1/2-x,1/2-y,z
1/2+x,-y,-z
-x,1/2+y,-z
-x,-y,-z
1/2+x,1/2+y,-z
1/2-x,y,z
x,1/2-y,z
loop_
_atom_site_type_symbol
_atom_site_label
_atom_site_fract_x
_atom_site_fract_y
_atom_site_fract_z
Si Si1 0.052378 0.166723 0.925321
Si Si2 0.126971 0.570117 0.585360
Si Si3 0.934326 0.909908 0.379602
Si Si4 0.750000 0.834584 0.881575
Si Si5 0.250000 0.165144 0.445970
Si Si6 0.872582 0.331633 0.148508
O O1 0.068385 0.250000 0.886373
O O2 0.055734 0.121209 0.780354
O O3 0.145527 0.138806 0.032399
O O4 0.939853 0.151885 0.003966
O O5 0.250000 0.586863 0.542397
O O6 0.115662 0.488300 0.632774
O O7 0.088811 0.618782 0.719685
O O8 0.052983 0.588493 0.447815
O O9 0.856987 0.860997 0.475370
O O10 0.750000 0.750000 0.868730
O O11 0.750000 0.866528 0.718325
O O12 0.250000 0.250000 0.447727
O O13 0.750000 0.347103 0.106959
O O14 0.890876 0.250000 0.199360
#
# Coordination Sequence:
#
# PCOD8244005 Si02
#       6
#     8   8   8   4   4   8
#     4  10  20  35  56  86 117 144 188 242 289 338
#     4  10  22  40  58  80 117 156 197 237 285 353
#     4  11  22  36  59  85 118 156 190 242 296 340
#     4   9  19  33  53  81 115 149 184 231 282 342
#     4  11  21  37  61  89 118 155 198 237 293 354
#     4   9  19  37  59  79 107 150 194 238 286 343
#
# _framework density 18.698181999999999
#
# number of rings (size 3 to 8) (size 9 to 14) (size 15 to 20)
#    0.000    2.000    1.000    2.400    0.000    5.600 
#    0.000    0.000    0.000    0.000    0.000    0.000 
#    0.000    0.000    0.000    0.000    0.000    0.000 
#
# Total GULP energy -496143.355106 kJ/mol
# GULP energy per Si atom -12403.583878 kJ/mol
# Density = 1.865562 g / cm^3
# Si number density = 18.698182 Si / 1000 Ang^3
#
#
#
# Elastic Constant Matrix: (Units=GPa)
#
#
# Indices 1 2 3 4 5 6 
#
# 1 98.9068 36.7376 57.6817 0.0000 0.0000 0.0000
# 2 36.7376 79.8837 59.3920 0.0000 0.0000 0.0000
# 3 57.6817 59.3920 146.4479 0.0000 0.0000 0.0000
# 4 0.0000 0.0000 0.0000 32.0866 0.0000 0.0000
# 5 0.0000 0.0000 0.0000 0.0000 27.0083 0.0000
# 6 0.0000 0.0000 0.0000 0.0000 0.0000 20.3431
#
#
#
# Elastic Compliance Matrix: (Units=1/GPa)
#
#
# Indices 1 2 3 4 5 6 
#
# 1 0.013699 -0.003276 -0.004067 0.000000 0.000000 0.000000
# 2 -0.003276 0.018706 -0.006296 0.000000 0.000000 0.000000
# 3 -0.004067 -0.006296 0.010983 0.000000 0.000000 0.000000
# 4 0.000000 0.000000 0.000000 0.031166 0.000000 0.000000
# 5 0.000000 0.000000 0.000000 0.000000 0.037026 0.000000
# 6 0.000000 0.000000 0.000000 0.000000 0.000000 0.049157
#
#
# Mechanical properties :
#
#
# Convention : Reuss Voigt Hill
#
# Bulk Modulus (GPa) = 62.07189 70.31789 66.19489
# Shear Modulus (GPa) = 25.85520 27.31608 26.58564
#
# Velocity S-wave (km/s) = 3.72259 3.82631 3.77481
# Velocity P-wave (km/s) = 7.19345 7.56369 7.38089
#
# Compressibility (1/GPa) = 0.01611035
#
# Stress axis : x y z
#
# Youngs Moduli (GPa) = 72.99607 53.45982 91.04607
#
# Poissons Ratio (x) = 0.17516 0.37029
# Poissons Ratio (y) = 0.23916 0.57319
# Poissons Ratio (z) = 0.29688 0.33656
#
# Static dielectric constant tensor:
#      x y z
#    x 3.658320 0.000000 0.000000 
#    y 0.000000 3.414910 0.000000 
#    z 0.000000 0.000000 3.395150 
# 
# 
# High freq. dielectric constant tensor:
#      x y z
#    x 1.741880 0.000000 0.000000 
#    y 0.000000 1.719600 0.000000 
#    z 0.000000 0.000000 1.725550 
# 
# From -- ./inp_files/7404.got.cif
#   From: 2010.03.12/outbox.cif.g09.slc.cpg/sg59_4_cif.got.tgz:7404.got - 2010.04.16 16:29:54.
