data_PCOD8244067
_publ_section_title
;
Structure prediction by ZEFSAII (Michael W. Deem and Ramdas Pophale) SiO2 
 PCOD8244067
Probable space group: P M M N
;
_chemical_formula_sum "Si O2"
_cell_formula_units_Z 48
_cell_length_a 7.796291
_cell_length_b 9.493649
_cell_length_c 33.863976
_cell_angle_alpha 90.000000
_cell_angle_beta 90.000000
_cell_angle_gamma 90.000000
_cell_volume 2506.450658
_symmetry_space_group_name_H-M "P M M N"
_symmetry_group_IT_number 59
_space_group.IT_coordinate_system_code '2'
_symmetry_cell_setting 'orthorhombic'
loop_
_space_group_symop_operation_xyz
x,y,z
1/2-x,1/2-y,z
1/2+x,-y,-z
-x,1/2+y,-z
-x,-y,-z
1/2+x,1/2+y,-z
1/2-x,y,z
x,1/2-y,z
loop_
_atom_site_type_symbol
_atom_site_label
_atom_site_fract_x
_atom_site_fract_y
_atom_site_fract_z
Si Si1 0.944057 0.596475 0.964212
Si Si2 0.053446 0.913499 0.461963
Si Si3 0.250000 0.086035 0.596518
Si Si4 0.950436 0.090648 0.809459
Si Si5 0.445099 0.091938 0.894776
Si Si6 0.250000 0.585249 0.676327
Si Si7 0.053671 0.414328 0.265738
O O1 0.750000 0.631213 0.971722
O O2 0.040484 0.750000 0.963590
O O3 0.959312 0.517243 0.922639
O O4 0.000000 0.500000 0.000000
O O5 0.250000 0.948319 0.449328
O O6 0.033216 0.750000 0.472784
O O7 0.922818 0.954921 0.427125
O O8 0.000000 0.000000 0.500000
O O9 0.250000 0.250000 0.607249
O O10 0.250000 0.998165 0.636043
O O11 0.750000 0.076803 0.816967
O O12 0.004053 0.250000 0.798845
O O13 0.042385 0.040164 0.849520
O O14 0.009547 0.993024 0.773516
O O15 0.250000 0.094895 0.908607
O O16 0.524772 0.250000 0.898517
O O17 0.250000 0.750000 0.666772
O O18 0.423181 0.542563 0.699619
O O19 0.250000 0.456725 0.277359
O O20 0.040924 0.250000 0.256544
#
# Coordination Sequence:
#
# PCOD8244067 Si02
#       7
#     8   8   4   8   8   4   8
#     4  11  24  40  58  80 106 139 179 220 265 320
#     4  10  20  35  57  84 115 150 190 236 287 343
#     4  10  22  38  54  82 118 150 188 238 288 338
#     4   9  18  33  54  81 110 140 176 219 270 325
#     4  10  21  36  55  82 113 142 176 219 265 320
#     4  10  22  38  56  80 110 148 194 236 282 340
#     4   9  19  36  56  78 108 144 184 232 281 333
#
# _framework density 19.150587000000002
#
# number of rings (size 3 to 8) (size 9 to 14) (size 15 to 20)
#    0.000    2.167    0.833    1.500    1.167    7.000 
#    0.000    1.667    0.000    0.000    0.000    0.000 
#    0.000    0.000    0.000    0.000    0.000    0.000 
#
# Total GULP energy -595107.642663 kJ/mol
# GULP energy per Si atom -12398.075889 kJ/mol
# Density = 1.910700 g / cm^3
# Si number density = 19.150587 Si / 1000 Ang^3
#
#
#
# Elastic Constant Matrix: (Units=GPa)
#
#
# Indices 1 2 3 4 5 6 
#
# 1 106.2079 43.7163 62.7466 0.0000 0.0000 0.0000
# 2 43.7163 97.4964 86.6469 0.0000 0.0000 0.0000
# 3 62.7466 86.6469 156.6130 0.0000 0.0000 0.0000
# 4 0.0000 0.0000 0.0000 40.9557 0.0000 0.0000
# 5 0.0000 0.0000 0.0000 0.0000 33.1620 0.0000
# 6 0.0000 0.0000 0.0000 0.0000 0.0000 21.1635
#
#
#
# Elastic Compliance Matrix: (Units=1/GPa)
#
#
# Indices 1 2 3 4 5 6 
#
# 1 0.012589 -0.002287 -0.003779 0.000000 0.000000 0.000000
# 2 -0.002287 0.020593 -0.010477 0.000000 0.000000 0.000000
# 3 -0.003779 -0.010477 0.013696 0.000000 0.000000 0.000000
# 4 0.000000 0.000000 0.000000 0.024417 0.000000 0.000000
# 5 0.000000 0.000000 0.000000 0.000000 0.030155 0.000000
# 6 0.000000 0.000000 0.000000 0.000000 0.000000 0.047251
#
#
# Mechanical properties :
#
#
# Convention : Reuss Voigt Hill
#
# Bulk Modulus (GPa) = 72.50036 82.94855 77.72445
# Shear Modulus (GPa) = 26.82632 30.20341 28.51486
#
# Velocity S-wave (km/s) = 3.74680 3.97565 3.86292
# Velocity P-wave (km/s) = 7.52717 8.03008 7.78269
#
# Compressibility (1/GPa) = 0.01379304
#
# Stress axis : x y z
#
# Youngs Moduli (GPa) = 79.43369 48.55906 73.01543
#
# Poissons Ratio (x) = 0.11103 0.27591
# Poissons Ratio (y) = 0.18163 0.76501
# Poissons Ratio (z) = 0.30016 0.50877
#
# Static dielectric constant tensor:
#      x y z
#    x 3.773430 0.000000 0.000000 
#    y 0.000000 3.465470 0.000000 
#    z 0.000000 0.000000 3.424720 
# 
# 
# High freq. dielectric constant tensor:
#      x y z
#    x 1.754340 0.000000 0.000000 
#    y 0.000000 1.744940 0.000000 
#    z 0.000000 0.000000 1.737060 
# 
# From -- ./inp_files/33071.got.cif
#   From: 2010.03.12/outbox.cif.g09.slc.cpg/sg59_17_cif.got.tgz:33071.got - 2010.04.16 16:29:54.
