data_PCOD8244669
_publ_section_title
;
Structure prediction by ZEFSAII (Michael W. Deem and Ramdas Pophale) SiO2 
 PCOD8244669
Probable space group: P M M N
;
_chemical_formula_sum "Si O2"
_cell_formula_units_Z 64
_cell_length_a 18.387562
_cell_length_b 18.559369
_cell_length_c 9.352026
_cell_angle_alpha 90.000000
_cell_angle_beta 90.000000
_cell_angle_gamma 90.000000
_cell_volume 3191.486871
_symmetry_space_group_name_H-M "P M M N"
_symmetry_group_IT_number 59
_space_group.IT_coordinate_system_code '2'
_symmetry_cell_setting 'orthorhombic'
loop_
_space_group_symop_operation_xyz
x,y,z
1/2-x,1/2-y,z
1/2+x,-y,-z
-x,1/2+y,-z
-x,-y,-z
1/2+x,1/2+y,-z
1/2-x,y,z
x,1/2-y,z
loop_
_atom_site_type_symbol
_atom_site_label
_atom_site_fract_x
_atom_site_fract_y
_atom_site_fract_z
Si Si1 0.072238 0.833110 0.088727
Si Si2 0.465863 0.585458 0.657940
Si Si3 0.106671 0.167556 0.283063
Si Si4 0.450602 0.553448 0.336516
Si Si5 0.168007 0.058891 0.776956
Si Si6 0.667021 0.401997 0.150783
Si Si7 0.410556 0.330465 0.968482
Si Si8 0.167814 0.455232 0.453956
O O1 0.088494 0.750000 0.131544
O O2 0.064524 0.881754 0.229097
O O3 0.996703 0.840102 0.003429
O O4 0.137528 0.861787 0.989341
O O5 0.523059 0.644454 0.708592
O O6 0.472727 0.587584 0.487217
O O7 0.488235 0.504799 0.716446
O O8 0.386547 0.610912 0.713768
O O9 0.113981 0.250000 0.328039
O O10 0.159429 0.124531 0.389356
O O11 0.130955 0.155272 0.117801
O O12 0.376044 0.509673 0.354893
O O13 0.250000 0.089977 0.766123
O O14 0.115379 0.117417 0.844032
O O15 0.138531 0.041671 0.617056
O O16 0.167368 0.987851 0.876001
O O17 0.750000 0.375626 0.184665
O O18 0.394530 0.250000 0.913446
O O19 0.250000 0.481379 0.450435
#
# Coordination Sequence:
#
# PCOD8244669 Si02
#       8
#     8   8   8   8   8   8   8   8
#     4  11  25  42  60  89 122 157 201 252 309 365
#     4  10  20  38  63  94 121 156 204 247 302 359
#     4  10  22  38  59  89 125 162 200 245 297 360
#     4  10  22  38  63  92 122 159 199 254 303 357
#     4  10  22  39  61  91 122 158 203 245 294 359
#     4  11  23  40  64  89 119 158 200 253 308 363
#     4  10  22  39  59  87 126 164 199 244 297 356
#     4  10  22  40  61  89 125 160 200 248 301 362
#
# _framework density 20.053348
#
# number of rings (size 3 to 8) (size 9 to 14) (size 15 to 20)
#    0.000    1.750    2.500    0.750    7.000    3.750 
#    0.000    2.500    0.000    0.000    0.000    0.000 
#    0.000    0.000    0.000    0.000    0.000    0.000 
#
# Total GULP energy -793469.544111 kJ/mol
# GULP energy per Si atom -12397.961627 kJ/mol
# Density = 2.000771 g / cm^3
# Si number density = 20.053348 Si / 1000 Ang^3
#
#
#
# Elastic Constant Matrix: (Units=GPa)
#
#
# Indices 1 2 3 4 5 6 
#
# 1 84.1913 17.7445 24.4609 0.0000 0.0000 0.0000
# 2 17.7445 105.9892 56.5837 0.0000 0.0000 0.0000
# 3 24.4609 56.5837 87.0393 0.0000 0.0000 0.0000
# 4 0.0000 0.0000 0.0000 25.9934 0.0000 0.0000
# 5 0.0000 0.0000 0.0000 0.0000 33.4275 0.0000
# 6 0.0000 0.0000 0.0000 0.0000 0.0000 20.9178
#
#
#
# Elastic Compliance Matrix: (Units=1/GPa)
#
#
# Indices 1 2 3 4 5 6 
#
# 1 0.012942 -0.000345 -0.003413 0.000000 0.000000 0.000000
# 2 -0.000345 0.014459 -0.009303 0.000000 0.000000 0.000000
# 3 -0.003413 -0.009303 0.018496 0.000000 0.000000 0.000000
# 4 0.000000 0.000000 0.000000 0.038471 0.000000 0.000000
# 5 0.000000 0.000000 0.000000 0.000000 0.029915 0.000000
# 6 0.000000 0.000000 0.000000 0.000000 0.000000 0.047806
#
#
# Mechanical properties :
#
#
# Convention : Reuss Voigt Hill
#
# Bulk Modulus (GPa) = 50.56668 52.75532 51.66100
# Shear Modulus (GPa) = 25.66691 27.96312 26.81501
#
# Velocity S-wave (km/s) = 3.58149 3.73827 3.66072
# Velocity P-wave (km/s) = 6.50950 6.70801 6.60950
#
# Compressibility (1/GPa) = 0.01977587
#
# Stress axis : x y z
#
# Youngs Moduli (GPa) = 77.26796 69.16052 54.06557
#
# Poissons Ratio (x) = 0.02383 0.18453
# Poissons Ratio (y) = 0.02663 0.50297
# Poissons Ratio (z) = 0.26372 0.64340
#
# Static dielectric constant tensor:
#      x y z
#    x 3.697470 0.000000 0.000000 
#    y 0.000000 3.579090 0.000000 
#    z 0.000000 0.000000 3.504290 
# 
# 
# High freq. dielectric constant tensor:
#      x y z
#    x 1.787830 0.000000 0.000000 
#    y 0.000000 1.773440 0.000000 
#    z 0.000000 0.000000 1.775680 
# 
# From -- ./inp_files/11655.got.cif
#   From: 2010.03.12/outbox.cif.g09.slc.cpg/sg59_6_cif.got.tgz:11655.got - 2010.04.16 16:29:54.
