data_PCOD8244334
_publ_section_title
;
Structure prediction by ZEFSAII (Michael W. Deem and Ramdas Pophale) SiO2 
 PCOD8244334
Probable space group: P M M N
;
_chemical_formula_sum "Si O2"
_cell_formula_units_Z 64
_cell_length_a 23.547287
_cell_length_b 8.761088
_cell_length_c 15.269692
_cell_angle_alpha 90.000000
_cell_angle_beta 90.000000
_cell_angle_gamma 90.000000
_cell_volume 3150.135224
_symmetry_space_group_name_H-M "P M M N"
_symmetry_group_IT_number 59
_space_group.IT_coordinate_system_code '2'
_symmetry_cell_setting 'orthorhombic'
loop_
_space_group_symop_operation_xyz
x,y,z
1/2-x,1/2-y,z
1/2+x,-y,-z
-x,1/2+y,-z
-x,-y,-z
1/2+x,1/2+y,-z
1/2-x,y,z
x,1/2-y,z
loop_
_atom_site_type_symbol
_atom_site_label
_atom_site_fract_x
_atom_site_fract_y
_atom_site_fract_z
Si Si1 0.485476 0.071651 0.592874
Si Si2 0.989850 0.929519 0.769697
Si Si3 0.888214 0.425442 0.173707
Si Si4 0.314942 0.417817 0.484086
Si Si5 0.685529 0.068931 0.015789
Si Si6 0.182522 0.579098 0.313763
Si Si7 0.871225 0.572800 0.849059
Si Si8 0.631229 0.425614 0.366028
O O1 0.496955 0.250000 0.588403
O O2 0.500000 0.000000 0.500000
O O3 0.521717 0.004531 0.674553
O O4 0.420295 0.035271 0.610380
O O5 0.996719 0.750000 0.752563
O O6 0.937628 0.966748 0.834111
O O7 0.048028 0.994868 0.814239
O O8 0.895996 0.250000 0.148355
O O9 0.851050 0.502767 0.096523
O O10 0.852879 0.445157 0.263916
O O11 0.250000 0.393946 0.460682
O O12 0.343853 0.250000 0.493020
O O13 0.343297 0.511690 0.404230
O O14 0.317774 0.515976 0.573351
O O15 0.750000 0.002431 0.016785
O O16 0.688923 0.250000 0.023004
O O17 0.652940 0.026359 0.927789
O O18 0.250000 0.585397 0.316607
O O19 0.158078 0.750000 0.300032
O O20 0.163871 0.467253 0.236997
O O21 0.862789 0.750000 0.870692
O O22 0.615908 0.250000 0.386246
#
# Coordination Sequence:
#
# PCOD8244334 Si02
#       8
#     8   8   8   8   8   8   8   8
#     4  11  22  36  56  82 115 153 194 239 287 342
#     4   9  20  39  58  81 114 153 196 238 290 350
#     4   8  17  37  61  82 111 149 191 240 290 344
#     4  10  21  36  54  80 115 153 193 238 291 348
#     4  10  21  38  61  88 115 147 191 240 292 352
#     4  10  21  37  56  78 108 148 193 240 289 348
#     4  11  23  37  57  84 116 150 188 239 295 352
#     4  10  20  36  58  83 113 150 192 240 290 344
#
# _framework density 20.316589
#
# number of rings (size 3 to 8) (size 9 to 14) (size 15 to 20)
#    0.000    2.125    0.000    3.750    1.750    5.250 
#    0.000    4.375    0.000    0.000    0.000    0.000 
#    0.000    0.000    0.000    0.000    0.000    0.000 
#
# Total GULP energy -793377.787117 kJ/mol
# GULP energy per Si atom -12396.527924 kJ/mol
# Density = 2.027035 g / cm^3
# Si number density = 20.316589 Si / 1000 Ang^3
#
#
#
# Elastic Constant Matrix: (Units=GPa)
#
#
# Indices 1 2 3 4 5 6 
#
# 1 75.2225 31.5241 62.5136 0.0000 0.0000 0.0000
# 2 31.5241 63.4825 29.9382 0.0000 0.0000 0.0000
# 3 62.5136 29.9382 137.7734 0.0000 0.0000 0.0000
# 4 0.0000 0.0000 0.0000 24.4926 0.0000 0.0000
# 5 0.0000 0.0000 0.0000 0.0000 35.1144 0.0000
# 6 0.0000 0.0000 0.0000 0.0000 0.0000 24.9579
#
#
#
# Elastic Compliance Matrix: (Units=1/GPa)
#
#
# Indices 1 2 3 4 5 6 
#
# 1 0.024267 -0.007641 -0.009350 0.000000 0.000000 0.000000
# 2 -0.007641 0.019957 -0.000870 0.000000 0.000000 0.000000
# 3 -0.009350 -0.000870 0.011690 0.000000 0.000000 0.000000
# 4 0.000000 0.000000 0.000000 0.040829 0.000000 0.000000
# 5 0.000000 0.000000 0.000000 0.000000 0.028478 0.000000
# 6 0.000000 0.000000 0.000000 0.000000 0.000000 0.040067
#
#
# Mechanical properties :
#
#
# Convention : Reuss Voigt Hill
#
# Bulk Modulus (GPa) = 49.52541 58.27003 53.89772
# Shear Modulus (GPa) = 24.06855 27.07982 25.57418
#
# Velocity S-wave (km/s) = 3.44564 3.65484 3.55178
# Velocity P-wave (km/s) = 6.34505 6.82303 6.58838
#
# Compressibility (1/GPa) = 0.02019165
#
# Stress axis : x y z
#
# Youngs Moduli (GPa) = 41.20888 50.10849 85.54319
#
# Poissons Ratio (x) = 0.38286 0.79987
# Poissons Ratio (y) = 0.31486 0.07440
# Poissons Ratio (z) = 0.38532 0.04358
#
# Static dielectric constant tensor:
#      x y z
#    x 3.749870 0.000000 0.000000 
#    y 0.000000 3.753100 0.000000 
#    z 0.000000 0.000000 3.893890 
# 
# 
# High freq. dielectric constant tensor:
#      x y z
#    x 1.786980 0.000000 0.000000 
#    y 0.000000 1.782820 0.000000 
#    z 0.000000 0.000000 1.798260 
# 
# From -- ./inp_files/24784.got.cif
#   From: 2010.03.12/outbox.cif.g09.slc.cpg/sg59_13_cif.got.tgz:24784.got - 2010.04.16 16:29:54.
