data_PCOD8244247
_publ_section_title
;
Structure prediction by ZEFSAII (Michael W. Deem and Ramdas Pophale) SiO2 
 PCOD8244247
Probable space group: P M M N
;
_chemical_formula_sum "Si O2"
_cell_formula_units_Z 56
_cell_length_a 22.662964
_cell_length_b 8.969188
_cell_length_c 14.843102
_cell_angle_alpha 90.000000
_cell_angle_beta 90.000000
_cell_angle_gamma 90.000000
_cell_volume 3017.133368
_symmetry_space_group_name_H-M "P M M N"
_symmetry_group_IT_number 59
_space_group.IT_coordinate_system_code '2'
_symmetry_cell_setting 'orthorhombic'
loop_
_space_group_symop_operation_xyz
x,y,z
1/2-x,1/2-y,z
1/2+x,-y,-z
-x,1/2+y,-z
-x,-y,-z
1/2+x,1/2+y,-z
1/2-x,y,z
x,1/2-y,z
loop_
_atom_site_type_symbol
_atom_site_label
_atom_site_fract_x
_atom_site_fract_y
_atom_site_fract_z
Si Si1 0.363509 0.075624 0.887865
Si Si2 0.984494 0.074907 0.093543
Si Si3 0.079439 0.426020 0.575788
Si Si4 0.683097 0.420176 0.937759
Si Si5 0.582727 0.420822 0.800389
Si Si6 0.314736 0.074387 0.697433
Si Si7 0.553161 0.078351 0.602236
O O1 0.378369 0.250000 0.894051
O O2 0.322428 0.037405 0.803013
O O3 0.422891 0.985295 0.870794
O O4 0.331975 0.027219 0.979593
O O5 0.981085 0.250000 0.078995
O O6 0.033623 0.034503 0.165955
O O7 0.000000 0.000000 0.000000
O O8 0.085410 0.250000 0.574499
O O9 0.132024 0.495384 0.637579
O O10 0.086516 0.485350 0.474341
O O11 0.015183 0.474277 0.614415
O O12 0.750000 0.447803 0.907514
O O13 0.672519 0.250000 0.969138
O O14 0.643819 0.457971 0.850454
O O15 0.562879 0.250000 0.819119
O O16 0.589643 0.447750 0.693870
O O17 0.250000 0.011359 0.668359
O O18 0.315762 0.250000 0.683319
O O19 0.553790 0.250000 0.572563
#
# Coordination Sequence:
#
# PCOD8244247 Si02
#       7
#     8   8   8   8   8   8   8
#     4  11  21  35  56  80 108 144 184 225 270 326
#     4  12  23  35  53  80 111 142 177 223 273 321
#     4   9  17  32  54  78 104 135 174 221 268 319
#     4  10  21  36  53  74 104 143 184 224 266 316
#     4  10  20  36  56  77 107 144 180 221 270 325
#     4   9  18  33  54  80 109 143 182 222 270 327
#     4   9  18  33  54  79 106 138 174 217 272 327
#
# _framework density 18.560663999999999
#
# number of rings (size 3 to 8) (size 9 to 14) (size 15 to 20)
#    0.000    2.000    1.429    3.000    0.000    3.714 
#    0.000    5.000    0.000    3.000    0.000    0.000 
#    0.000    0.000    0.000    0.000    0.000    0.000 
#
# Total GULP energy -694374.410935 kJ/mol
# GULP energy per Si atom -12399.543052 kJ/mol
# Density = 1.851842 g / cm^3
# Si number density = 18.560664 Si / 1000 Ang^3
#
#
#
# Elastic Constant Matrix: (Units=GPa)
#
#
# Indices 1 2 3 4 5 6 
#
# 1 127.4516 33.6883 63.7822 0.0000 0.0000 0.0000
# 2 33.6883 65.2538 32.2038 0.0000 0.0000 0.0000
# 3 63.7822 32.2038 128.2316 0.0000 0.0000 0.0000
# 4 0.0000 0.0000 0.0000 28.9567 0.0000 0.0000
# 5 0.0000 0.0000 0.0000 0.0000 24.3050 0.0000
# 6 0.0000 0.0000 0.0000 0.0000 0.0000 21.4166
#
#
#
# Elastic Compliance Matrix: (Units=1/GPa)
#
#
# Indices 1 2 3 4 5 6 
#
# 1 0.011079 -0.003424 -0.004650 0.000000 0.000000 0.000000
# 2 -0.003424 0.018551 -0.002956 0.000000 0.000000 0.000000
# 3 -0.004650 -0.002956 0.010854 0.000000 0.000000 0.000000
# 4 0.000000 0.000000 0.000000 0.034534 0.000000 0.000000
# 5 0.000000 0.000000 0.000000 0.000000 0.041144 0.000000
# 6 0.000000 0.000000 0.000000 0.000000 0.000000 0.046693
#
#
# Mechanical properties :
#
#
# Convention : Reuss Voigt Hill
#
# Bulk Modulus (GPa) = 54.28097 64.47619 59.37858
# Shear Modulus (GPa) = 26.17027 27.68650 26.92839
#
# Velocity S-wave (km/s) = 3.75905 3.86641 3.81311
# Velocity P-wave (km/s) = 6.93897 7.39903 7.17269
#
# Compressibility (1/GPa) = 0.01842266
#
# Stress axis : x y z
#
# Youngs Moduli (GPa) = 90.26460 53.90450 92.13367
#
# Poissons Ratio (x) = 0.18459 0.42846
# Poissons Ratio (y) = 0.30910 0.27232
# Poissons Ratio (z) = 0.41977 0.15932
#
# Static dielectric constant tensor:
#      x y z
#    x 3.650090 0.000000 0.000000 
#    y 0.000000 3.390650 0.000000 
#    z 0.000000 0.000000 3.361190 
# 
# 
# High freq. dielectric constant tensor:
#      x y z
#    x 1.719630 0.000000 0.000000 
#    y 0.000000 1.702860 0.000000 
#    z 0.000000 0.000000 1.718600 
# 
# From -- ./inp_files/20936.got.cif
#   From: 2010.03.12/outbox.cif.g09.slc.cpg/sg59_11_cif.got.tgz:20936.got - 2010.04.16 16:29:54.
