data_PCOD8244788
_publ_section_title
;
Structure prediction by ZEFSAII (Michael W. Deem and Ramdas Pophale) SiO2 
 PCOD8244788
Probable space group: P M M N
;
_chemical_formula_sum "Si O2"
_cell_formula_units_Z 64
_cell_length_a 14.320729
_cell_length_b 17.888560
_cell_length_c 13.442036
_cell_angle_alpha 90.000000
_cell_angle_beta 90.000000
_cell_angle_gamma 90.000000
_cell_volume 3443.543413
_symmetry_space_group_name_H-M "P M M N"
_symmetry_group_IT_number 59
_space_group.IT_coordinate_system_code '2'
_symmetry_cell_setting 'orthorhombic'
loop_
_space_group_symop_operation_xyz
x,y,z
1/2-x,1/2-y,z
1/2+x,-y,-z
-x,1/2+y,-z
-x,-y,-z
1/2+x,1/2+y,-z
1/2-x,y,z
x,1/2-y,z
loop_
_atom_site_type_symbol
_atom_site_label
_atom_site_fract_x
_atom_site_fract_y
_atom_site_fract_z
Si Si1 0.857713 0.040748 0.207410
Si Si2 0.361541 0.482837 0.210608
Si Si3 0.020067 0.419979 0.707025
Si Si4 0.507016 0.664255 0.496588
Si Si5 0.144088 0.833937 0.649842
Si Si6 0.643219 0.834567 0.143022
Si Si7 0.641238 0.833649 0.673662
Si Si8 0.356934 0.029189 0.989709
O O1 0.750000 0.015635 0.207773
O O2 0.871977 0.124873 0.244718
O O3 0.910142 0.989846 0.287926
O O4 0.897969 0.027013 0.095622
O O5 0.250000 0.496078 0.220398
O O6 0.415988 0.551471 0.263040
O O7 0.390803 0.401151 0.253900
O O8 0.402068 0.483259 0.097620
O O9 0.064311 0.355179 0.776078
O O10 0.015881 0.390099 0.595989
O O11 0.493640 0.750000 0.460983
O O12 0.418351 0.635551 0.560095
O O13 0.597566 0.655277 0.565084
O O14 0.250000 0.841850 0.613422
O O15 0.114171 0.750000 0.674301
O O16 0.750000 0.845020 0.184337
O O17 0.626295 0.750000 0.109082
O O18 0.628818 0.885581 0.045708
O O19 0.750000 0.839124 0.656369
O O20 0.614248 0.750000 0.715566
O O21 0.250000 0.009663 0.006123
#
# Coordination Sequence:
#
# PCOD8244788 Si02
#       8
#     8   8   8   8   8   8   8   8
#     4   9  18  32  51  76 102 126 160 208 258 306
#     4  10  21  35  52  76 107 142 176 208 247 303
#     4  11  21  33  51  74 104 138 169 205 256 306
#     4  10  21  36  52  71  97 130 168 209 254 303
#     4   9  18  33  52  72  95 126 165 207 248 292
#     4   9  18  33  54  80 105 130 169 218 263 309
#     4   9  19  35  53  75 103 134 171 215 260 304
#     4   8  16  32  52  75 103 133 163 201 251 300
#
# _framework density 18.585507
#
# number of rings (size 3 to 8) (size 9 to 14) (size 15 to 20)
#    0.000    2.625    0.000    2.250    0.000    6.000 
#    0.000    6.250    0.000    5.625    0.000    3.500 
#    0.000    0.000    0.000    0.000    0.000    0.000 
#
# Total GULP energy -792990.604605 kJ/mol
# GULP energy per Si atom -12390.478197 kJ/mol
# Density = 1.854321 g / cm^3
# Si number density = 18.585507 Si / 1000 Ang^3
#
#
#
# Elastic Constant Matrix: (Units=GPa)
#
#
# Indices 1 2 3 4 5 6 
#
# 1 68.4327 23.7264 31.6850 0.0000 0.0000 0.0000
# 2 23.7264 67.4820 60.6095 0.0000 0.0000 0.0000
# 3 31.6850 60.6095 133.6108 0.0000 0.0000 0.0000
# 4 0.0000 0.0000 0.0000 23.2596 0.0000 0.0000
# 5 0.0000 0.0000 0.0000 0.0000 2.6441 0.0000
# 6 0.0000 0.0000 0.0000 0.0000 0.0000 25.1409
#
#
#
# Elastic Compliance Matrix: (Units=1/GPa)
#
#
# Indices 1 2 3 4 5 6 
#
# 1 0.017027 -0.003983 -0.002231 0.000000 0.000000 0.000000
# 2 -0.003983 0.025939 -0.010822 0.000000 0.000000 0.000000
# 3 -0.002231 -0.010822 0.012923 0.000000 0.000000 0.000000
# 4 0.000000 0.000000 0.000000 0.042993 0.000000 0.000000
# 5 0.000000 0.000000 0.000000 0.000000 0.378207 0.000000
# 6 0.000000 0.000000 0.000000 0.000000 0.000000 0.039776
#
#
# Mechanical properties :
#
#
# Convention : Reuss Voigt Hill
#
# Bulk Modulus (GPa) = 45.83659 55.72971 50.78315
# Shear Modulus (GPa) = 8.95722 20.44254 14.69988
#
# Velocity S-wave (km/s) = 2.19771 3.32010 2.81540
# Velocity P-wave (km/s) = 5.58176 6.68940 6.16052
#
# Compressibility (1/GPa) = 0.02181663
#
# Stress axis : x y z
#
# Youngs Moduli (GPa) = 58.73109 38.55183 77.38261
#
# Poissons Ratio (x) = 0.15354 0.17265
# Poissons Ratio (y) = 0.23390 0.83745
# Poissons Ratio (z) = 0.13104 0.41722
#
# Static dielectric constant tensor:
#      x y z
#    x 3.505070 0.000000 0.000000 
#    y 0.000000 3.551580 0.000000 
#    z 0.000000 0.000000 3.368410 
# 
# 
# High freq. dielectric constant tensor:
#      x y z
#    x 1.728470 0.000000 0.000000 
#    y 0.000000 1.717130 0.000000 
#    z 0.000000 0.000000 1.706200 
# 
# From -- ./inp_files/17216.got.cif
#   From: 2010.03.12/outbox.cif.g09.slc.cpg/sg59_9_cif.got.tgz:17216.got - 2010.04.16 16:29:54.
