data_PCOD8244229
_publ_section_title
;
Structure prediction by ZEFSAII (Michael W. Deem and Ramdas Pophale) SiO2 
 PCOD8244229
Probable space group: P M M N
;
_chemical_formula_sum "Si O2"
_cell_formula_units_Z 48
_cell_length_a 25.187887
_cell_length_b 8.780840
_cell_length_c 11.873783
_cell_angle_alpha 90.000000
_cell_angle_beta 90.000000
_cell_angle_gamma 90.000000
_cell_volume 2626.134153
_symmetry_space_group_name_H-M "P M M N"
_symmetry_group_IT_number 59
_space_group.IT_coordinate_system_code '2'
_symmetry_cell_setting 'orthorhombic'
loop_
_space_group_symop_operation_xyz
x,y,z
1/2-x,1/2-y,z
1/2+x,-y,-z
-x,1/2+y,-z
-x,-y,-z
1/2+x,1/2+y,-z
1/2-x,y,z
x,1/2-y,z
loop_
_atom_site_type_symbol
_atom_site_label
_atom_site_fract_x
_atom_site_fract_y
_atom_site_fract_z
Si Si1 0.096369 0.569579 0.764703
Si Si2 0.311452 0.427150 0.372173
Si Si3 0.496825 0.430274 0.377839
Si Si4 0.057820 0.570805 0.000771
Si Si5 0.189640 0.571128 0.608700
Si Si6 0.902066 0.071091 0.757646
O O1 0.095325 0.750000 0.763129
O O2 0.046495 0.506712 0.693904
O O3 0.151504 0.512691 0.709284
O O4 0.091383 0.510008 0.893155
O O5 0.250000 0.460747 0.348888
O O6 0.325239 0.250000 0.363196
O O7 0.327596 0.484158 0.496052
O O8 0.343249 0.520313 0.277684
O O9 0.500000 0.500000 0.500000
O O10 0.497920 0.250000 0.387207
O O11 0.442891 0.481260 0.319718
O O12 0.049844 0.750000 0.992716
O O13 0.089674 0.523863 0.112485
O O14 0.000000 0.500000 0.000000
O O15 0.250000 0.531622 0.643398
O O16 0.182482 0.750000 0.585631
O O17 0.909821 0.250000 0.739357
#
# Coordination Sequence:
#
# PCOD8244229 Si02
#       6
#     8   8   8   8   8   8
#     4   9  18  33  52  76 106 139 176 219 268 318
#     4  10  21  37  57  80 108 143 181 222 272 327
#     4  11  21  33  52  77 110 144 177 224 276 328
#     4  10  20  36  55  76 105 143 186 226 268 323
#     4   9  17  32  56  82 108 139 175 219 273 329
#     4  11  22  35  54  80 109 141 183 227 272 328
#
# _framework density 18.277818
#
# number of rings (size 3 to 8) (size 9 to 14) (size 15 to 20)
#    0.000    2.000    1.667    2.500    0.000    3.000 
#    0.000    2.500    0.000    3.000    0.000    2.333 
#    0.000    0.000    0.000    0.000    0.000    0.000 
#
# Total GULP energy -595269.638938 kJ/mol
# GULP energy per Si atom -12401.450811 kJ/mol
# Density = 1.823622 g / cm^3
# Si number density = 18.277818 Si / 1000 Ang^3
#
#
#
# Elastic Constant Matrix: (Units=GPa)
#
#
# Indices 1 2 3 4 5 6 
#
# 1 110.5015 25.4503 79.2702 0.0000 0.0000 0.0000
# 2 25.4503 46.6561 40.0996 0.0000 0.0000 0.0000
# 3 79.2702 40.0996 173.5667 0.0000 0.0000 0.0000
# 4 0.0000 0.0000 0.0000 22.0554 0.0000 0.0000
# 5 0.0000 0.0000 0.0000 0.0000 32.1119 0.0000
# 6 0.0000 0.0000 0.0000 0.0000 0.0000 25.1561
#
#
#
# Elastic Compliance Matrix: (Units=1/GPa)
#
#
# Indices 1 2 3 4 5 6 
#
# 1 0.013711 -0.002617 -0.005657 0.000000 0.000000 0.000000
# 2 -0.002617 0.027243 -0.005099 0.000000 0.000000 0.000000
# 3 -0.005657 -0.005099 0.009523 0.000000 0.000000 0.000000
# 4 0.000000 0.000000 0.000000 0.045340 0.000000 0.000000
# 5 0.000000 0.000000 0.000000 0.000000 0.031141 0.000000
# 6 0.000000 0.000000 0.000000 0.000000 0.000000 0.039752
#
#
# Mechanical properties :
#
#
# Convention : Reuss Voigt Hill
#
# Bulk Modulus (GPa) = 42.13862 68.92938 55.53400
# Shear Modulus (GPa) = 24.83031 28.25831 26.54431
#
# Velocity S-wave (km/s) = 3.68977 3.93624 3.81500
# Velocity P-wave (km/s) = 6.42317 7.64543 7.06080
#
# Compressibility (1/GPa) = 0.02373120
#
# Stress axis : x y z
#
# Youngs Moduli (GPa) = 72.93575 36.70632 105.00583
#
# Poissons Ratio (x) = 0.09605 0.59405
# Poissons Ratio (y) = 0.19085 0.53542
# Poissons Ratio (z) = 0.41262 0.18717
#
# Static dielectric constant tensor:
#      x y z
#    x 3.473340 0.000000 0.000000 
#    y 0.000000 3.262450 0.000000 
#    z 0.000000 0.000000 3.683070 
# 
# 
# High freq. dielectric constant tensor:
#      x y z
#    x 1.710430 0.000000 0.000000 
#    y 0.000000 1.697570 0.000000 
#    z 0.000000 0.000000 1.712980 
# 
# From -- ./inp_files/14317.got.cif
#   From: 2010.03.12/outbox.cif.g09.slc.cpg/sg59_8_cif.got.tgz:14317.got - 2010.04.16 16:29:54.
