data_PCOD8244542
_publ_section_title
;
Structure prediction by ZEFSAII (Michael W. Deem and Ramdas Pophale) SiO2 
 PCOD8244542
Probable space group: P M M N
;
_chemical_formula_sum "Si O2"
_cell_formula_units_Z 64
_cell_length_a 14.290144
_cell_length_b 21.968636
_cell_length_c 10.028170
_cell_angle_alpha 90.000000
_cell_angle_beta 90.000000
_cell_angle_gamma 90.000000
_cell_volume 3148.193267
_symmetry_space_group_name_H-M "P M M N"
_symmetry_group_IT_number 59
_space_group.IT_coordinate_system_code '2'
_symmetry_cell_setting 'orthorhombic'
loop_
_space_group_symop_operation_xyz
x,y,z
1/2-x,1/2-y,z
1/2+x,-y,-z
-x,1/2+y,-z
-x,-y,-z
1/2+x,1/2+y,-z
1/2-x,y,z
x,1/2-y,z
loop_
_atom_site_type_symbol
_atom_site_label
_atom_site_fract_x
_atom_site_fract_y
_atom_site_fract_z
Si Si1 0.012478 0.179065 0.774105
Si Si2 0.139377 0.974645 0.557520
Si Si3 0.355129 0.013247 0.059767
Si Si4 0.360144 0.915852 0.283158
Si Si5 0.861198 0.611521 0.432814
Si Si6 0.468439 0.136004 0.065524
Si Si7 0.855591 0.420400 0.167043
Si Si8 0.355694 0.181428 0.307082
O O1 0.001176 0.250000 0.741290
O O2 0.093832 0.150441 0.684830
O O3 0.043660 0.170366 0.926711
O O4 0.913423 0.146893 0.745426
O O5 0.250000 0.980825 0.551677
O O6 0.103388 0.942292 0.423663
O O7 0.108512 0.934519 0.683858
O O8 0.098800 0.042825 0.570112
O O9 0.250000 0.036343 0.092350
O O10 0.387049 0.964089 0.169249
O O11 0.358651 0.983512 0.914134
O O12 0.426377 0.068471 0.062105
O O13 0.250000 0.901527 0.283239
O O14 0.750000 0.615461 0.413257
O O15 0.892079 0.637846 0.575858
O O16 0.578231 0.130454 0.101773
O O17 0.418655 0.175997 0.176774
O O18 0.750000 0.393988 0.166457
O O19 0.250000 0.163764 0.267327
O O20 0.361458 0.250000 0.361211
#
# Coordination Sequence:
#
# PCOD8244542 Si02
#       8
#     8   8   8   8   8   8   8   8
#     4  12  27  41  59  89 124 169 217 245 289 359
#     4   9  19  36  61  92 120 149 192 248 313 371
#     4  10  20  37  60  89 122 156 198 249 314 375
#     4  10  22  41  63  90 125 159 202 258 309 362
#     4  10  22  42  65  91 125 159 194 247 313 374
#     4  12  23  37  61  90 123 159 204 256 305 353
#     4  10  21  36  56  87 124 158 190 237 305 369
#     4  10  22  41  62  84 115 159 206 249 297 356
#
# _framework density 20.329118999999999
#
# number of rings (size 3 to 8) (size 9 to 14) (size 15 to 20)
#    0.000    1.625    1.250    3.000    3.500    5.500 
#    0.000    0.000    0.000    1.125    0.000    0.000 
#    0.000    0.000    0.000    0.000    0.000    0.000 
#
# Total GULP energy -793887.337073 kJ/mol
# GULP energy per Si atom -12404.489642 kJ/mol
# Density = 2.028285 g / cm^3
# Si number density = 20.329119 Si / 1000 Ang^3
#
#
#
# Elastic Constant Matrix: (Units=GPa)
#
#
# Indices 1 2 3 4 5 6 
#
# 1 69.8605 21.0101 34.6009 0.0000 0.0000 0.0000
# 2 21.0101 72.5674 32.0476 0.0000 0.0000 0.0000
# 3 34.6009 32.0476 136.9851 0.0000 0.0000 0.0000
# 4 0.0000 0.0000 0.0000 17.2964 0.0000 0.0000
# 5 0.0000 0.0000 0.0000 0.0000 30.2592 0.0000
# 6 0.0000 0.0000 0.0000 0.0000 0.0000 22.7500
#
#
#
# Elastic Compliance Matrix: (Units=1/GPa)
#
#
# Indices 1 2 3 4 5 6 
#
# 1 0.017077 -0.003390 -0.003521 0.000000 0.000000 0.000000
# 2 -0.003390 0.016041 -0.002897 0.000000 0.000000 0.000000
# 3 -0.003521 -0.002897 0.008867 0.000000 0.000000 0.000000
# 4 0.000000 0.000000 0.000000 0.057815 0.000000 0.000000
# 5 0.000000 0.000000 0.000000 0.000000 0.033048 0.000000
# 6 0.000000 0.000000 0.000000 0.000000 0.000000 0.043956
#
#
# Mechanical properties :
#
#
# Convention : Reuss Voigt Hill
#
# Bulk Modulus (GPa) = 44.69923 50.52558 47.61240
# Shear Modulus (GPa) = 24.52483 26.84475 25.68479
#
# Velocity S-wave (km/s) = 3.47708 3.63782 3.55836
# Velocity P-wave (km/s) = 6.17702 6.52325 6.35249
#
# Compressibility (1/GPa) = 0.02237175
#
# Stress axis : x y z
#
# Youngs Moduli (GPa) = 58.55725 62.34085 112.77811
#
# Poissons Ratio (x) = 0.21131 0.39704
# Poissons Ratio (y) = 0.19848 0.32667
# Poissons Ratio (z) = 0.20615 0.18058
#
# Static dielectric constant tensor:
#      x y z
#    x 3.699310 0.000000 0.000000 
#    y 0.000000 3.443400 0.000000 
#    z 0.000000 0.000000 3.917470 
# 
# 
# High freq. dielectric constant tensor:
#      x y z
#    x 1.798590 0.000000 0.000000 
#    y 0.000000 1.771550 0.000000 
#    z 0.000000 0.000000 1.811250 
# 
# From -- ./inp_files/9588.got.cif
#   From: 2010.03.12/outbox.cif.g09.slc.cpg/sg59_5_cif.got.tgz:9588.got - 2010.04.16 16:29:54.
