data_PCOD8244186
_publ_section_title
;
Structure prediction by ZEFSAII (Michael W. Deem and Ramdas Pophale) SiO2 
 PCOD8244186
Probable space group: P M M N
;
_chemical_formula_sum "Si O2"
_cell_formula_units_Z 56
_cell_length_a 8.808480
_cell_length_b 22.461733
_cell_length_c 14.685687
_cell_angle_alpha 90.000000
_cell_angle_beta 90.000000
_cell_angle_gamma 90.000000
_cell_volume 2905.617890
_symmetry_space_group_name_H-M "P M M N"
_symmetry_group_IT_number 59
_space_group.IT_coordinate_system_code '2'
_symmetry_cell_setting 'orthorhombic'
loop_
_space_group_symop_operation_xyz
x,y,z
1/2-x,1/2-y,z
1/2+x,-y,-z
-x,1/2+y,-z
-x,-y,-z
1/2+x,1/2+y,-z
1/2-x,y,z
x,1/2-y,z
loop_
_atom_site_type_symbol
_atom_site_label
_atom_site_fract_x
_atom_site_fract_y
_atom_site_fract_z
Si Si1 0.073301 0.083981 0.207636
Si Si2 0.077379 0.182572 0.063938
Si Si3 0.424947 0.316450 0.708237
Si Si4 0.425734 0.556127 0.613762
Si Si5 0.573289 0.578291 0.425731
Si Si6 0.072291 0.859380 0.116671
Si Si7 0.427777 0.016576 0.904677
O O1 0.250000 0.067787 0.199867
O O2 0.033350 0.142998 0.150877
O O3 0.024966 0.092032 0.312261
O O4 0.970971 0.030857 0.170736
O O5 0.250000 0.169270 0.032662
O O6 0.056883 0.250000 0.096420
O O7 0.967965 0.170127 0.979550
O O8 0.250000 0.328435 0.733689
O O9 0.445036 0.250000 0.665656
O O10 0.481194 0.367315 0.638328
O O11 0.523179 0.317298 0.800408
O O12 0.250000 0.570345 0.629362
O O13 0.474074 0.581753 0.516451
O O14 0.457543 0.485210 0.622520
O O15 0.750000 0.584591 0.451384
O O16 0.250000 0.871293 0.119207
O O17 0.984425 0.920565 0.130743
O O18 0.250000 0.018632 0.918771
O O19 0.500000 0.000000 0.000000
#
# Coordination Sequence:
#
# PCOD8244186 Si02
#       7
#     8   8   8   8   8   8   8
#     4  11  22  37  59  86 116 151 192 237 285 344
#     4  10  22  40  59  78 108 153 199 241 284 334
#     4  10  21  38  60  85 116 156 198 242 295 355
#     4  10  20  35  59  87 115 148 186 235 295 351
#     4   9  19  37  59  84 112 145 187 236 290 351
#     4  12  24  37  57  85 117 155 195 238 289 346
#     4  12  23  37  57  84 117 151 189 237 290 343
#
# _framework density 19.273008999999998
#
# number of rings (size 3 to 8) (size 9 to 14) (size 15 to 20)
#    0.000    1.429    1.429    4.714    0.000    5.143 
#    0.000    0.714    0.000    4.286    0.000    0.000 
#    0.000    0.000    0.000    0.000    0.000    0.000 
#
# Total GULP energy -694634.458835 kJ/mol
# GULP energy per Si atom -12404.186765 kJ/mol
# Density = 1.922914 g / cm^3
# Si number density = 19.273009 Si / 1000 Ang^3
#
#
#
# Elastic Constant Matrix: (Units=GPa)
#
#
# Indices 1 2 3 4 5 6 
#
# 1 106.8190 37.7804 50.1751 0.0000 0.0000 0.0000
# 2 37.7804 111.3423 59.1558 0.0000 0.0000 0.0000
# 3 50.1751 59.1558 112.5301 0.0000 0.0000 0.0000
# 4 0.0000 0.0000 0.0000 23.2176 0.0000 0.0000
# 5 0.0000 0.0000 0.0000 0.0000 35.1243 0.0000
# 6 0.0000 0.0000 0.0000 0.0000 0.0000 24.0767
#
#
#
# Elastic Compliance Matrix: (Units=1/GPa)
#
#
# Indices 1 2 3 4 5 6 
#
# 1 0.012073 -0.001716 -0.004481 0.000000 0.000000 0.000000
# 2 -0.001716 0.012706 -0.005914 0.000000 0.000000 0.000000
# 3 -0.004481 -0.005914 0.013994 0.000000 0.000000 0.000000
# 4 0.000000 0.000000 0.000000 0.043071 0.000000 0.000000
# 5 0.000000 0.000000 0.000000 0.000000 0.028470 0.000000
# 6 0.000000 0.000000 0.000000 0.000000 0.000000 0.041534
#
#
# Mechanical properties :
#
#
# Convention : Reuss Voigt Hill
#
# Bulk Modulus (GPa) = 68.72784 69.43488 69.08136
# Shear Modulus (GPa) = 27.63642 28.72239 28.17941
#
# Velocity S-wave (km/s) = 3.79085 3.86462 3.82791
# Velocity P-wave (km/s) = 7.40934 7.48458 7.44705
#
# Compressibility (1/GPa) = 0.01455014
#
# Stress axis : x y z
#
# Youngs Moduli (GPa) = 82.82618 78.70469 71.46074
#
# Poissons Ratio (x) = 0.13504 0.32024
# Poissons Ratio (y) = 0.14211 0.42263
# Poissons Ratio (z) = 0.37117 0.46548
#
# Static dielectric constant tensor:
#      x y z
#    x 3.515960 0.000000 0.000000 
#    y 0.000000 3.614890 0.000000 
#    z 0.000000 0.000000 3.524830 
# 
# 
# High freq. dielectric constant tensor:
#      x y z
#    x 1.753480 0.000000 0.000000 
#    y 0.000000 1.747270 0.000000 
#    z 0.000000 0.000000 1.747790 
# 
# From -- ./inp_files/20930.got.cif
#   From: 2010.03.12/outbox.cif.g09.slc.cpg/sg59_11_cif.got.tgz:20930.got - 2010.04.16 16:29:54.
