data_PCOD8244170
_publ_section_title
;
Structure prediction by ZEFSAII (Michael W. Deem and Ramdas Pophale) SiO2 
 PCOD8244170
Probable space group: P M M N
;
_chemical_formula_sum "Si O2"
_cell_formula_units_Z 64
_cell_length_a 14.487042
_cell_length_b 8.655953
_cell_length_c 24.646915
_cell_angle_alpha 90.000000
_cell_angle_beta 90.000000
_cell_angle_gamma 90.000000
_cell_volume 3090.702306
_symmetry_space_group_name_H-M "P M M N"
_symmetry_group_IT_number 59
_space_group.IT_coordinate_system_code '2'
_symmetry_cell_setting 'orthorhombic'
loop_
_space_group_symop_operation_xyz
x,y,z
1/2-x,1/2-y,z
1/2+x,-y,-z
-x,1/2+y,-z
-x,-y,-z
1/2+x,1/2+y,-z
1/2-x,y,z
x,1/2-y,z
loop_
_atom_site_type_symbol
_atom_site_label
_atom_site_fract_x
_atom_site_fract_y
_atom_site_fract_z
Si Si1 0.649344 0.927133 0.772217
Si Si2 0.643028 0.433465 0.153560
Si Si3 0.142091 0.424073 0.540464
Si Si4 0.647868 0.423527 0.885866
Si Si5 0.534834 0.568699 0.256302
Si Si6 0.965047 0.069909 0.364816
Si Si7 0.512589 0.073765 0.058156
Si Si8 0.648557 0.566378 0.580773
O O1 0.750000 0.940143 0.742520
O O2 0.632627 0.750000 0.790321
O O3 0.650680 0.041337 0.822810
O O4 0.564423 0.984463 0.736345
O O5 0.750000 0.484900 0.151550
O O6 0.632766 0.250000 0.158212
O O7 0.594316 0.506571 0.205968
O O8 0.592851 0.493732 0.098124
O O9 0.250000 0.423823 0.552154
O O10 0.102791 0.250000 0.547828
O O11 0.095254 0.540632 0.582196
O O12 0.122316 0.489052 0.479988
O O13 0.750000 0.435730 0.911378
O O14 0.608402 0.250000 0.894570
O O15 0.585211 0.551978 0.913311
O O16 0.523837 0.750000 0.248699
O O17 0.579813 0.525519 0.314302
O O18 0.962488 0.250000 0.350189
O O19 0.070145 0.012434 0.377039
O O20 0.535711 0.250000 0.047942
O O21 0.500000 0.000000 0.000000
O O22 0.750000 0.501316 0.597996
O O23 0.653458 0.750000 0.578992
#
# Coordination Sequence:
#
# PCOD8244170 Si02
#       8
#     8   8   8   8   8   8   8   8
#     4  10  20  36  60  87 115 150 191 235 289 353
#     4  10  23  45  69  90 117 158 206 253 302 355
#     4   9  18  35  58  82 112 150 193 243 299 357
#     4  10  20  35  58  88 121 155 191 235 288 345
#     4  12  25  40  60  86 120 159 202 251 303 358
#     4  11  22  35  56  85 117 153 197 247 298 354
#     4  11  23  39  63  93 127 162 198 246 301 355
#     4   8  16  33  57  84 114 151 193 238 294 359
#
# _framework density 20.707269
#
# number of rings (size 3 to 8) (size 9 to 14) (size 15 to 20)
#    0.000    1.875    1.250    3.750    0.000    4.000 
#    0.000    3.125    0.000    2.625    0.000    0.000 
#    0.000    0.000    0.000    0.000    0.000    0.000 
#
# Total GULP energy -793223.474177 kJ/mol
# GULP energy per Si atom -12394.116784 kJ/mol
# Density = 2.066014 g / cm^3
# Si number density = 20.707269 Si / 1000 Ang^3
#
#
#
# Elastic Constant Matrix: (Units=GPa)
#
#
# Indices 1 2 3 4 5 6 
#
# 1 98.0031 37.5358 53.1338 0.0000 0.0000 0.0000
# 2 37.5358 63.9335 32.5214 0.0000 0.0000 0.0000
# 3 53.1338 32.5214 125.4032 0.0000 0.0000 0.0000
# 4 0.0000 0.0000 0.0000 31.7345 0.0000 0.0000
# 5 0.0000 0.0000 0.0000 0.0000 12.5535 0.0000
# 6 0.0000 0.0000 0.0000 0.0000 0.0000 26.5182
#
#
#
# Elastic Compliance Matrix: (Units=1/GPa)
#
#
# Indices 1 2 3 4 5 6 
#
# 1 0.015309 -0.006553 -0.004787 0.000000 0.000000 0.000000
# 2 -0.006553 0.020823 -0.002624 0.000000 0.000000 0.000000
# 3 -0.004787 -0.002624 0.010683 0.000000 0.000000 0.000000
# 4 0.000000 0.000000 0.000000 0.031511 0.000000 0.000000
# 5 0.000000 0.000000 0.000000 0.000000 0.079659 0.000000
# 6 0.000000 0.000000 0.000000 0.000000 0.000000 0.037710
#
#
# Mechanical properties :
#
#
# Convention : Reuss Voigt Hill
#
# Bulk Modulus (GPa) = 52.94436 59.30242 56.12339
# Shear Modulus (GPa) = 21.74684 25.10450 23.42567
#
# Velocity S-wave (km/s) = 3.24420 3.48566 3.36710
# Velocity P-wave (km/s) = 6.29735 6.70078 6.50219
#
# Compressibility (1/GPa) = 0.01888775
#
# Stress axis : x y z
#
# Youngs Moduli (GPa) = 65.32122 48.02358 93.60681
#
# Poissons Ratio (x) = 0.31470 0.44810
# Poissons Ratio (y) = 0.42805 0.24559
# Poissons Ratio (z) = 0.31270 0.12600
#
# Static dielectric constant tensor:
#      x y z
#    x 5.270520 0.000000 0.000000 
#    y 0.000000 3.573500 0.000000 
#    z 0.000000 0.000000 4.069860 
# 
# 
# High freq. dielectric constant tensor:
#      x y z
#    x 1.812810 0.000000 0.000000 
#    y 0.000000 1.795220 0.000000 
#    z 0.000000 0.000000 1.809170 
# 
# From -- ./inp_files/32156.got.cif
#   From: 2010.03.12/outbox.cif.g09.slc.cpg/sg59_17_cif.got.tgz:32156.got - 2010.04.16 16:29:54.
