data_PCOD8244922
_publ_section_title
;
Structure prediction by ZEFSAII (Michael W. Deem and Ramdas Pophale) SiO2 
 PCOD8244922
Probable space group: P M M N
;
_chemical_formula_sum "Si O2"
_cell_formula_units_Z 64
_cell_length_a 31.159310
_cell_length_b 9.098636
_cell_length_c 12.087312
_cell_angle_alpha 90.000000
_cell_angle_beta 90.000000
_cell_angle_gamma 90.000000
_cell_volume 3426.840219
_symmetry_space_group_name_H-M "P M M N"
_symmetry_group_IT_number 59
_space_group.IT_coordinate_system_code '2'
_symmetry_cell_setting 'orthorhombic'
loop_
_space_group_symop_operation_xyz
x,y,z
1/2-x,1/2-y,z
1/2+x,-y,-z
-x,1/2+y,-z
-x,-y,-z
1/2+x,1/2+y,-z
1/2-x,y,z
x,1/2-y,z
loop_
_atom_site_type_symbol
_atom_site_label
_atom_site_fract_x
_atom_site_fract_y
_atom_site_fract_z
Si Si1 0.988145 0.583216 0.610777
Si Si2 0.545230 0.580265 0.011196
Si Si3 0.126972 0.578689 0.593990
Si Si4 0.887324 0.583410 0.625810
Si Si5 0.125113 0.424890 0.128900
Si Si6 0.444915 0.080105 0.737181
Si Si7 0.298407 0.076004 0.977473
Si Si8 0.298394 0.581824 0.755765
O O1 0.005066 0.750000 0.603575
O O2 0.938155 0.578279 0.630617
O O3 0.000000 0.500000 0.500000
O O4 0.010119 0.500679 0.713606
O O5 0.536160 0.750000 0.984903
O O6 0.565180 0.561013 0.133673
O O7 0.500000 0.500000 0.000000
O O8 0.581356 0.514267 0.928319
O O9 0.115100 0.750000 0.592929
O O10 0.131011 0.521198 0.469083
O O11 0.091052 0.492444 0.661264
O O12 0.172513 0.546852 0.650265
O O13 0.871400 0.750000 0.604519
O O14 0.870952 0.523250 0.744186
O O15 0.122942 0.250000 0.121794
O O16 0.167772 0.484461 0.067489
O O17 0.448404 0.250000 0.702487
O O18 0.250000 0.021661 0.007085
O O19 0.300029 0.250000 0.971709
O O20 0.313042 0.016899 0.858481
O O21 0.250000 0.544181 0.719762
O O22 0.303178 0.750000 0.793576
#
# Coordination Sequence:
#
# PCOD8244922 Si02
#       8
#     8   8   8   8   8   8   8   8
#     4  11  21  34  53  76 104 142 185 226 267 314
#     4  10  21  36  54  76 105 141 178 220 267 319
#     4  11  22  35  54  78 104 137 177 220 265 315
#     4  10  21  36  54  74 104 145 182 220 266 317
#     4   9  18  35  55  76 106 143 177 215 269 321
#     4  11  22  35  54  80 108 138 175 222 273 321
#     4   9  17  32  58  87 109 134 173 218 263 319
#     4   9  19  36  56  79 108 138 168 210 268 326
#
# _framework density 18.676096999999999
#
# number of rings (size 3 to 8) (size 9 to 14) (size 15 to 20)
#    0.000    2.000    1.250    2.625    0.000    4.500 
#    0.000    2.500    0.000    0.750    0.000    0.000 
#    0.000    0.000    0.000    0.000    0.000    0.000 
#
# Total GULP energy -793646.679764 kJ/mol
# GULP energy per Si atom -12400.729371 kJ/mol
# Density = 1.863359 g / cm^3
# Si number density = 18.676097 Si / 1000 Ang^3
#
#
#
# Elastic Constant Matrix: (Units=GPa)
#
#
# Indices 1 2 3 4 5 6 
#
# 1 103.5875 39.1083 67.2220 0.0000 0.0000 0.0000
# 2 39.1083 78.4325 49.1879 0.0000 0.0000 0.0000
# 3 67.2220 49.1879 132.0658 0.0000 0.0000 0.0000
# 4 0.0000 0.0000 0.0000 24.9686 0.0000 0.0000
# 5 0.0000 0.0000 0.0000 0.0000 34.9598 0.0000
# 6 0.0000 0.0000 0.0000 0.0000 0.0000 21.9721
#
#
#
# Elastic Compliance Matrix: (Units=1/GPa)
#
#
# Indices 1 2 3 4 5 6 
#
# 1 0.015134 -0.003543 -0.006384 0.000000 0.000000 0.000000
# 2 -0.003543 0.017465 -0.004702 0.000000 0.000000 0.000000
# 3 -0.006384 -0.004702 0.012572 0.000000 0.000000 0.000000
# 4 0.000000 0.000000 0.000000 0.040050 0.000000 0.000000
# 5 0.000000 0.000000 0.000000 0.000000 0.028604 0.000000
# 6 0.000000 0.000000 0.000000 0.000000 0.000000 0.045512
#
#
# Mechanical properties :
#
#
# Convention : Reuss Voigt Hill
#
# Bulk Modulus (GPa) = 62.83294 69.45803 66.14549
# Shear Modulus (GPa) = 25.78668 26.95127 26.36897
#
# Velocity S-wave (km/s) = 3.71985 3.80292 3.76162
# Velocity P-wave (km/s) = 7.22262 7.52028 7.37295
#
# Compressibility (1/GPa) = 0.01591522
#
# Stress axis : x y z
#
# Youngs Moduli (GPa) = 66.07735 57.25813 79.53925
#
# Poissons Ratio (x) = 0.20284 0.50776
# Poissons Ratio (y) = 0.23409 0.37396
# Poissons Ratio (z) = 0.42182 0.26920
#
# Static dielectric constant tensor:
#      x y z
#    x 3.564660 0.000000 0.000000 
#    y 0.000000 3.408260 0.000000 
#    z 0.000000 0.000000 3.555930 
# 
# 
# High freq. dielectric constant tensor:
#      x y z
#    x 1.722610 0.000000 0.000000 
#    y 0.000000 1.713780 0.000000 
#    z 0.000000 0.000000 1.729920 
# 
# From -- ./inp_files/19393.got.cif
#   From: 2010.03.12/outbox.cif.g09.slc.cpg/sg59_10_cif.got.tgz:19393.got - 2010.04.16 16:29:54.
