data_PCOD8244464
_publ_section_title
;
Structure prediction by ZEFSAII (Michael W. Deem and Ramdas Pophale) SiO2 
 PCOD8244464
Probable space group: P M M N
;
_chemical_formula_sum "Si O2"
_cell_formula_units_Z 56
_cell_length_a 21.618272
_cell_length_b 8.514153
_cell_length_c 14.876147
_cell_angle_alpha 90.000000
_cell_angle_beta 90.000000
_cell_angle_gamma 90.000000
_cell_volume 2738.122590
_symmetry_space_group_name_H-M "P M M N"
_symmetry_group_IT_number 59
_space_group.IT_coordinate_system_code '2'
_symmetry_cell_setting 'orthorhombic'
loop_
_space_group_symop_operation_xyz
x,y,z
1/2-x,1/2-y,z
1/2+x,-y,-z
-x,1/2+y,-z
-x,-y,-z
1/2+x,1/2+y,-z
1/2-x,y,z
x,1/2-y,z
loop_
_atom_site_type_symbol
_atom_site_label
_atom_site_fract_x
_atom_site_fract_y
_atom_site_fract_z
Si Si1 0.321497 0.566429 0.724277
Si Si2 0.250000 0.070165 0.252002
Si Si3 0.250000 0.569684 0.062095
Si Si4 0.379939 0.065660 0.034898
Si Si5 0.821867 0.934192 0.468711
Si Si6 0.948569 0.934074 0.787098
Si Si7 0.425366 0.066978 0.844158
Si Si8 0.862833 0.433201 0.646541
O O1 0.250000 0.526770 0.742987
O O2 0.335196 0.750000 0.733378
O O3 0.340801 0.509835 0.625507
O O4 0.360717 0.470856 0.796661
O O5 0.250000 0.250000 0.218067
O O6 0.250000 0.953975 0.168523
O O7 0.189749 0.040790 0.310232
O O8 0.250000 0.750000 0.037386
O O9 0.188792 0.497323 0.018936
O O10 0.375260 0.250000 0.043622
O O11 0.411276 0.998879 0.125924
O O12 0.420945 0.017565 0.948916
O O13 0.750000 0.968849 0.491181
O O14 0.835539 0.750000 0.466024
O O15 0.865833 0.017346 0.542264
O O16 0.937109 0.750000 0.774105
O O17 0.926357 0.026261 0.698049
O O18 0.020942 0.965605 0.798721
O O19 0.440673 0.250000 0.834067
O O20 0.847210 0.250000 0.655433
#
# Coordination Sequence:
#
# PCOD8244464 Si02
#       8
#     8   4   4   8   8   8   8   8
#     4  10  22  41  64  91 123 157 201 257 308 361
#     4  12  22  36  56  83 124 165 202 248 304 360
#     4  12  24  36  58  91 124 159 202 256 306 358
#     4  10  23  41  62  87 123 165 204 250 305 364
#     4  10  20  36  61  91 124 161 200 247 306 368
#     4  11  23  41  63  87 122 167 206 250 303 361
#     4  11  24  42  64  89 119 160 209 255 303 363
#     4  12  23  36  59  92 126 162 204 248 299 362
#
# _framework density 20.451971
#
# number of rings (size 3 to 8) (size 9 to 14) (size 15 to 20)
#    0.000    1.143    2.143    4.714    1.000    3.143 
#    0.000    0.714    0.000    0.000    0.000    0.000 
#    0.000    0.000    0.000    0.000    0.000    0.000 
#
# Total GULP energy -694709.047420 kJ/mol
# GULP energy per Si atom -12405.518704 kJ/mol
# Density = 2.040542 g / cm^3
# Si number density = 20.451971 Si / 1000 Ang^3
#
#
#
# Elastic Constant Matrix: (Units=GPa)
#
#
# Indices 1 2 3 4 5 6 
#
# 1 79.9825 15.3567 23.4920 0.0000 0.0000 0.0000
# 2 15.3567 34.9260 21.8940 0.0000 0.0000 0.0000
# 3 23.4920 21.8940 86.0427 0.0000 0.0000 0.0000
# 4 0.0000 0.0000 0.0000 30.8473 0.0000 0.0000
# 5 0.0000 0.0000 0.0000 0.0000 25.9779 0.0000
# 6 0.0000 0.0000 0.0000 0.0000 0.0000 25.2929
#
#
#
# Elastic Compliance Matrix: (Units=1/GPa)
#
#
# Indices 1 2 3 4 5 6 
#
# 1 0.014170 -0.004527 -0.002717 0.000000 0.000000 0.000000
# 2 -0.004527 0.035512 -0.007800 0.000000 0.000000 0.000000
# 3 -0.002717 -0.007800 0.014349 0.000000 0.000000 0.000000
# 4 0.000000 0.000000 0.000000 0.032418 0.000000 0.000000
# 5 0.000000 0.000000 0.000000 0.000000 0.038494 0.000000
# 6 0.000000 0.000000 0.000000 0.000000 0.000000 0.039537
#
#
# Mechanical properties :
#
#
# Convention : Reuss Voigt Hill
#
# Bulk Modulus (GPa) = 29.46179 35.82628 32.64404
# Shear Modulus (GPa) = 23.16076 25.77086 24.46581
#
# Velocity S-wave (km/s) = 3.36883 3.55359 3.46245
# Velocity P-wave (km/s) = 5.43771 5.86453 5.65515
#
# Compressibility (1/GPa) = 0.03394227
#
# Stress axis : x y z
#
# Youngs Moduli (GPa) = 70.57189 28.15930 69.69283
#
# Poissons Ratio (x) = 0.12749 0.18934
# Poissons Ratio (y) = 0.31950 0.54362
# Poissons Ratio (z) = 0.19173 0.21965
#
# Static dielectric constant tensor:
#      x y z
#    x 3.567020 0.000000 0.000000 
#    y 0.000000 3.634490 0.000000 
#    z 0.000000 0.000000 3.871840 
# 
# 
# High freq. dielectric constant tensor:
#      x y z
#    x 1.786190 0.000000 0.000000 
#    y 0.000000 1.806110 0.000000 
#    z 0.000000 0.000000 1.804940 
# 
# From -- ./inp_files/24374.got.cif
#   From: 2010.03.12/outbox.cif.g09.slc.cpg/sg59_13_cif.got.tgz:24374.got - 2010.04.16 16:29:54.
