data_PCOD8244449
_publ_section_title
;
Structure prediction by ZEFSAII (Michael W. Deem and Ramdas Pophale) SiO2 
 PCOD8244449
Probable space group: P M M N
;
_chemical_formula_sum "Si O2"
_cell_formula_units_Z 56
_cell_length_a 22.997076
_cell_length_b 9.263479
_cell_length_c 13.777496
_cell_angle_alpha 90.000000
_cell_angle_beta 90.000000
_cell_angle_gamma 90.000000
_cell_volume 2935.060349
_symmetry_space_group_name_H-M "P M M N"
_symmetry_group_IT_number 59
_space_group.IT_coordinate_system_code '2'
_symmetry_cell_setting 'orthorhombic'
loop_
_space_group_symop_operation_xyz
x,y,z
1/2-x,1/2-y,z
1/2+x,-y,-z
-x,1/2+y,-z
-x,-y,-z
1/2+x,1/2+y,-z
1/2-x,y,z
x,1/2-y,z
loop_
_atom_site_type_symbol
_atom_site_label
_atom_site_fract_x
_atom_site_fract_y
_atom_site_fract_z
Si Si1 0.151566 0.917486 0.366538
Si Si2 0.534697 0.082208 0.738249
Si Si3 0.683717 0.579984 0.439480
Si Si4 0.905317 0.919782 0.280522
Si Si5 0.354989 0.087879 0.922449
Si Si6 0.250000 0.579896 0.220221
Si Si7 0.457022 0.412541 0.067131
Si Si8 0.250000 0.578928 0.002134
O O1 0.163727 0.750000 0.388668
O O2 0.083837 0.944708 0.342560
O O3 0.192107 0.970306 0.277398
O O4 0.168289 0.008392 0.459349
O O5 0.532758 0.250000 0.769973
O O6 0.471810 0.032714 0.696341
O O7 0.551414 0.989073 0.830755
O O8 0.750000 0.543313 0.409124
O O9 0.675167 0.750000 0.452082
O O10 0.640172 0.514124 0.358072
O O11 0.899937 0.750000 0.287682
O O12 0.889860 0.970109 0.171662
O O13 0.330599 0.250000 0.903086
O O14 0.304657 0.975318 0.941916
O O15 0.394976 0.090500 0.016465
O O16 0.250000 0.750000 0.208669
O O17 0.250000 0.513304 0.111691
O O18 0.480802 0.250000 0.081931
O O19 0.500000 0.500000 0.000000
O O20 0.250000 0.750000 0.003602
#
# Coordination Sequence:
#
# PCOD8244449 Si02
#       8
#     8   8   8   8   8   4   8   4
#     4  10  20  36  61  83 109 146 183 230 292 352
#     4  10  20  37  59  85 114 152 192 230 285 346
#     4  10  21  37  59  83 106 143 191 238 282 334
#     4   9  19  37  58  80 112 151 192 230 275 341
#     4  10  21  38  58  81 113 156 194 227 278 341
#     4   9  18  35  54  77 108 146 181 219 282 349
#     4  11  21  35  58  86 118 156 195 234 279 334
#     4  11  23  37  56  85 116 146 189 241 284 329
#
# _framework density 19.079677
#
# number of rings (size 3 to 8) (size 9 to 14) (size 15 to 20)
#    0.000    2.000    2.143    1.500    1.000    3.429 
#    0.000    2.857    0.000    0.000    0.000    0.000 
#    0.000    0.000    0.000    0.000    0.000    0.000 
#
# Total GULP energy -694377.040619 kJ/mol
# GULP energy per Si atom -12399.590011 kJ/mol
# Density = 1.903625 g / cm^3
# Si number density = 19.079677 Si / 1000 Ang^3
#
#
#
# Elastic Constant Matrix: (Units=GPa)
#
#
# Indices 1 2 3 4 5 6 
#
# 1 148.4423 36.3368 52.5449 0.0000 0.0000 0.0000
# 2 36.3368 58.3042 22.6261 0.0000 0.0000 0.0000
# 3 52.5449 22.6261 69.3550 0.0000 0.0000 0.0000
# 4 0.0000 0.0000 0.0000 29.9410 0.0000 0.0000
# 5 0.0000 0.0000 0.0000 0.0000 33.7428 0.0000
# 6 0.0000 0.0000 0.0000 0.0000 0.0000 25.1538
#
#
#
# Elastic Compliance Matrix: (Units=1/GPa)
#
#
# Indices 1 2 3 4 5 6 
#
# 1 0.009862 -0.003717 -0.006259 0.000000 0.000000 0.000000
# 2 -0.003717 0.021039 -0.004047 0.000000 0.000000 0.000000
# 3 -0.006259 -0.004047 0.020481 0.000000 0.000000 0.000000
# 4 0.000000 0.000000 0.000000 0.033399 0.000000 0.000000
# 5 0.000000 0.000000 0.000000 0.000000 0.029636 0.000000
# 6 0.000000 0.000000 0.000000 0.000000 0.000000 0.039755
#
#
# Mechanical properties :
#
#
# Convention : Reuss Voigt Hill
#
# Bulk Modulus (GPa) = 42.85493 55.45745 49.15619
# Shear Modulus (GPa) = 26.31609 28.74043 27.52826
#
# Velocity S-wave (km/s) = 3.71789 3.88537 3.80255
# Velocity P-wave (km/s) = 6.39844 7.01836 6.71556
#
# Compressibility (1/GPa) = 0.02333454
#
# Stress axis : x y z
#
# Youngs Moduli (GPa) = 101.39782 47.53123 48.82593
#
# Poissons Ratio (x) = 0.17669 0.30560
# Poissons Ratio (y) = 0.37694 0.19761
# Poissons Ratio (z) = 0.63465 0.19237
#
# Static dielectric constant tensor:
#      x y z
#    x 3.839090 0.000000 0.000000 
#    y 0.000000 5.009900 0.000000 
#    z 0.000000 0.000000 3.637290 
# 
# 
# High freq. dielectric constant tensor:
#      x y z
#    x 1.756200 0.000000 0.000000 
#    y 0.000000 1.717220 0.000000 
#    z 0.000000 0.000000 1.739540 
# 
# From -- ./inp_files/24391.got.cif
#   From: 2010.03.12/outbox.cif.g09.slc.cpg/sg59_13_cif.got.tgz:24391.got - 2010.04.16 16:29:54.
