data_PCOD8244781
_publ_section_title
;
Structure prediction by ZEFSAII (Michael W. Deem and Ramdas Pophale) SiO2 
 PCOD8244781
Probable space group: P M M N
;
_chemical_formula_sum "Si O2"
_cell_formula_units_Z 48
_cell_length_a 23.074328
_cell_length_b 9.742469
_cell_length_c 11.408403
_cell_angle_alpha 90.000000
_cell_angle_beta 90.000000
_cell_angle_gamma 90.000000
_cell_volume 2564.619550
_symmetry_space_group_name_H-M "P M M N"
_symmetry_group_IT_number 59
_space_group.IT_coordinate_system_code '2'
_symmetry_cell_setting 'orthorhombic'
loop_
_space_group_symop_operation_xyz
x,y,z
1/2-x,1/2-y,z
1/2+x,-y,-z
-x,1/2+y,-z
-x,-y,-z
1/2+x,1/2+y,-z
1/2-x,y,z
x,1/2-y,z
loop_
_atom_site_type_symbol
_atom_site_label
_atom_site_fract_x
_atom_site_fract_y
_atom_site_fract_z
Si Si1 0.185841 0.903288 0.213359
Si Si2 0.419729 0.907967 0.056848
Si Si3 0.867473 0.908693 0.604214
Si Si4 0.024527 0.407689 0.245162
Si Si5 0.317633 0.409663 0.644816
Si Si6 0.101305 0.907786 0.791049
O O1 0.250000 0.919702 0.162295
O O2 0.174602 0.750000 0.262235
O O3 0.144260 0.936538 0.105826
O O4 0.178053 0.006483 0.320416
O O5 0.438965 0.750000 0.072276
O O6 0.464058 0.001742 0.129497
O O7 0.417083 0.950581 0.921905
O O8 0.853908 0.750000 0.626210
O O9 0.933111 0.946743 0.645934
O O10 0.855724 0.946306 0.469569
O O11 0.034305 0.250000 0.207522
O O12 0.957707 0.429995 0.285274
O O13 0.250000 0.449307 0.627654
O O14 0.323370 0.250000 0.676989
O O15 0.345839 0.498045 0.748652
O O16 0.122314 0.750000 0.785634
#
# Coordination Sequence:
#
# PCOD8244781 Si02
#       6
#     8   8   8   8   8   8
#     4   9  17  29  47  72  99 127 164 209 251 294
#     4   9  18  32  50  74 104 137 169 203 249 301
#     4   9  18  34  54  74  99 130 164 207 257 302
#     4   9  18  33  54  80 105 129 164 210 255 301
#     4  10  22  38  53  71  98 134 174 211 249 298
#     4  10  21  35  52  76 105 136 169 205 249 302
#
# _framework density 18.716228000000001
#
# number of rings (size 3 to 8) (size 9 to 14) (size 15 to 20)
#    0.000    2.667    0.000    1.000    0.000    4.667 
#    0.000    1.667    0.000    0.000    0.000    0.000 
#    0.000    0.000    0.000    0.000    0.000    0.000 
#
# Total GULP energy -595048.547186 kJ/mol
# GULP energy per Si atom -12396.844733 kJ/mol
# Density = 1.867363 g / cm^3
# Si number density = 18.716228 Si / 1000 Ang^3
#
#
#
# Elastic Constant Matrix: (Units=GPa)
#
#
# Indices 1 2 3 4 5 6 
#
# 1 94.0676 44.7281 39.2364 0.0000 0.0000 0.0000
# 2 44.7281 60.2820 41.9689 0.0000 0.0000 0.0000
# 3 39.2364 41.9689 70.7906 0.0000 0.0000 0.0000
# 4 0.0000 0.0000 0.0000 31.5807 0.0000 0.0000
# 5 0.0000 0.0000 0.0000 0.0000 17.2836 0.0000
# 6 0.0000 0.0000 0.0000 0.0000 0.0000 28.5445
#
#
#
# Elastic Compliance Matrix: (Units=1/GPa)
#
#
# Indices 1 2 3 4 5 6 
#
# 1 0.016862 -0.010225 -0.003284 0.000000 0.000000 0.000000
# 2 -0.010225 0.034449 -0.014756 0.000000 0.000000 0.000000
# 3 -0.003284 -0.014756 0.024695 0.000000 0.000000 0.000000
# 4 0.000000 0.000000 0.000000 0.031665 0.000000 0.000000
# 5 0.000000 0.000000 0.000000 0.000000 0.057858 0.000000
# 6 0.000000 0.000000 0.000000 0.000000 0.000000 0.035033
#
#
# Mechanical properties :
#
#
# Convention : Reuss Voigt Hill
#
# Bulk Modulus (GPa) = 51.34661 53.00079 52.17370
# Shear Modulus (GPa) = 18.96927 22.09555 20.53241
#
# Velocity S-wave (km/s) = 3.18704 3.43965 3.31575
# Velocity P-wave (km/s) = 6.40599 6.64488 6.52653
#
# Compressibility (1/GPa) = 0.01947548
#
# Stress axis : x y z
#
# Youngs Moduli (GPa) = 59.30336 29.02857 40.49478
#
# Poissons Ratio (x) = 0.29682 0.13299
# Poissons Ratio (y) = 0.60639 0.59754
# Poissons Ratio (z) = 0.19475 0.42834
#
# Static dielectric constant tensor:
#      x y z
#    x 3.545750 0.000000 0.000000 
#    y 0.000000 3.445110 0.000000 
#    z 0.000000 0.000000 3.229500 
# 
# 
# High freq. dielectric constant tensor:
#      x y z
#    x 1.734240 0.000000 0.000000 
#    y 0.000000 1.725400 0.000000 
#    z 0.000000 0.000000 1.706960 
# 
# From -- ./inp_files/14345.got.cif
#   From: 2010.03.12/outbox.cif.g09.slc.cpg/sg59_8_cif.got.tgz:14345.got - 2010.04.16 16:29:54.
