data_PCOD8244192
_publ_section_title
;
Structure prediction by ZEFSAII (Michael W. Deem and Ramdas Pophale) SiO2 
 PCOD8244192
Probable space group: P M M N
;
_chemical_formula_sum "Si O2"
_cell_formula_units_Z 64
_cell_length_a 18.510797
_cell_length_b 8.988578
_cell_length_c 19.843959
_cell_angle_alpha 90.000000
_cell_angle_beta 90.000000
_cell_angle_gamma 90.000000
_cell_volume 3301.751856
_symmetry_space_group_name_H-M "P M M N"
_symmetry_group_IT_number 59
_space_group.IT_coordinate_system_code '2'
_symmetry_cell_setting 'orthorhombic'
loop_
_space_group_symop_operation_xyz
x,y,z
1/2-x,1/2-y,z
1/2+x,-y,-z
-x,1/2+y,-z
-x,-y,-z
1/2+x,1/2+y,-z
1/2-x,y,z
x,1/2-y,z
loop_
_atom_site_type_symbol
_atom_site_label
_atom_site_fract_x
_atom_site_fract_y
_atom_site_fract_z
Si Si1 0.431375 0.574341 0.534382
Si Si2 0.670194 0.074744 0.584078
Si Si3 0.580467 0.576292 0.323088
Si Si4 0.438638 0.576996 0.912400
Si Si5 0.333610 0.923444 0.792063
Si Si6 0.331525 0.076361 0.172663
Si Si7 0.414960 0.923166 0.065247
Si Si8 0.917698 0.076657 0.711464
O O1 0.500000 0.500000 0.500000
O O2 0.445150 0.750000 0.538955
O O3 0.362682 0.534397 0.488240
O O4 0.413334 0.509809 0.606992
O O5 0.750000 0.002672 0.589678
O O6 0.675431 0.250000 0.592394
O O7 0.618858 0.013128 0.643352
O O8 0.592714 0.750000 0.336867
O O9 0.641146 0.516600 0.272502
O O10 0.502589 0.545408 0.290850
O O11 0.458358 0.750000 0.905712
O O12 0.379026 0.527967 0.857852
O O13 0.511342 0.484161 0.901579
O O14 0.407592 0.540878 0.986329
O O15 0.250000 0.959700 0.806571
O O16 0.345158 0.750000 0.776266
O O17 0.250000 0.037915 0.194634
O O18 0.344033 0.250000 0.165326
O O19 0.347168 0.001625 0.100595
O O20 0.386889 0.013661 0.226607
O O21 0.412289 0.750000 0.080650
O O22 0.900646 0.250000 0.721619
#
# Coordination Sequence:
#
# PCOD8244192 Si02
#       8
#     8   8   8   8   8   8   8   8
#     4  11  21  37  60  87 117 152 192 236 286 343
#     4   9  18  34  57  84 112 143 183 231 281 335
#     4  11  23  39  60  88 116 147 192 239 287 345
#     4   9  19  37  61  87 115 148 190 243 293 341
#     4  10  22  40  60  84 115 154 198 241 291 348
#     4  11  24  38  52  78 117 154 189 233 284 339
#     4  10  20  35  59  88 115 148 192 239 290 351
#     4  10  20  37  60  83 109 145 191 238 282 342
#
# _framework density 19.383648999999998
#
# number of rings (size 3 to 8) (size 9 to 14) (size 15 to 20)
#    0.000    1.875    1.250    2.625    0.000    6.750 
#    0.000    2.500    0.000    1.875    0.000    0.000 
#    0.000    0.000    0.000    0.000    0.000    0.000 
#
# Total GULP energy -793799.792478 kJ/mol
# GULP energy per Si atom -12403.121757 kJ/mol
# Density = 1.933953 g / cm^3
# Si number density = 19.383649 Si / 1000 Ang^3
#
#
#
# Elastic Constant Matrix: (Units=GPa)
#
#
# Indices 1 2 3 4 5 6 
#
# 1 88.5924 36.2482 42.4870 0.0000 0.0000 0.0000
# 2 36.2482 71.4782 43.1560 0.0000 0.0000 0.0000
# 3 42.4870 43.1560 118.0294 0.0000 0.0000 0.0000
# 4 0.0000 0.0000 0.0000 32.8522 0.0000 0.0000
# 5 0.0000 0.0000 0.0000 0.0000 29.8623 0.0000
# 6 0.0000 0.0000 0.0000 0.0000 0.0000 28.5262
#
#
#
# Elastic Compliance Matrix: (Units=1/GPa)
#
#
# Indices 1 2 3 4 5 6 
#
# 1 0.015245 -0.005669 -0.003415 0.000000 0.000000 0.000000
# 2 -0.005669 0.020062 -0.005295 0.000000 0.000000 0.000000
# 3 -0.003415 -0.005295 0.011638 0.000000 0.000000 0.000000
# 4 0.000000 0.000000 0.000000 0.030439 0.000000 0.000000
# 5 0.000000 0.000000 0.000000 0.000000 0.033487 0.000000
# 6 0.000000 0.000000 0.000000 0.000000 0.000000 0.035056
#
#
# Mechanical properties :
#
#
# Convention : Reuss Voigt Hill
#
# Bulk Modulus (GPa) = 54.98416 57.98694 56.48555
# Shear Modulus (GPa) = 27.66306 28.66205 28.16256
#
# Velocity S-wave (km/s) = 3.78184 3.84952 3.81583
# Velocity P-wave (km/s) = 6.89185 7.05257 6.97267
#
# Compressibility (1/GPa) = 0.01818706
#
# Stress axis : x y z
#
# Youngs Moduli (GPa) = 65.59544 49.84533 85.92816
#
# Poissons Ratio (x) = 0.28259 0.29343
# Poissons Ratio (y) = 0.37188 0.45496
# Poissons Ratio (z) = 0.22400 0.26391
#
# Static dielectric constant tensor:
#      x y z
#    x 3.741740 0.000000 0.000000 
#    y 0.000000 3.454060 0.000000 
#    z 0.000000 0.000000 3.765350 
# 
# 
# High freq. dielectric constant tensor:
#      x y z
#    x 1.755810 0.000000 0.000000 
#    y 0.000000 1.745540 0.000000 
#    z 0.000000 0.000000 1.767060 
# 
# From -- ./inp_files/30828.got.cif
#   From: 2010.03.12/outbox.cif.g09.slc.cpg/sg59_16_cif.got.tgz:30828.got - 2010.04.16 16:29:54.
