data_PCOD8244403
_publ_section_title
;
Structure prediction by ZEFSAII (Michael W. Deem and Ramdas Pophale) SiO2 
 PCOD8244403
Probable space group: P M M N
;
_chemical_formula_sum "Si O2"
_cell_formula_units_Z 64
_cell_length_a 8.835951
_cell_length_b 30.960804
_cell_length_c 11.922001
_cell_angle_alpha 90.000000
_cell_angle_beta 90.000000
_cell_angle_gamma 90.000000
_cell_volume 3261.479723
_symmetry_space_group_name_H-M "P M M N"
_symmetry_group_IT_number 59
_space_group.IT_coordinate_system_code '2'
_symmetry_cell_setting 'orthorhombic'
loop_
_space_group_symop_operation_xyz
x,y,z
1/2-x,1/2-y,z
1/2+x,-y,-z
-x,1/2+y,-z
-x,-y,-z
1/2+x,1/2+y,-z
1/2-x,y,z
x,1/2-y,z
loop_
_atom_site_type_symbol
_atom_site_label
_atom_site_fract_x
_atom_site_fract_y
_atom_site_fract_z
Si Si1 0.926944 0.458556 0.238249
Si Si2 0.071996 0.954227 0.239431
Si Si3 0.071776 0.375446 0.628136
Si Si4 0.926094 0.299161 0.758604
Si Si5 0.072396 0.624413 0.611724
Si Si6 0.570003 0.329635 0.998019
Si Si7 0.071282 0.573879 0.997485
Si Si8 0.570314 0.202225 0.234133
O O1 0.750000 0.468794 0.235268
O O2 0.962770 0.417817 0.315593
O O3 0.011277 0.500496 0.288144
O O4 0.992763 0.449264 0.113618
O O5 0.250000 0.951156 0.257098
O O6 0.025097 0.952426 0.108310
O O7 0.000022 0.914275 0.302860
O O8 0.250000 0.379048 0.637031
O O9 0.019301 0.329507 0.675932
O O10 0.022188 0.379370 0.500411
O O11 0.750000 0.311972 0.749490
O O12 0.953477 0.250000 0.720623
O O13 0.983463 0.304588 0.886618
O O14 0.250000 0.628344 0.584162
O O15 0.011581 0.666370 0.678777
O O16 0.750000 0.330087 0.003292
O O17 0.503582 0.378012 0.993165
O O18 0.505088 0.306530 0.109315
O O19 0.250000 0.577858 0.984859
O O20 0.750000 0.199199 0.229150
O O21 0.517402 0.250000 0.273153
#
# Coordination Sequence:
#
# PCOD8244403 Si02
#       8
#     8   8   8   8   8   8   8   8
#     4  10  20  36  59  88 119 151 187 232 291 349
#     4  11  22  38  61  87 117 151 189 235 285 344
#     4  12  26  42  59  80 112 154 198 245 290 338
#     4  10  20  36  62  92 120 152 191 234 281 339
#     4  10  21  38  59  82 113 152 193 241 287 337
#     4   9  14  27  54  89 122 149 180 224 280 335
#     4   9  16  30  56  86 119 152 181 226 285 344
#     4   9  16  28  53  89 120 146 182 229 280 334
#
# _framework density 19.622995
#
# number of rings (size 3 to 8) (size 9 to 14) (size 15 to 20)
#    0.000    2.000    2.500    2.250    0.000    3.250 
#    0.000    1.875    0.000    0.750    0.000    0.000 
#    0.000    0.000    0.000    0.000    0.000    0.000 
#
# Total GULP energy -793590.484709 kJ/mol
# GULP energy per Si atom -12399.851324 kJ/mol
# Density = 1.957833 g / cm^3
# Si number density = 19.622995 Si / 1000 Ang^3
#
#
#
# Elastic Constant Matrix: (Units=GPa)
#
#
# Indices 1 2 3 4 5 6 
#
# 1 63.6215 52.1869 51.0932 0.0000 0.0000 0.0000
# 2 52.1869 151.3506 54.6572 0.0000 0.0000 0.0000
# 3 51.0932 54.6572 120.8776 0.0000 0.0000 0.0000
# 4 0.0000 0.0000 0.0000 2.0546 0.0000 0.0000
# 5 0.0000 0.0000 0.0000 0.0000 9.9382 0.0000
# 6 0.0000 0.0000 0.0000 0.0000 0.0000 23.4306
#
#
#
# Elastic Compliance Matrix: (Units=1/GPa)
#
#
# Indices 1 2 3 4 5 6 
#
# 1 0.028292 -0.006498 -0.009021 0.000000 0.000000 0.000000
# 2 -0.006498 0.009389 -0.001499 0.000000 0.000000 0.000000
# 3 -0.009021 -0.001499 0.012763 0.000000 0.000000 0.000000
# 4 0.000000 0.000000 0.000000 0.486721 0.000000 0.000000
# 5 0.000000 0.000000 0.000000 0.000000 0.100622 0.000000
# 6 0.000000 0.000000 0.000000 0.000000 0.000000 0.042679
#
#
# Mechanical properties :
#
#
# Convention : Reuss Voigt Hill
#
# Bulk Modulus (GPa) = 60.93818 72.41381 66.67600
# Shear Modulus (GPa) = 6.94473 18.94551 12.94512
#
# Velocity S-wave (km/s) = 1.88328 3.11058 2.57123
# Velocity P-wave (km/s) = 5.98756 7.06283 6.54731
#
# Compressibility (1/GPa) = 0.01641007
#
# Stress axis : x y z
#
# Youngs Moduli (GPa) = 35.34554 106.50832 78.34869
#
# Poissons Ratio (x) = 0.69206 0.70675
# Poissons Ratio (y) = 0.22967 0.11744
# Poissons Ratio (z) = 0.31884 0.15964
#
# Static dielectric constant tensor:
#      x y z
#    x 3.095440 0.000000 0.000000 
#    y 0.000000 3.745120 0.000000 
#    z 0.000000 0.000000 3.679860 
# 
# 
# High freq. dielectric constant tensor:
#      x y z
#    x 1.714480 0.000000 0.000000 
#    y 0.000000 1.782470 0.000000 
#    z 0.000000 0.000000 1.767540 
# 
# From -- ./inp_files/15054.got.cif
#   From: 2010.03.12/outbox.cif.g09.slc.cpg/sg59_8_cif.got.tgz:15054.got - 2010.04.16 16:29:54.
