data_PCOD8244876
_publ_section_title
;
Structure prediction by ZEFSAII (Michael W. Deem and Ramdas Pophale) SiO2 
 PCOD8244876
Probable space group: P M M N
;
_chemical_formula_sum "Si O2"
_cell_formula_units_Z 56
_cell_length_a 14.377060
_cell_length_b 15.327639
_cell_length_c 12.024769
_cell_angle_alpha 90.000000
_cell_angle_beta 90.000000
_cell_angle_gamma 90.000000
_cell_volume 2649.854882
_symmetry_space_group_name_H-M "P M M N"
_symmetry_group_IT_number 59
_space_group.IT_coordinate_system_code '2'
_symmetry_cell_setting 'orthorhombic'
loop_
_space_group_symop_operation_xyz
x,y,z
1/2-x,1/2-y,z
1/2+x,-y,-z
-x,1/2+y,-z
-x,-y,-z
1/2+x,1/2+y,-z
1/2-x,y,z
x,1/2-y,z
loop_
_atom_site_type_symbol
_atom_site_label
_atom_site_fract_x
_atom_site_fract_y
_atom_site_fract_z
Si Si1 0.852203 0.441027 0.177400
Si Si2 0.140260 0.847185 0.213118
Si Si3 0.860776 0.345835 0.537789
Si Si4 0.642045 0.849354 0.575349
Si Si5 0.400313 0.499976 0.048880
Si Si6 0.545748 0.649669 0.806251
Si Si7 0.858363 0.509227 0.406197
O O1 0.750000 0.398449 0.206794
O O2 0.878082 0.512086 0.273614
O O3 0.935658 0.370680 0.175377
O O4 0.834625 0.488720 0.058655
O O5 0.250000 0.853053 0.209110
O O6 0.107729 0.750000 0.176510
O O7 0.104371 0.867533 0.337497
O O8 0.100883 0.918141 0.130329
O O9 0.750000 0.343694 0.537179
O O10 0.898167 0.250000 0.500238
O O11 0.901349 0.418971 0.455035
O O12 0.750000 0.869967 0.605215
O O13 0.631276 0.750000 0.536684
O O14 0.577720 0.870049 0.681084
O O15 0.602104 0.907177 0.472648
O O16 0.386740 0.409362 0.115442
O O17 0.500000 0.500000 0.000000
O O18 0.563108 0.750000 0.838243
O O19 0.750000 0.509082 0.431584
#
# Coordination Sequence:
#
# PCOD8244876 Si02
#       7
#     8   8   8   8   8   8   8
#     4  10  22  38  57  82 114 154 193 230 285 353
#     4   9  17  31  55  83 105 132 177 231 284 332
#     4   8  14  25  44  74 107 133 163 210 266 321
#     4   9  18  34  57  83 111 147 192 240 286 331
#     4  10  21  36  52  73 106 144 183 231 279 331
#     4  10  22  39  59  86 116 147 192 244 289 339
#     4   9  17  31  53  81 114 151 187 225 275 336
#
# _framework density 21.133232
#
# number of rings (size 3 to 8) (size 9 to 14) (size 15 to 20)
#    0.000    2.714    0.000    2.143    0.000    6.000 
#    0.000    2.143    0.000    5.143    0.000    0.000 
#    0.000    0.000    0.000    0.000    0.000    0.000 
#
# Total GULP energy -693769.775965 kJ/mol
# GULP energy per Si atom -12388.745999 kJ/mol
# Density = 2.108513 g / cm^3
# Si number density = 21.133232 Si / 1000 Ang^3
#
#
#
# Elastic Constant Matrix: (Units=GPa)
#
#
# Indices 1 2 3 4 5 6 
#
# 1 46.8742 10.4995 11.2858 0.0000 0.0000 0.0000
# 2 10.4995 128.7346 60.5160 0.0000 0.0000 0.0000
# 3 11.2858 60.5160 100.1328 0.0000 0.0000 0.0000
# 4 0.0000 0.0000 0.0000 2.8965 0.0000 0.0000
# 5 0.0000 0.0000 0.0000 0.0000 17.4579 0.0000
# 6 0.0000 0.0000 0.0000 0.0000 0.0000 19.6247
#
#
#
# Elastic Compliance Matrix: (Units=1/GPa)
#
#
# Indices 1 2 3 4 5 6 
#
# 1 0.022000 -0.000878 -0.001949 0.000000 0.000000 0.000000
# 2 -0.000878 0.010886 -0.006480 0.000000 0.000000 0.000000
# 3 -0.001949 -0.006480 0.014122 0.000000 0.000000 0.000000
# 4 0.000000 0.000000 0.000000 0.345245 0.000000 0.000000
# 5 0.000000 0.000000 0.000000 0.000000 0.057281 0.000000
# 6 0.000000 0.000000 0.000000 0.000000 0.000000 0.050956
#
#
# Mechanical properties :
#
#
# Convention : Reuss Voigt Hill
#
# Bulk Modulus (GPa) = 35.21853 48.92713 42.07283
# Shear Modulus (GPa) = 9.45952 20.89185 15.17568
#
# Velocity S-wave (km/s) = 2.11798 3.14758 2.68264
# Velocity P-wave (km/s) = 4.76260 6.03421 5.43571
#
# Compressibility (1/GPa) = 0.02839414
#
# Stress axis : x y z
#
# Youngs Moduli (GPa) = 45.45530 91.86461 70.80902
#
# Poissons Ratio (x) = 0.08067 0.13799
# Poissons Ratio (y) = 0.03992 0.45883
# Poissons Ratio (z) = 0.08858 0.59526
#
# Static dielectric constant tensor:
#      x y z
#    x 2.965390 0.000000 0.000000 
#    y 0.000000 3.034590 0.000000 
#    z 0.000000 0.000000 27.525290 
# 
# 
# High freq. dielectric constant tensor:
#      x y z
#    x 1.815310 0.000000 0.000000 
#    y 0.000000 1.816260 0.000000 
#    z 0.000000 0.000000 1.834150 
# 
# From -- ./inp_files/16980.got.cif
#   From: 2010.03.12/outbox.cif.g09.slc.cpg/sg59_9_cif.got.tgz:16980.got - 2010.04.16 16:29:54.
