data_PCOD8244062
_publ_section_title
;
Structure prediction by ZEFSAII (Michael W. Deem and Ramdas Pophale) SiO2 
 PCOD8244062
Probable space group: P M M N
;
_chemical_formula_sum "Si O2"
_cell_formula_units_Z 48
_cell_length_a 27.835140
_cell_length_b 8.962873
_cell_length_c 10.216231
_cell_angle_alpha 90.000000
_cell_angle_beta 90.000000
_cell_angle_gamma 90.000000
_cell_volume 2548.774168
_symmetry_space_group_name_H-M "P M M N"
_symmetry_group_IT_number 59
_space_group.IT_coordinate_system_code '2'
_symmetry_cell_setting 'orthorhombic'
loop_
_space_group_symop_operation_xyz
x,y,z
1/2-x,1/2-y,z
1/2+x,-y,-z
-x,1/2+y,-z
-x,-y,-z
1/2+x,1/2+y,-z
1/2-x,y,z
x,1/2-y,z
loop_
_atom_site_type_symbol
_atom_site_label
_atom_site_fract_x
_atom_site_fract_y
_atom_site_fract_z
Si Si1 0.695800 0.925476 0.389961
Si Si2 0.195211 0.577132 0.884912
Si Si3 0.393555 0.575999 0.519148
Si Si4 0.111257 0.424078 0.013486
Si Si5 0.947154 0.576938 0.244851
Si Si6 0.941844 0.076804 0.753465
O O1 0.750000 0.967830 0.432846
O O2 0.688236 0.750000 0.384088
O O3 0.683685 0.988679 0.247305
O O4 0.658448 0.996270 0.492282
O O5 0.250000 0.552311 0.929812
O O6 0.184057 0.750000 0.859967
O O7 0.161312 0.512376 0.998091
O O8 0.384243 0.750000 0.533765
O O9 0.422489 0.520334 0.644266
O O10 0.423941 0.537081 0.391214
O O11 0.122715 0.250000 0.021185
O O12 0.075861 0.463187 0.894346
O O13 0.087246 0.475269 0.147085
O O14 0.940231 0.750000 0.280929
O O15 0.002663 0.532601 0.237163
O O16 0.933640 0.250000 0.787865
#
# Coordination Sequence:
#
# PCOD8244062 Si02
#       6
#     8   8   8   8   8   8
#     4  10  20  35  57  84 113 145 184 232 282 334
#     4  10  20  35  58  86 114 146 185 231 281 334
#     4  11  22  36  58  86 114 150 191 233 284 337
#     4  11  22  36  58  87 115 150 191 233 286 338
#     4  10  21  38  59  83 113 150 194 239 282 334
#     4  10  23  40  56  80 117 156 194 235 281 337
#
# _framework density 18.832583
#
# number of rings (size 3 to 8) (size 9 to 14) (size 15 to 20)
#    0.000    1.667    1.667    3.000    0.000    4.667 
#    0.000    0.833    0.000    1.000    0.000    0.000 
#    0.000    0.000    0.000    0.000    0.000    0.000 
#
# Total GULP energy -595452.569076 kJ/mol
# GULP energy per Si atom -12405.261856 kJ/mol
# Density = 1.878972 g / cm^3
# Si number density = 18.832583 Si / 1000 Ang^3
#
#
#
# Elastic Constant Matrix: (Units=GPa)
#
#
# Indices 1 2 3 4 5 6 
#
# 1 111.3315 41.0934 23.3756 0.0000 0.0000 0.0000
# 2 41.0934 79.1000 32.5626 0.0000 0.0000 0.0000
# 3 23.3756 32.5626 59.4694 0.0000 0.0000 0.0000
# 4 0.0000 0.0000 0.0000 28.9425 0.0000 0.0000
# 5 0.0000 0.0000 0.0000 0.0000 2.9764 0.0000
# 6 0.0000 0.0000 0.0000 0.0000 0.0000 32.2491
#
#
#
# Elastic Compliance Matrix: (Units=1/GPa)
#
#
# Indices 1 2 3 4 5 6 
#
# 1 0.011226 -0.005184 -0.001574 0.000000 0.000000 0.000000
# 2 -0.005184 0.018715 -0.008210 0.000000 0.000000 0.000000
# 3 -0.001574 -0.008210 0.021929 0.000000 0.000000 0.000000
# 4 0.000000 0.000000 0.000000 0.034551 0.000000 0.000000
# 5 0.000000 0.000000 0.000000 0.000000 0.335982 0.000000
# 6 0.000000 0.000000 0.000000 0.000000 0.000000 0.031009
#
#
# Mechanical properties :
#
#
# Convention : Reuss Voigt Hill
#
# Bulk Modulus (GPa) = 45.58992 49.32935 47.45963
# Shear Modulus (GPa) = 10.19036 23.02488 16.60762
#
# Velocity S-wave (km/s) = 2.32868 3.50038 2.97283
# Velocity P-wave (km/s) = 5.61168 6.52590 6.08598
#
# Compressibility (1/GPa) = 0.02193467
#
# Stress axis : x y z
#
# Youngs Moduli (GPa) = 89.07738 53.43276 45.60100
#
# Poissons Ratio (x) = 0.27700 0.07178
# Poissons Ratio (y) = 0.46179 0.37437
# Poissons Ratio (z) = 0.14021 0.43867
#
# Static dielectric constant tensor:
#      x y z
#    x 3.798700 0.000000 0.000000 
#    y 0.000000 3.510420 0.000000 
#    z 0.000000 0.000000 3.250980 
# 
# 
# High freq. dielectric constant tensor:
#      x y z
#    x 1.750240 0.000000 0.000000 
#    y 0.000000 1.741530 0.000000 
#    z 0.000000 0.000000 1.711730 
# 
# From -- ./inp_files/6183.got.cif
#   From: 2010.03.12/outbox.cif.g09.slc.cpg/sg59_4_cif.got.tgz:6183.got - 2010.04.16 16:29:54.
