data_PCOD8244727
_publ_section_title
;
Structure prediction by ZEFSAII (Michael W. Deem and Ramdas Pophale) SiO2 
 PCOD8244727
Probable space group: P M M N
;
_chemical_formula_sum "Si O2"
_cell_formula_units_Z 52
_cell_length_a 28.388954
_cell_length_b 12.093915
_cell_length_c 7.822610
_cell_angle_alpha 90.000000
_cell_angle_beta 90.000000
_cell_angle_gamma 90.000000
_cell_volume 2685.764826
_symmetry_space_group_name_H-M "P M M N"
_symmetry_group_IT_number 59
_space_group.IT_coordinate_system_code '2'
_symmetry_cell_setting 'orthorhombic'
loop_
_space_group_symop_operation_xyz
x,y,z
1/2-x,1/2-y,z
1/2+x,-y,-z
-x,1/2+y,-z
-x,-y,-z
1/2+x,1/2+y,-z
1/2-x,y,z
x,1/2-y,z
loop_
_atom_site_type_symbol
_atom_site_label
_atom_site_fract_x
_atom_site_fract_y
_atom_site_fract_z
Si Si1 0.329332 0.961682 0.143806
Si Si2 0.989323 0.372798 0.672406
Si Si3 0.651441 0.375729 0.496201
Si Si4 0.750000 0.129331 0.065495
Si Si5 0.750000 0.035423 0.406586
Si Si6 0.061161 0.941581 0.661171
Si Si7 0.420506 0.878213 0.029164
Si Si8 0.250000 0.117449 0.279422
O O1 0.353475 0.908104 0.308128
O O2 0.376042 0.966198 0.024194
O O3 0.298071 0.072352 0.186904
O O4 0.294969 0.874913 0.055826
O O5 0.004311 0.250000 0.721486
O O6 0.963383 0.371499 0.489250
O O7 0.955749 0.419906 0.822214
O O8 0.038202 0.437951 0.663801
O O9 0.635889 0.250000 0.466091
O O10 0.705105 0.390947 0.445302
O O11 0.616843 0.451578 0.382297
O O12 0.750000 0.250000 0.156571
O O13 0.750000 0.024867 0.199375
O O14 0.750000 0.923308 0.520893
O O15 0.054006 0.884622 0.845234
O O16 0.405097 0.750000 0.061125
O O17 0.250000 0.250000 0.274059
#
# Coordination Sequence:
#
# PCOD8244727 Si02
#       8
#     8   8   8   4   4   8   8   4
#     4  10  21  34  57  86 115 153 197 242 295 364
#     4  10  22  40  58  82 120 159 202 253 303 354
#     4  11  19  34  56  84 118 152 188 238 298 353
#     4  11  19  31  50  88 128 151 180 237 304 364
#     4  10  22  34  56  88 116 148 198 238 284 362
#     4  11  22  36  60  87 120 159 202 243 301 366
#     4  11  20  35  60  90 121 152 191 252 315 361
#     4   9  21  43  62  78 116 167 208 245 296 348
#
# _framework density 19.361336999999999
#
# number of rings (size 3 to 8) (size 9 to 14) (size 15 to 20)
#    0.000    1.538    1.538    5.308    0.000    0.000 
#    0.000    5.385    0.000    0.000    0.000    0.000 
#    0.000    0.000    0.000    0.000    0.000    0.000 
#
# Total GULP energy -644265.877041 kJ/mol
# GULP energy per Si atom -12389.728405 kJ/mol
# Density = 1.931727 g / cm^3
# Si number density = 19.361337 Si / 1000 Ang^3
#
#
#
# Elastic Constant Matrix: (Units=GPa)
#
#
# Indices 1 2 3 4 5 6 
#
# 1 116.5765 54.0706 38.1836 0.0000 0.0000 0.0000
# 2 54.0706 97.8236 32.3273 0.0000 0.0000 0.0000
# 3 38.1836 32.3273 124.5162 0.0000 0.0000 0.0000
# 4 0.0000 0.0000 0.0000 20.8485 0.0000 0.0000
# 5 0.0000 0.0000 0.0000 0.0000 22.3725 0.0000
# 6 0.0000 0.0000 0.0000 0.0000 0.0000 27.9691
#
#
#
# Elastic Compliance Matrix: (Units=1/GPa)
#
#
# Indices 1 2 3 4 5 6 
#
# 1 0.012039 -0.005944 -0.002149 0.000000 0.000000 0.000000
# 2 -0.005944 0.014117 -0.001842 0.000000 0.000000 0.000000
# 3 -0.002149 -0.001842 0.009168 0.000000 0.000000 0.000000
# 4 0.000000 0.000000 0.000000 0.047965 0.000000 0.000000
# 5 0.000000 0.000000 0.000000 0.000000 0.044698 0.000000
# 6 0.000000 0.000000 0.000000 0.000000 0.000000 0.035754
#
#
# Mechanical properties :
#
#
# Convention : Reuss Voigt Hill
#
# Bulk Modulus (GPa) = 64.70851 65.34216 65.02534
# Shear Modulus (GPa) = 26.48841 28.52702 27.50771
#
# Velocity S-wave (km/s) = 3.70281 3.84266 3.77338
# Velocity P-wave (km/s) = 7.19549 7.31506 7.25552
#
# Compressibility (1/GPa) = 0.01545392
#
# Stress axis : x y z
#
# Youngs Moduli (GPa) = 83.06425 70.83707 109.07242
#
# Poissons Ratio (x) = 0.42108 0.23434
# Poissons Ratio (y) = 0.49376 0.20094
# Poissons Ratio (z) = 0.17846 0.13050
#
# Static dielectric constant tensor:
#      x y z
#    x 3.603500 0.000000 0.000000 
#    y 0.000000 3.110610 0.000000 
#    z 0.000000 0.000000 3.928730 
# 
# 
# High freq. dielectric constant tensor:
#      x y z
#    x 1.762210 0.000000 0.000000 
#    y 0.000000 1.704950 0.000000 
#    z 0.000000 0.000000 1.774720 
# 
# From -- ./inp_files/12617.got.cif
#   From: 2010.03.12/outbox.cif.g09.slc.cpg/sg59_7_cif.got.tgz:12617.got - 2010.04.16 16:29:54.
