data_PCOD8244771
_publ_section_title
;
Structure prediction by ZEFSAII (Michael W. Deem and Ramdas Pophale) SiO2 
 PCOD8244771
Probable space group: P M M N
;
_chemical_formula_sum "Si O2"
_cell_formula_units_Z 64
_cell_length_a 8.855310
_cell_length_b 22.553817
_cell_length_c 16.744164
_cell_angle_alpha 90.000000
_cell_angle_beta 90.000000
_cell_angle_gamma 90.000000
_cell_volume 3344.161868
_symmetry_space_group_name_H-M "P M M N"
_symmetry_group_IT_number 59
_space_group.IT_coordinate_system_code '2'
_symmetry_cell_setting 'orthorhombic'
loop_
_space_group_symop_operation_xyz
x,y,z
1/2-x,1/2-y,z
1/2+x,-y,-z
-x,1/2+y,-z
-x,-y,-z
1/2+x,1/2+y,-z
1/2-x,y,z
x,1/2-y,z
loop_
_atom_site_type_symbol
_atom_site_label
_atom_site_fract_x
_atom_site_fract_y
_atom_site_fract_z
Si Si1 0.427823 0.461442 0.116343
Si Si2 0.928728 0.318908 0.381885
Si Si3 0.071239 0.484951 0.584058
Si Si4 0.925547 0.182174 0.847210
Si Si5 0.929971 0.924112 0.708011
Si Si6 0.073341 0.918188 0.035921
Si Si7 0.073816 0.864885 0.443534
Si Si8 0.585627 0.683196 0.306576
O O1 0.250000 0.456556 0.115989
O O2 0.486786 0.440890 0.203223
O O3 0.481567 0.528037 0.093681
O O4 0.492237 0.417410 0.049499
O O5 0.750000 0.323435 0.370289
O O6 0.980623 0.250000 0.376270
O O7 0.976065 0.346293 0.467664
O O8 0.011482 0.358035 0.314479
O O9 0.250000 0.494300 0.582209
O O10 0.000000 0.500000 0.500000
O O11 0.001936 0.527268 0.650413
O O12 0.024388 0.417245 0.597259
O O13 0.750000 0.175530 0.827891
O O14 0.969075 0.250000 0.866013
O O15 0.971564 0.143739 0.923839
O O16 0.009517 0.153169 0.770862
O O17 0.750000 0.925731 0.699776
O O18 0.250000 0.924321 0.020252
O O19 0.250000 0.880298 0.441575
O O20 0.027888 0.813497 0.382432
O O21 0.750000 0.653925 0.325532
O O22 0.611228 0.750000 0.280216
#
# Coordination Sequence:
#
# PCOD8244771 Si02
#       8
#     8   8   8   8   8   8   8   8
#     4   9  20  37  57  83 112 143 183 230 281 342
#     4  10  22  40  61  83 110 149 196 244 291 338
#     4  12  24  39  58  85 117 151 189 232 282 334
#     4   9  18  33  54  80 111 148 188 230 281 343
#     4  11  23  39  60  86 117 154 192 234 287 341
#     4   9  18  35  58  83 110 143 182 228 283 340
#     4  11  22  37  58  82 111 150 193 238 285 335
#     4  10  21  35  51  78 115 151 191 235 277 331
#
# _framework density 19.137830000000001
#
# number of rings (size 3 to 8) (size 9 to 14) (size 15 to 20)
#    0.000    1.875    1.250    2.625    1.750    3.500 
#    0.000    0.625    0.000    2.250    0.000    0.000 
#    0.000    0.000    0.000    0.000    0.000    0.000 
#
# Total GULP energy -793332.769666 kJ/mol
# GULP energy per Si atom -12395.824526 kJ/mol
# Density = 1.909427 g / cm^3
# Si number density = 19.137830 Si / 1000 Ang^3
#
#
#
# Elastic Constant Matrix: (Units=GPa)
#
#
# Indices 1 2 3 4 5 6 
#
# 1 64.0017 40.6040 53.1242 0.0000 0.0000 0.0000
# 2 40.6040 98.6007 63.6167 0.0000 0.0000 0.0000
# 3 53.1242 63.6167 162.2212 0.0000 0.0000 0.0000
# 4 0.0000 0.0000 0.0000 28.1715 0.0000 0.0000
# 5 0.0000 0.0000 0.0000 0.0000 34.3214 0.0000
# 6 0.0000 0.0000 0.0000 0.0000 0.0000 28.7324
#
#
#
# Elastic Compliance Matrix: (Units=1/GPa)
#
#
# Indices 1 2 3 4 5 6 
#
# 1 0.024215 -0.006500 -0.005381 0.000000 0.000000 0.000000
# 2 -0.006500 0.015322 -0.003880 0.000000 0.000000 0.000000
# 3 -0.005381 -0.003880 0.009448 0.000000 0.000000 0.000000
# 4 0.000000 0.000000 0.000000 0.035497 0.000000 0.000000
# 5 0.000000 0.000000 0.000000 0.000000 0.029136 0.000000
# 6 0.000000 0.000000 0.000000 0.000000 0.000000 0.034804
#
#
# Mechanical properties :
#
#
# Convention : Reuss Voigt Hill
#
# Bulk Modulus (GPa) = 57.26360 71.05704 64.16032
# Shear Modulus (GPa) = 26.91579 29.41030 28.16304
#
# Velocity S-wave (km/s) = 3.75429 3.92441 3.84029
# Velocity P-wave (km/s) = 6.98424 7.59897 7.29808
#
# Compressibility (1/GPa) = 0.01746310
#
# Stress axis : x y z
#
# Youngs Moduli (GPa) = 41.29742 65.26545 105.84117
#
# Poissons Ratio (x) = 0.42423 0.56950
# Poissons Ratio (y) = 0.26843 0.41067
# Poissons Ratio (z) = 0.22221 0.25323
#
# Static dielectric constant tensor:
#      x y z
#    x 3.575750 0.000000 0.000000 
#    y 0.000000 3.347460 0.000000 
#    z 0.000000 0.000000 3.517500 
# 
# 
# High freq. dielectric constant tensor:
#      x y z
#    x 1.745800 0.000000 0.000000 
#    y 0.000000 1.742730 0.000000 
#    z 0.000000 0.000000 1.741620 
# 
# From -- ./inp_files/21488.got.cif
#   From: 2010.03.12/outbox.cif.g09.slc.cpg/sg59_11_cif.got.tgz:21488.got - 2010.04.16 16:29:54.
