data_PCOD8244125
_publ_section_title
;
Structure prediction by ZEFSAII (Michael W. Deem and Ramdas Pophale) SiO2 
 PCOD8244125
Probable space group: P M M N
;
_chemical_formula_sum "Si O2"
_cell_formula_units_Z 48
_cell_length_a 8.988762
_cell_length_b 18.730280
_cell_length_c 14.972111
_cell_angle_alpha 90.000000
_cell_angle_beta 90.000000
_cell_angle_gamma 90.000000
_cell_volume 2520.734988
_symmetry_space_group_name_H-M "P M M N"
_symmetry_group_IT_number 59
_space_group.IT_coordinate_system_code '2'
_symmetry_cell_setting 'orthorhombic'
loop_
_space_group_symop_operation_xyz
x,y,z
1/2-x,1/2-y,z
1/2+x,-y,-z
-x,1/2+y,-z
-x,-y,-z
1/2+x,1/2+y,-z
1/2-x,y,z
x,1/2-y,z
loop_
_atom_site_type_symbol
_atom_site_label
_atom_site_fract_x
_atom_site_fract_y
_atom_site_fract_z
Si Si1 0.577395 0.086643 0.590663
Si Si2 0.076946 0.925727 0.900656
Si Si3 0.577577 0.832454 0.762787
Si Si4 0.076871 0.166407 0.749652
Si Si5 0.923466 0.428324 0.892733
Si Si6 0.422071 0.078186 0.408552
O O1 0.750000 0.106411 0.597129
O O2 0.487125 0.134798 0.658788
O O3 0.520791 0.103705 0.491432
O O4 0.548053 0.004214 0.614868
O O5 0.250000 0.937713 0.883006
O O6 0.018588 0.857409 0.847155
O O7 0.043481 0.911071 0.004265
O O8 0.991653 0.995556 0.865644
O O9 0.750000 0.846518 0.784153
O O10 0.544137 0.750000 0.745082
O O11 0.526493 0.875522 0.675582
O O12 0.250000 0.148218 0.755043
O O13 0.045440 0.250000 0.750385
O O14 0.997069 0.133902 0.835761
O O15 0.750000 0.431392 0.870504
O O16 0.250000 0.091273 0.432811
#
# Coordination Sequence:
#
# PCOD8244125 Si02
#       6
#     8   8   8   8   8   8
#     4  10  20  35  58  84 109 143 186 231 278 328
#     4  10  21  37  59  85 112 144 183 229 279 330
#     4  10  21  36  55  80 112 151 190 228 273 326
#     4  11  24  39  56  81 114 151 187 226 276 332
#     4  10  21  38  60  84 110 143 185 231 276 326
#     4   9  19  36  56  80 111 146 185 228 274 325
#
# _framework density 19.042064
#
# number of rings (size 3 to 8) (size 9 to 14) (size 15 to 20)
#    0.000    2.000    0.000    3.000    0.000    7.667 
#    0.000    5.000    0.000    0.000    0.000    0.000 
#    0.000    0.000    0.000    0.000    0.000    0.000 
#
# Total GULP energy -595504.947097 kJ/mol
# GULP energy per Si atom -12406.353065 kJ/mol
# Density = 1.899872 g / cm^3
# Si number density = 19.042064 Si / 1000 Ang^3
#
#
#
# Elastic Constant Matrix: (Units=GPa)
#
#
# Indices 1 2 3 4 5 6 
#
# 1 102.1044 62.0244 62.7307 0.0000 0.0000 0.0000
# 2 62.0244 86.6360 58.3691 0.0000 0.0000 0.0000
# 3 62.7307 58.3691 100.2061 0.0000 0.0000 0.0000
# 4 0.0000 0.0000 0.0000 14.5105 0.0000 0.0000
# 5 0.0000 0.0000 0.0000 0.0000 34.4042 0.0000
# 6 0.0000 0.0000 0.0000 0.0000 0.0000 32.3967
#
#
#
# Elastic Compliance Matrix: (Units=1/GPa)
#
#
# Indices 1 2 3 4 5 6 
#
# 1 0.019804 -0.009588 -0.006813 0.000000 0.000000 0.000000
# 2 -0.009588 0.023640 -0.007768 0.000000 0.000000 0.000000
# 3 -0.006813 -0.007768 0.018769 0.000000 0.000000 0.000000
# 4 0.000000 0.000000 0.000000 0.068916 0.000000 0.000000
# 5 0.000000 0.000000 0.000000 0.000000 0.029066 0.000000
# 6 0.000000 0.000000 0.000000 0.000000 0.000000 0.030867
#
#
# Mechanical properties :
#
#
# Convention : Reuss Voigt Hill
#
# Bulk Modulus (GPa) = 72.06743 72.79944 72.43344
# Shear Modulus (GPa) = 20.48974 23.31711 21.90342
#
# Velocity S-wave (km/s) = 3.28384 3.50309 3.39524
# Velocity P-wave (km/s) = 7.23234 7.39432 7.31378
#
# Compressibility (1/GPa) = 0.01387589
#
# Stress axis : x y z
#
# Youngs Moduli (GPa) = 50.49546 42.30058 53.27951
#
# Poissons Ratio (x) = 0.40558 0.36297
# Poissons Ratio (y) = 0.48416 0.41387
# Poissons Ratio (z) = 0.34400 0.32859
#
# Static dielectric constant tensor:
#      x y z
#    x 3.560250 0.000000 0.000000 
#    y 0.000000 3.425250 0.000000 
#    z 0.000000 0.000000 3.509830 
# 
# 
# High freq. dielectric constant tensor:
#      x y z
#    x 1.749030 0.000000 0.000000 
#    y 0.000000 1.736220 0.000000 
#    z 0.000000 0.000000 1.749940 
# 
# From -- ./inp_files/20333.got.cif
#   From: 2010.03.12/outbox.cif.g09.slc.cpg/sg59_11_cif.got.tgz:20333.got - 2010.04.16 16:29:54.
