data_PCOD8244103
_publ_section_title
;
Structure prediction by ZEFSAII (Michael W. Deem and Ramdas Pophale) SiO2 
 PCOD8244103
Probable space group: P M M N
;
_chemical_formula_sum "Si O2"
_cell_formula_units_Z 56
_cell_length_a 8.853722
_cell_length_b 14.253152
_cell_length_c 22.437777
_cell_angle_alpha 90.000000
_cell_angle_beta 90.000000
_cell_angle_gamma 90.000000
_cell_volume 2831.500387
_symmetry_space_group_name_H-M "P M M N"
_symmetry_group_IT_number 59
_space_group.IT_coordinate_system_code '2'
_symmetry_cell_setting 'orthorhombic'
loop_
_space_group_symop_operation_xyz
x,y,z
1/2-x,1/2-y,z
1/2+x,-y,-z
-x,1/2+y,-z
-x,-y,-z
1/2+x,1/2+y,-z
1/2-x,y,z
x,1/2-y,z
loop_
_atom_site_type_symbol
_atom_site_label
_atom_site_fract_x
_atom_site_fract_y
_atom_site_fract_z
Si Si1 0.922492 0.350517 0.905870
Si Si2 0.573809 0.643998 0.405214
Si Si3 0.575531 0.142325 0.467669
Si Si4 0.928304 0.967994 0.637325
Si Si5 0.076271 0.403945 0.015516
Si Si6 0.574675 0.546662 0.855551
Si Si7 0.926496 0.141140 0.255326
O O1 0.750000 0.375042 0.919868
O O2 0.939313 0.250000 0.871141
O O3 0.984308 0.439596 0.868360
O O4 0.001102 0.331114 0.970037
O O5 0.750000 0.624878 0.415881
O O6 0.546835 0.750000 0.381643
O O7 0.485142 0.627230 0.466276
O O8 0.506397 0.570710 0.357274
O O9 0.750000 0.110980 0.464861
O O10 0.557595 0.250000 0.447529
O O11 0.476678 0.078601 0.424580
O O12 0.750000 0.980478 0.639721
O O13 0.980400 0.902849 0.690997
O O14 0.250000 0.407587 0.999436
O O15 0.053465 0.386373 0.086251
O O16 0.000000 0.500000 0.000000
O O17 0.750000 0.546156 0.835167
O O18 0.469223 0.588524 0.805083
O O19 0.750000 0.128123 0.268223
O O20 0.970536 0.250000 0.249741
#
# Coordination Sequence:
#
# PCOD8244103 Si02
#       7
#     8   8   8   8   8   8   8
#     4   9  18  33  54  82 116 150 183 222 271 328
#     4  10  21  38  60  86 117 151 187 228 274 327
#     4  10  20  35  57  86 120 154 189 231 277 327
#     4  12  24  38  59  84 113 149 187 230 280 333
#     4   9  17  30  50  77 109 144 182 224 271 321
#     4   9  19  36  56  79 109 146 185 227 277 331
#     4  11  25  43  61  81 106 140 185 235 283 332
#
# _framework density 19.777501000000001
#
# number of rings (size 3 to 8) (size 9 to 14) (size 15 to 20)
#    0.000    2.000    0.000    4.714    0.000    8.286 
#    0.000    3.571    0.000    2.571    0.000    0.000 
#    0.000    0.000    0.000    0.000    0.000    0.000 
#
# Total GULP energy -694102.458313 kJ/mol
# GULP energy per Si atom -12394.686756 kJ/mol
# Density = 1.973249 g / cm^3
# Si number density = 19.777501 Si / 1000 Ang^3
#
#
#
# Elastic Constant Matrix: (Units=GPa)
#
#
# Indices 1 2 3 4 5 6 
#
# 1 87.3594 44.1591 27.0138 0.0000 0.0000 0.0000
# 2 44.1591 132.1364 43.9492 0.0000 0.0000 0.0000
# 3 27.0138 43.9492 54.7361 0.0000 0.0000 0.0000
# 4 0.0000 0.0000 0.0000 25.1978 0.0000 0.0000
# 5 0.0000 0.0000 0.0000 0.0000 35.0423 0.0000
# 6 0.0000 0.0000 0.0000 0.0000 0.0000 27.5613
#
#
#
# Elastic Compliance Matrix: (Units=1/GPa)
#
#
# Indices 1 2 3 4 5 6 
#
# 1 0.014532 -0.003371 -0.004465 0.000000 0.000000 0.000000
# 2 -0.003371 0.011108 -0.007255 0.000000 0.000000 0.000000
# 3 -0.004465 -0.007255 0.026298 0.000000 0.000000 0.000000
# 4 0.000000 0.000000 0.000000 0.039686 0.000000 0.000000
# 5 0.000000 0.000000 0.000000 0.000000 0.028537 0.000000
# 6 0.000000 0.000000 0.000000 0.000000 0.000000 0.036283
#
#
# Mechanical properties :
#
#
# Convention : Reuss Voigt Hill
#
# Bulk Modulus (GPa) = 45.96543 56.05289 51.00916
# Shear Modulus (GPa) = 25.78956 28.16761 26.97859
#
# Velocity S-wave (km/s) = 3.61499 3.77798 3.69739
# Velocity P-wave (km/s) = 6.38090 6.88725 6.63890
#
# Compressibility (1/GPa) = 0.02175548
#
# Stress axis : x y z
#
# Youngs Moduli (GPa) = 68.81458 90.02841 38.02561
#
# Poissons Ratio (x) = 0.30352 0.16978
# Poissons Ratio (y) = 0.23200 0.27587
# Poissons Ratio (z) = 0.30725 0.65313
#
# Static dielectric constant tensor:
#      x y z
#    x 3.798880 0.000000 0.000000 
#    y 0.000000 4.110590 0.000000 
#    z 0.000000 0.000000 3.593680 
# 
# 
# High freq. dielectric constant tensor:
#      x y z
#    x 1.778330 0.000000 0.000000 
#    y 0.000000 1.785280 0.000000 
#    z 0.000000 0.000000 1.746490 
# 
# From -- ./inp_files/28968.got.cif
#   From: 2010.03.12/outbox.cif.g09.slc.cpg/sg59_15_cif.got.tgz:28968.got - 2010.04.16 16:29:54.
