data_PCOD8244537
_publ_section_title
;
Structure prediction by ZEFSAII (Michael W. Deem and Ramdas Pophale) SiO2 
 PCOD8244537
Probable space group: P M M N
;
_chemical_formula_sum "Si O2"
_cell_formula_units_Z 56
_cell_length_a 19.170588
_cell_length_b 8.953051
_cell_length_c 16.283908
_cell_angle_alpha 90.000000
_cell_angle_beta 90.000000
_cell_angle_gamma 90.000000
_cell_volume 2794.892654
_symmetry_space_group_name_H-M "P M M N"
_symmetry_group_IT_number 59
_space_group.IT_coordinate_system_code '2'
_symmetry_cell_setting 'orthorhombic'
loop_
_space_group_symop_operation_xyz
x,y,z
1/2-x,1/2-y,z
1/2+x,-y,-z
-x,1/2+y,-z
-x,-y,-z
1/2+x,1/2+y,-z
1/2-x,y,z
x,1/2-y,z
loop_
_atom_site_type_symbol
_atom_site_label
_atom_site_fract_x
_atom_site_fract_y
_atom_site_fract_z
Si Si1 0.547531 0.073112 0.429819
Si Si2 0.330563 0.572730 0.851171
Si Si3 0.831185 0.578220 0.508632
Si Si4 0.438109 0.422553 0.739185
Si Si5 0.325947 0.074588 0.308588
Si Si6 0.073833 0.921825 0.999703
Si Si7 0.419534 0.583172 0.182974
O O1 0.535731 0.250000 0.428475
O O2 0.500000 0.000000 0.500000
O O3 0.627789 0.030703 0.447569
O O4 0.530706 0.005893 0.340516
O O5 0.250000 0.520420 0.855766
O O6 0.335271 0.750000 0.841701
O O7 0.367182 0.498056 0.772167
O O8 0.370447 0.516141 0.933557
O O9 0.750000 0.559028 0.490031
O O10 0.854260 0.750000 0.494875
O O11 0.850001 0.523948 0.600803
O O12 0.422687 0.250000 0.717993
O O13 0.496966 0.439053 0.809852
O O14 0.250000 0.004141 0.287953
O O15 0.318292 0.250000 0.310655
O O16 0.381459 0.032037 0.241090
O O17 0.059021 0.750000 0.980601
O O18 0.106145 0.944736 0.090260
O O19 0.000000 0.000000 0.000000
O O20 0.399629 0.750000 0.211638
#
# Coordination Sequence:
#
# PCOD8244537 Si02
#       7
#     8   8   8   8   8   8   8
#     4  12  25  40  60  88 121 156 200 250 300 357
#     4  10  22  40  62  89 121 159 203 249 301 360
#     4   9  19  38  61  83 112 152 196 243 298 355
#     4  11  23  40  61  87 118 154 197 246 300 358
#     4   9  19  35  55  82 115 150 189 233 284 344
#     4  10  20  37  60  86 116 153 196 243 294 349
#     4  10  21  35  56  86 116 149 192 237 286 347
#
# _framework density 20.036549999999998
#
# number of rings (size 3 to 8) (size 9 to 14) (size 15 to 20)
#    0.000    1.857    1.429    3.429    0.000    6.571 
#    0.000    2.857    0.000    0.000    0.000    0.000 
#    0.000    0.000    0.000    0.000    0.000    0.000 
#
# Total GULP energy -694372.551593 kJ/mol
# GULP energy per Si atom -12399.509850 kJ/mol
# Density = 1.999095 g / cm^3
# Si number density = 20.036550 Si / 1000 Ang^3
#
#
#
# Elastic Constant Matrix: (Units=GPa)
#
#
# Indices 1 2 3 4 5 6 
#
# 1 84.8985 31.7845 40.1442 0.0000 0.0000 0.0000
# 2 31.7845 69.0983 34.6236 0.0000 0.0000 0.0000
# 3 40.1442 34.6236 99.7711 0.0000 0.0000 0.0000
# 4 0.0000 0.0000 0.0000 30.2328 0.0000 0.0000
# 5 0.0000 0.0000 0.0000 0.0000 34.2630 0.0000
# 6 0.0000 0.0000 0.0000 0.0000 0.0000 31.6496
#
#
#
# Elastic Compliance Matrix: (Units=1/GPa)
#
#
# Indices 1 2 3 4 5 6 
#
# 1 0.015832 -0.004952 -0.004652 0.000000 0.000000 0.000000
# 2 -0.004952 0.019067 -0.004624 0.000000 0.000000 0.000000
# 3 -0.004652 -0.004624 0.013500 0.000000 0.000000 0.000000
# 4 0.000000 0.000000 0.000000 0.033077 0.000000 0.000000
# 5 0.000000 0.000000 0.000000 0.000000 0.029186 0.000000
# 6 0.000000 0.000000 0.000000 0.000000 0.000000 0.031596
#
#
# Mechanical properties :
#
#
# Convention : Reuss Voigt Hill
#
# Bulk Modulus (GPa) = 50.14371 51.87473 51.00922
# Shear Modulus (GPa) = 28.19102 29.04343 28.61723
#
# Velocity S-wave (km/s) = 3.75504 3.81139 3.78332
# Velocity P-wave (km/s) = 6.62427 6.73166 6.67818
#
# Compressibility (1/GPa) = 0.01994268
#
# Stress axis : x y z
#
# Youngs Moduli (GPa) = 63.16208 52.44636 74.07659
#
# Poissons Ratio (x) = 0.25970 0.34460
# Poissons Ratio (y) = 0.31276 0.34257
# Poissons Ratio (z) = 0.29383 0.24254
#
# Static dielectric constant tensor:
#      x y z
#    x 3.734770 0.000000 0.000000 
#    y 0.000000 3.524440 0.000000 
#    z 0.000000 0.000000 3.789590 
# 
# 
# High freq. dielectric constant tensor:
#      x y z
#    x 1.783260 0.000000 0.000000 
#    y 0.000000 1.770780 0.000000 
#    z 0.000000 0.000000 1.787580 
# 
# From -- ./inp_files/24308.got.cif
#   From: 2010.03.12/outbox.cif.g09.slc.cpg/sg59_13_cif.got.tgz:24308.got - 2010.04.16 16:29:54.
