data_PCOD8244918
_publ_section_title
;
Structure prediction by ZEFSAII (Michael W. Deem and Ramdas Pophale) SiO2 
 PCOD8244918
Probable space group: P M M N
;
_chemical_formula_sum "Si O2"
_cell_formula_units_Z 64
_cell_length_a 9.029810
_cell_length_b 29.988919
_cell_length_c 11.984365
_cell_angle_alpha 90.000000
_cell_angle_beta 90.000000
_cell_angle_gamma 90.000000
_cell_volume 3245.297020
_symmetry_space_group_name_H-M "P M M N"
_symmetry_group_IT_number 59
_space_group.IT_coordinate_system_code '2'
_symmetry_cell_setting 'orthorhombic'
loop_
_space_group_symop_operation_xyz
x,y,z
1/2-x,1/2-y,z
1/2+x,-y,-z
-x,1/2+y,-z
-x,-y,-z
1/2+x,1/2+y,-z
1/2-x,y,z
x,1/2-y,z
loop_
_atom_site_type_symbol
_atom_site_label
_atom_site_fract_x
_atom_site_fract_y
_atom_site_fract_z
Si Si1 0.921621 0.936869 0.955042
Si Si2 0.921675 0.470496 0.835720
Si Si3 0.076243 0.635443 0.482552
Si Si4 0.073912 0.800217 0.671691
Si Si5 0.082948 0.700809 0.288490
Si Si6 0.573289 0.037381 0.577514
Si Si7 0.583671 0.699858 0.065985
Si Si8 0.577351 0.147767 0.112233
O O1 0.750000 0.927823 0.972802
O O2 0.992830 0.937513 0.079479
O O3 0.992105 0.898732 0.878126
O O4 0.952696 0.980433 0.882050
O O5 0.750000 0.457298 0.841291
O O6 0.978009 0.466988 0.707423
O O7 0.250000 0.632514 0.501372
O O8 0.006168 0.663878 0.584335
O O9 0.036114 0.662399 0.372309
O O10 0.015714 0.585012 0.470475
O O11 0.250000 0.798137 0.659636
O O12 0.009531 0.750000 0.654483
O O13 0.025451 0.818252 0.792068
O O14 0.250000 0.692538 0.242753
O O15 0.077301 0.750000 0.345889
O O16 0.960521 0.698581 0.194094
O O17 0.750000 0.032641 0.570283
O O18 0.500000 0.000000 0.500000
O O19 0.750000 0.680785 0.051919
O O20 0.575468 0.750000 0.019509
O O21 0.464219 0.669957 0.004155
O O22 0.750000 0.137587 0.118842
#
# Coordination Sequence:
#
# PCOD8244918 Si02
#       8
#     8   8   8   8   8   8   8   8
#     4  10  21  37  58  84 113 148 189 236 288 343
#     4   9  20  39  59  82 115 152 191 235 286 344
#     4   9  18  33  55  83 112 145 185 231 282 336
#     4   9  18  33  54  82 114 146 186 238 286 332
#     4   9  17  31  55  85 113 144 183 228 281 339
#     4  10  22  38  58  84 116 152 190 233 285 338
#     4  10  21  36  53  77 113 150 183 225 278 333
#     4  11  22  34  55  83 112 146 189 235 282 339
#
# _framework density 19.720846000000002
#
# number of rings (size 3 to 8) (size 9 to 14) (size 15 to 20)
#    0.000    2.375    0.000    1.875    3.500    3.750 
#    0.000    0.625    0.000    1.500    0.000    1.750 
#    0.000    0.000    0.000    0.000    0.000    0.000 
#
# Total GULP energy -793338.226261 kJ/mol
# GULP energy per Si atom -12395.909785 kJ/mol
# Density = 1.967596 g / cm^3
# Si number density = 19.720846 Si / 1000 Ang^3
#
#
#
# Elastic Constant Matrix: (Units=GPa)
#
#
# Indices 1 2 3 4 5 6 
#
# 1 42.3211 36.7140 33.4184 0.0000 0.0000 0.0000
# 2 36.7140 144.6471 70.7578 0.0000 0.0000 0.0000
# 3 33.4184 70.7578 106.8309 0.0000 0.0000 0.0000
# 4 0.0000 0.0000 0.0000 29.1136 0.0000 0.0000
# 5 0.0000 0.0000 0.0000 0.0000 17.2477 0.0000
# 6 0.0000 0.0000 0.0000 0.0000 0.0000 29.3137
#
#
#
# Elastic Compliance Matrix: (Units=1/GPa)
#
#
# Indices 1 2 3 4 5 6 
#
# 1 0.033678 -0.005022 -0.007209 0.000000 0.000000 0.000000
# 2 -0.005022 0.010976 -0.005699 0.000000 0.000000 0.000000
# 3 -0.007209 -0.005699 0.015390 0.000000 0.000000 0.000000
# 4 0.000000 0.000000 0.000000 0.034348 0.000000 0.000000
# 5 0.000000 0.000000 0.000000 0.000000 0.057979 0.000000
# 6 0.000000 0.000000 0.000000 0.000000 0.000000 0.034114
#
#
# Mechanical properties :
#
#
# Convention : Reuss Voigt Hill
#
# Bulk Modulus (GPa) = 41.34809 63.95329 52.65069
# Shear Modulus (GPa) = 21.70102 25.32892 23.51497
#
# Velocity S-wave (km/s) = 3.32084 3.58770 3.45685
# Velocity P-wave (km/s) = 5.97630 7.04712 6.53368
#
# Compressibility (1/GPa) = 0.02418491
#
# Stress axis : x y z
#
# Youngs Moduli (GPa) = 29.69337 91.11117 64.97685
#
# Poissons Ratio (x) = 0.45752 0.46841
# Poissons Ratio (y) = 0.14911 0.37028
# Poissons Ratio (z) = 0.21406 0.51922
#
# Static dielectric constant tensor:
#      x y z
#    x 3.265280 0.000000 0.000000 
#    y 0.000000 3.891270 0.000000 
#    z 0.000000 0.000000 3.619570 
# 
# 
# High freq. dielectric constant tensor:
#      x y z
#    x 1.736160 0.000000 0.000000 
#    y 0.000000 1.783420 0.000000 
#    z 0.000000 0.000000 1.768280 
# 
# From -- ./inp_files/14961.got.cif
#   From: 2010.03.12/outbox.cif.g09.slc.cpg/sg59_8_cif.got.tgz:14961.got - 2010.04.16 16:29:54.
