data_PCOD8244454
_publ_section_title
;
Structure prediction by ZEFSAII (Michael W. Deem and Ramdas Pophale) SiO2 
 PCOD8244454
Probable space group: P M M N
;
_chemical_formula_sum "Si O2"
_cell_formula_units_Z 64
_cell_length_a 8.785521
_cell_length_b 30.899272
_cell_length_c 11.999840
_cell_angle_alpha 90.000000
_cell_angle_beta 90.000000
_cell_angle_gamma 90.000000
_cell_volume 3257.551002
_symmetry_space_group_name_H-M "P M M N"
_symmetry_group_IT_number 59
_space_group.IT_coordinate_system_code '2'
_symmetry_cell_setting 'orthorhombic'
loop_
_space_group_symop_operation_xyz
x,y,z
1/2-x,1/2-y,z
1/2+x,-y,-z
-x,1/2+y,-z
-x,-y,-z
1/2+x,1/2+y,-z
1/2-x,y,z
x,1/2-y,z
loop_
_atom_site_type_symbol
_atom_site_label
_atom_site_fract_x
_atom_site_fract_y
_atom_site_fract_z
Si Si1 0.570845 0.374795 0.869718
Si Si2 0.569115 0.125847 0.119558
Si Si3 0.928455 0.548730 0.269255
Si Si4 0.424039 0.298791 0.737724
Si Si5 0.425189 0.167948 0.496821
Si Si6 0.929193 0.423561 0.505944
Si Si7 0.070797 0.952096 0.733447
Si Si8 0.425525 0.701217 0.718773
O O1 0.750000 0.379692 0.871804
O O2 0.506540 0.417055 0.810584
O O3 0.530421 0.331317 0.804622
O O4 0.502911 0.372308 0.994608
O O5 0.750000 0.124078 0.114935
O O6 0.502000 0.083020 0.180522
O O7 0.515153 0.168486 0.186121
O O8 0.750000 0.557470 0.266924
O O9 0.970543 0.500489 0.226420
O O10 0.983859 0.552342 0.395561
O O11 0.250000 0.309554 0.768405
O O12 0.467125 0.250000 0.772758
O O13 0.449360 0.302959 0.605799
O O14 0.250000 0.153155 0.485041
O O15 0.534350 0.126985 0.507525
O O16 0.473394 0.196238 0.391155
O O17 0.750000 0.430222 0.522212
O O18 0.992166 0.443602 0.390737
O O19 0.250000 0.945190 0.728004
O O20 0.250000 0.691097 0.688810
O O21 0.444591 0.750000 0.764396
#
# Coordination Sequence:
#
# PCOD8244454 Si02
#       8
#     8   8   8   8   8   8   8   8
#     4  11  23  38  60  85 112 150 197 246 285 329
#     4   9  19  38  59  82 113 149 196 245 287 328
#     4  11  22  37  58  85 118 154 188 229 290 349
#     4  10  22  40  60  82 115 155 188 228 286 345
#     4  11  21  35  58  87 119 153 184 226 286 345
#     4  11  20  35  61  88 115 148 189 234 282 339
#     4   9  19  36  60  85 114 152 188 233 288 342
#     4  10  20  36  61  88 115 150 190 234 284 340
#
# _framework density 19.646661000000002
#
# number of rings (size 3 to 8) (size 9 to 14) (size 15 to 20)
#    0.000    1.750    2.500    2.250    0.000    2.500 
#    0.000    4.375    0.000    0.000    0.000    0.000 
#    0.000    0.000    0.000    0.000    0.000    0.000 
#
# Total GULP energy -793711.950905 kJ/mol
# GULP energy per Si atom -12401.749233 kJ/mol
# Density = 1.960194 g / cm^3
# Si number density = 19.646661 Si / 1000 Ang^3
#
#
#
# Elastic Constant Matrix: (Units=GPa)
#
#
# Indices 1 2 3 4 5 6 
#
# 1 49.9194 38.4472 39.2124 0.0000 0.0000 0.0000
# 2 38.4472 145.0265 66.4830 0.0000 0.0000 0.0000
# 3 39.2124 66.4830 151.5743 0.0000 0.0000 0.0000
# 4 0.0000 0.0000 0.0000 6.2290 0.0000 0.0000
# 5 0.0000 0.0000 0.0000 0.0000 8.3587 0.0000
# 6 0.0000 0.0000 0.0000 0.0000 0.0000 14.3040
#
#
#
# Elastic Compliance Matrix: (Units=1/GPa)
#
#
# Indices 1 2 3 4 5 6 
#
# 1 0.027872 -0.005111 -0.004969 0.000000 0.000000 0.000000
# 2 -0.005111 0.009568 -0.002874 0.000000 0.000000 0.000000
# 3 -0.004969 -0.002874 0.009144 0.000000 0.000000 0.000000
# 4 0.000000 0.000000 0.000000 0.160541 0.000000 0.000000
# 5 0.000000 0.000000 0.000000 0.000000 0.119636 0.000000
# 6 0.000000 0.000000 0.000000 0.000000 0.000000 0.069911
#
#
# Mechanical properties :
#
#
# Convention : Reuss Voigt Hill
#
# Bulk Modulus (GPa) = 48.36787 70.53394 59.45090
# Shear Modulus (GPa) = 11.64225 19.27017 15.45621
#
# Velocity S-wave (km/s) = 2.43694 3.13523 2.80788
# Velocity P-wave (km/s) = 5.70881 7.00610 6.39046
#
# Compressibility (1/GPa) = 0.02067488
#
# Stress axis : x y z
#
# Youngs Moduli (GPa) = 35.87860 104.51531 109.36657
#
# Poissons Ratio (x) = 0.53420 0.54340
# Poissons Ratio (y) = 0.18338 0.31436
# Poissons Ratio (z) = 0.17827 0.30042
#
# Static dielectric constant tensor:
#      x y z
#    x 3.380940 0.000000 0.000000 
#    y 0.000000 3.729180 0.000000 
#    z 0.000000 0.000000 3.780190 
# 
# 
# High freq. dielectric constant tensor:
#      x y z
#    x 1.743830 0.000000 0.000000 
#    y 0.000000 1.779750 0.000000 
#    z 0.000000 0.000000 1.764420 
# 
# From -- ./inp_files/14977.got.cif
#   From: 2010.03.12/outbox.cif.g09.slc.cpg/sg59_8_cif.got.tgz:14977.got - 2010.04.16 16:29:54.
