data_PCOD8244775
_publ_section_title
;
Structure prediction by ZEFSAII (Michael W. Deem and Ramdas Pophale) SiO2 
 PCOD8244775
Probable space group: P M M N
;
_chemical_formula_sum "Si O2"
_cell_formula_units_Z 64
_cell_length_a 9.273783
_cell_length_b 22.385080
_cell_length_c 16.212224
_cell_angle_alpha 90.000000
_cell_angle_beta 90.000000
_cell_angle_gamma 90.000000
_cell_volume 3365.566498
_symmetry_space_group_name_H-M "P M M N"
_symmetry_group_IT_number 59
_space_group.IT_coordinate_system_code '2'
_symmetry_cell_setting 'orthorhombic'
loop_
_space_group_symop_operation_xyz
x,y,z
1/2-x,1/2-y,z
1/2+x,-y,-z
-x,1/2+y,-z
-x,-y,-z
1/2+x,1/2+y,-z
1/2-x,y,z
x,1/2-y,z
loop_
_atom_site_type_symbol
_atom_site_label
_atom_site_fract_x
_atom_site_fract_y
_atom_site_fract_z
Si Si1 0.581488 0.538388 0.893224
Si Si2 0.913356 0.180021 0.359278
Si Si3 0.093451 0.180177 0.510877
Si Si4 0.587197 0.912374 0.721476
Si Si5 0.917385 0.088321 0.962183
Si Si6 0.418726 0.820050 0.177064
Si Si7 0.079453 0.116567 0.674000
Si Si8 0.418052 0.990465 0.413510
O O1 0.750000 0.547147 0.906677
O O2 0.532766 0.549572 0.799420
O O3 0.534649 0.470283 0.910694
O O4 0.504015 0.586850 0.952103
O O5 0.750000 0.159674 0.359246
O O6 0.933300 0.250000 0.346484
O O7 0.977179 0.156418 0.446059
O O8 0.993016 0.147574 0.284176
O O9 0.250000 0.151062 0.489928
O O10 0.104980 0.250000 0.502567
O O11 0.048745 0.165064 0.603332
O O12 0.750000 0.891800 0.736534
O O13 0.571873 0.948527 0.636909
O O14 0.750000 0.085683 0.984315
O O15 0.952874 0.148322 0.910597
O O16 0.250000 0.827370 0.199216
O O17 0.461880 0.750000 0.172023
O O18 0.512417 0.855213 0.244055
O O19 0.250000 0.104046 0.687041
O O20 0.997453 0.057430 0.644563
O O21 0.250000 0.972723 0.428522
O O22 0.500000 0.000000 0.500000
#
# Coordination Sequence:
#
# PCOD8244775 Si02
#       8
#     8   8   8   8   8   8   8   8
#     4   9  18  34  57  82 105 134 175 220 266 319
#     4  10  21  35  52  76 103 131 169 218 264 306
#     4   9  18  33  51  70  97 136 178 217 259 308
#     4  10  21  37  56  77 105 141 177 214 261 318
#     4   9  18  35  57  81 109 138 171 216 271 329
#     4  10  21  37  57  81 112 151 188 224 277 343
#     4  11  22  35  53  79 110 145 186 230 276 325
#     4  11  23  38  55  79 113 150 188 232 281 331
#
# _framework density 19.016114000000002
#
# number of rings (size 3 to 8) (size 9 to 14) (size 15 to 20)
#    0.000    2.125    0.000    3.000    0.000    9.500 
#    0.000    4.375    0.000    2.250    0.000    0.000 
#    0.000    0.000    0.000    0.000    0.000    0.000 
#
# Total GULP energy -793431.938435 kJ/mol
# GULP energy per Si atom -12397.374038 kJ/mol
# Density = 1.897283 g / cm^3
# Si number density = 19.016114 Si / 1000 Ang^3
#
#
#
# Elastic Constant Matrix: (Units=GPa)
#
#
# Indices 1 2 3 4 5 6 
#
# 1 92.7986 49.9328 48.0599 0.0000 0.0000 0.0000
# 2 49.9328 63.8162 45.1606 0.0000 0.0000 0.0000
# 3 48.0599 45.1606 96.7385 0.0000 0.0000 0.0000
# 4 0.0000 0.0000 0.0000 35.2414 0.0000 0.0000
# 5 0.0000 0.0000 0.0000 0.0000 33.8460 0.0000
# 6 0.0000 0.0000 0.0000 0.0000 0.0000 29.3142
#
#
#
# Elastic Compliance Matrix: (Units=1/GPa)
#
#
# Indices 1 2 3 4 5 6 
#
# 1 0.019520 -0.012560 -0.003834 0.000000 0.000000 0.000000
# 2 -0.012560 0.031482 -0.008457 0.000000 0.000000 0.000000
# 3 -0.003834 -0.008457 0.016190 0.000000 0.000000 0.000000
# 4 0.000000 0.000000 0.000000 0.028376 0.000000 0.000000
# 5 0.000000 0.000000 0.000000 0.000000 0.029546 0.000000
# 6 0.000000 0.000000 0.000000 0.000000 0.000000 0.034113
#
#
# Mechanical properties :
#
#
# Convention : Reuss Voigt Hill
#
# Bulk Modulus (GPa) = 57.17629 59.96218 58.56924
# Shear Modulus (GPa) = 23.28186 27.02700 25.15443
#
# Velocity S-wave (km/s) = 3.50283 3.77406 3.64097
# Velocity P-wave (km/s) = 6.81853 7.11281 6.96722
#
# Compressibility (1/GPa) = 0.01748977
#
# Stress axis : x y z
#
# Youngs Moduli (GPa) = 51.22953 31.76374 61.76649
#
# Poissons Ratio (x) = 0.39896 0.23682
# Poissons Ratio (y) = 0.64345 0.52237
# Poissons Ratio (z) = 0.19642 0.26863
#
# Static dielectric constant tensor:
#      x y z
#    x 3.646300 0.000000 0.000000 
#    y 0.000000 3.514630 0.000000 
#    z 0.000000 0.000000 3.549290 
# 
# 
# High freq. dielectric constant tensor:
#      x y z
#    x 1.742360 0.000000 0.000000 
#    y 0.000000 1.736560 0.000000 
#    z 0.000000 0.000000 1.734630 
# 
# From -- ./inp_files/21557.got.cif
#   From: 2010.03.12/outbox.cif.g09.slc.cpg/sg59_11_cif.got.tgz:21557.got - 2010.04.16 16:29:54.
