data_PCOD8244471
_publ_section_title
;
Structure prediction by ZEFSAII (Michael W. Deem and Ramdas Pophale) SiO2 
 PCOD8244471
Probable space group: P M M N
;
_chemical_formula_sum "Si O2"
_cell_formula_units_Z 48
_cell_length_a 8.719246
_cell_length_b 16.341706
_cell_length_c 16.357711
_cell_angle_alpha 90.000000
_cell_angle_beta 90.000000
_cell_angle_gamma 90.000000
_cell_volume 2330.766969
_symmetry_space_group_name_H-M "P M M N"
_symmetry_group_IT_number 59
_space_group.IT_coordinate_system_code '2'
_symmetry_cell_setting 'orthorhombic'
loop_
_space_group_symop_operation_xyz
x,y,z
1/2-x,1/2-y,z
1/2+x,-y,-z
-x,1/2+y,-z
-x,-y,-z
1/2+x,1/2+y,-z
1/2-x,y,z
x,1/2-y,z
loop_
_atom_site_type_symbol
_atom_site_label
_atom_site_fract_x
_atom_site_fract_y
_atom_site_fract_z
Si Si1 0.927477 0.561579 0.221952
Si Si2 0.428839 0.156332 0.474366
Si Si3 0.931050 0.422162 0.952929
Si Si4 0.423991 0.250000 0.194848
Si Si5 0.073209 0.091347 0.300283
Si Si6 0.079246 0.653654 0.361937
Si Si7 0.429089 0.750000 0.976268
O O1 0.750000 0.568328 0.197851
O O2 0.029690 0.571819 0.141907
O O3 0.960272 0.475207 0.263641
O O4 0.970791 0.631408 0.286482
O O5 0.250000 0.151695 0.493585
O O6 0.478179 0.250000 0.458358
O O7 0.471925 0.104011 0.394711
O O8 0.516580 0.118012 0.552311
O O9 0.750000 0.425891 0.965776
O O10 0.997439 0.334522 0.985457
O O11 0.000000 0.500000 0.000000
O O12 0.250000 0.250000 0.161480
O O13 0.457470 0.326970 0.250779
O O14 0.539190 0.250000 0.119608
O O15 0.250000 0.063688 0.292264
O O16 0.250000 0.618013 0.347456
O O17 0.081285 0.750000 0.368388
O O18 0.250000 0.750000 0.993417
#
# Coordination Sequence:
#
# PCOD8244471 Si02
#       7
#     8   8   8   4   8   8   4
#     4  12  26  41  60  90 123 161 207 256 307 364
#     4   9  17  34  60  89 122 159 203 252 303 360
#     4  11  24  45  68  94 128 165 207 261 318 379
#     4  10  20  36  62  93 122 155 200 245 296 363
#     4  10  20  37  61  90 124 163 202 249 305 363
#     4  10  22  40  62  87 119 160 206 255 310 366
#     4  10  24  42  64  91 122 161 202 249 314 377
#
# _framework density 20.594079000000001
#
# number of rings (size 3 to 8) (size 9 to 14) (size 15 to 20)
#    0.000    1.667    0.833    3.500    1.167    7.000 
#    0.000    0.000    0.000    0.000    0.000    0.000 
#    0.000    0.000    0.000    0.000    0.000    0.000 
#
# Total GULP energy -595270.013142 kJ/mol
# GULP energy per Si atom -12401.458607 kJ/mol
# Density = 2.054721 g / cm^3
# Si number density = 20.594079 Si / 1000 Ang^3
#
#
#
# Elastic Constant Matrix: (Units=GPa)
#
#
# Indices 1 2 3 4 5 6 
#
# 1 60.4090 30.0928 25.0172 0.0000 0.0000 0.0000
# 2 30.0928 102.1782 52.6418 0.0000 0.0000 0.0000
# 3 25.0172 52.6418 141.8532 0.0000 0.0000 0.0000
# 4 0.0000 0.0000 0.0000 28.3148 0.0000 0.0000
# 5 0.0000 0.0000 0.0000 0.0000 37.3053 0.0000
# 6 0.0000 0.0000 0.0000 0.0000 0.0000 30.4766
#
#
#
# Elastic Compliance Matrix: (Units=1/GPa)
#
#
# Indices 1 2 3 4 5 6 
#
# 1 0.019702 -0.004961 -0.001634 0.000000 0.000000 0.000000
# 2 -0.004961 0.013349 -0.004079 0.000000 0.000000 0.000000
# 3 -0.001634 -0.004079 0.008851 0.000000 0.000000 0.000000
# 4 0.000000 0.000000 0.000000 0.035317 0.000000 0.000000
# 5 0.000000 0.000000 0.000000 0.000000 0.026806 0.000000
# 6 0.000000 0.000000 0.000000 0.000000 0.000000 0.032812
#
#
# Mechanical properties :
#
#
# Convention : Reuss Voigt Hill
#
# Bulk Modulus (GPa) = 48.64895 57.77153 53.21024
# Shear Modulus (GPa) = 30.29639 32.33190 31.31415
#
# Velocity S-wave (km/s) = 3.83968 3.96657 3.90364
# Velocity P-wave (km/s) = 6.58267 7.00654 6.79791
#
# Compressibility (1/GPa) = 0.02055543
#
# Stress axis : x y z
#
# Youngs Moduli (GPa) = 50.75748 74.91004 112.97651
#
# Poissons Ratio (x) = 0.37161 0.18456
# Poissons Ratio (y) = 0.25179 0.46084
# Poissons Ratio (z) = 0.08292 0.30556
#
# Static dielectric constant tensor:
#      x y z
#    x 3.709100 0.000000 0.000000 
#    y 0.000000 3.820980 0.000000 
#    z 0.000000 0.000000 3.842400 
# 
# 
# High freq. dielectric constant tensor:
#      x y z
#    x 1.796310 0.000000 0.000000 
#    y 0.000000 1.811440 0.000000 
#    z 0.000000 0.000000 1.819420 
# 
# From -- ./inp_files/20531.got.cif
#   From: 2010.03.12/outbox.cif.g09.slc.cpg/sg59_11_cif.got.tgz:20531.got - 2010.04.16 16:29:54.
