data_PCOD8244816
_publ_section_title
;
Structure prediction by ZEFSAII (Michael W. Deem and Ramdas Pophale) SiO2 
 PCOD8244816
Probable space group: P M M N
;
_chemical_formula_sum "Si O2"
_cell_formula_units_Z 64
_cell_length_a 19.107111
_cell_length_b 8.947343
_cell_length_c 20.626041
_cell_angle_alpha 90.000000
_cell_angle_beta 90.000000
_cell_angle_gamma 90.000000
_cell_volume 3526.184157
_symmetry_space_group_name_H-M "P M M N"
_symmetry_group_IT_number 59
_space_group.IT_coordinate_system_code '2'
_symmetry_cell_setting 'orthorhombic'
loop_
_space_group_symop_operation_xyz
x,y,z
1/2-x,1/2-y,z
1/2+x,-y,-z
-x,1/2+y,-z
-x,-y,-z
1/2+x,1/2+y,-z
1/2-x,y,z
x,1/2-y,z
loop_
_atom_site_type_symbol
_atom_site_label
_atom_site_fract_x
_atom_site_fract_y
_atom_site_fract_z
Si Si1 0.971155 0.427649 0.564587
Si Si2 0.538407 0.426825 0.059975
Si Si3 0.458997 0.074216 0.187644
Si Si4 0.329860 0.078133 0.743466
Si Si5 0.829179 0.923988 0.107102
Si Si6 0.328943 0.576640 0.235306
Si Si7 0.956524 0.426099 0.314159
Si Si8 0.673741 0.427260 0.618874
O O1 0.976846 0.250000 0.560154
O O2 0.890075 0.480484 0.573372
O O3 0.000000 0.500000 0.500000
O O4 0.016834 0.484563 0.624054
O O5 0.535952 0.250000 0.052860
O O6 0.500177 0.484774 0.124988
O O7 0.618876 0.479970 0.062497
O O8 0.500000 0.500000 0.000000
O O9 0.453281 0.250000 0.185321
O O10 0.498928 0.020809 0.252157
O O11 0.380965 0.008017 0.186958
O O12 0.250000 0.055960 0.721361
O O13 0.352761 0.250000 0.734359
O O14 0.338852 0.029646 0.818075
O O15 0.376231 0.971190 0.698332
O O16 0.750000 0.959604 0.084827
O O17 0.845850 0.750000 0.097706
O O18 0.250000 0.548760 0.210806
O O19 0.348211 0.750000 0.233878
O O20 0.338046 0.511866 0.308222
O O21 0.961958 0.250000 0.327091
O O22 0.750000 0.484286 0.592652
O O23 0.675390 0.250000 0.622900
#
# Coordination Sequence:
#
# PCOD8244816 Si02
#       8
#     8   8   8   8   8   8   8   8
#     4  11  22  37  57  81 111 148 185 230 282 333
#     4  11  23  39  56  81 113 150 190 232 279 331
#     4  10  21  35  53  80 113 142 177 224 275 326
#     4   9  18  33  55  84 114 144 183 230 279 330
#     4   9  18  34  57  84 112 144 183 228 281 339
#     4   9  17  31  54  83 109 136 179 228 271 323
#     4  11  21  35  55  82 113 144 182 227 273 331
#     4   8  15  30  53  79 104 134 176 222 268 320
#
# _framework density 18.149932
#
# number of rings (size 3 to 8) (size 9 to 14) (size 15 to 20)
#    0.000    2.250    2.500    2.625    0.000    2.250 
#    0.000    2.500    0.000    4.500    0.000    0.000 
#    0.000    0.000    0.000    0.000    0.000    0.000 
#
# Total GULP energy -793566.401993 kJ/mol
# GULP energy per Si atom -12399.475031 kJ/mol
# Density = 1.810862 g / cm^3
# Si number density = 18.149932 Si / 1000 Ang^3
#
#
#
# Elastic Constant Matrix: (Units=GPa)
#
#
# Indices 1 2 3 4 5 6 
#
# 1 141.6191 44.0274 63.1713 0.0000 0.0000 0.0000
# 2 44.0274 50.5856 41.8603 0.0000 0.0000 0.0000
# 3 63.1713 41.8603 102.0081 0.0000 0.0000 0.0000
# 4 0.0000 0.0000 0.0000 27.7680 0.0000 0.0000
# 5 0.0000 0.0000 0.0000 0.0000 29.9236 0.0000
# 6 0.0000 0.0000 0.0000 0.0000 0.0000 32.7660
#
#
#
# Elastic Compliance Matrix: (Units=1/GPa)
#
#
# Indices 1 2 3 4 5 6 
#
# 1 0.010789 -0.005847 -0.004282 0.000000 0.000000 0.000000
# 2 -0.005847 0.033102 -0.009963 0.000000 0.000000 0.000000
# 3 -0.004282 -0.009963 0.016543 0.000000 0.000000 0.000000
# 4 0.000000 0.000000 0.000000 0.036013 0.000000 0.000000
# 5 0.000000 0.000000 0.000000 0.000000 0.033418 0.000000
# 6 0.000000 0.000000 0.000000 0.000000 0.000000 0.030519
#
#
# Mechanical properties :
#
#
# Convention : Reuss Voigt Hill
#
# Bulk Modulus (GPa) = 49.38149 65.81452 57.59801
# Shear Modulus (GPa) = 24.11751 27.76843 25.94297
#
# Velocity S-wave (km/s) = 3.64922 3.91570 3.78480
# Velocity P-wave (km/s) = 6.70987 7.53551 7.13464
#
# Compressibility (1/GPa) = 0.02025050
#
# Stress axis : x y z
#
# Youngs Moduli (GPa) = 92.68751 30.20994 60.44726
#
# Poissons Ratio (x) = 0.17663 0.25884
# Poissons Ratio (y) = 0.54192 0.60223
# Poissons Ratio (z) = 0.39689 0.30098
#
# Static dielectric constant tensor:
#      x y z
#    x 3.623750 0.000000 0.000000 
#    y 0.000000 3.161020 0.000000 
#    z 0.000000 0.000000 3.278510 
# 
# 
# High freq. dielectric constant tensor:
#      x y z
#    x 1.719050 0.000000 0.000000 
#    y 0.000000 1.691650 0.000000 
#    z 0.000000 0.000000 1.676020 
# 
# From -- ./inp_files/29390.got.cif
#   From: 2010.03.12/outbox.cif.g09.slc.cpg/sg59_15_cif.got.tgz:29390.got - 2010.04.16 16:29:54.
