data_PCOD8244404
_publ_section_title
;
Structure prediction by ZEFSAII (Michael W. Deem and Ramdas Pophale) SiO2 
 PCOD8244404
Probable space group: P M M N
;
_chemical_formula_sum "Si O2"
_cell_formula_units_Z 48
_cell_length_a 28.086154
_cell_length_b 8.806283
_cell_length_c 10.164018
_cell_angle_alpha 90.000000
_cell_angle_beta 90.000000
_cell_angle_gamma 90.000000
_cell_volume 2513.913535
_symmetry_space_group_name_H-M "P M M N"
_symmetry_group_IT_number 59
_space_group.IT_coordinate_system_code '2'
_symmetry_cell_setting 'orthorhombic'
loop_
_space_group_symop_operation_xyz
x,y,z
1/2-x,1/2-y,z
1/2+x,-y,-z
-x,1/2+y,-z
-x,-y,-z
1/2+x,1/2+y,-z
1/2-x,y,z
x,1/2-y,z
loop_
_atom_site_type_symbol
_atom_site_label
_atom_site_fract_x
_atom_site_fract_y
_atom_site_fract_z
Si Si1 0.853578 0.927895 0.997389
Si Si2 0.006501 0.928738 0.357743
Si Si3 0.609604 0.071105 0.734752
Si Si4 0.750000 0.924516 0.096935
Si Si5 0.750000 0.071422 0.376636
Si Si6 0.656527 0.570190 0.489327
Si Si7 0.091941 0.070923 0.746118
O O1 0.863671 0.750000 0.974074
O O2 0.797036 0.958324 0.011046
O O3 0.874199 0.025322 0.879153
O O4 0.881408 0.992774 0.125253
O O5 0.005025 0.750000 0.378832
O O6 0.055146 0.981676 0.288743
O O7 0.963266 0.980418 0.261403
O O8 0.000000 0.000000 0.500000
O O9 0.615235 0.250000 0.714869
O O10 0.643194 0.983695 0.634101
O O11 0.750000 0.750000 0.145634
O O12 0.750000 0.029629 0.223795
O O13 0.750000 0.250000 0.390761
O O14 0.794336 0.003580 0.451521
O O15 0.661623 0.750000 0.487416
O O16 0.617233 0.510373 0.385920
O O17 0.097170 0.250000 0.750691
#
# Coordination Sequence:
#
# PCOD8244404 Si02
#       7
#     8   8   8   4   4   8   8
#     4  10  21  39  62  86 117 158 208 254 296 361
#     4  10  20  36  59  88 120 156 200 250 303 360
#     4  11  24  39  56  88 130 160 194 253 313 358
#     4  10  20  39  64  89 114 156 210 250 290 355
#     4  12  24  37  60  95 128 152 188 250 314 359
#     4  11  21  39  65  88 115 157 206 247 287 353
#     4   9  18  35  62  89 113 149 203 252 288 346
#
# _framework density 19.093734000000001
#
# number of rings (size 3 to 8) (size 9 to 14) (size 15 to 20)
#    0.000    1.667    3.333    1.750    0.000    2.667 
#    0.000    3.333    0.000    0.000    0.000    0.000 
#    0.000    0.000    0.000    0.000    0.000    0.000 
#
# Total GULP energy -595270.099148 kJ/mol
# GULP energy per Si atom -12401.460399 kJ/mol
# Density = 1.905028 g / cm^3
# Si number density = 19.093734 Si / 1000 Ang^3
#
#
#
# Elastic Constant Matrix: (Units=GPa)
#
#
# Indices 1 2 3 4 5 6 
#
# 1 151.9588 43.8390 61.0369 0.0000 0.0000 0.0000
# 2 43.8390 66.3813 32.3002 0.0000 0.0000 0.0000
# 3 61.0369 32.3002 122.2463 0.0000 0.0000 0.0000
# 4 0.0000 0.0000 0.0000 32.6588 0.0000 0.0000
# 5 0.0000 0.0000 0.0000 0.0000 37.8671 0.0000
# 6 0.0000 0.0000 0.0000 0.0000 0.0000 -157.6506
#
#
#
# Elastic Compliance Matrix: (Units=1/GPa)
#
#
# Indices 1 2 3 4 5 6 
#
# 1 0.009241 -0.004427 -0.003444 0.000000 0.000000 0.000000
# 2 -0.004427 0.019408 -0.002918 0.000000 0.000000 0.000000
# 3 -0.003444 -0.002918 0.010671 0.000000 0.000000 0.000000
# 4 0.000000 0.000000 0.000000 0.030620 0.000000 0.000000
# 5 0.000000 0.000000 0.000000 0.000000 0.026408 0.000000
# 6 0.000000 0.000000 0.000000 0.000000 0.000000 -0.006343
#
#
# Mechanical properties :
#
#
# Convention : Reuss Voigt Hill
#
# Bulk Modulus (GPa) = 56.36375 68.32653 62.34514
# Shear Modulus (GPa) = 42.55427 -3.86424 19.34501
#
# Velocity S-wave (km/s) = 4.72604 -1.42416 3.18647
# Velocity P-wave (km/s) = 7.70481 5.75831 6.80156
#
# Compressibility (1/GPa) = 0.01774190
#
# Stress axis : x y z
#
# Youngs Moduli (GPa) = 108.20812 51.52556 93.71296
#
# Poissons Ratio (x) = 0.22811 0.32279
# Poissons Ratio (y) = 0.47905 0.27341
# Poissons Ratio (z) = 0.37272 0.15033
#
# Static dielectric constant tensor:
#      x y z
#    x 3.921700 0.000000 0.000000 
#    y 0.000000 3.338230 0.000000 
#    z 0.000000 0.000000 -4.724210 
# 
# 
# High freq. dielectric constant tensor:
#      x y z
#    x 1.761700 0.000000 0.000000 
#    y 0.000000 1.726370 0.000000 
#    z 0.000000 0.000000 1.741040 
# 
# From -- ./inp_files/13070.got.cif
#   From: 2010.03.12/outbox.cif.g09.slc.cpg/sg59_7_cif.got.tgz:13070.got - 2010.04.16 16:29:54.
