data_PCOD8244741
_publ_section_title
;
Structure prediction by ZEFSAII (Michael W. Deem and Ramdas Pophale) SiO2 
 PCOD8244741
Probable space group: P M M N
;
_chemical_formula_sum "Si O2"
_cell_formula_units_Z 56
_cell_length_a 15.093715
_cell_length_b 12.915958
_cell_length_c 15.785569
_cell_angle_alpha 90.000000
_cell_angle_beta 90.000000
_cell_angle_gamma 90.000000
_cell_volume 3077.393346
_symmetry_space_group_name_H-M "P M M N"
_symmetry_group_IT_number 59
_space_group.IT_coordinate_system_code '2'
_symmetry_cell_setting 'orthorhombic'
loop_
_space_group_symop_operation_xyz
x,y,z
1/2-x,1/2-y,z
1/2+x,-y,-z
-x,1/2+y,-z
-x,-y,-z
1/2+x,1/2+y,-z
1/2-x,y,z
x,1/2-y,z
loop_
_atom_site_type_symbol
_atom_site_label
_atom_site_fract_x
_atom_site_fract_y
_atom_site_fract_z
Si Si1 0.498963 0.970912 0.403037
Si Si2 0.654762 0.131742 0.672949
Si Si3 0.146898 0.997671 0.162738
Si Si4 0.648240 0.631037 0.296361
Si Si5 0.018932 0.133170 0.260407
Si Si6 0.353638 0.632707 0.004226
Si Si7 0.851034 0.445543 0.179118
O O1 0.470623 0.069659 0.347218
O O2 0.500000 0.000000 0.500000
O O3 0.420205 0.887822 0.396341
O O4 0.590390 0.918941 0.371763
O O5 0.750000 0.091531 0.638301
O O6 0.660148 0.250000 0.695429
O O7 0.630912 0.080342 0.761263
O O8 0.250000 0.031895 0.152761
O O9 0.084538 0.095600 0.184738
O O10 0.109029 0.938510 0.080087
O O11 0.750000 0.625415 0.326441
O O12 0.619851 0.750000 0.278456
O O13 0.634554 0.564956 0.209559
O O14 0.044518 0.250000 0.282044
O O15 0.916730 0.127955 0.231200
O O16 0.250000 0.645470 0.018807
O O17 0.394962 0.750000 0.001794
O O18 0.374176 0.567925 0.919405
O O19 0.750000 0.409784 0.197383
#
# Coordination Sequence:
#
# PCOD8244741 Si02
#       7
#     8   8   8   8   8   8   8
#     4  10  21  35  53  75 100 126 161 209 252 297
#     4   9  17  31  52  75  99 127 159 200 250 297
#     4   9  18  32  49  72 102 134 170 207 242 288
#     4   9  18  34  55  76 101 134 167 200 245 302
#     4  10  21  35  50  70  98 134 170 203 248 301
#     4   9  16  28  50  77 103 133 169 209 250 289
#     4   9  18  33  52  75 102 130 164 206 247 289
#
# _framework density 18.197219
#
# number of rings (size 3 to 8) (size 9 to 14) (size 15 to 20)
#    0.000    2.714    0.000    1.286    0.000    5.143 
#    0.000    1.429    0.000    2.571    0.000    0.000 
#    0.000    0.000    0.000    0.000    0.000    0.000 
#
# Total GULP energy -694038.264567 kJ/mol
# GULP energy per Si atom -12393.540439 kJ/mol
# Density = 1.815580 g / cm^3
# Si number density = 18.197219 Si / 1000 Ang^3
#
#
#
# Elastic Constant Matrix: (Units=GPa)
#
#
# Indices 1 2 3 4 5 6 
#
# 1 80.3986 36.3560 43.8901 0.0000 0.0000 0.0000
# 2 36.3560 116.7488 49.3256 0.0000 0.0000 0.0000
# 3 43.8901 49.3256 100.1419 0.0000 0.0000 0.0000
# 4 0.0000 0.0000 0.0000 17.6501 0.0000 0.0000
# 5 0.0000 0.0000 0.0000 0.0000 21.0858 0.0000
# 6 0.0000 0.0000 0.0000 0.0000 0.0000 20.8217
#
#
#
# Elastic Compliance Matrix: (Units=1/GPa)
#
#
# Indices 1 2 3 4 5 6 
#
# 1 0.017003 -0.002710 -0.006117 0.000000 0.000000 0.000000
# 2 -0.002710 0.011248 -0.004353 0.000000 0.000000 0.000000
# 3 -0.006117 -0.004353 0.014811 0.000000 0.000000 0.000000
# 4 0.000000 0.000000 0.000000 0.056657 0.000000 0.000000
# 5 0.000000 0.000000 0.000000 0.000000 0.047425 0.000000
# 6 0.000000 0.000000 0.000000 0.000000 0.000000 0.048027
#
#
# Mechanical properties :
#
#
# Convention : Reuss Voigt Hill
#
# Bulk Modulus (GPa) = 59.87282 61.82588 60.84935
# Shear Modulus (GPa) = 22.01690 23.09269 22.55480
#
# Velocity S-wave (km/s) = 3.48214 3.56620 3.52442
# Velocity P-wave (km/s) = 7.01004 7.14187 7.07626
#
# Compressibility (1/GPa) = 0.01670207
#
# Stress axis : x y z
#
# Youngs Moduli (GPa) = 58.81316 88.90197 67.51882
#
# Poissons Ratio (x) = 0.24096 0.41302
# Poissons Ratio (y) = 0.15941 0.29388
# Poissons Ratio (z) = 0.35976 0.38695
#
# Static dielectric constant tensor:
#      x y z
#    x 3.609730 0.000000 0.000000 
#    y 0.000000 3.417800 0.000000 
#    z 0.000000 0.000000 3.179580 
# 
# 
# High freq. dielectric constant tensor:
#      x y z
#    x 1.707880 0.000000 0.000000 
#    y 0.000000 1.700290 0.000000 
#    z 0.000000 0.000000 1.686430 
# 
# From -- ./inp_files/22511.got.cif
#   From: 2010.03.12/outbox.cif.g09.slc.cpg/sg59_12_cif.got.tgz:22511.got - 2010.04.16 16:29:54.
