data_PCOD8244739
_publ_section_title
;
Structure prediction by ZEFSAII (Michael W. Deem and Ramdas Pophale) SiO2 
 PCOD8244739
Probable space group: P M M N
;
_chemical_formula_sum "Si O2"
_cell_formula_units_Z 64
_cell_length_a 9.170099
_cell_length_b 14.782730
_cell_length_c 24.372065
_cell_angle_alpha 90.000000
_cell_angle_beta 90.000000
_cell_angle_gamma 90.000000
_cell_volume 3303.855138
_symmetry_space_group_name_H-M "P M M N"
_symmetry_group_IT_number 59
_space_group.IT_coordinate_system_code '2'
_symmetry_cell_setting 'orthorhombic'
loop_
_space_group_symop_operation_xyz
x,y,z
1/2-x,1/2-y,z
1/2+x,-y,-z
-x,1/2+y,-z
-x,-y,-z
1/2+x,1/2+y,-z
1/2-x,y,z
x,1/2-y,z
loop_
_atom_site_type_symbol
_atom_site_label
_atom_site_fract_x
_atom_site_fract_y
_atom_site_fract_z
Si Si1 0.578915 0.000052 0.557465
Si Si2 0.414432 0.357562 0.750685
Si Si3 0.421833 0.492147 0.057616
Si Si4 0.419008 0.853240 0.142447
Si Si5 0.080804 0.853339 0.355583
Si Si6 0.588239 0.642677 0.760356
Si Si7 0.418217 0.643049 0.865926
Si Si8 0.576271 0.850284 0.640251
O O1 0.750000 0.990197 0.547123
O O2 0.517263 0.916548 0.593271
O O3 0.500000 0.000000 0.500000
O O4 0.540950 0.092001 0.589627
O O5 0.250000 0.393941 0.751066
O O6 0.422082 0.250000 0.750178
O O7 0.494288 0.392760 0.805324
O O8 0.493887 0.394181 0.696196
O O9 0.250000 0.477898 0.049555
O O10 0.456028 0.584160 0.090671
O O11 0.487201 0.404841 0.087575
O O12 0.500000 0.500000 0.000000
O O13 0.250000 0.857563 0.158018
O O14 0.465480 0.750000 0.128118
O O15 0.250000 0.863752 0.340794
O O16 0.037212 0.750000 0.367498
O O17 0.750000 0.602362 0.772577
O O18 0.599715 0.750000 0.759731
O O19 0.476202 0.609470 0.806696
O O20 0.528810 0.612391 0.700416
O O21 0.250000 0.614741 0.871257
O O22 0.439152 0.750000 0.873301
O O23 0.750000 0.847342 0.639886
O O24 0.512381 0.750000 0.628979
#
# Coordination Sequence:
#
# PCOD8244739 Si02
#       8
#     8   8   8   8   8   8   8   8
#     4  10  21  35  50  70  96 129 172 214 252 300
#     4   9  17  30  52  83 112 135 166 211 260 309
#     4  11  24  40  58  81 109 144 188 231 270 318
#     4   9  19  37  59  81 108 143 178 214 264 325
#     4   9  18  33  51  71 101 139 171 202 248 309
#     4   8  14  28  52  79 104 131 168 213 260 314
#     4  10  21  37  57  82 114 148 179 218 270 323
#     4   8  15  30  52  75  98 126 162 207 257 306
#
# _framework density 19.371310000000001
#
# number of rings (size 3 to 8) (size 9 to 14) (size 15 to 20)
#    0.000    2.750    0.000    1.875    0.000    5.750 
#    0.000    4.375    0.000    0.750    0.000    0.000 
#    0.000    0.000    0.000    0.000    0.000    0.000 
#
# Total GULP energy -793533.768526 kJ/mol
# GULP energy per Si atom -12398.965133 kJ/mol
# Density = 1.932722 g / cm^3
# Si number density = 19.371310 Si / 1000 Ang^3
#
#
#
# Elastic Constant Matrix: (Units=GPa)
#
#
# Indices 1 2 3 4 5 6 
#
# 1 96.1705 43.9463 81.6658 0.0000 0.0000 0.0000
# 2 43.9463 78.6857 64.7989 0.0000 0.0000 0.0000
# 3 81.6658 64.7989 190.3199 0.0000 0.0000 0.0000
# 4 0.0000 0.0000 0.0000 27.7977 0.0000 0.0000
# 5 0.0000 0.0000 0.0000 0.0000 40.6864 0.0000
# 6 0.0000 0.0000 0.0000 0.0000 0.0000 19.5029
#
#
#
# Elastic Compliance Matrix: (Units=1/GPa)
#
#
# Indices 1 2 3 4 5 6 
#
# 1 0.017691 -0.005043 -0.005874 0.000000 0.000000 0.000000
# 2 -0.005043 0.019098 -0.004338 0.000000 0.000000 0.000000
# 3 -0.005874 -0.004338 0.009252 0.000000 0.000000 0.000000
# 4 0.000000 0.000000 0.000000 0.035974 0.000000 0.000000
# 5 0.000000 0.000000 0.000000 0.000000 0.024578 0.000000
# 6 0.000000 0.000000 0.000000 0.000000 0.000000 0.051274
#
#
# Mechanical properties :
#
#
# Convention : Reuss Voigt Hill
#
# Bulk Modulus (GPa) = 64.39222 82.88869 73.64046
# Shear Modulus (GPa) = 25.83240 29.24841 27.54041
#
# Velocity S-wave (km/s) = 3.65573 3.88994 3.77465
# Velocity P-wave (km/s) = 7.15069 7.94089 7.55613
#
# Compressibility (1/GPa) = 0.01552983
#
# Stress axis : x y z
#
# Youngs Moduli (GPa) = 56.52663 52.36122 108.08490
#
# Poissons Ratio (x) = 0.26406 0.63490
# Poissons Ratio (y) = 0.28506 0.46892
# Poissons Ratio (z) = 0.33204 0.22717
#
# Static dielectric constant tensor:
#      x y z
#    x 2.740470 0.000000 0.000000 
#    y 0.000000 3.484290 0.000000 
#    z 0.000000 0.000000 3.604550 
# 
# 
# High freq. dielectric constant tensor:
#      x y z
#    x 1.737240 0.000000 0.000000 
#    y 0.000000 1.751120 0.000000 
#    z 0.000000 0.000000 1.754250 
# 
# From -- ./inp_files/31572.got.cif
#   From: 2010.03.12/outbox.cif.g09.slc.cpg/sg59_16_cif.got.tgz:31572.got - 2010.04.16 16:29:54.
