data_PCOD8244109
_publ_section_title
;
Structure prediction by ZEFSAII (Michael W. Deem and Ramdas Pophale) SiO2 
 PCOD8244109
Probable space group: P M M N
;
_chemical_formula_sum "Si O2"
_cell_formula_units_Z 64
_cell_length_a 8.791860
_cell_length_b 14.417206
_cell_length_c 24.802175
_cell_angle_alpha 90.000000
_cell_angle_beta 90.000000
_cell_angle_gamma 90.000000
_cell_volume 3143.776297
_symmetry_space_group_name_H-M "P M M N"
_symmetry_group_IT_number 59
_space_group.IT_coordinate_system_code '2'
_symmetry_cell_setting 'orthorhombic'
loop_
_space_group_symop_operation_xyz
x,y,z
1/2-x,1/2-y,z
1/2+x,-y,-z
-x,1/2+y,-z
-x,-y,-z
1/2+x,1/2+y,-z
1/2-x,y,z
x,1/2-y,z
loop_
_atom_site_type_symbol
_atom_site_label
_atom_site_fract_x
_atom_site_fract_y
_atom_site_fract_z
Si Si1 0.421277 0.149454 0.587003
Si Si2 0.571462 0.141666 0.780368
Si Si3 0.428148 0.645577 0.635535
Si Si4 0.928855 0.029090 0.676055
Si Si5 0.430302 0.902333 0.515202
Si Si6 0.929751 0.536560 0.121009
Si Si7 0.428999 0.354741 0.091583
Si Si8 0.925895 0.355510 0.976253
O O1 0.250000 0.111496 0.579295
O O2 0.420927 0.250000 0.615973
O O3 0.510704 0.075247 0.621827
O O4 0.501158 0.166199 0.529426
O O5 0.750000 0.126500 0.791003
O O6 0.533430 0.250000 0.773018
O O7 0.514179 0.086665 0.727639
O O8 0.477663 0.100991 0.829714
O O9 0.250000 0.627156 0.639842
O O10 0.470198 0.750000 0.652948
O O11 0.511197 0.576465 0.677303
O O12 0.484217 0.629315 0.574326
O O13 0.750000 0.029196 0.674054
O O14 0.250000 0.902327 0.511289
O O15 0.500000 0.000000 0.500000
O O16 0.750000 0.538810 0.114713
O O17 0.986651 0.430284 0.129444
O O18 0.007458 0.575081 0.067397
O O19 0.250000 0.370737 0.095864
O O20 0.472660 0.250000 0.110376
O O21 0.480451 0.370526 0.030476
O O22 0.750000 0.379663 0.987214
O O23 0.943364 0.250000 0.955212
#
# Coordination Sequence:
#
# PCOD8244109 Si02
#       8
#     8   8   8   8   8   8   8   8
#     4  11  23  37  56  84 118 155 193 234 284 345
#     4  10  23  44  66  88 116 150 192 242 296 353
#     4  10  22  40  61  85 118 158 196 238 290 348
#     4  11  23  40  64  89 114 148 192 244 297 349
#     4  11  21  35  57  85 118 156 195 236 287 344
#     4  12  24  37  58  88 121 157 198 245 298 356
#     4  10  21  38  60  86 119 160 204 248 293 345
#     4  10  20  35  57  86 123 164 203 246 295 349
#
# _framework density 20.357682
#
# number of rings (size 3 to 8) (size 9 to 14) (size 15 to 20)
#    0.000    1.375    1.250    4.500    0.000    7.000 
#    0.000    0.625    0.000    0.750    0.000    0.000 
#    0.000    0.000    0.000    0.000    0.000    0.000 
#
# Total GULP energy -793692.586304 kJ/mol
# GULP energy per Si atom -12401.446661 kJ/mol
# Density = 2.031135 g / cm^3
# Si number density = 20.357682 Si / 1000 Ang^3
#
#
#
# Elastic Constant Matrix: (Units=GPa)
#
#
# Indices 1 2 3 4 5 6 
#
# 1 46.2987 34.5309 20.3700 0.0000 0.0000 0.0000
# 2 34.5309 128.2868 36.4596 0.0000 0.0000 0.0000
# 3 20.3700 36.4596 59.1000 0.0000 0.0000 0.0000
# 4 0.0000 0.0000 0.0000 33.3322 0.0000 0.0000
# 5 0.0000 0.0000 0.0000 0.0000 26.7375 0.0000
# 6 0.0000 0.0000 0.0000 0.0000 0.0000 32.1767
#
#
#
# Elastic Compliance Matrix: (Units=1/GPa)
#
#
# Indices 1 2 3 4 5 6 
#
# 1 0.028804 -0.005980 -0.006239 0.000000 0.000000 0.000000
# 2 -0.005980 0.010694 -0.004536 0.000000 0.000000 0.000000
# 3 -0.006239 -0.004536 0.021869 0.000000 0.000000 0.000000
# 4 0.000000 0.000000 0.000000 0.030001 0.000000 0.000000
# 5 0.000000 0.000000 0.000000 0.000000 0.037401 0.000000
# 6 0.000000 0.000000 0.000000 0.000000 0.000000 0.031078
#
#
# Mechanical properties :
#
#
# Convention : Reuss Voigt Hill
#
# Bulk Modulus (GPa) = 35.89726 46.26740 41.08233
# Shear Modulus (GPa) = 24.67405 27.93760 26.30582
#
# Velocity S-wave (km/s) = 3.48519 3.70853 3.59859
# Velocity P-wave (km/s) = 5.81954 6.41203 6.12295
#
# Compressibility (1/GPa) = 0.02785728
#
# Stress axis : x y z
#
# Youngs Moduli (GPa) = 34.71766 93.51172 45.72665
#
# Poissons Ratio (x) = 0.55921 0.28527
# Poissons Ratio (y) = 0.20761 0.20742
# Poissons Ratio (z) = 0.21659 0.42417
#
# Static dielectric constant tensor:
#      x y z
#    x 3.731760 0.000000 0.000000 
#    y 0.000000 4.055740 0.000000 
#    z 0.000000 0.000000 3.665100 
# 
# 
# High freq. dielectric constant tensor:
#      x y z
#    x 1.799780 0.000000 0.000000 
#    y 0.000000 1.818150 0.000000 
#    z 0.000000 0.000000 1.771060 
# 
# From -- ./inp_files/31449.got.cif
#   From: 2010.03.12/outbox.cif.g09.slc.cpg/sg59_16_cif.got.tgz:31449.got - 2010.04.16 16:29:54.
