data_PCOD8244992
_publ_section_title
;
Structure prediction by ZEFSAII (Michael W. Deem and Ramdas Pophale) SiO2 
 PCOD8244992
Probable space group: P M M N
;
_chemical_formula_sum "Si O2"
_cell_formula_units_Z 64
_cell_length_a 14.596807
_cell_length_b 9.101536
_cell_length_c 24.178370
_cell_angle_alpha 90.000000
_cell_angle_beta 90.000000
_cell_angle_gamma 90.000000
_cell_volume 3212.177800
_symmetry_space_group_name_H-M "P M M N"
_symmetry_group_IT_number 59
_space_group.IT_coordinate_system_code '2'
_symmetry_cell_setting 'orthorhombic'
loop_
_space_group_symop_operation_xyz
x,y,z
1/2-x,1/2-y,z
1/2+x,-y,-z
-x,1/2+y,-z
-x,-y,-z
1/2+x,1/2+y,-z
1/2-x,y,z
x,1/2-y,z
loop_
_atom_site_type_symbol
_atom_site_label
_atom_site_fract_x
_atom_site_fract_y
_atom_site_fract_z
Si Si1 0.144567 0.922031 0.318746
Si Si2 0.641334 0.583275 0.453106
Si Si3 0.641042 0.585084 0.573945
Si Si4 0.496118 0.919573 0.744458
Si Si5 0.010875 0.921855 0.871611
Si Si6 0.853562 0.076949 0.346274
Si Si7 0.356143 0.922143 0.067664
Si Si8 0.356954 0.420328 0.954200
O O1 0.250000 0.967974 0.310474
O O2 0.131389 0.750000 0.318146
O O3 0.104723 0.981087 0.377171
O O4 0.088181 0.990782 0.268332
O O5 0.750000 0.569474 0.452778
O O6 0.610346 0.750000 0.443026
O O7 0.605117 0.529669 0.513650
O O8 0.601750 0.485285 0.403082
O O9 0.750000 0.583536 0.572888
O O10 0.605513 0.750000 0.585532
O O11 0.517693 0.750000 0.732839
O O12 0.467064 0.945867 0.807402
O O13 0.413256 0.976428 0.705863
O O14 0.007551 0.750000 0.887187
O O15 0.091321 0.003158 0.904024
O O16 0.913590 0.997582 0.884728
O O17 0.750000 0.017801 0.337226
O O18 0.853608 0.250000 0.351535
O O19 0.250000 0.949192 0.081159
O O20 0.379806 0.750000 0.065113
O O21 0.384945 0.995534 0.009905
O O22 0.250000 0.436933 0.942118
O O23 0.385905 0.250000 0.959559
#
# Coordination Sequence:
#
# PCOD8244992 Si02
#       8
#     8   8   8   8   8   8   8   8
#     4  10  21  36  55  79 106 137 176 226 278 322
#     4   8  14  26  47  76 105 133 168 211 265 327
#     4   8  14  27  49  75 103 135 170 211 264 328
#     4  10  23  40  56  77 106 145 189 225 264 320
#     4  11  23  38  58  83 113 150 190 233 276 321
#     4   9  18  34  55  77 103 136 175 222 271 317
#     4  10  21  38  61  88 118 151 185 224 273 327
#     4  10  21  38  61  89 120 151 184 224 270 323
#
# _framework density 19.924177
#
# number of rings (size 3 to 8) (size 9 to 14) (size 15 to 20)
#    0.000    2.500    0.000    2.625    0.000    5.250 
#    0.000    6.875    0.000    1.500    0.000    0.000 
#    0.000    0.000    0.000    0.000    0.000    0.000 
#
# Total GULP energy -793575.404473 kJ/mol
# GULP energy per Si atom -12399.615695 kJ/mol
# Density = 1.987883 g / cm^3
# Si number density = 19.924177 Si / 1000 Ang^3
#
#
#
# Elastic Constant Matrix: (Units=GPa)
#
#
# Indices 1 2 3 4 5 6 
#
# 1 45.5553 22.6596 18.3927 0.0000 0.0000 0.0000
# 2 22.6596 76.8813 30.5705 0.0000 0.0000 0.0000
# 3 18.3927 30.5705 84.6603 0.0000 0.0000 0.0000
# 4 0.0000 0.0000 0.0000 35.2559 0.0000 0.0000
# 5 0.0000 0.0000 0.0000 0.0000 25.1680 0.0000
# 6 0.0000 0.0000 0.0000 0.0000 0.0000 26.7415
#
#
#
# Elastic Compliance Matrix: (Units=1/GPa)
#
#
# Indices 1 2 3 4 5 6 
#
# 1 0.026552 -0.006459 -0.003436 0.000000 0.000000 0.000000
# 2 -0.006459 0.016759 -0.004648 0.000000 0.000000 0.000000
# 3 -0.003436 -0.004648 0.014237 0.000000 0.000000 0.000000
# 4 0.000000 0.000000 0.000000 0.028364 0.000000 0.000000
# 5 0.000000 0.000000 0.000000 0.000000 0.039733 0.000000
# 6 0.000000 0.000000 0.000000 0.000000 0.000000 0.037395
#
#
# Mechanical properties :
#
#
# Convention : Reuss Voigt Hill
#
# Bulk Modulus (GPa) = 35.13678 38.92696 37.03187
# Shear Modulus (GPa) = 24.79986 26.46468 25.63227
#
# Velocity S-wave (km/s) = 3.53188 3.64850 3.59066
# Velocity P-wave (km/s) = 5.85711 6.10972 5.98475
#
# Compressibility (1/GPa) = 0.02846021
#
# Stress axis : x y z
#
# Youngs Moduli (GPa) = 37.66254 59.66860 70.24010
#
# Poissons Ratio (x) = 0.38543 0.24134
# Poissons Ratio (y) = 0.24328 0.32650
# Poissons Ratio (z) = 0.12941 0.27736
#
# Static dielectric constant tensor:
#      x y z
#    x 3.544700 0.000000 0.000000 
#    y 0.000000 3.636140 0.000000 
#    z 0.000000 0.000000 3.772190 
# 
# 
# High freq. dielectric constant tensor:
#      x y z
#    x 1.770730 0.000000 0.000000 
#    y 0.000000 1.776000 0.000000 
#    z 0.000000 0.000000 1.777480 
# 
# From -- ./inp_files/32216.got.cif
#   From: 2010.03.12/outbox.cif.g09.slc.cpg/sg59_17_cif.got.tgz:32216.got - 2010.04.16 16:29:54.
