data_PCOD8244080
_publ_section_title
;
Structure prediction by ZEFSAII (Michael W. Deem and Ramdas Pophale) SiO2 
 PCOD8244080
Probable space group: P M M N
;
_chemical_formula_sum "Si O2"
_cell_formula_units_Z 48
_cell_length_a 9.006923
_cell_length_b 30.357899
_cell_length_c 9.386885
_cell_angle_alpha 90.000000
_cell_angle_beta 90.000000
_cell_angle_gamma 90.000000
_cell_volume 2566.667781
_symmetry_space_group_name_H-M "P M M N"
_symmetry_group_IT_number 59
_space_group.IT_coordinate_system_code '2'
_symmetry_cell_setting 'orthorhombic'
loop_
_space_group_symop_operation_xyz
x,y,z
1/2-x,1/2-y,z
1/2+x,-y,-z
-x,1/2+y,-z
-x,-y,-z
1/2+x,1/2+y,-z
1/2-x,y,z
x,1/2-y,z
loop_
_atom_site_type_symbol
_atom_site_label
_atom_site_fract_x
_atom_site_fract_y
_atom_site_fract_z
Si Si1 0.422845 0.499640 0.650441
Si Si2 0.580592 0.823862 0.155431
Si Si3 0.924480 0.418235 0.154627
Si Si4 0.424471 0.172807 0.172930
Si Si5 0.424055 0.750000 0.329374
Si Si6 0.423343 0.424185 0.861928
Si Si7 0.073913 0.750000 0.656162
O O1 0.500000 0.500000 0.500000
O O2 0.250000 0.495643 0.622733
O O3 0.463311 0.543963 0.733370
O O4 0.477794 0.457435 0.740197
O O5 0.750000 0.811542 0.187739
O O6 0.479573 0.794068 0.254078
O O7 0.547654 0.874661 0.192692
O O8 0.543787 0.814392 0.990520
O O9 0.750000 0.408207 0.146465
O O10 0.011498 0.375217 0.206938
O O11 0.980607 0.434384 0.001280
O O12 0.250000 0.173045 0.205781
O O13 0.507121 0.206783 0.273198
O O14 0.250000 0.750000 0.317577
O O15 0.476137 0.750000 0.492320
O O16 0.250000 0.430684 0.900985
O O17 0.250000 0.750000 0.675237
#
# Coordination Sequence:
#
# PCOD8244080 Si02
#       7
#     8   8   8   8   4   8   4
#     4  10  22  37  54  80 114 148 184 225 274 330
#     4   9  19  36  58  81 105 135 179 227 266 315
#     4  10  20  35  57  85 112 141 180 228 276 324
#     4  10  21  38  60  84 108 142 186 227 271 327
#     4  11  24  37  52  78 112 145 176 215 270 326
#     4   9  19  37  58  81 108 141 183 229 272 324
#     4  11  24  39  54  80 116 147 180 227 274 322
#
# _framework density 18.701288999999999
#
# number of rings (size 3 to 8) (size 9 to 14) (size 15 to 20)
#    0.000    2.167    0.000    3.500    0.000   10.000 
#    0.000    3.333    0.000    0.000    0.000    0.000 
#    0.000    0.000    0.000    0.000    0.000    0.000 
#
# Total GULP energy -595364.942641 kJ/mol
# GULP energy per Si atom -12403.436305 kJ/mol
# Density = 1.865872 g / cm^3
# Si number density = 18.701289 Si / 1000 Ang^3
#
#
#
# Elastic Constant Matrix: (Units=GPa)
#
#
# Indices 1 2 3 4 5 6 
#
# 1 70.1951 62.2048 64.7977 0.0000 0.0000 0.0000
# 2 62.2048 128.6316 96.4834 0.0000 0.0000 0.0000
# 3 64.7977 96.4834 141.1209 0.0000 0.0000 0.0000
# 4 0.0000 0.0000 0.0000 -109.0169 0.0000 0.0000
# 5 0.0000 0.0000 0.0000 0.0000 36.2862 0.0000
# 6 0.0000 0.0000 0.0000 0.0000 0.0000 31.7003
#
#
#
# Elastic Compliance Matrix: (Units=1/GPa)
#
#
# Indices 1 2 3 4 5 6 
#
# 1 0.028306 -0.008087 -0.007468 0.000000 0.000000 0.000000
# 2 -0.008087 0.018268 -0.008776 0.000000 0.000000 0.000000
# 3 -0.007468 -0.008776 0.016516 0.000000 0.000000 0.000000
# 4 0.000000 0.000000 0.000000 -0.009173 0.000000 0.000000
# 5 0.000000 0.000000 0.000000 0.000000 0.027559 0.000000
# 6 0.000000 0.000000 0.000000 0.000000 0.000000 0.031545
#
#
# Mechanical properties :
#
#
# Convention : Reuss Voigt Hill
#
# Bulk Modulus (GPa) = 69.31578 87.43548 78.37563
# Shear Modulus (GPa) = 30.03123 -0.44197 14.79463
#
# Velocity S-wave (km/s) = 4.01164 -0.48666 2.81571
# Velocity P-wave (km/s) = 7.65525 6.82198 7.25059
#
# Compressibility (1/GPa) = 0.01442673
#
# Stress axis : x y z
#
# Youngs Moduli (GPa) = 35.32761 54.74122 60.54835
#
# Poissons Ratio (x) = 0.44268 0.45220
# Poissons Ratio (y) = 0.28569 0.53140
# Poissons Ratio (z) = 0.26384 0.48043
#
# Static dielectric constant tensor:
#      x y z
#    x 3.487020 0.000000 0.000000 
#    y 0.000000 3.565380 0.000000 
#    z 0.000000 0.000000 3.425010 
# 
# 
# High freq. dielectric constant tensor:
#      x y z
#    x 1.730500 0.000000 0.000000 
#    y 0.000000 1.742450 0.000000 
#    z 0.000000 0.000000 1.721440 
# 
# From -- ./inp_files/6344.got.cif
#   From: 2010.03.12/outbox.cif.g09.slc.cpg/sg59_4_cif.got.tgz:6344.got - 2010.04.16 16:29:54.
