data_PCOD8244088
_publ_section_title
;
Structure prediction by ZEFSAII (Michael W. Deem and Ramdas Pophale) SiO2 
 PCOD8244088
Probable space group: P M M N
;
_chemical_formula_sum "Si O2"
_cell_formula_units_Z 56
_cell_length_a 14.234338
_cell_length_b 8.814208
_cell_length_c 22.107656
_cell_angle_alpha 90.000000
_cell_angle_beta 90.000000
_cell_angle_gamma 90.000000
_cell_volume 2773.724146
_symmetry_space_group_name_H-M "P M M N"
_symmetry_group_IT_number 59
_space_group.IT_coordinate_system_code '2'
_symmetry_cell_setting 'orthorhombic'
loop_
_space_group_symop_operation_xyz
x,y,z
1/2-x,1/2-y,z
1/2+x,-y,-z
-x,1/2+y,-z
-x,-y,-z
1/2+x,1/2+y,-z
1/2-x,y,z
x,1/2-y,z
loop_
_atom_site_type_symbol
_atom_site_label
_atom_site_fract_x
_atom_site_fract_y
_atom_site_fract_z
Si Si1 0.447096 0.577224 0.281863
Si Si2 0.967755 0.428682 0.586985
Si Si3 0.145897 0.919406 0.873295
Si Si4 0.850195 0.581029 0.247819
Si Si5 0.514333 0.425615 0.935375
Si Si6 0.642234 0.571409 0.834868
Si Si7 0.857068 0.429651 0.469307
O O1 0.417534 0.750000 0.267063
O O2 0.415949 0.526823 0.349316
O O3 0.559748 0.559123 0.289596
O O4 0.406566 0.475583 0.228086
O O5 0.985687 0.250000 0.585328
O O6 0.070616 0.505303 0.580344
O O7 0.895735 0.481876 0.535065
O O8 0.250000 0.928213 0.901439
O O9 0.103812 0.750000 0.883717
O O10 0.147709 0.951211 0.802478
O O11 0.084483 0.050222 0.902922
O O12 0.750000 0.563749 0.283503
O O13 0.854653 0.750000 0.218178
O O14 0.537712 0.250000 0.943383
O O15 0.595885 0.498012 0.894216
O O16 0.500000 0.500000 0.000000
O O17 0.750000 0.518720 0.832680
O O18 0.632374 0.750000 0.841421
O O19 0.750000 0.491321 0.460607
O O20 0.857048 0.250000 0.463815
#
# Coordination Sequence:
#
# PCOD8244088 Si02
#       7
#     8   8   8   8   8   8   8
#     4  10  20  35  58  87 118 155 195 241 295 352
#     4   9  19  34  54  83 115 149 195 245 294 348
#     4  10  20  35  57  85 115 147 184 227 279 340
#     4   9  17  30  50  78 111 146 183 226 281 344
#     4  12  25  42  65  90 118 154 195 242 293 345
#     4  11  25  44  64  88 121 159 198 243 293 346
#     4   9  18  34  54  77 111 155 199 245 296 347
#
# _framework density 20.189464000000001
#
# number of rings (size 3 to 8) (size 9 to 14) (size 15 to 20)
#    0.000    2.000    1.429    2.143    0.000    4.571 
#    0.000    2.857    0.000    1.714    0.000    0.000 
#    0.000    0.000    0.000    0.000    0.000    0.000 
#
# Total GULP energy -693913.165512 kJ/mol
# GULP energy per Si atom -12391.306527 kJ/mol
# Density = 2.014351 g / cm^3
# Si number density = 20.189464 Si / 1000 Ang^3
#
#
#
# Elastic Constant Matrix: (Units=GPa)
#
#
# Indices 1 2 3 4 5 6 
#
# 1 108.3160 31.8023 32.0990 0.0000 0.0000 0.0000
# 2 31.8023 73.3608 31.3775 0.0000 0.0000 0.0000
# 3 32.0990 31.3775 100.6740 0.0000 0.0000 0.0000
# 4 0.0000 0.0000 0.0000 28.0577 0.0000 0.0000
# 5 0.0000 0.0000 0.0000 0.0000 12.1929 0.0000
# 6 0.0000 0.0000 0.0000 0.0000 0.0000 28.1005
#
#
#
# Elastic Compliance Matrix: (Units=1/GPa)
#
#
# Indices 1 2 3 4 5 6 
#
# 1 0.011036 -0.003784 -0.002340 0.000000 0.000000 0.000000
# 2 -0.003784 0.017025 -0.004100 0.000000 0.000000 0.000000
# 3 -0.002340 -0.004100 0.011957 0.000000 0.000000 0.000000
# 4 0.000000 0.000000 0.000000 0.035641 0.000000 0.000000
# 5 0.000000 0.000000 0.000000 0.000000 0.082015 0.000000
# 6 0.000000 0.000000 0.000000 0.000000 0.000000 0.035587
#
#
# Mechanical properties :
#
#
# Convention : Reuss Voigt Hill
#
# Bulk Modulus (GPa) = 51.09327 52.54538 51.81932
# Shear Modulus (GPa) = 22.70342 26.14168 24.42255
#
# Velocity S-wave (km/s) = 3.35702 3.60226 3.48180
# Velocity P-wave (km/s) = 6.35515 6.58668 6.47195
#
# Compressibility (1/GPa) = 0.01957205
#
# Stress axis : x y z
#
# Youngs Moduli (GPa) = 90.60846 58.73680 83.63410
#
# Poissons Ratio (x) = 0.22224 0.19567
# Poissons Ratio (y) = 0.34284 0.34289
# Poissons Ratio (z) = 0.21199 0.24081
#
# Static dielectric constant tensor:
#      x y z
#    x 2.959120 0.000000 0.000000 
#    y 0.000000 3.611950 0.000000 
#    z 0.000000 0.000000 2.186810 
# 
# 
# High freq. dielectric constant tensor:
#      x y z
#    x 1.793570 0.000000 0.000000 
#    y 0.000000 1.783150 0.000000 
#    z 0.000000 0.000000 1.778410 
# 
# From -- ./inp_files/30350.got.cif
#   From: 2010.03.12/outbox.cif.g09.slc.cpg/sg59_16_cif.got.tgz:30350.got - 2010.04.16 16:29:54.
