data_PCOD8244089
_publ_section_title
;
Structure prediction by ZEFSAII (Michael W. Deem and Ramdas Pophale) SiO2 
 PCOD8244089
Probable space group: P M M N
;
_chemical_formula_sum "Si O2"
_cell_formula_units_Z 48
_cell_length_a 8.810653
_cell_length_b 8.875808
_cell_length_c 31.004939
_cell_angle_alpha 90.000000
_cell_angle_beta 90.000000
_cell_angle_gamma 90.000000
_cell_volume 2424.637834
_symmetry_space_group_name_H-M "P M M N"
_symmetry_group_IT_number 59
_space_group.IT_coordinate_system_code '2'
_symmetry_cell_setting 'orthorhombic'
loop_
_space_group_symop_operation_xyz
x,y,z
1/2-x,1/2-y,z
1/2+x,-y,-z
-x,1/2+y,-z
-x,-y,-z
1/2+x,1/2+y,-z
1/2-x,y,z
x,1/2-y,z
loop_
_atom_site_type_symbol
_atom_site_label
_atom_site_fract_x
_atom_site_fract_y
_atom_site_fract_z
Si Si1 0.430365 0.578940 0.377214
Si Si2 0.070921 0.578072 0.041199
Si Si3 0.076004 0.572608 0.541248
Si Si4 0.569627 0.919582 0.708694
Si Si5 0.924917 0.427574 0.796290
Si Si6 0.926436 0.424872 0.122666
O O1 0.250000 0.572025 0.378774
O O2 0.488509 0.750000 0.381100
O O3 0.493516 0.480941 0.415920
O O4 0.493262 0.509861 0.332565
O O5 0.250000 0.571685 0.036591
O O6 0.013427 0.750000 0.044160
O O7 0.023119 0.489927 0.083656
O O8 0.000000 0.500000 0.000000
O O9 0.250000 0.521745 0.543077
O O10 0.058671 0.750000 0.537321
O O11 0.000000 0.500000 0.500000
O O12 0.750000 0.918953 0.707484
O O13 0.504847 0.750000 0.707706
O O14 0.513414 0.001021 0.752005
O O15 0.750000 0.472840 0.805026
O O16 0.943209 0.250000 0.792918
O O17 0.029452 0.488986 0.834113
O O18 0.750000 0.450604 0.112757
O O19 0.965831 0.250000 0.128308
#
# Coordination Sequence:
#
# PCOD8244089 Si02
#       6
#     8   8   8   8   8   8
#     4  10  20  35  57  85 115 147 185 229 277 331
#     4  11  24  41  62  89 118 149 188 232 279 334
#     4  11  24  40  58  82 111 144 184 229 277 331
#     4   9  17  31  54  83 114 149 187 228 277 331
#     4  10  20  35  57  85 115 148 189 235 281 332
#     4  11  24  40  58  83 115 151 192 236 282 334
#
# _framework density 19.796772000000001
#
# number of rings (size 3 to 8) (size 9 to 14) (size 15 to 20)
#    0.000    1.667    0.000    4.500    0.000   14.000 
#    0.000    0.833    0.000    5.000    0.000    0.000 
#    0.000    0.000    0.000    0.000    0.000    0.000 
#
# Total GULP energy -595427.343548 kJ/mol
# GULP energy per Si atom -12404.736324 kJ/mol
# Density = 1.975171 g / cm^3
# Si number density = 19.796772 Si / 1000 Ang^3
#
#
#
# Elastic Constant Matrix: (Units=GPa)
#
#
# Indices 1 2 3 4 5 6 
#
# 1 37.9902 27.0647 21.5687 0.0000 0.0000 0.0000
# 2 27.0647 84.4511 32.5278 0.0000 0.0000 0.0000
# 3 21.5687 32.5278 147.9741 0.0000 0.0000 0.0000
# 4 0.0000 0.0000 0.0000 47.6793 0.0000 0.0000
# 5 0.0000 0.0000 0.0000 0.0000 31.1061 0.0000
# 6 0.0000 0.0000 0.0000 0.0000 0.0000 28.7840
#
#
#
# Elastic Compliance Matrix: (Units=1/GPa)
#
#
# Indices 1 2 3 4 5 6 
#
# 1 0.035212 -0.010169 -0.002897 0.000000 0.000000 0.000000
# 2 -0.010169 0.015873 -0.002007 0.000000 0.000000 0.000000
# 3 -0.002897 -0.002007 0.007621 0.000000 0.000000 0.000000
# 4 0.000000 0.000000 0.000000 0.020973 0.000000 0.000000
# 5 0.000000 0.000000 0.000000 0.000000 0.032148 0.000000
# 6 0.000000 0.000000 0.000000 0.000000 0.000000 0.034742
#
#
# Mechanical properties :
#
#
# Convention : Reuss Voigt Hill
#
# Bulk Modulus (GPa) = 35.01351 48.08199 41.54775
# Shear Modulus (GPa) = 26.84779 34.13083 30.48931
#
# Velocity S-wave (km/s) = 3.68662 4.15669 3.92869
# Velocity P-wave (km/s) = 5.98719 6.88316 6.45075
#
# Compressibility (1/GPa) = 0.02856040
#
# Stress axis : x y z
#
# Youngs Moduli (GPa) = 28.39966 62.99985 131.20912
#
# Poissons Ratio (x) = 0.64062 0.38014
# Poissons Ratio (y) = 0.28879 0.26334
# Poissons Ratio (z) = 0.08228 0.12644
#
# Static dielectric constant tensor:
#      x y z
#    x 3.488910 0.000000 0.000000 
#    y 0.000000 3.872250 0.000000 
#    z 0.000000 0.000000 3.571620 
# 
# 
# High freq. dielectric constant tensor:
#      x y z
#    x 1.752430 0.000000 0.000000 
#    y 0.000000 1.792280 0.000000 
#    z 0.000000 0.000000 1.792140 
# 
# From -- ./inp_files/32853.got.cif
#   From: 2010.03.12/outbox.cif.g09.slc.cpg/sg59_17_cif.got.tgz:32853.got - 2010.04.16 16:29:54.
