data_PCOD8244907
_publ_section_title
;
Structure prediction by ZEFSAII (Michael W. Deem and Ramdas Pophale) SiO2 
 PCOD8244907
Probable space group: P M M N
;
_chemical_formula_sum "Si O2"
_cell_formula_units_Z 48
_cell_length_a 9.009029
_cell_length_b 9.186359
_cell_length_c 31.267568
_cell_angle_alpha 90.000000
_cell_angle_beta 90.000000
_cell_angle_gamma 90.000000
_cell_volume 2587.709388
_symmetry_space_group_name_H-M "P M M N"
_symmetry_group_IT_number 59
_space_group.IT_coordinate_system_code '2'
_symmetry_cell_setting 'orthorhombic'
loop_
_space_group_symop_operation_xyz
x,y,z
1/2-x,1/2-y,z
1/2+x,-y,-z
-x,1/2+y,-z
-x,-y,-z
1/2+x,1/2+y,-z
1/2-x,y,z
x,1/2-y,z
loop_
_atom_site_type_symbol
_atom_site_label
_atom_site_fract_x
_atom_site_fract_y
_atom_site_fract_z
Si Si1 0.581576 0.576211 0.222335
Si Si2 0.423699 0.581194 0.615923
Si Si3 0.921921 0.920229 0.038258
Si Si4 0.425953 0.090133 0.869961
Si Si5 0.924013 0.079636 0.539259
Si Si6 0.420973 0.417519 0.296644
O O1 0.750000 0.526733 0.233095
O O2 0.571753 0.750000 0.222062
O O3 0.532232 0.512917 0.175242
O O4 0.468702 0.513773 0.256675
O O5 0.250000 0.547699 0.612743
O O6 0.457891 0.750000 0.605820
O O7 0.510499 0.480900 0.583040
O O8 0.480088 0.538139 0.662823
O O9 0.750000 0.949954 0.032074
O O10 0.959158 0.750000 0.036456
O O11 0.975208 0.985142 0.085010
O O12 0.000000 0.000000 0.000000
O O13 0.250000 0.107570 0.871110
O O14 0.498732 0.250000 0.869415
O O15 0.750000 0.047458 0.537797
O O16 0.958496 0.250000 0.536055
O O17 0.000000 0.000000 0.500000
O O18 0.250000 0.449212 0.307701
O O19 0.447037 0.250000 0.284584
#
# Coordination Sequence:
#
# PCOD8244907 Si02
#       6
#     8   8   8   8   8   8
#     4   9  17  31  53  77  97 123 165 213 255 297
#     4  10  21  38  60  83 106 137 179 221 259 302
#     4   9  17  30  48  69  94 125 161 202 248 298
#     4   7  12  26  47  68  91 122 161 203 246 294
#     4  11  24  40  59  85 115 146 180 217 259 307
#     4  10  21  36  53  75 106 142 173 204 251 307
#
# _framework density 18.549223000000001
#
# number of rings (size 3 to 8) (size 9 to 14) (size 15 to 20)
#    0.000    2.667    0.000    4.000    0.000    6.667 
#    0.000    1.667    0.000    8.000    0.000    0.000 
#    0.000    0.000    0.000    0.000    0.000    0.000 
#
# Total GULP energy -594807.466662 kJ/mol
# GULP energy per Si atom -12391.822222 kJ/mol
# Density = 1.850700 g / cm^3
# Si number density = 18.549223 Si / 1000 Ang^3
#
#
#
# Elastic Constant Matrix: (Units=GPa)
#
#
# Indices 1 2 3 4 5 6 
#
# 1 76.6231 50.2421 61.3751 0.0000 0.0000 0.0000
# 2 50.2421 56.1776 63.5015 0.0000 0.0000 0.0000
# 3 61.3751 63.5015 166.5350 0.0000 0.0000 0.0000
# 4 0.0000 0.0000 0.0000 31.0812 0.0000 0.0000
# 5 0.0000 0.0000 0.0000 0.0000 34.6124 0.0000
# 6 0.0000 0.0000 0.0000 0.0000 0.0000 27.8749
#
#
#
# Elastic Compliance Matrix: (Units=1/GPa)
#
#
# Indices 1 2 3 4 5 6 
#
# 1 0.031779 -0.026684 -0.001537 0.000000 0.000000 0.000000
# 2 -0.026684 0.053691 -0.010639 0.000000 0.000000 0.000000
# 3 -0.001537 -0.010639 0.010628 0.000000 0.000000 0.000000
# 4 0.000000 0.000000 0.000000 0.032174 0.000000 0.000000
# 5 0.000000 0.000000 0.000000 0.000000 0.028891 0.000000
# 6 0.000000 0.000000 0.000000 0.000000 0.000000 0.035875
#
#
# Mechanical properties :
#
#
# Convention : Reuss Voigt Hill
#
# Bulk Modulus (GPa) = 54.41162 72.17480 63.29321
# Shear Modulus (GPa) = 18.05822 26.99482 22.52652
#
# Velocity S-wave (km/s) = 3.12353 3.81899 3.48863
# Velocity P-wave (km/s) = 6.51198 7.64464 7.10093
#
# Compressibility (1/GPa) = 0.01837843
#
# Stress axis : x y z
#
# Youngs Moduli (GPa) = 31.46773 18.62514 94.09185
#
# Poissons Ratio (x) = 0.49699 0.14462
# Poissons Ratio (y) = 0.83967 1.00103
# Poissons Ratio (z) = 0.04837 0.19815
#
# Static dielectric constant tensor:
#      x y z
#    x 3.290990 0.000000 0.000000 
#    y 0.000000 3.201680 0.000000 
#    z 0.000000 0.000000 3.892340 
# 
# 
# High freq. dielectric constant tensor:
#      x y z
#    x 1.706180 0.000000 0.000000 
#    y 0.000000 1.691030 0.000000 
#    z 0.000000 0.000000 1.746280 
# 
# From -- ./inp_files/32815.got.cif
#   From: 2010.03.12/outbox.cif.g09.slc.cpg/sg59_17_cif.got.tgz:32815.got - 2010.04.16 16:29:54.
