data_PCOD8244301
_publ_section_title
;
Structure prediction by ZEFSAII (Michael W. Deem and Ramdas Pophale) SiO2 
 PCOD8244301
Probable space group: P M M N
;
_chemical_formula_sum "Si O2"
_cell_formula_units_Z 64
_cell_length_a 15.235605
_cell_length_b 8.734755
_cell_length_c 24.092468
_cell_angle_alpha 90.000000
_cell_angle_beta 90.000000
_cell_angle_gamma 90.000000
_cell_volume 3206.208221
_symmetry_space_group_name_H-M "P M M N"
_symmetry_group_IT_number 59
_space_group.IT_coordinate_system_code '2'
_symmetry_cell_setting 'orthorhombic'
loop_
_space_group_symop_operation_xyz
x,y,z
1/2-x,1/2-y,z
1/2+x,-y,-z
-x,1/2+y,-z
-x,-y,-z
1/2+x,1/2+y,-z
1/2-x,y,z
x,1/2-y,z
loop_
_atom_site_type_symbol
_atom_site_label
_atom_site_fract_x
_atom_site_fract_y
_atom_site_fract_z
Si Si1 0.155333 0.930418 0.772220
Si Si2 0.650576 0.074713 0.778823
Si Si3 0.066950 0.925100 0.106479
Si Si4 0.493598 0.430453 0.295131
Si Si5 0.888107 0.072723 0.107819
Si Si6 0.849112 0.580692 0.994044
Si Si7 0.852505 0.068983 0.498205
Si Si8 0.011069 0.431165 0.419898
O O1 0.250000 0.971043 0.745430
O O2 0.139009 0.750000 0.774091
O O3 0.078412 0.005660 0.735372
O O4 0.156323 0.988637 0.835723
O O5 0.750000 0.031444 0.765186
O O6 0.629482 0.250000 0.764013
O O7 0.636198 0.045890 0.844379
O O8 0.592243 0.968582 0.739942
O O9 0.033201 0.750000 0.106740
O O10 0.104908 0.958567 0.045696
O O11 0.990783 0.046422 0.116713
O O12 0.504258 0.250000 0.298906
O O13 0.488809 0.496199 0.357329
O O14 0.867302 0.250000 0.096618
O O15 0.852287 0.974604 0.057108
O O16 0.750000 0.592243 0.974192
O O17 0.892971 0.750000 0.989717
O O18 0.750000 0.009081 0.491947
O O19 0.849003 0.250000 0.504012
O O20 0.916706 0.020680 0.446908
O O21 0.901854 0.002141 0.552021
O O22 0.022093 0.250000 0.422944
#
# Coordination Sequence:
#
# PCOD8244301 Si02
#       8
#     8   8   8   8   8   8   8   8
#     4   9  18  33  55  82 110 142 181 225 275 331
#     4  10  22  39  58  80 109 147 188 230 280 336
#     4  11  22  38  59  80 106 140 183 231 282 338
#     4  10  20  36  57  83 114 146 186 233 278 326
#     4  11  21  36  58  81 109 142 181 226 279 341
#     4  11  24  39  55  79 109 140 179 228 283 342
#     4   9  18  34  56  82 113 151 191 229 272 324
#     4   9  19  34  54  82 115 149 186 232 280 324
#
# _framework density 19.961272000000001
#
# number of rings (size 3 to 8) (size 9 to 14) (size 15 to 20)
#    0.000    2.000    1.250    2.250    0.000    4.500 
#    0.000    5.000    0.000    1.125    0.000    1.750 
#    0.000    0.000    0.000    0.000    0.000    0.000 
#
# Total GULP energy -793291.801621 kJ/mol
# GULP energy per Si atom -12395.184400 kJ/mol
# Density = 1.991584 g / cm^3
# Si number density = 19.961272 Si / 1000 Ang^3
#
#
#
# Elastic Constant Matrix: (Units=GPa)
#
#
# Indices 1 2 3 4 5 6 
#
# 1 129.9301 14.6340 49.2730 0.0000 0.0000 0.0000
# 2 14.6340 34.2445 23.6044 0.0000 0.0000 0.0000
# 3 49.2730 23.6044 134.9529 0.0000 0.0000 0.0000
# 4 0.0000 0.0000 0.0000 25.7269 0.0000 0.0000
# 5 0.0000 0.0000 0.0000 0.0000 1.2414 0.0000
# 6 0.0000 0.0000 0.0000 0.0000 0.0000 1.9355
#
#
#
# Elastic Compliance Matrix: (Units=1/GPa)
#
#
# Indices 1 2 3 4 5 6 
#
# 1 0.009030 -0.001804 -0.002982 0.000000 0.000000 0.000000
# 2 -0.001804 0.033565 -0.005212 0.000000 0.000000 0.000000
# 3 -0.002982 -0.005212 0.009410 0.000000 0.000000 0.000000
# 4 0.000000 0.000000 0.000000 0.038870 0.000000 0.000000
# 5 0.000000 0.000000 0.000000 0.000000 0.805520 0.000000
# 6 0.000000 0.000000 0.000000 0.000000 0.000000 0.516675
#
#
# Mechanical properties :
#
#
# Convention : Reuss Voigt Hill
#
# Bulk Modulus (GPa) = 31.23961 52.68336 41.96148
# Shear Modulus (GPa) = 3.46324 19.88849 11.67586
#
# Velocity S-wave (km/s) = 1.31861 3.15993 2.42115
# Velocity P-wave (km/s) = 4.24292 6.30584 5.37429
#
# Compressibility (1/GPa) = 0.03201064
#
# Stress axis : x y z
#
# Youngs Moduli (GPa) = 110.73823 29.79259 106.26685
#
# Poissons Ratio (x) = 0.05374 0.31684
# Poissons Ratio (y) = 0.19975 0.55389
# Poissons Ratio (z) = 0.33017 0.15529
#
# Static dielectric constant tensor:
#      x y z
#    x 3.797380 0.000000 0.000000 
#    y 0.000000 3.457840 0.000000 
#    z 0.000000 0.000000 3.757730 
# 
# 
# High freq. dielectric constant tensor:
#      x y z
#    x 1.787850 0.000000 0.000000 
#    y 0.000000 1.756750 0.000000 
#    z 0.000000 0.000000 1.777790 
# 
# From -- ./inp_files/32194.got.cif
#   From: 2010.03.12/outbox.cif.g09.slc.cpg/sg59_17_cif.got.tgz:32194.got - 2010.04.16 16:29:54.
