data_PCOD8244889
_publ_section_title
;
Structure prediction by ZEFSAII (Michael W. Deem and Ramdas Pophale) SiO2 
 PCOD8244889
Probable space group: P M M N
;
_chemical_formula_sum "Si O2"
_cell_formula_units_Z 48
_cell_length_a 8.966241
_cell_length_b 9.701419
_cell_length_c 30.571456
_cell_angle_alpha 90.000000
_cell_angle_beta 90.000000
_cell_angle_gamma 90.000000
_cell_volume 2659.266073
_symmetry_space_group_name_H-M "P M M N"
_symmetry_group_IT_number 59
_space_group.IT_coordinate_system_code '2'
_symmetry_cell_setting 'orthorhombic'
loop_
_space_group_symop_operation_xyz
x,y,z
1/2-x,1/2-y,z
1/2+x,-y,-z
-x,1/2+y,-z
-x,-y,-z
1/2+x,1/2+y,-z
1/2-x,y,z
x,1/2-y,z
loop_
_atom_site_type_symbol
_atom_site_label
_atom_site_fract_x
_atom_site_fract_y
_atom_site_fract_z
Si Si1 0.075092 0.409468 0.036925
Si Si2 0.924596 0.090637 0.463171
Si Si3 0.572881 0.902299 0.204007
Si Si4 0.923656 0.591813 0.626590
Si Si5 0.078302 0.411722 0.698078
Si Si6 0.923934 0.408917 0.126373
O O1 0.250000 0.435709 0.036342
O O2 0.034974 0.250000 0.028396
O O3 0.011729 0.457874 0.083544
O O4 0.000000 0.500000 0.000000
O O5 0.750000 0.061868 0.463249
O O6 0.962403 0.250000 0.472438
O O7 0.988263 0.044497 0.416443
O O8 0.000000 0.000000 0.500000
O O9 0.750000 0.898320 0.202689
O O10 0.509542 0.750000 0.193478
O O11 0.524651 0.948118 0.252673
O O12 0.511142 0.007468 0.167740
O O13 0.750000 0.569975 0.617443
O O14 0.960651 0.750000 0.638292
O O15 0.972926 0.497204 0.666484
O O16 0.250000 0.455289 0.690858
O O17 0.058194 0.250000 0.688920
O O18 0.750000 0.438951 0.118456
O O19 0.954282 0.250000 0.136709
#
# Coordination Sequence:
#
# PCOD8244889 Si02
#       6
#     8   8   8   8   8   8
#     4  10  21  36  53  74 101 133 168 207 252 301
#     4  10  21  37  57  80 105 135 171 210 254 304
#     4   8  15  29  49  73 100 129 164 206 249 295
#     4  10  21  36  53  75 104 137 173 213 256 301
#     4   9  18  33  53  77 104 135 172 212 253 299
#     4   9  17  30  49  73 100 130 165 205 249 298
#
# _framework density 18.050093
#
# number of rings (size 3 to 8) (size 9 to 14) (size 15 to 20)
#    0.000    2.667    0.000    2.500    0.000    5.333 
#    0.000    4.167    0.000    3.000    0.000    0.000 
#    0.000    0.000    0.000    0.000    0.000    0.000 
#
# Total GULP energy -595241.204453 kJ/mol
# GULP energy per Si atom -12400.858426 kJ/mol
# Density = 1.800901 g / cm^3
# Si number density = 18.050093 Si / 1000 Ang^3
#
#
#
# Elastic Constant Matrix: (Units=GPa)
#
#
# Indices 1 2 3 4 5 6 
#
# 1 67.8270 42.6493 59.6657 0.0000 0.0000 0.0000
# 2 42.6493 79.2388 87.8468 0.0000 0.0000 0.0000
# 3 59.6657 87.8468 169.8423 0.0000 0.0000 0.0000
# 4 0.0000 0.0000 0.0000 41.2424 0.0000 0.0000
# 5 0.0000 0.0000 0.0000 0.0000 32.3258 0.0000
# 6 0.0000 0.0000 0.0000 0.0000 0.0000 26.4487
#
#
#
# Elastic Compliance Matrix: (Units=1/GPa)
#
#
# Indices 1 2 3 4 5 6 
#
# 1 0.023389 -0.008157 -0.003998 0.000000 0.000000 0.000000
# 2 -0.008157 0.032429 -0.013907 0.000000 0.000000 0.000000
# 3 -0.003998 -0.013907 0.014485 0.000000 0.000000 0.000000
# 4 0.000000 0.000000 0.000000 0.024247 0.000000 0.000000
# 5 0.000000 0.000000 0.000000 0.000000 0.030935 0.000000
# 6 0.000000 0.000000 0.000000 0.000000 0.000000 0.037809
#
#
# Mechanical properties :
#
#
# Convention : Reuss Voigt Hill
#
# Bulk Modulus (GPa) = 55.00787 77.47019 66.23903
# Shear Modulus (GPa) = 22.57563 28.45313 25.51438
#
# Velocity S-wave (km/s) = 3.54039 3.97463 3.76378
# Velocity P-wave (km/s) = 6.87414 8.00476 7.46090
#
# Compressibility (1/GPa) = 0.01817922
#
# Stress axis : x y z
#
# Youngs Moduli (GPa) = 42.75503 30.83695 69.03499
#
# Poissons Ratio (x) = 0.25154 0.27597
# Poissons Ratio (y) = 0.34875 0.96009
# Poissons Ratio (z) = 0.17092 0.42886
#
# Static dielectric constant tensor:
#      x y z
#    x 3.122560 0.000000 0.000000 
#    y 0.000000 3.318530 0.000000 
#    z 0.000000 0.000000 3.588740 
# 
# 
# High freq. dielectric constant tensor:
#      x y z
#    x 1.686460 0.000000 0.000000 
#    y 0.000000 1.696290 0.000000 
#    z 0.000000 0.000000 1.709410 
# 
# From -- ./inp_files/32901.got.cif
#   From: 2010.03.12/outbox.cif.g09.slc.cpg/sg59_17_cif.got.tgz:32901.got - 2010.04.16 16:29:54.
