data_PCOD8244732
_publ_section_title
;
Structure prediction by ZEFSAII (Michael W. Deem and Ramdas Pophale) SiO2 
 PCOD8244732
Probable space group: P M M N
;
_chemical_formula_sum "Si O2"
_cell_formula_units_Z 40
_cell_length_a 13.684689
_cell_length_b 17.225479
_cell_length_c 9.236104
_cell_angle_alpha 90.000000
_cell_angle_beta 90.000000
_cell_angle_gamma 90.000000
_cell_volume 2177.183599
_symmetry_space_group_name_H-M "P M M N"
_symmetry_group_IT_number 59
_space_group.IT_coordinate_system_code '2'
_symmetry_cell_setting 'orthorhombic'
loop_
_space_group_symop_operation_xyz
x,y,z
1/2-x,1/2-y,z
1/2+x,-y,-z
-x,1/2+y,-z
-x,-y,-z
1/2+x,1/2+y,-z
1/2-x,y,z
x,1/2-y,z
loop_
_atom_site_type_symbol
_atom_site_label
_atom_site_fract_x
_atom_site_fract_y
_atom_site_fract_z
Si Si1 0.497139 0.597188 0.733252
Si Si2 0.360279 0.999638 0.943040
Si Si3 0.638979 0.471654 0.722735
Si Si4 0.861646 0.162179 0.511954
Si Si5 0.638227 0.664202 0.954471
O O1 0.430584 0.546411 0.839088
O O2 0.569759 0.537300 0.651523
O O3 0.431384 0.643176 0.621348
O O4 0.563152 0.658619 0.820787
O O5 0.250000 0.982158 0.894256
O O6 0.379327 0.968941 0.105427
O O7 0.381860 0.092882 0.934656
O O8 0.750000 0.495017 0.687982
O O9 0.612875 0.389130 0.652182
O O10 0.750000 0.148950 0.461048
O O11 0.879495 0.250000 0.561351
O O12 0.750000 0.655037 0.896956
O O13 0.624426 0.750000 0.026625
#
# Coordination Sequence:
#
# PCOD8244732 Si02
#       5
#     8   8   8   8   8
#     4  11  18  31  52  76  96 121 160 205 240 276
#     4   9  18  32  51  74  98 126 160 196 235 283
#     4   9  18  33  51  70  95 128 162 192 232 290
#     4  10  21  35  49  68  97 130 161 197 242 285
#     4   9  17  29  46  70  99 127 154 190 239 290
#
# _framework density 18.37236
#
# number of rings (size 3 to 8) (size 9 to 14) (size 15 to 20)
#    0.000    2.400    0.000    6.000    0.000    0.000 
#    0.000    5.000    0.000    4.800    0.000    0.000 
#    0.000    3.200    0.000    0.000    0.000    0.000 
#
# Total GULP energy -495723.651264 kJ/mol
# GULP energy per Si atom -12393.091282 kJ/mol
# Density = 1.833054 g / cm^3
# Si number density = 18.372360 Si / 1000 Ang^3
#
#
#
# Elastic Constant Matrix: (Units=GPa)
#
#
# Indices 1 2 3 4 5 6 
#
# 1 73.8433 31.5730 15.0730 0.0000 0.0000 0.0000
# 2 31.5730 104.7701 26.3378 0.0000 0.0000 0.0000
# 3 15.0730 26.3378 32.4545 0.0000 0.0000 0.0000
# 4 0.0000 0.0000 0.0000 24.1889 0.0000 0.0000
# 5 0.0000 0.0000 0.0000 0.0000 24.5814 0.0000
# 6 0.0000 0.0000 0.0000 0.0000 0.0000 25.4085
#
#
#
# Elastic Compliance Matrix: (Units=1/GPa)
#
#
# Indices 1 2 3 4 5 6 
#
# 1 0.016037 -0.003719 -0.004430 0.000000 0.000000 0.000000
# 2 -0.003719 0.012853 -0.008704 0.000000 0.000000 0.000000
# 3 -0.004430 -0.008704 0.039933 0.000000 0.000000 0.000000
# 4 0.000000 0.000000 0.000000 0.041341 0.000000 0.000000
# 5 0.000000 0.000000 0.000000 0.000000 0.040681 0.000000
# 6 0.000000 0.000000 0.000000 0.000000 0.000000 0.039357
#
#
# Mechanical properties :
#
#
# Convention : Reuss Voigt Hill
#
# Bulk Modulus (GPa) = 28.47552 39.67062 34.07307
# Shear Modulus (GPa) = 21.22119 24.04135 22.63127
#
# Velocity S-wave (km/s) = 3.40231 3.62133 3.51352
# Velocity P-wave (km/s) = 5.56480 6.25498 5.91996
#
# Compressibility (1/GPa) = 0.03511788
#
# Stress axis : x y z
#
# Youngs Moduli (GPa) = 62.35742 77.79999 25.04197
#
# Poissons Ratio (x) = 0.28935 0.11093
# Poissons Ratio (y) = 0.23191 0.21796
# Poissons Ratio (z) = 0.27623 0.67715
#
# Static dielectric constant tensor:
#      x y z
#    x 3.795020 0.000000 0.000000 
#    y 0.000000 3.608400 0.000000 
#    z 0.000000 0.000000 3.035400 
# 
# 
# High freq. dielectric constant tensor:
#      x y z
#    x 1.737590 0.000000 0.000000 
#    y 0.000000 1.718300 0.000000 
#    z 0.000000 0.000000 1.666570 
# 
# From -- ./inp_files/8796.got.cif
#   From: 2010.03.12/outbox.cif.g09.slc.cpg/sg59_5_cif.got.tgz:8796.got - 2010.04.16 16:29:54.
