data_PCOD8244208
_publ_section_title
;
Structure prediction by ZEFSAII (Michael W. Deem and Ramdas Pophale) SiO2 
 PCOD8244208
Probable space group: P M M N
;
_chemical_formula_sum "Si O2"
_cell_formula_units_Z 40
_cell_length_a 23.059373
_cell_length_b 8.271604
_cell_length_c 10.280604
_cell_angle_alpha 90.000000
_cell_angle_beta 90.000000
_cell_angle_gamma 90.000000
_cell_volume 1960.901866
_symmetry_space_group_name_H-M "P M M N"
_symmetry_group_IT_number 59
_space_group.IT_coordinate_system_code '2'
_symmetry_cell_setting 'orthorhombic'
loop_
_space_group_symop_operation_xyz
x,y,z
1/2-x,1/2-y,z
1/2+x,-y,-z
-x,1/2+y,-z
-x,-y,-z
1/2+x,1/2+y,-z
1/2-x,y,z
x,1/2-y,z
loop_
_atom_site_type_symbol
_atom_site_label
_atom_site_fract_x
_atom_site_fract_y
_atom_site_fract_z
Si Si1 0.127512 0.560367 0.470833
Si Si2 0.750000 0.056427 0.888780
Si Si3 0.630574 0.438186 0.004559
Si Si4 0.941558 0.937639 0.770616
Si Si5 0.928117 0.442364 0.261679
Si Si6 0.250000 0.060007 0.403269
O O1 0.116543 0.750000 0.450340
O O2 0.097460 0.462873 0.355605
O O3 0.100829 0.495792 0.605664
O O4 0.195320 0.522413 0.472112
O O5 0.750000 0.250000 0.870034
O O6 0.806430 0.991684 0.965921
O O7 0.750000 0.973649 0.749376
O O8 0.638229 0.250000 0.026356
O O9 0.584075 0.466450 0.891940
O O10 0.607713 0.515668 0.139483
O O11 0.942417 0.750000 0.807119
O O12 0.005914 0.005615 0.744193
O O13 0.927463 0.250000 0.257140
O O14 0.250000 0.250000 0.429215
#
# Coordination Sequence:
#
# PCOD8244208 Si02
#       6
#     8   4   8   8   8   4
#     4  11  22  39  62  86 115 155 199 238 284 345
#     4  10  20  35  60  86 112 146 194 239 284 348
#     4  10  20  37  60  86 115 153 198 241 290 345
#     4  11  21  36  58  87 121 156 195 241 291 339
#     4   9  21  38  58  87 120 153 195 244 290 342
#     4  12  24  39  60  86 118 148 188 243 294 346
#
# _framework density 20.398776999999999
#
# number of rings (size 3 to 8) (size 9 to 14) (size 15 to 20)
#    0.000    1.600    2.000    3.300    0.000    0.800 
#    0.000    9.000    0.000    1.200    0.000    0.000 
#    0.000    0.000    0.000    0.000    0.000    0.000 
#
# Total GULP energy -496127.544560 kJ/mol
# GULP energy per Si atom -12403.188614 kJ/mol
# Density = 2.035235 g / cm^3
# Si number density = 20.398777 Si / 1000 Ang^3
#
#
#
# Elastic Constant Matrix: (Units=GPa)
#
#
# Indices 1 2 3 4 5 6 
#
# 1 131.5950 4.2589 31.6870 0.0000 0.0000 0.0000
# 2 4.2589 19.4823 -2.8076 0.0000 0.0000 0.0000
# 3 31.6870 -2.8076 113.8833 0.0000 0.0000 0.0000
# 4 0.0000 0.0000 0.0000 6.5142 0.0000 0.0000
# 5 0.0000 0.0000 0.0000 0.0000 -94.8391 0.0000
# 6 0.0000 0.0000 0.0000 0.0000 0.0000 18.7950
#
#
#
# Elastic Compliance Matrix: (Units=1/GPa)
#
#
# Indices 1 2 3 4 5 6 
#
# 1 0.008232 -0.002137 -0.002343 0.000000 0.000000 0.000000
# 2 -0.002137 0.052067 0.001878 0.000000 0.000000 0.000000
# 3 -0.002343 0.001878 0.009479 0.000000 0.000000 0.000000
# 4 0.000000 0.000000 0.000000 0.153511 0.000000 0.000000
# 5 0.000000 0.000000 0.000000 0.000000 -0.010544 0.000000
# 6 0.000000 0.000000 0.000000 0.000000 0.000000 0.053206
#
#
# Mechanical properties :
#
#
# Convention : Reuss Voigt Hill
#
# Bulk Modulus (GPa) = 15.48619 36.80413 26.14516
# Shear Modulus (GPa) = 17.08350 1.54884 9.31617
#
# Velocity S-wave (km/s) = 2.89706 0.87231 2.13938
# Velocity P-wave (km/s) = 4.33576 4.36990 4.35286
#
# Compressibility (1/GPa) = 0.06457367
#
# Stress axis : x y z
#
# Youngs Moduli (GPa) = 121.46988 19.20616 105.49373
#
# Poissons Ratio (x) = 0.04105 0.24720
# Poissons Ratio (y) = 0.25962 -0.19815
# Poissons Ratio (z) = 0.28464 -0.03608
#
# Static dielectric constant tensor:
#      x y z
#    x 4.111470 0.000000 0.000000 
#    y 0.000000 3.377550 0.000000 
#    z 0.000000 0.000000 3.919670 
# 
# 
# High freq. dielectric constant tensor:
#      x y z
#    x 1.815730 0.000000 0.000000 
#    y 0.000000 1.772670 0.000000 
#    z 0.000000 0.000000 1.802690 
# 
# From -- ./inp_files/12417.got.cif
#   From: 2010.03.12/outbox.cif.g09.slc.cpg/sg59_7_cif.got.tgz:12417.got - 2010.04.16 16:29:54.
