data_PCOD8244098
_publ_section_title
;
Structure prediction by ZEFSAII (Michael W. Deem and Ramdas Pophale) SiO2 
 PCOD8244098
Probable space group: P M M N
;
_chemical_formula_sum "Si O2"
_cell_formula_units_Z 32
_cell_length_a 16.408762
_cell_length_b 8.489020
_cell_length_c 11.275290
_cell_angle_alpha 90.000000
_cell_angle_beta 90.000000
_cell_angle_gamma 90.000000
_cell_volume 1570.583727
_symmetry_space_group_name_H-M "P M M N"
_symmetry_group_IT_number 59
_space_group.IT_coordinate_system_code '2'
_symmetry_cell_setting 'orthorhombic'
loop_
_space_group_symop_operation_xyz
x,y,z
1/2-x,1/2-y,z
1/2+x,-y,-z
-x,1/2+y,-z
-x,-y,-z
1/2+x,1/2+y,-z
1/2-x,y,z
x,1/2-y,z
loop_
_atom_site_type_symbol
_atom_site_label
_atom_site_fract_x
_atom_site_fract_y
_atom_site_fract_z
Si Si1 0.078588 0.067646 0.929992
Si Si2 0.098991 0.933291 0.431661
Si Si3 0.250000 0.936567 0.284761
Si Si4 0.056365 0.927737 0.680592
Si Si5 0.250000 0.936665 0.020024
O O1 0.082598 0.250000 0.961200
O O2 0.067173 0.046394 0.789224
O O3 0.165961 0.992093 0.960095
O O4 0.000000 0.000000 0.000000
O O5 0.078670 0.750000 0.404937
O O6 0.172994 0.998750 0.355428
O O7 0.120595 0.954415 0.572417
O O8 0.027805 0.046205 0.387645
O O9 0.250000 0.750000 0.279622
O O10 0.250000 0.005938 0.152590
O O11 0.061369 0.750000 0.730984
O O12 0.250000 0.750000 0.016092
#
# Coordination Sequence:
#
# PCOD8244098 Si02
#       5
#     8   8   4   8   4
#     4  12  25  42  63  88 122 163 207 256 309 363
#     4   9  18  34  57  84 114 149 190 239 295 357
#     4   9  18  34  57  82 108 143 186 233 288 349
#     4  10  20  35  57  85 116 152 195 241 295 356
#     4  11  23  40  63  92 124 159 202 251 306 369
#
# _framework density 20.374590000000001
#
# number of rings (size 3 to 8) (size 9 to 14) (size 15 to 20)
#    0.000    1.750    0.000    4.875    0.000    4.000 
#    0.000    4.375    0.000    0.000    0.000    0.000 
#    0.000    0.000    0.000    0.000    0.000    0.000 
#
# Total GULP energy -396572.736673 kJ/mol
# GULP energy per Si atom -12392.898021 kJ/mol
# Density = 2.032822 g / cm^3
# Si number density = 20.374590 Si / 1000 Ang^3
#
#
#
# Elastic Constant Matrix: (Units=GPa)
#
#
# Indices 1 2 3 4 5 6 
#
# 1 109.0454 26.0458 52.5305 0.0000 0.0000 0.0000
# 2 26.0458 77.8708 25.5802 0.0000 0.0000 0.0000
# 3 52.5305 25.5802 146.6942 0.0000 0.0000 0.0000
# 4 0.0000 0.0000 0.0000 31.2869 0.0000 0.0000
# 5 0.0000 0.0000 0.0000 0.0000 32.8427 0.0000
# 6 0.0000 0.0000 0.0000 0.0000 0.0000 26.6860
#
#
#
# Elastic Compliance Matrix: (Units=1/GPa)
#
#
# Indices 1 2 3 4 5 6 
#
# 1 0.011581 -0.002664 -0.003682 0.000000 0.000000 0.000000
# 2 -0.002664 0.014235 -0.001528 0.000000 0.000000 0.000000
# 3 -0.003682 -0.001528 0.008402 0.000000 0.000000 0.000000
# 4 0.000000 0.000000 0.000000 0.031962 0.000000 0.000000
# 5 0.000000 0.000000 0.000000 0.000000 0.030448 0.000000
# 6 0.000000 0.000000 0.000000 0.000000 0.000000 0.037473
#
#
# Mechanical properties :
#
#
# Convention : Reuss Voigt Hill
#
# Bulk Modulus (GPa) = 54.14660 60.21371 57.18015
# Shear Modulus (GPa) = 32.05001 33.46006 32.75503
#
# Velocity S-wave (km/s) = 3.97046 4.05686 4.01389
# Velocity P-wave (km/s) = 6.90309 7.18064 7.04323
#
# Compressibility (1/GPa) = 0.01846838
#
# Stress axis : x y z
#
# Youngs Moduli (GPa) = 86.35052 70.25036 119.01801
#
# Poissons Ratio (x) = 0.18713 0.43828
# Poissons Ratio (y) = 0.23002 0.18190
# Poissons Ratio (z) = 0.31798 0.10737
#
# Static dielectric constant tensor:
#      x y z
#    x 3.778380 0.000000 0.000000 
#    y 0.000000 3.515400 0.000000 
#    z 0.000000 0.000000 4.077340 
# 
# 
# High freq. dielectric constant tensor:
#      x y z
#    x 1.790690 0.000000 0.000000 
#    y 0.000000 1.787750 0.000000 
#    z 0.000000 0.000000 1.815630 
# 
# From -- ./inp_files/13679.got.cif
#   From: 2010.03.12/outbox.cif.g09.slc.cpg/sg59_7_cif.got.tgz:13679.got - 2010.04.16 16:29:54.
