data_PCOD8244830
_publ_section_title
;
Structure prediction by ZEFSAII (Michael W. Deem and Ramdas Pophale) SiO2 
 PCOD8244830
Probable space group: P M M N
;
_chemical_formula_sum "Si O2"
_cell_formula_units_Z 64
_cell_length_a 14.830938
_cell_length_b 26.712562
_cell_length_c 8.767971
_cell_angle_alpha 90.000000
_cell_angle_beta 90.000000
_cell_angle_gamma 90.000000
_cell_volume 3473.627683
_symmetry_space_group_name_H-M "P M M N"
_symmetry_group_IT_number 59
_space_group.IT_coordinate_system_code '2'
_symmetry_cell_setting 'orthorhombic'
loop_
_space_group_symop_operation_xyz
x,y,z
1/2-x,1/2-y,z
1/2+x,-y,-z
-x,1/2+y,-z
-x,-y,-z
1/2+x,1/2+y,-z
1/2-x,y,z
x,1/2-y,z
loop_
_atom_site_type_symbol
_atom_site_label
_atom_site_fract_x
_atom_site_fract_y
_atom_site_fract_z
Si Si1 0.144690 0.911314 0.475323
Si Si2 0.503497 0.126099 0.293412
Si Si3 0.354457 0.614439 0.131132
Si Si4 0.147949 0.192685 0.803300
Si Si5 0.440200 0.537878 0.907158
Si Si6 0.983360 0.307988 0.012758
Si Si7 0.355857 0.118894 0.529661
Si Si8 0.354389 0.487825 0.627715
O O1 0.250000 0.901200 0.510752
O O2 0.086693 0.876401 0.587843
O O3 0.118659 0.900368 0.302291
O O4 0.120007 0.969504 0.505264
O O5 0.498178 0.076307 0.188979
O O6 0.408653 0.134363 0.377463
O O7 0.519397 0.174135 0.187217
O O8 0.250000 0.627824 0.117892
O O9 0.409312 0.663748 0.087900
O O10 0.375302 0.568236 0.020099
O O11 0.250000 0.181323 0.857976
O O12 0.137525 0.250000 0.749249
O O13 0.082477 0.180865 0.944412
O O14 0.121556 0.158378 0.661017
O O15 0.380531 0.504074 0.796709
O O16 0.500000 0.500000 0.000000
O O17 0.958475 0.250000 0.007226
O O18 0.250000 0.117736 0.490686
O O19 0.398189 0.065131 0.579868
O O20 0.250000 0.476745 0.629744
#
# Coordination Sequence:
#
# PCOD8244830 Si02
#       8
#     8   8   8   8   8   8   8   8
#     4   9  19  36  57  79 109 149 186 222 274 332
#     4  10  22  35  53  78 111 144 181 230 276 327
#     4  10  21  38  60  84 113 150 190 234 281 334
#     4   9  19  37  59  80 106 142 183 230 285 342
#     4  10  22  33  52  80 110 150 190 224 270 328
#     4  10  22  39  59  84 110 144 189 236 288 339
#     4  10  21  35  54  81 111 145 185 228 275 330
#     4   9  19  34  51  75 110 147 183 224 271 325
#
# _framework density 18.424543
#
# number of rings (size 3 to 8) (size 9 to 14) (size 15 to 20)
#    0.000    2.375    0.000    1.125    7.000    5.250 
#    0.000    1.250    0.000    0.750    0.000    0.000 
#    0.000    0.000    0.000    0.000    0.000    0.000 
#
# Total GULP energy -793697.347809 kJ/mol
# GULP energy per Si atom -12401.521060 kJ/mol
# Density = 1.838261 g / cm^3
# Si number density = 18.424543 Si / 1000 Ang^3
#
#
#
# Elastic Constant Matrix: (Units=GPa)
#
#
# Indices 1 2 3 4 5 6 
#
# 1 73.0755 50.4839 55.5891 0.0000 0.0000 0.0000
# 2 50.4839 106.5886 64.1386 0.0000 0.0000 0.0000
# 3 55.5891 64.1386 135.6360 0.0000 0.0000 0.0000
# 4 0.0000 0.0000 0.0000 22.7671 0.0000 0.0000
# 5 0.0000 0.0000 0.0000 0.0000 34.8541 0.0000
# 6 0.0000 0.0000 0.0000 0.0000 0.0000 24.6930
#
#
#
# Elastic Compliance Matrix: (Units=1/GPa)
#
#
# Indices 1 2 3 4 5 6 
#
# 1 0.023466 -0.007446 -0.006096 0.000000 0.000000 0.000000
# 2 -0.007446 0.015476 -0.004266 0.000000 0.000000 0.000000
# 3 -0.006096 -0.004266 0.011889 0.000000 0.000000 0.000000
# 4 0.000000 0.000000 0.000000 0.043923 0.000000 0.000000
# 5 0.000000 0.000000 0.000000 0.000000 0.028691 0.000000
# 6 0.000000 0.000000 0.000000 0.000000 0.000000 0.040497
#
#
# Mechanical properties :
#
#
# Convention : Reuss Voigt Hill
#
# Bulk Modulus (GPa) = 65.73282 72.85815 69.29548
# Shear Modulus (GPa) = 24.43432 26.13540 25.28486
#
# Velocity S-wave (km/s) = 3.64563 3.77040 3.70854
# Velocity P-wave (km/s) = 7.31266 7.65405 7.48530
#
# Compressibility (1/GPa) = 0.01521310
#
# Stress axis : x y z
#
# Youngs Moduli (GPa) = 42.61495 64.61716 84.11339
#
# Poissons Ratio (x) = 0.48113 0.51279
# Poissons Ratio (y) = 0.31730 0.35887
# Poissons Ratio (z) = 0.25980 0.27569
#
# Static dielectric constant tensor:
#      x y z
#    x 3.514890 0.000000 0.000000 
#    y 0.000000 3.346230 0.000000 
#    z 0.000000 0.000000 3.379030 
# 
# 
# High freq. dielectric constant tensor:
#      x y z
#    x 1.718140 0.000000 0.000000 
#    y 0.000000 1.711570 0.000000 
#    z 0.000000 0.000000 1.718400 
# 
# From -- ./inp_files/9616.got.cif
#   From: 2010.03.12/outbox.cif.g09.slc.cpg/sg59_5_cif.got.tgz:9616.got - 2010.04.16 16:29:54.
