data_PCOD8244785
_publ_section_title
;
Structure prediction by ZEFSAII (Michael W. Deem and Ramdas Pophale) SiO2 
 PCOD8244785
Probable space group: P M M N
;
_chemical_formula_sum "Si O2"
_cell_formula_units_Z 56
_cell_length_a 14.791022
_cell_length_b 9.259332
_cell_length_c 21.355746
_cell_angle_alpha 90.000000
_cell_angle_beta 90.000000
_cell_angle_gamma 90.000000
_cell_volume 2924.775837
_symmetry_space_group_name_H-M "P M M N"
_symmetry_group_IT_number 59
_space_group.IT_coordinate_system_code '2'
_symmetry_cell_setting 'orthorhombic'
loop_
_space_group_symop_operation_xyz
x,y,z
1/2-x,1/2-y,z
1/2+x,-y,-z
-x,1/2+y,-z
-x,-y,-z
1/2+x,1/2+y,-z
1/2-x,y,z
x,1/2-y,z
loop_
_atom_site_type_symbol
_atom_site_label
_atom_site_fract_x
_atom_site_fract_y
_atom_site_fract_z
Si Si1 0.354921 0.915854 0.585405
Si Si2 0.856834 0.583196 0.885170
Si Si3 0.142795 0.590811 0.996202
Si Si4 0.650096 0.421962 0.554544
Si Si5 0.354069 0.919507 0.856209
Si Si6 0.512768 0.418593 0.794749
Si Si7 0.003302 0.917449 0.349053
O O1 0.250000 0.937709 0.600162
O O2 0.383032 0.750000 0.592200
O O3 0.377969 0.972381 0.515301
O O4 0.408973 0.005524 0.636902
O O5 0.750000 0.560400 0.876874
O O6 0.884657 0.750000 0.881094
O O7 0.890836 0.524585 0.952653
O O8 0.905946 0.495649 0.830871
O O9 0.250000 0.598626 0.995069
O O10 0.104610 0.750000 0.013389
O O11 0.111324 0.545006 0.926699
O O12 0.750000 0.482218 0.570851
O O13 0.653189 0.250000 0.556120
O O14 0.580373 0.483870 0.605566
O O15 0.250000 0.966199 0.846397
O O16 0.365723 0.750000 0.842236
O O17 0.415602 0.012333 0.809945
O O18 0.511062 0.250000 0.812011
O O19 0.533053 0.444251 0.721933
O O20 0.989314 0.750000 0.363145
#
# Coordination Sequence:
#
# PCOD8244785 Si02
#       7
#     8   8   8   8   8   8   8
#     4   9  18  33  55  81 105 133 169 209 259 314
#     4  10  21  37  57  80 106 137 174 218 267 317
#     4   8  15  31  56  82 104 129 167 217 271 321
#     4   8  15  31  55  80 104 131 168 213 259 309
#     4   9  19  37  59  80 104 137 177 222 270 317
#     4  11  24  37  51  76 108 145 185 218 256 310
#     4  10  21  35  52  76 105 139 177 215 255 299
#
# _framework density 19.146766
#
# number of rings (size 3 to 8) (size 9 to 14) (size 15 to 20)
#    0.000    2.714    0.000    3.000    0.000    4.857 
#    0.000    5.714    0.000    1.286    0.000    0.000 
#    0.000    0.000    0.000    0.000    0.000    0.000 
#
# Total GULP energy -694349.359236 kJ/mol
# GULP energy per Si atom -12399.095701 kJ/mol
# Density = 1.910319 g / cm^3
# Si number density = 19.146766 Si / 1000 Ang^3
#
#
#
# Elastic Constant Matrix: (Units=GPa)
#
#
# Indices 1 2 3 4 5 6 
#
# 1 55.4898 33.0570 20.0174 0.0000 0.0000 0.0000
# 2 33.0570 76.3141 38.3610 0.0000 0.0000 0.0000
# 3 20.0174 38.3610 62.3621 0.0000 0.0000 0.0000
# 4 0.0000 0.0000 0.0000 28.3336 0.0000 0.0000
# 5 0.0000 0.0000 0.0000 0.0000 29.3426 0.0000
# 6 0.0000 0.0000 0.0000 0.0000 0.0000 28.9988
#
#
#
# Elastic Compliance Matrix: (Units=1/GPa)
#
#
# Indices 1 2 3 4 5 6 
#
# 1 0.024449 -0.009620 -0.001930 0.000000 0.000000 0.000000
# 2 -0.009620 0.022755 -0.010909 0.000000 0.000000 0.000000
# 3 -0.001930 -0.010909 0.023365 0.000000 0.000000 0.000000
# 4 0.000000 0.000000 0.000000 0.035294 0.000000 0.000000
# 5 0.000000 0.000000 0.000000 0.000000 0.034080 0.000000
# 6 0.000000 0.000000 0.000000 0.000000 0.000000 0.034484
#
#
# Mechanical properties :
#
#
# Convention : Reuss Voigt Hill
#
# Bulk Modulus (GPa) = 38.98641 41.89301 40.43971
# Shear Modulus (GPa) = 21.93985 24.18371 23.06178
#
# Velocity S-wave (km/s) = 3.38875 3.55783 3.47432
# Velocity P-wave (km/s) = 5.97642 6.22936 6.10420
#
# Compressibility (1/GPa) = 0.02564997
#
# Stress axis : x y z
#
# Youngs Moduli (GPa) = 40.90208 43.94691 42.79821
#
# Poissons Ratio (x) = 0.42278 0.08260
# Poissons Ratio (y) = 0.39349 0.46689
# Poissons Ratio (z) = 0.07894 0.47943
#
# Static dielectric constant tensor:
#      x y z
#    x 3.470380 0.000000 0.000000 
#    y 0.000000 3.367650 0.000000 
#    z 0.000000 0.000000 3.557420 
# 
# 
# High freq. dielectric constant tensor:
#      x y z
#    x 1.745190 0.000000 0.000000 
#    y 0.000000 1.727690 0.000000 
#    z 0.000000 0.000000 1.743720 
# 
# From -- ./inp_files/29154.got.cif
#   From: 2010.03.12/outbox.cif.g09.slc.cpg/sg59_15_cif.got.tgz:29154.got - 2010.04.16 16:29:54.
