data_PCOD8244500
_publ_section_title
;
Structure prediction by ZEFSAII (Michael W. Deem and Ramdas Pophale) SiO2 
 PCOD8244500
Probable space group: P M M N
;
_chemical_formula_sum "Si O2"
_cell_formula_units_Z 64
_cell_length_a 18.202084
_cell_length_b 14.354032
_cell_length_c 12.281715
_cell_angle_alpha 90.000000
_cell_angle_beta 90.000000
_cell_angle_gamma 90.000000
_cell_volume 3208.884161
_symmetry_space_group_name_H-M "P M M N"
_symmetry_group_IT_number 59
_space_group.IT_coordinate_system_code '2'
_symmetry_cell_setting 'orthorhombic'
loop_
_space_group_symop_operation_xyz
x,y,z
1/2-x,1/2-y,z
1/2+x,-y,-z
-x,1/2+y,-z
-x,-y,-z
1/2+x,1/2+y,-z
1/2-x,y,z
x,1/2-y,z
loop_
_atom_site_type_symbol
_atom_site_label
_atom_site_fract_x
_atom_site_fract_y
_atom_site_fract_z
Si Si1 0.668329 0.141862 0.885562
Si Si2 0.666606 0.538565 0.178973
Si Si3 0.395178 0.856329 0.885068
Si Si4 0.334845 0.143813 0.038852
Si Si5 0.072136 0.467541 0.440165
Si Si6 0.051684 0.142460 0.218847
Si Si7 0.406350 0.645337 0.337956
Si Si8 0.081128 0.145540 0.640098
O O1 0.750000 0.093253 0.892200
O O2 0.683178 0.250000 0.881281
O O3 0.623270 0.112746 0.779007
O O4 0.617536 0.117462 0.988568
O O5 0.750000 0.564191 0.206508
O O6 0.655509 0.426905 0.183654
O O7 0.614872 0.583910 0.266627
O O8 0.643671 0.578284 0.061418
O O9 0.370826 0.750000 0.859738
O O10 0.479428 0.873350 0.853902
O O11 0.250000 0.134322 0.070121
O O12 0.355378 0.250000 0.007385
O O13 0.379816 0.111102 0.144635
O O14 0.050696 0.419261 0.326779
O O15 0.120527 0.562210 0.419280
O O16 0.109326 0.394836 0.523290
O O17 0.000000 0.500000 0.500000
O O18 0.058421 0.250000 0.254653
O O19 0.378047 0.750000 0.370562
O O20 0.494154 0.644527 0.340625
O O21 0.111786 0.250000 0.647070
#
# Coordination Sequence:
#
# PCOD8244500 Si02
#       8
#     8   8   8   8   8   8   8   8
#     4   9  18  33  52  78 116 154 186 226 279 341
#     4  11  23  38  58  83 115 156 196 236 292 354
#     4  10  21  35  55  85 118 153 190 232 284 349
#     4   9  20  38  58  84 119 154 189 236 293 351
#     4  10  20  37  58  84 115 149 194 245 297 341
#     4  10  21  37  60  87 114 150 195 243 296 350
#     4   9  19  34  56  83 111 150 193 237 289 346
#     4  10  21  38  60  83 111 149 199 249 291 340
#
# _framework density 19.944628999999999
#
# number of rings (size 3 to 8) (size 9 to 14) (size 15 to 20)
#    0.000    2.250    0.000    2.625    3.500    2.500 
#    0.000    1.875    0.000    1.500    0.000    0.000 
#    0.000    0.000    0.000    0.000    0.000    0.000 
#
# Total GULP energy -793171.971363 kJ/mol
# GULP energy per Si atom -12393.312053 kJ/mol
# Density = 1.989923 g / cm^3
# Si number density = 19.944629 Si / 1000 Ang^3
#
#
#
# Elastic Constant Matrix: (Units=GPa)
#
#
# Indices 1 2 3 4 5 6 
#
# 1 53.6957 24.8704 47.9173 0.0000 0.0000 0.0000
# 2 24.8704 118.0964 63.9590 0.0000 0.0000 0.0000
# 3 47.9173 63.9590 123.6521 0.0000 0.0000 0.0000
# 4 0.0000 0.0000 0.0000 38.8965 0.0000 0.0000
# 5 0.0000 0.0000 0.0000 0.0000 4.5640 0.0000
# 6 0.0000 0.0000 0.0000 0.0000 0.0000 11.0232
#
#
#
# Elastic Compliance Matrix: (Units=1/GPa)
#
#
# Indices 1 2 3 4 5 6 
#
# 1 0.028468 -0.000029 -0.011017 0.000000 0.000000 0.000000
# 2 -0.000029 0.011763 -0.006073 0.000000 0.000000 0.000000
# 3 -0.011017 -0.006073 0.015498 0.000000 0.000000 0.000000
# 4 0.000000 0.000000 0.000000 0.025709 0.000000 0.000000
# 5 0.000000 0.000000 0.000000 0.000000 0.219106 0.000000
# 6 0.000000 0.000000 0.000000 0.000000 0.000000 0.090718
#
#
# Mechanical properties :
#
#
# Convention : Reuss Voigt Hill
#
# Bulk Modulus (GPa) = 46.53090 63.21527 54.87308
# Shear Modulus (GPa) = 11.55632 21.47659 16.51645
#
# Velocity S-wave (km/s) = 2.40973 3.28504 2.88082
# Velocity P-wave (km/s) = 5.57880 6.79359 6.21594
#
# Compressibility (1/GPa) = 0.02149110
#
# Stress axis : x y z
#
# Youngs Moduli (GPa) = 35.12686 85.01348 64.52470
#
# Poissons Ratio (x) = 0.00243 0.71088
# Poissons Ratio (y) = 0.00100 0.39188
# Poissons Ratio (z) = 0.38700 0.51631
#
# Static dielectric constant tensor:
#      x y z
#    x 3.559620 0.000000 0.000000 
#    y 0.000000 4.326160 0.000000 
#    z 0.000000 0.000000 3.881940 
# 
# 
# High freq. dielectric constant tensor:
#      x y z
#    x 1.753400 0.000000 0.000000 
#    y 0.000000 1.801170 0.000000 
#    z 0.000000 0.000000 1.769820 
# 
# From -- ./inp_files/17230.got.cif
#   From: 2010.03.12/outbox.cif.g09.slc.cpg/sg59_9_cif.got.tgz:17230.got - 2010.04.16 16:29:54.
