data_PCOD8244677
_publ_section_title
;
Structure prediction by ZEFSAII (Michael W. Deem and Ramdas Pophale) SiO2 
 PCOD8244677
Probable space group: P M M N
;
_chemical_formula_sum "Si O2"
_cell_formula_units_Z 40
_cell_length_a 8.494978
_cell_length_b 16.912103
_cell_length_c 14.412969
_cell_angle_alpha 90.000000
_cell_angle_beta 90.000000
_cell_angle_gamma 90.000000
_cell_volume 2070.681608
_symmetry_space_group_name_H-M "P M M N"
_symmetry_group_IT_number 59
_space_group.IT_coordinate_system_code '2'
_symmetry_cell_setting 'orthorhombic'
loop_
_space_group_symop_operation_xyz
x,y,z
1/2-x,1/2-y,z
1/2+x,-y,-z
-x,1/2+y,-z
-x,-y,-z
1/2+x,1/2+y,-z
1/2-x,y,z
x,1/2-y,z
loop_
_atom_site_type_symbol
_atom_site_label
_atom_site_fract_x
_atom_site_fract_y
_atom_site_fract_z
Si Si1 0.571932 0.162295 0.850111
Si Si2 0.563409 0.838467 0.468716
Si Si3 0.566398 0.750000 0.994370
Si Si4 0.933782 0.886864 0.671817
Si Si5 0.433724 0.055309 0.699615
Si Si6 0.068545 0.750000 0.793640
O O1 0.750000 0.129658 0.851678
O O2 0.564686 0.250000 0.803097
O O3 0.460991 0.102685 0.794493
O O4 0.508055 0.171588 0.956102
O O5 0.750000 0.834548 0.462405
O O6 0.493068 0.750000 0.459545
O O7 0.509064 0.876097 0.565955
O O8 0.498433 0.893132 0.385972
O O9 0.750000 0.750000 0.013257
O O10 0.534228 0.750000 0.886074
O O11 0.750000 0.866979 0.682020
O O12 0.031140 0.827761 0.735398
O O13 0.967889 0.975238 0.704358
O O14 0.250000 0.036227 0.687767
O O15 0.250000 0.750000 0.822098
#
# Coordination Sequence:
#
# PCOD8244677 Si02
#       6
#     8   8   4   8   8   4
#     4   9  19  36  58  87 120 152 190 236 286 344
#     4   9  18  34  57  85 118 158 200 240 284 339
#     4  10  20  38  65  90 113 150 191 234 294 354
#     4  11  22  39  60  82 117 159 201 243 289 344
#     4  11  21  34  57  89 123 158 195 241 293 341
#     4  12  24  42  63  86 113 148 195 244 294 350
#
# _framework density 19.317309999999999
#
# number of rings (size 3 to 8) (size 9 to 14) (size 15 to 20)
#    0.600    1.200    1.000    4.500    0.000    0.800 
#    0.000    4.000    0.000    0.000    0.000    0.000 
#    0.000    0.000    0.000    0.000    0.000    0.000 
#
# Total GULP energy -495997.269098 kJ/mol
# GULP energy per Si atom -12399.931727 kJ/mol
# Density = 1.927334 g / cm^3
# Si number density = 19.317310 Si / 1000 Ang^3
#
#
#
# Elastic Constant Matrix: (Units=GPa)
#
#
# Indices 1 2 3 4 5 6 
#
# 1 62.4271 10.4778 10.4369 0.0000 0.0000 0.0000
# 2 10.4778 106.0616 35.2552 0.0000 0.0000 0.0000
# 3 10.4369 35.2552 106.6795 0.0000 0.0000 0.0000
# 4 0.0000 0.0000 0.0000 -49.5646 0.0000 0.0000
# 5 0.0000 0.0000 0.0000 0.0000 24.3060 0.0000
# 6 0.0000 0.0000 0.0000 0.0000 0.0000 24.0802
#
#
#
# Elastic Compliance Matrix: (Units=1/GPa)
#
#
# Indices 1 2 3 4 5 6 
#
# 1 0.016425 -0.001223 -0.001203 0.000000 0.000000 0.000000
# 2 -0.001223 0.010683 -0.003411 0.000000 0.000000 0.000000
# 3 -0.001203 -0.003411 0.010619 0.000000 0.000000 0.000000
# 4 0.000000 0.000000 0.000000 -0.020176 0.000000 0.000000
# 5 0.000000 0.000000 0.000000 0.000000 0.041142 0.000000
# 6 0.000000 0.000000 0.000000 0.000000 0.000000 0.041528
#
#
# Mechanical properties :
#
#
# Convention : Reuss Voigt Hill
#
# Bulk Modulus (GPa) = 38.38206 43.05646 40.71926
# Shear Modulus (GPa) = 41.46661 14.36419 27.91540
#
# Velocity S-wave (km/s) = 4.63817 2.72985 3.80557
# Velocity P-wave (km/s) = 6.97108 5.68098 6.35883
#
# Compressibility (1/GPa) = 0.02605384
#
# Stress axis : x y z
#
# Youngs Moduli (GPa) = 60.88277 93.60599 94.17285
#
# Poissons Ratio (x) = 0.11446 0.11327
# Poissons Ratio (y) = 0.07445 0.32121
# Poissons Ratio (z) = 0.07323 0.31928
#
# Static dielectric constant tensor:
#      x y z
#    x 3.313620 0.000000 0.000000 
#    y 0.000000 3.449460 0.000000 
#    z 0.000000 0.000000 3.443260 
# 
# 
# High freq. dielectric constant tensor:
#      x y z
#    x 1.745770 0.000000 0.000000 
#    y 0.000000 1.744510 0.000000 
#    z 0.000000 0.000000 1.747940 
# 
# From -- ./inp_files/19965.got.cif
#   From: 2010.03.12/outbox.cif.g09.slc.cpg/sg59_10_cif.got.tgz:19965.got - 2010.04.16 16:29:54.
