data_PCOD8244436
_publ_section_title
;
Structure prediction by ZEFSAII (Michael W. Deem and Ramdas Pophale) SiO2 
 PCOD8244436
Probable space group: P M M N
;
_chemical_formula_sum "Si O2"
_cell_formula_units_Z 48
_cell_length_a 8.837239
_cell_length_b 14.964809
_cell_length_c 18.957246
_cell_angle_alpha 90.000000
_cell_angle_beta 90.000000
_cell_angle_gamma 90.000000
_cell_volume 2507.050167
_symmetry_space_group_name_H-M "P M M N"
_symmetry_group_IT_number 59
_space_group.IT_coordinate_system_code '2'
_symmetry_cell_setting 'orthorhombic'
loop_
_space_group_symop_operation_xyz
x,y,z
1/2-x,1/2-y,z
1/2+x,-y,-z
-x,1/2+y,-z
-x,-y,-z
1/2+x,1/2+y,-z
1/2-x,y,z
x,1/2-y,z
loop_
_atom_site_type_symbol
_atom_site_label
_atom_site_fract_x
_atom_site_fract_y
_atom_site_fract_z
Si Si1 0.927979 0.250000 0.921624
Si Si2 0.425084 0.101914 0.828379
Si Si3 0.074637 0.896075 0.830720
Si Si4 0.571316 0.750000 0.925994
Si Si5 0.426173 0.001233 0.424435
Si Si6 0.424080 0.647590 0.315700
Si Si7 0.575203 0.852022 0.684244
O O1 0.750000 0.250000 0.934429
O O2 0.972442 0.338183 0.878741
O O3 0.012115 0.250000 0.995213
O O4 0.250000 0.127672 0.838690
O O5 0.468517 0.118908 0.747738
O O6 0.455661 0.999387 0.848081
O O7 0.250000 0.871554 0.837359
O O8 0.983169 0.839030 0.887188
O O9 0.022915 0.872289 0.752525
O O10 0.750000 0.750000 0.926657
O O11 0.250000 0.009974 0.436965
O O12 0.484458 0.085939 0.379202
O O13 0.500000 0.000000 0.500000
O O14 0.468641 0.910376 0.383671
O O15 0.250000 0.630219 0.293319
O O16 0.451747 0.750000 0.336230
O O17 0.750000 0.873543 0.702279
O O18 0.553765 0.750000 0.660353
#
# Coordination Sequence:
#
# PCOD8244436 Si02
#       7
#     4   8   8   4   8   8   8
#     4  12  26  44  66  92 127 166 205 254 308 362
#     4  11  23  39  63  95 127 160 204 254 306 366
#     4  11  23  39  63  95 127 160 204 254 306 366
#     4  12  26  44  66  92 127 166 205 254 308 362
#     4  10  22  38  56  84 123 160 205 254 308 366
#     4  10  20  36  60  88 117 157 205 252 304 363
#     4  10  20  36  60  88 117 157 205 252 304 363
#
# _framework density 19.146006
#
# number of rings (size 3 to 8) (size 9 to 14) (size 15 to 20)
#    0.000    1.333    3.333    2.500    0.000    4.667 
#    0.000    0.000    0.000    0.000    0.000    0.000 
#    0.000    0.000    0.000    0.000    0.000    0.000 
#
# Total GULP energy -595429.440611 kJ/mol
# GULP energy per Si atom -12404.780013 kJ/mol
# Density = 1.910243 g / cm^3
# Si number density = 19.146006 Si / 1000 Ang^3
#
#
#
# Elastic Constant Matrix: (Units=GPa)
#
#
# Indices 1 2 3 4 5 6 
#
# 1 75.8040 43.6648 22.4617 0.0000 0.0000 0.0000
# 2 43.6648 122.2254 33.0335 0.0000 0.0000 0.0000
# 3 22.4617 33.0335 96.1271 0.0000 0.0000 0.0000
# 4 0.0000 0.0000 0.0000 58.1117 0.0000 0.0000
# 5 0.0000 0.0000 0.0000 0.0000 40.0019 0.0000
# 6 0.0000 0.0000 0.0000 0.0000 0.0000 26.5509
#
#
#
# Elastic Compliance Matrix: (Units=1/GPa)
#
#
# Indices 1 2 3 4 5 6 
#
# 1 0.016977 -0.005504 -0.002076 0.000000 0.000000 0.000000
# 2 -0.005504 0.010804 -0.002427 0.000000 0.000000 0.000000
# 3 -0.002076 -0.002427 0.011722 0.000000 0.000000 0.000000
# 4 0.000000 0.000000 0.000000 0.017208 0.000000 0.000000
# 5 0.000000 0.000000 0.000000 0.000000 0.024999 0.000000
# 6 0.000000 0.000000 0.000000 0.000000 0.000000 0.037663
#
#
# Mechanical properties :
#
#
# Convention : Reuss Voigt Hill
#
# Bulk Modulus (GPa) = 51.30728 54.71961 53.01345
# Shear Modulus (GPa) = 34.27407 37.93268 36.10337
#
# Velocity S-wave (km/s) = 4.23560 4.45593 4.34716
# Velocity P-wave (km/s) = 7.12576 7.42401 7.27642
#
# Compressibility (1/GPa) = 0.01949041
#
# Stress axis : x y z
#
# Youngs Moduli (GPa) = 58.90153 92.56020 85.31160
#
# Poissons Ratio (x) = 0.50947 0.17707
# Poissons Ratio (y) = 0.32421 0.20701
# Poissons Ratio (z) = 0.12225 0.22460
#
# Static dielectric constant tensor:
#      x y z
#    x 3.558630 0.000000 0.000000 
#    y 0.000000 3.719140 0.000000 
#    z 0.000000 0.000000 3.673960 
# 
# 
# High freq. dielectric constant tensor:
#      x y z
#    x 1.747980 0.000000 0.000000 
#    y 0.000000 1.765440 0.000000 
#    z 0.000000 0.000000 1.740380 
# 
# From -- ./inp_files/25543.got.cif
#   From: 2010.03.12/outbox.cif.g09.slc.cpg/sg59_13_cif.got.tgz:25543.got - 2010.04.16 16:29:54.
