data_PCOD8244940
_publ_section_title
;
Structure prediction by ZEFSAII (Michael W. Deem and Ramdas Pophale) SiO2 
 PCOD8244940
Probable space group: P M M N
;
_chemical_formula_sum "Si O2"
_cell_formula_units_Z 48
_cell_length_a 8.971352
_cell_length_b 9.566115
_cell_length_c 30.560382
_cell_angle_alpha 90.000000
_cell_angle_beta 90.000000
_cell_angle_gamma 90.000000
_cell_volume 2622.722083
_symmetry_space_group_name_H-M "P M M N"
_symmetry_group_IT_number 59
_space_group.IT_coordinate_system_code '2'
_symmetry_cell_setting 'orthorhombic'
loop_
_space_group_symop_operation_xyz
x,y,z
1/2-x,1/2-y,z
1/2+x,-y,-z
-x,1/2+y,-z
-x,-y,-z
1/2+x,1/2+y,-z
1/2-x,y,z
x,1/2-y,z
loop_
_atom_site_type_symbol
_atom_site_label
_atom_site_fract_x
_atom_site_fract_y
_atom_site_fract_z
Si Si1 0.421718 0.411626 0.291000
Si Si2 0.077128 0.588629 0.373594
Si Si3 0.424372 0.088295 0.537582
Si Si4 0.923856 0.088611 0.872544
Si Si5 0.076072 0.412336 0.962297
Si Si6 0.577752 0.086616 0.201837
O O1 0.250000 0.445967 0.279840
O O2 0.443067 0.250000 0.302944
O O3 0.478707 0.500317 0.332186
O O4 0.521799 0.455417 0.249901
O O5 0.250000 0.560095 0.383322
O O6 0.045720 0.750000 0.362994
O O7 0.985641 0.537665 0.415663
O O8 0.250000 0.060780 0.536393
O O9 0.464929 0.250000 0.530007
O O10 0.500000 0.000000 0.500000
O O11 0.750000 0.061295 0.879626
O O12 0.957976 0.250000 0.862038
O O13 0.008104 0.039996 0.916180
O O14 0.981188 0.997347 0.832699
O O15 0.250000 0.445787 0.961511
O O16 0.042973 0.250000 0.971116
O O17 0.000000 0.500000 0.000000
O O18 0.750000 0.044900 0.197390
O O19 0.551667 0.250000 0.193267
#
# Coordination Sequence:
#
# PCOD8244940 Si02
#       6
#     8   8   8   8   8   8
#     4   9  18  33  52  74 102 136 173 213 256 304
#     4   9  18  33  52  74 102 135 171 212 257 306
#     4  10  21  36  54  77 105 137 174 215 259 309
#     4  10  21  37  57  80 106 138 177 220 265 313
#     4  10  21  37  57  81 109 141 177 217 262 312
#     4  10  21  36  54  78 108 141 177 217 261 310
#
# _framework density 18.301596
#
# number of rings (size 3 to 8) (size 9 to 14) (size 15 to 20)
#    0.000    2.333    0.000    2.000    0.000    6.667 
#    0.000    3.333    0.000    0.000    0.000    0.000 
#    0.000    0.000    0.000    0.000    0.000    0.000 
#
# Total GULP energy -595416.855665 kJ/mol
# GULP energy per Si atom -12404.517826 kJ/mol
# Density = 1.825994 g / cm^3
# Si number density = 18.301596 Si / 1000 Ang^3
#
#
#
# Elastic Constant Matrix: (Units=GPa)
#
#
# Indices 1 2 3 4 5 6 
#
# 1 88.1294 45.2073 66.3104 0.0000 0.0000 0.0000
# 2 45.2073 64.6729 75.6126 0.0000 0.0000 0.0000
# 3 66.3104 75.6126 155.5439 0.0000 0.0000 0.0000
# 4 0.0000 0.0000 0.0000 42.1261 0.0000 0.0000
# 5 0.0000 0.0000 0.0000 0.0000 40.9569 0.0000
# 6 0.0000 0.0000 0.0000 0.0000 0.0000 27.7226
#
#
#
# Elastic Compliance Matrix: (Units=1/GPa)
#
#
# Indices 1 2 3 4 5 6 
#
# 1 0.018576 -0.008632 -0.003723 0.000000 0.000000 0.000000
# 2 -0.008632 0.039833 -0.015683 0.000000 0.000000 0.000000
# 3 -0.003723 -0.015683 0.015640 0.000000 0.000000 0.000000
# 4 0.000000 0.000000 0.000000 0.023738 0.000000 0.000000
# 5 0.000000 0.000000 0.000000 0.000000 0.024416 0.000000
# 6 0.000000 0.000000 0.000000 0.000000 0.000000 0.036072
#
#
# Mechanical properties :
#
#
# Convention : Reuss Voigt Hill
#
# Bulk Modulus (GPa) = 55.64241 75.84519 65.74380
# Shear Modulus (GPa) = 22.69191 30.24218 26.46704
#
# Velocity S-wave (km/s) = 3.52502 4.06942 3.80697
# Velocity P-wave (km/s) = 6.85833 7.97572 7.43804
#
# Compressibility (1/GPa) = 0.01797190
#
# Stress axis : x y z
#
# Youngs Moduli (GPa) = 53.83203 25.10498 63.93802
#
# Poissons Ratio (x) = 0.21671 0.23804
# Poissons Ratio (y) = 0.46470 1.00276
# Poissons Ratio (z) = 0.20042 0.39373
#
# Static dielectric constant tensor:
#      x y z
#    x 3.449020 0.000000 0.000000 
#    y 0.000000 3.339480 0.000000 
#    z 0.000000 0.000000 3.811130 
# 
# 
# High freq. dielectric constant tensor:
#      x y z
#    x 1.718450 0.000000 0.000000 
#    y 0.000000 1.704100 0.000000 
#    z 0.000000 0.000000 1.719220 
# 
# From -- ./inp_files/31243.got.cif
#   From: 2010.03.12/outbox.cif.g09.slc.cpg/sg59_16_cif.got.tgz:31243.got - 2010.04.16 16:29:54.
