data_PCOD8244152
_publ_section_title
;
Structure prediction by ZEFSAII (Michael W. Deem and Ramdas Pophale) SiO2 
 PCOD8244152
Probable space group: P M M N
;
_chemical_formula_sum "Si O2"
_cell_formula_units_Z 40
_cell_length_a 17.748596
_cell_length_b 8.857664
_cell_length_c 12.624534
_cell_angle_alpha 90.000000
_cell_angle_beta 90.000000
_cell_angle_gamma 90.000000
_cell_volume 1984.716875
_symmetry_space_group_name_H-M "P M M N"
_symmetry_group_IT_number 59
_space_group.IT_coordinate_system_code '2'
_symmetry_cell_setting 'orthorhombic'
loop_
_space_group_symop_operation_xyz
x,y,z
1/2-x,1/2-y,z
1/2+x,-y,-z
-x,1/2+y,-z
-x,-y,-z
1/2+x,1/2+y,-z
1/2-x,y,z
x,1/2-y,z
loop_
_atom_site_type_symbol
_atom_site_label
_atom_site_fract_x
_atom_site_fract_y
_atom_site_fract_z
Si Si1 0.580607 0.072343 0.482055
Si Si2 0.423258 0.074978 0.118420
Si Si3 0.902666 0.075132 0.096619
Si Si4 0.162680 0.424366 0.328050
Si Si5 0.336794 0.076209 0.707785
O O1 0.571036 0.250000 0.482600
O O2 0.500000 0.000000 0.500000
O O3 0.638903 0.023065 0.572082
O O4 0.611803 0.023326 0.368550
O O5 0.407140 0.250000 0.094786
O O6 0.511586 0.042625 0.130577
O O7 0.383726 0.021233 0.225980
O O8 0.388240 0.978379 0.023141
O O9 0.881738 0.250000 0.105740
O O10 0.848518 0.980051 0.172611
O O11 0.250000 0.451030 0.304238
O O12 0.145281 0.250000 0.354232
O O13 0.250000 0.055559 0.675800
O O14 0.361265 0.250000 0.698269
#
# Coordination Sequence:
#
# PCOD8244152 Si02
#       5
#     8   8   8   8   8
#     4  12  25  41  63  88 116 151 193 240 290 347
#     4   9  19  36  57  83 117 157 198 239 287 342
#     4  10  20  35  58  86 117 155 199 245 289 339
#     4  10  21  38  60  86 118 155 195 240 291 347
#     4  11  24  41  61  86 119 157 195 238 291 349
#
# _framework density 20.154008000000001
#
# number of rings (size 3 to 8) (size 9 to 14) (size 15 to 20)
#    0.000    1.600    0.000    4.800    0.000    8.400 
#    0.000    2.000    0.000    0.000    0.000    0.000 
#    0.000    0.000    0.000    0.000    0.000    0.000 
#
# Total GULP energy -496298.728032 kJ/mol
# GULP energy per Si atom -12407.468201 kJ/mol
# Density = 2.010814 g / cm^3
# Si number density = 20.154008 Si / 1000 Ang^3
#
#
#
# Elastic Constant Matrix: (Units=GPa)
#
#
# Indices 1 2 3 4 5 6 
#
# 1 51.8420 34.5444 19.7429 0.0000 0.0000 0.0000
# 2 34.5444 114.7036 41.1170 0.0000 0.0000 0.0000
# 3 19.7429 41.1170 96.2035 0.0000 0.0000 0.0000
# 4 0.0000 0.0000 0.0000 40.4569 0.0000 0.0000
# 5 0.0000 0.0000 0.0000 0.0000 29.3312 0.0000
# 6 0.0000 0.0000 0.0000 0.0000 0.0000 27.3438
#
#
#
# Elastic Compliance Matrix: (Units=1/GPa)
#
#
# Indices 1 2 3 4 5 6 
#
# 1 0.024526 -0.006592 -0.002216 0.000000 0.000000 0.000000
# 2 -0.006592 0.012067 -0.003805 0.000000 0.000000 0.000000
# 3 -0.002216 -0.003805 0.012475 0.000000 0.000000 0.000000
# 4 0.000000 0.000000 0.000000 0.024718 0.000000 0.000000
# 5 0.000000 0.000000 0.000000 0.000000 0.034093 0.000000
# 6 0.000000 0.000000 0.000000 0.000000 0.000000 0.036571
#
#
# Mechanical properties :
#
#
# Convention : Reuss Voigt Hill
#
# Bulk Modulus (GPa) = 41.94011 50.39530 46.16771
# Shear Modulus (GPa) = 28.14945 30.58271 29.36608
#
# Velocity S-wave (km/s) = 3.74132 3.89967 3.82132
# Velocity P-wave (km/s) = 6.28636 6.73320 6.51361
#
# Compressibility (1/GPa) = 0.02384353
#
# Stress axis : x y z
#
# Youngs Moduli (GPa) = 40.77359 82.86926 80.15734
#
# Poissons Ratio (x) = 0.54627 0.17761
# Poissons Ratio (y) = 0.26878 0.30497
# Poissons Ratio (z) = 0.09035 0.31529
#
# Static dielectric constant tensor:
#      x y z
#    x 3.632540 0.000000 0.000000 
#    y 0.000000 3.707170 0.000000 
#    z 0.000000 0.000000 3.743010 
# 
# 
# High freq. dielectric constant tensor:
#      x y z
#    x 1.787350 0.000000 0.000000 
#    y 0.000000 1.788860 0.000000 
#    z 0.000000 0.000000 1.799210 
# 
# From -- ./inp_files/13817.got.cif
#   From: 2010.03.12/outbox.cif.g09.slc.cpg/sg59_7_cif.got.tgz:13817.got - 2010.04.16 16:29:54.
