data_PCOD8244879
_publ_section_title
;
Structure prediction by ZEFSAII (Michael W. Deem and Ramdas Pophale) SiO2 
 PCOD8244879
Probable space group: P M M N
;
_chemical_formula_sum "Si O2"
_cell_formula_units_Z 48
_cell_length_a 13.892487
_cell_length_b 9.404446
_cell_length_c 20.311810
_cell_angle_alpha 90.000000
_cell_angle_beta 90.000000
_cell_angle_gamma 90.000000
_cell_volume 2653.761209
_symmetry_space_group_name_H-M "P M M N"
_symmetry_group_IT_number 59
_space_group.IT_coordinate_system_code '2'
_symmetry_cell_setting 'orthorhombic'
loop_
_space_group_symop_operation_xyz
x,y,z
1/2-x,1/2-y,z
1/2+x,-y,-z
-x,1/2+y,-z
-x,-y,-z
1/2+x,1/2+y,-z
1/2-x,y,z
x,1/2-y,z
loop_
_atom_site_type_symbol
_atom_site_label
_atom_site_fract_x
_atom_site_fract_y
_atom_site_fract_z
Si Si1 0.639274 0.083977 0.535127
Si Si2 0.859706 0.417708 0.275851
Si Si3 0.147374 0.911191 0.100575
Si Si4 0.404688 0.086175 0.987474
Si Si5 0.025847 0.915902 0.595938
Si Si6 0.053605 0.412136 0.843102
O O1 0.750000 0.033311 0.540138
O O2 0.630420 0.250000 0.551005
O O3 0.600599 0.049046 0.462311
O O4 0.574525 0.999643 0.587855
O O5 0.750000 0.466139 0.288061
O O6 0.865918 0.250000 0.266899
O O7 0.923754 0.468351 0.337311
O O8 0.899765 0.487571 0.210306
O O9 0.250000 0.914956 0.139963
O O10 0.122865 0.750000 0.077548
O O11 0.057255 0.963651 0.144508
O O12 0.169201 0.008404 0.036164
O O13 0.413767 0.250000 0.008520
O O14 0.381718 0.074806 0.909565
O O15 0.500000 0.000000 0.000000
O O16 0.000990 0.750000 0.597904
O O17 0.054254 0.250000 0.817544
#
# Coordination Sequence:
#
# PCOD8244879 Si02
#       6
#     8   8   8   8   8   8
#     4   9  17  31  53  79 105 133 165 201 243 290
#     4  10  21  36  53  72  96 130 168 203 244 294
#     4   9  18  33  52  73  98 129 164 203 250 301
#     4   9  17  30  48  70  96 125 159 202 250 295
#     4   9  18  33  52  75 104 134 165 204 245 286
#     4   9  19  34  50  71 100 131 163 202 246 292
#
# _framework density 18.087534999999999
#
# number of rings (size 3 to 8) (size 9 to 14) (size 15 to 20)
#    0.000    2.833    0.000    2.000    0.000    7.667 
#    0.000    4.167    0.000    6.000    0.000    0.000 
#    0.000    0.000    0.000    0.000    0.000    0.000 
#
# Total GULP energy -594778.266341 kJ/mol
# GULP energy per Si atom -12391.213882 kJ/mol
# Density = 1.804637 g / cm^3
# Si number density = 18.087535 Si / 1000 Ang^3
#
#
#
# Elastic Constant Matrix: (Units=GPa)
#
#
# Indices 1 2 3 4 5 6 
#
# 1 133.7135 45.6102 48.8942 0.0000 0.0000 0.0000
# 2 45.6102 62.1189 45.3394 0.0000 0.0000 0.0000
# 3 48.8942 45.3394 92.8690 0.0000 0.0000 0.0000
# 4 0.0000 0.0000 0.0000 30.3541 0.0000 0.0000
# 5 0.0000 0.0000 0.0000 0.0000 21.1384 0.0000
# 6 0.0000 0.0000 0.0000 0.0000 0.0000 26.2567
#
#
#
# Elastic Compliance Matrix: (Units=1/GPa)
#
#
# Indices 1 2 3 4 5 6 
#
# 1 0.010400 -0.005655 -0.002715 0.000000 0.000000 0.000000
# 2 -0.005655 0.028085 -0.010734 0.000000 0.000000 0.000000
# 3 -0.002715 -0.010734 0.017438 0.000000 0.000000 0.000000
# 4 0.000000 0.000000 0.000000 0.032944 0.000000 0.000000
# 5 0.000000 0.000000 0.000000 0.000000 0.047307 0.000000
# 6 0.000000 0.000000 0.000000 0.000000 0.000000 0.038086
#
#
# Mechanical properties :
#
#
# Convention : Reuss Voigt Hill
#
# Bulk Modulus (GPa) = 56.44854 63.15433 59.80143
# Shear Modulus (GPa) = 22.89669 25.47368 24.18519
#
# Velocity S-wave (km/s) = 3.56178 3.75688 3.66063
# Velocity P-wave (km/s) = 6.94200 7.33557 7.14150
#
# Compressibility (1/GPa) = 0.01771525
#
# Stress axis : x y z
#
# Youngs Moduli (GPa) = 96.15132 35.60665 57.34721
#
# Poissons Ratio (x) = 0.20135 0.15569
# Poissons Ratio (y) = 0.54371 0.61556
# Poissons Ratio (z) = 0.26104 0.38220
#
# Static dielectric constant tensor:
#      x y z
#    x 3.452920 0.000000 0.000000 
#    y 0.000000 3.572560 0.000000 
#    z 0.000000 0.000000 3.124840 
# 
# 
# High freq. dielectric constant tensor:
#      x y z
#    x 1.709780 0.000000 0.000000 
#    y 0.000000 1.698170 0.000000 
#    z 0.000000 0.000000 1.676800 
# 
# From -- ./inp_files/28837.got.cif
#   From: 2010.03.12/outbox.cif.g09.slc.cpg/sg59_15_cif.got.tgz:28837.got - 2010.04.16 16:29:54.
