data_PCOD8244793
_publ_section_title
;
Structure prediction by ZEFSAII (Michael W. Deem and Ramdas Pophale) SiO2 
 PCOD8244793
Probable space group: P M M N
;
_chemical_formula_sum "Si O2"
_cell_formula_units_Z 48
_cell_length_a 14.599522
_cell_length_b 9.012442
_cell_length_c 19.686683
_cell_angle_alpha 90.000000
_cell_angle_beta 90.000000
_cell_angle_gamma 90.000000
_cell_volume 2590.321486
_symmetry_space_group_name_H-M "P M M N"
_symmetry_group_IT_number 59
_space_group.IT_coordinate_system_code '2'
_symmetry_cell_setting 'orthorhombic'
loop_
_space_group_symop_operation_xyz
x,y,z
1/2-x,1/2-y,z
1/2+x,-y,-z
-x,1/2+y,-z
-x,-y,-z
1/2+x,1/2+y,-z
1/2-x,y,z
x,1/2-y,z
loop_
_atom_site_type_symbol
_atom_site_label
_atom_site_fract_x
_atom_site_fract_y
_atom_site_fract_z
Si Si1 0.647141 0.076737 0.420702
Si Si2 0.940243 0.422254 0.812923
Si Si3 0.750000 0.072277 0.026554
Si Si4 0.562084 0.924616 0.056922
Si Si5 0.854835 0.923942 0.556833
Si Si6 0.513550 0.576309 0.674425
Si Si7 0.250000 0.926278 0.129168
O O1 0.750000 0.022708 0.404275
O O2 0.642733 0.250000 0.435972
O O3 0.585892 0.035634 0.355774
O O4 0.608235 0.998051 0.487953
O O5 0.929067 0.250000 0.797783
O O6 0.976659 0.498575 0.745878
O O7 0.840919 0.488747 0.834023
O O8 0.013563 0.452015 0.871443
O O9 0.750000 0.250000 0.034855
O O10 0.660490 0.003382 0.061801
O O11 0.750000 0.020348 0.948483
O O12 0.572306 0.750000 0.040976
O O13 0.500000 0.000000 0.000000
O O14 0.750000 0.968315 0.569613
O O15 0.869383 0.750000 0.548109
O O16 0.910728 0.983445 0.621501
O O17 0.525507 0.750000 0.686276
O O18 0.250000 0.750000 0.129347
#
# Coordination Sequence:
#
# PCOD8244793 Si02
#       7
#     8   8   4   8   8   8   4
#     4   9  18  34  54  75 102 137 181 229 272 320
#     4  10  22  39  58  81 115 150 184 229 278 337
#     4  11  21  39  65  89 117 152 191 242 295 341
#     4  11  22  39  62  89 119 152 195 242 288 344
#     4   9  18  32  51  77 107 136 173 224 276 325
#     4  10  21  35  52  77 110 144 180 224 274 331
#     4   9  18  37  59  83 113 146 179 222 281 335
#
# _framework density 18.530518000000001
#
# number of rings (size 3 to 8) (size 9 to 14) (size 15 to 20)
#    0.000    2.167    1.667    1.250    1.167    2.667 
#    1.500    0.000    0.000    0.000    0.000    0.000 
#    0.000    0.000    0.000    0.000    0.000    0.000 
#
# Total GULP energy -595249.302529 kJ/mol
# GULP energy per Si atom -12401.027136 kJ/mol
# Density = 1.848834 g / cm^3
# Si number density = 18.530518 Si / 1000 Ang^3
#
#
#
# Elastic Constant Matrix: (Units=GPa)
#
#
# Indices 1 2 3 4 5 6 
#
# 1 140.3307 52.2325 73.3274 0.0000 0.0000 0.0000
# 2 52.2325 61.8109 57.9799 0.0000 0.0000 0.0000
# 3 73.3274 57.9799 145.2697 0.0000 0.0000 0.0000
# 4 0.0000 0.0000 0.0000 34.9417 0.0000 0.0000
# 5 0.0000 0.0000 0.0000 0.0000 26.1988 0.0000
# 6 0.0000 0.0000 0.0000 0.0000 0.0000 25.5746
#
#
#
# Elastic Compliance Matrix: (Units=1/GPa)
#
#
# Indices 1 2 3 4 5 6 
#
# 1 0.011151 -0.006623 -0.002985 0.000000 0.000000 0.000000
# 2 -0.006623 0.029793 -0.008548 0.000000 0.000000 0.000000
# 3 -0.002985 -0.008548 0.011802 0.000000 0.000000 0.000000
# 4 0.000000 0.000000 0.000000 0.028619 0.000000 0.000000
# 5 0.000000 0.000000 0.000000 0.000000 0.038170 0.000000
# 6 0.000000 0.000000 0.000000 0.000000 0.000000 0.039101
#
#
# Mechanical properties :
#
#
# Convention : Reuss Voigt Hill
#
# Bulk Modulus (GPa) = 60.84890 79.38787 70.11839
# Shear Modulus (GPa) = 24.94675 28.26779 26.60727
#
# Velocity S-wave (km/s) = 3.67311 3.90997 3.79339
# Velocity P-wave (km/s) = 7.13424 7.95729 7.55698
#
# Compressibility (1/GPa) = 0.01643415
#
# Stress axis : x y z
#
# Youngs Moduli (GPa) = 89.67786 33.56490 84.72843
#
# Poissons Ratio (x) = 0.22229 0.25295
# Poissons Ratio (y) = 0.59390 0.72427
# Poissons Ratio (z) = 0.26773 0.28692
#
# Static dielectric constant tensor:
#      x y z
#    x 3.778680 0.000000 0.000000 
#    y 0.000000 3.212160 0.000000 
#    z 0.000000 0.000000 3.375720 
# 
# 
# High freq. dielectric constant tensor:
#      x y z
#    x 1.735470 0.000000 0.000000 
#    y 0.000000 1.707520 0.000000 
#    z 0.000000 0.000000 1.714600 
# 
# From -- ./inp_files/25570.got.cif
#   From: 2010.03.12/outbox.cif.g09.slc.cpg/sg59_13_cif.got.tgz:25570.got - 2010.04.16 16:29:54.
