data_PCOD8244462
_publ_section_title
;
Structure prediction by ZEFSAII (Michael W. Deem and Ramdas Pophale) SiO2 
 PCOD8244462
Probable space group: P M M N
;
_chemical_formula_sum "Si O2"
_cell_formula_units_Z 64
_cell_length_a 8.815913
_cell_length_b 31.530775
_cell_length_c 11.524408
_cell_angle_alpha 90.000000
_cell_angle_beta 90.000000
_cell_angle_gamma 90.000000
_cell_volume 3203.469301
_symmetry_space_group_name_H-M "P M M N"
_symmetry_group_IT_number 59
_space_group.IT_coordinate_system_code '2'
_symmetry_cell_setting 'orthorhombic'
loop_
_space_group_symop_operation_xyz
x,y,z
1/2-x,1/2-y,z
1/2+x,-y,-z
-x,1/2+y,-z
-x,-y,-z
1/2+x,1/2+y,-z
1/2-x,y,z
x,1/2-y,z
loop_
_atom_site_type_symbol
_atom_site_label
_atom_site_fract_x
_atom_site_fract_y
_atom_site_fract_z
Si Si1 0.921986 0.133360 0.711931
Si Si2 0.931664 0.798642 0.916901
Si Si3 0.429412 0.203190 0.581448
Si Si4 0.929094 0.962358 0.923875
Si Si5 0.075871 0.521648 0.681501
Si Si6 0.085031 0.199945 0.334888
Si Si7 0.923185 0.054501 0.560987
Si Si8 0.072626 0.620840 0.028824
O O1 0.750000 0.149179 0.710419
O O2 0.955661 0.100857 0.608957
O O3 0.025015 0.174019 0.688713
O O4 0.959622 0.112403 0.835531
O O5 0.750000 0.803019 0.920707
O O6 0.977029 0.750000 0.950209
O O7 0.996883 0.810589 0.787518
O O8 0.008779 0.832267 0.002212
O O9 0.250000 0.203897 0.568545
O O10 0.491431 0.250000 0.610170
O O11 0.498221 0.186703 0.456044
O O12 0.750000 0.964268 0.940503
O O13 0.968489 0.968204 0.789157
O O14 0.987991 0.916189 0.960338
O O15 0.000000 0.000000 0.000000
O O16 0.250000 0.521996 0.723668
O O17 0.047185 0.555457 0.577711
O O18 0.038052 0.476053 0.627754
O O19 0.250000 0.177766 0.330492
O O20 0.108044 0.250000 0.340986
O O21 0.750000 0.040034 0.586707
O O22 0.250000 0.618852 0.998470
#
# Coordination Sequence:
#
# PCOD8244462 Si02
#       8
#     8   8   8   8   8   8   8   8
#     4  10  22  38  54  74 106 147 184 226 278 325
#     4   9  18  35  59  84 113 151 193 238 288 342
#     4   9  18  33  54  79 105 135 176 226 276 330
#     4  12  25  42  64  88 117 152 191 236 288 345
#     4  10  20  36  61  91 119 148 184 228 280 337
#     4   7  12  27  51  77 104 135 174 223 279 333
#     4   9  19  37  59  84 116 151 189 232 277 330
#     4  11  24  40  57  81 115 153 195 240 286 340
#
# _framework density 19.978341
#
# number of rings (size 3 to 8) (size 9 to 14) (size 15 to 20)
#    0.000    2.375    0.000    4.125    0.000    5.000 
#    0.000    5.625    0.000    2.250    0.000    0.000 
#    0.000    0.000    0.000    0.000    0.000    0.000 
#
# Total GULP energy -793129.345607 kJ/mol
# GULP energy per Si atom -12392.646025 kJ/mol
# Density = 1.993287 g / cm^3
# Si number density = 19.978341 Si / 1000 Ang^3
#
#
#
# Elastic Constant Matrix: (Units=GPa)
#
#
# Indices 1 2 3 4 5 6 
#
# 1 78.4083 41.7663 41.1662 0.0000 0.0000 0.0000
# 2 41.7663 95.1242 49.3700 0.0000 0.0000 0.0000
# 3 41.1662 49.3700 108.7132 0.0000 0.0000 0.0000
# 4 0.0000 0.0000 0.0000 27.9832 0.0000 0.0000
# 5 0.0000 0.0000 0.0000 0.0000 27.6566 0.0000
# 6 0.0000 0.0000 0.0000 0.0000 0.0000 30.0307
#
#
#
# Elastic Compliance Matrix: (Units=1/GPa)
#
#
# Indices 1 2 3 4 5 6 
#
# 1 0.018018 -0.005718 -0.004226 0.000000 0.000000 0.000000
# 2 -0.005718 0.015569 -0.004905 0.000000 0.000000 0.000000
# 3 -0.004226 -0.004905 0.013026 0.000000 0.000000 0.000000
# 4 0.000000 0.000000 0.000000 0.035736 0.000000 0.000000
# 5 0.000000 0.000000 0.000000 0.000000 0.036158 0.000000
# 6 0.000000 0.000000 0.000000 0.000000 0.000000 0.033299
#
#
# Mechanical properties :
#
#
# Convention : Reuss Voigt Hill
#
# Bulk Modulus (GPa) = 59.11877 60.76120 59.93999
# Shear Modulus (GPa) = 26.71744 27.13032 26.92388
#
# Velocity S-wave (km/s) = 3.66091 3.68908 3.67502
# Velocity P-wave (km/s) = 6.89386 6.97319 6.93364
#
# Compressibility (1/GPa) = 0.01691510
#
# Stress axis : x y z
#
# Youngs Moduli (GPa) = 55.49857 64.23048 76.76669
#
# Poissons Ratio (x) = 0.36726 0.32444
# Poissons Ratio (y) = 0.31734 0.37655
# Poissons Ratio (z) = 0.23456 0.31506
#
# Static dielectric constant tensor:
#      x y z
#    x 3.436220 0.000000 0.000000 
#    y 0.000000 3.445450 0.000000 
#    z 0.000000 0.000000 3.995470 
# 
# 
# High freq. dielectric constant tensor:
#      x y z
#    x 1.759760 0.000000 0.000000 
#    y 0.000000 1.767250 0.000000 
#    z 0.000000 0.000000 1.794290 
# 
# From -- ./inp_files/14890.got.cif
#   From: 2010.03.12/outbox.cif.g09.slc.cpg/sg59_8_cif.got.tgz:14890.got - 2010.04.16 16:29:54.
