data_PCOD8244993
_publ_section_title
;
Structure prediction by ZEFSAII (Michael W. Deem and Ramdas Pophale) SiO2 
 PCOD8244993
Probable space group: P M M N
;
_chemical_formula_sum "Si O2"
_cell_formula_units_Z 64
_cell_length_a 9.166578
_cell_length_b 14.548208
_cell_length_c 25.941037
_cell_angle_alpha 90.000000
_cell_angle_beta 90.000000
_cell_angle_gamma 90.000000
_cell_volume 3459.426223
_symmetry_space_group_name_H-M "P M M N"
_symmetry_group_IT_number 59
_space_group.IT_coordinate_system_code '2'
_symmetry_cell_setting 'orthorhombic'
loop_
_space_group_symop_operation_xyz
x,y,z
1/2-x,1/2-y,z
1/2+x,-y,-z
-x,1/2+y,-z
-x,-y,-z
1/2+x,1/2+y,-z
1/2-x,y,z
x,1/2-y,z
loop_
_atom_site_type_symbol
_atom_site_label
_atom_site_fract_x
_atom_site_fract_y
_atom_site_fract_z
Si Si1 0.081813 0.855085 0.135855
Si Si2 0.582906 0.356424 0.241005
Si Si3 0.919878 0.007550 0.575305
Si Si4 0.080999 0.357217 0.762005
Si Si5 0.920358 0.505216 0.946117
Si Si6 0.414946 0.642765 0.877021
Si Si7 0.421658 0.355233 0.505487
Si Si8 0.078732 0.997479 0.306112
O O1 0.250000 0.868155 0.151655
O O2 0.045454 0.750000 0.122129
O O3 0.985408 0.890093 0.183631
O O4 0.041337 0.913402 0.085644
O O5 0.750000 0.384420 0.252296
O O6 0.558065 0.250000 0.252907
O O7 0.543890 0.379143 0.181949
O O8 0.474472 0.411627 0.277310
O O9 0.750000 0.028106 0.568212
O O10 0.964980 0.914401 0.545065
O O11 0.962804 0.991810 0.634286
O O12 0.004075 0.097233 0.554778
O O13 0.250000 0.383733 0.762172
O O14 0.053941 0.250000 0.753497
O O15 0.001747 0.407834 0.715338
O O16 0.750000 0.514888 0.956445
O O17 0.972689 0.593050 0.914327
O O18 0.000000 0.500000 0.000000
O O19 0.250000 0.609777 0.888583
O O20 0.428951 0.750000 0.888120
O O21 0.250000 0.356381 0.514882
O O22 0.477246 0.250000 0.498908
O O23 0.250000 0.985721 0.297648
#
# Coordination Sequence:
#
# PCOD8244993 Si02
#       8
#     8   8   8   8   8   8   8   8
#     4   9  19  37  58  78 103 136 174 216 262 314
#     4   9  19  36  57  81 109 142 178 215 259 311
#     4   9  20  36  52  76 108 139 174 215 261 312
#     4  10  21  36  55  79 106 139 178 218 263 315
#     4  11  23  36  53  79 107 137 174 215 262 314
#     4   9  19  37  58  77 102 138 175 214 263 313
#     4   9  18  35  58  78  99 133 176 221 266 310
#     4  11  22  34  52  79 112 147 177 213 261 311
#
# _framework density 18.500177999999998
#
# number of rings (size 3 to 8) (size 9 to 14) (size 15 to 20)
#    0.000    2.375    0.000    2.625    0.000    7.500 
#    0.000    6.250    0.000    0.000    0.000    0.000 
#    0.000    0.000    0.000    0.000    0.000    0.000 
#
# Total GULP energy -793773.526765 kJ/mol
# GULP energy per Si atom -12402.711356 kJ/mol
# Density = 1.845807 g / cm^3
# Si number density = 18.500178 Si / 1000 Ang^3
#
#
#
# Elastic Constant Matrix: (Units=GPa)
#
#
# Indices 1 2 3 4 5 6 
#
# 1 81.6283 49.8326 66.0151 0.0000 0.0000 0.0000
# 2 49.8326 111.4409 65.8824 0.0000 0.0000 0.0000
# 3 66.0151 65.8824 135.1117 0.0000 0.0000 0.0000
# 4 0.0000 0.0000 0.0000 5.3930 0.0000 0.0000
# 5 0.0000 0.0000 0.0000 0.0000 32.2602 0.0000
# 6 0.0000 0.0000 0.0000 0.0000 0.0000 33.4756
#
#
#
# Elastic Compliance Matrix: (Units=1/GPa)
#
#
# Indices 1 2 3 4 5 6 
#
# 1 0.022003 -0.004894 -0.008364 0.000000 0.000000 0.000000
# 2 -0.004894 0.013696 -0.004287 0.000000 0.000000 0.000000
# 3 -0.008364 -0.004287 0.013578 0.000000 0.000000 0.000000
# 4 0.000000 0.000000 0.000000 0.185426 0.000000 0.000000
# 5 0.000000 0.000000 0.000000 0.000000 0.030998 0.000000
# 6 0.000000 0.000000 0.000000 0.000000 0.000000 0.029873
#
#
# Mechanical properties :
#
#
# Convention : Reuss Voigt Hill
#
# Bulk Modulus (GPa) = 70.48873 76.84901 73.66887
# Shear Modulus (GPa) = 14.90783 23.98913 19.44848
#
# Velocity S-wave (km/s) = 2.84178 3.60488 3.24583
# Velocity P-wave (km/s) = 6.99657 7.67832 7.34536
#
# Compressibility (1/GPa) = 0.01418667
#
# Stress axis : x y z
#
# Youngs Moduli (GPa) = 45.44920 73.01138 73.64627
#
# Poissons Ratio (x) = 0.35733 0.61597
# Poissons Ratio (y) = 0.22244 0.31575
# Poissons Ratio (z) = 0.38013 0.31302
#
# Static dielectric constant tensor:
#      x y z
#    x 3.462350 0.000000 0.000000 
#    y 0.000000 3.491670 0.000000 
#    z 0.000000 0.000000 3.388290 
# 
# 
# High freq. dielectric constant tensor:
#      x y z
#    x 1.719410 0.000000 0.000000 
#    y 0.000000 1.726470 0.000000 
#    z 0.000000 0.000000 1.714640 
# 
# From -- ./inp_files/31689.got.cif
#   From: 2010.03.12/outbox.cif.g09.slc.cpg/sg59_16_cif.got.tgz:31689.got - 2010.04.16 16:29:54.
