data_PCOD8244556
_publ_section_title
;
Structure prediction by ZEFSAII (Michael W. Deem and Ramdas Pophale) SiO2 
 PCOD8244556
Probable space group: P M M N
;
_chemical_formula_sum "Si O2"
_cell_formula_units_Z 40
_cell_length_a 8.959523
_cell_length_b 14.946219
_cell_length_c 14.610477
_cell_angle_alpha 90.000000
_cell_angle_beta 90.000000
_cell_angle_gamma 90.000000
_cell_volume 1956.503482
_symmetry_space_group_name_H-M "P M M N"
_symmetry_group_IT_number 59
_space_group.IT_coordinate_system_code '2'
_symmetry_cell_setting 'orthorhombic'
loop_
_space_group_symop_operation_xyz
x,y,z
1/2-x,1/2-y,z
1/2+x,-y,-z
-x,1/2+y,-z
-x,-y,-z
1/2+x,1/2+y,-z
1/2-x,y,z
x,1/2-y,z
loop_
_atom_site_type_symbol
_atom_site_label
_atom_site_fract_x
_atom_site_fract_y
_atom_site_fract_z
Si Si1 0.073808 0.250000 0.097095
Si Si2 0.584721 0.895366 0.409869
Si Si3 0.423007 0.589357 0.228654
Si Si4 0.427771 0.598414 0.785894
Si Si5 0.919716 0.250000 0.908334
Si Si6 0.914743 0.107629 0.416463
O O1 0.250000 0.250000 0.112185
O O2 0.003402 0.338690 0.140007
O O3 0.036942 0.250000 0.990201
O O4 0.750000 0.855973 0.394196
O O5 0.481704 0.869243 0.324151
O O6 0.520340 0.853218 0.504020
O O7 0.591035 0.001162 0.420303
O O8 0.250000 0.564409 0.241031
O O9 0.513971 0.501825 0.199023
O O10 0.449037 0.662081 0.150910
O O11 0.250000 0.598215 0.798357
O O12 0.472063 0.635053 0.684679
O O13 0.750000 0.250000 0.945843
O O14 0.750000 0.147096 0.432994
#
# Coordination Sequence:
#
# PCOD8244556 Si02
#       6
#     4   8   8   8   4   8
#     4  12  26  42  63  88 113 146 189 240 294 348
#     4   9  16  27  48  80 116 152 188 231 282 333
#     4  10  20  37  61  87 116 152 195 239 285 342
#     4  10  21  39  62  87 118 154 191 236 288 341
#     4  10  24  44  63  84 113 150 191 240 294 344
#     4   8  15  28  49  78 111 150 190 227 274 332
#
# _framework density 20.444635999999999
#
# number of rings (size 3 to 8) (size 9 to 14) (size 15 to 20)
#    0.000    2.400    0.000    3.900    0.000    8.000 
#    0.000    1.000    0.000    2.400    0.000    0.000 
#    0.000    0.000    0.000    0.000    0.000    0.000 
#
# Total GULP energy -495951.598049 kJ/mol
# GULP energy per Si atom -12398.789951 kJ/mol
# Density = 2.039810 g / cm^3
# Si number density = 20.444636 Si / 1000 Ang^3
#
#
#
# Elastic Constant Matrix: (Units=GPa)
#
#
# Indices 1 2 3 4 5 6 
#
# 1 144.1968 46.0327 76.1404 0.0000 0.0000 0.0000
# 2 46.0327 75.5771 45.5913 0.0000 0.0000 0.0000
# 3 76.1404 45.5913 139.8983 0.0000 0.0000 0.0000
# 4 0.0000 0.0000 0.0000 61.7017 0.0000 0.0000
# 5 0.0000 0.0000 0.0000 0.0000 39.6554 0.0000
# 6 0.0000 0.0000 0.0000 0.0000 0.0000 7.1020
#
#
#
# Elastic Compliance Matrix: (Units=1/GPa)
#
#
# Indices 1 2 3 4 5 6 
#
# 1 0.010489 -0.003665 -0.004514 0.000000 0.000000 0.000000
# 2 -0.003665 0.017750 -0.003790 0.000000 0.000000 0.000000
# 3 -0.004514 -0.003790 0.010840 0.000000 0.000000 0.000000
# 4 0.000000 0.000000 0.000000 0.016207 0.000000 0.000000
# 5 0.000000 0.000000 0.000000 0.000000 0.025217 0.000000
# 6 0.000000 0.000000 0.000000 0.000000 0.000000 0.140805
#
#
# Mechanical properties :
#
#
# Convention : Reuss Voigt Hill
#
# Bulk Modulus (GPa) = 66.04805 77.24456 71.64631
# Shear Modulus (GPa) = 19.97661 34.48568 27.23114
#
# Velocity S-wave (km/s) = 3.12926 4.11150 3.65354
# Velocity P-wave (km/s) = 6.74035 7.77198 7.27447
#
# Compressibility (1/GPa) = 0.01514049
#
# Stress axis : x y z
#
# Youngs Moduli (GPa) = 95.34155 56.33757 92.25264
#
# Poissons Ratio (x) = 0.20650 0.41642
# Poissons Ratio (y) = 0.34947 0.34961
# Poissons Ratio (z) = 0.43037 0.21350
#
# Static dielectric constant tensor:
#      x y z
#    x 3.910830 0.000000 0.000000 
#    y 0.000000 3.413150 0.000000 
#    z 0.000000 0.000000 3.840110 
# 
# 
# High freq. dielectric constant tensor:
#      x y z
#    x 1.805930 0.000000 0.000000 
#    y 0.000000 1.783060 0.000000 
#    z 0.000000 0.000000 1.801500 
# 
# From -- ./inp_files/19990.got.cif
#   From: 2010.03.12/outbox.cif.g09.slc.cpg/sg59_10_cif.got.tgz:19990.got - 2010.04.16 16:29:54.
