data_PCOD8244757
_publ_section_title
;
Structure prediction by ZEFSAII (Michael W. Deem and Ramdas Pophale) SiO2 
 PCOD8244757
Probable space group: P M M N
;
_chemical_formula_sum "Si O2"
_cell_formula_units_Z 48
_cell_length_a 13.127383
_cell_length_b 10.424393
_cell_length_c 17.888729
_cell_angle_alpha 90.000000
_cell_angle_beta 90.000000
_cell_angle_gamma 90.000000
_cell_volume 2447.983110
_symmetry_space_group_name_H-M "P M M N"
_symmetry_group_IT_number 59
_space_group.IT_coordinate_system_code '2'
_symmetry_cell_setting 'orthorhombic'
loop_
_space_group_symop_operation_xyz
x,y,z
1/2-x,1/2-y,z
1/2+x,-y,-z
-x,1/2+y,-z
-x,-y,-z
1/2+x,1/2+y,-z
1/2-x,y,z
x,1/2-y,z
loop_
_atom_site_type_symbol
_atom_site_label
_atom_site_fract_x
_atom_site_fract_y
_atom_site_fract_z
Si Si1 0.135055 0.018216 0.086429
Si Si2 0.424347 0.613453 0.946122
Si Si3 0.637069 0.894067 0.482854
Si Si4 0.138379 0.106323 0.838543
Si Si5 0.433368 0.601295 0.402832
Si Si6 0.567265 0.396774 0.766045
O O1 0.250000 0.070109 0.071541
O O2 0.047074 0.120379 0.065906
O O3 0.129149 0.979435 0.173719
O O4 0.106757 0.896897 0.033506
O O5 0.381674 0.750000 0.916793
O O6 0.373029 0.493949 0.905466
O O7 0.750000 0.905902 0.447435
O O8 0.622014 0.750000 0.517164
O O9 0.554116 0.916570 0.417980
O O10 0.628641 0.003069 0.546029
O O11 0.250000 0.089110 0.801900
O O12 0.126252 0.250000 0.872123
O O13 0.054041 0.081823 0.775608
O O14 0.401341 0.750000 0.418006
O O15 0.407119 0.560768 0.318122
O O16 0.598490 0.250000 0.777924
#
# Coordination Sequence:
#
# PCOD8244757 Si02
#       6
#     8   8   8   8   8   8
#     4  10  21  35  51  73 103 137 170 208 257 305
#     4  10  21  36  54  76 101 132 174 219 257 298
#     4   9  18  33  53  76 102 133 166 201 247 301
#     4   9  18  33  53  76 103 135 170 212 261 306
#     4   9  18  33  53  77 104 132 166 209 249 292
#     4   9  18  32  50  75 105 134 167 208 253 301
#
# _framework density 19.607977999999999
#
# number of rings (size 3 to 8) (size 9 to 14) (size 15 to 20)
#    0.000    2.667    0.000    1.000    0.000    8.333 
#    0.000    8.333    0.000    0.000    0.000    7.000 
#    0.000    0.000    0.000    0.000    0.000    0.000 
#
# Total GULP energy -594655.671167 kJ/mol
# GULP energy per Si atom -12388.659816 kJ/mol
# Density = 1.956335 g / cm^3
# Si number density = 19.607978 Si / 1000 Ang^3
#
#
#
# Elastic Constant Matrix: (Units=GPa)
#
#
# Indices 1 2 3 4 5 6 
#
# 1 89.9721 2.8541 -0.3479 0.0000 0.0000 0.0000
# 2 2.8541 81.8049 19.7895 0.0000 0.0000 0.0000
# 3 -0.3479 19.7895 80.5286 0.0000 0.0000 0.0000
# 4 0.0000 0.0000 0.0000 11.7177 0.0000 0.0000
# 5 0.0000 0.0000 0.0000 0.0000 13.1910 0.0000
# 6 0.0000 0.0000 0.0000 0.0000 0.0000 12.5147
#
#
#
# Elastic Compliance Matrix: (Units=1/GPa)
#
#
# Indices 1 2 3 4 5 6 
#
# 1 0.011129 -0.000425 0.000153 0.000000 0.000000 0.000000
# 2 -0.000425 0.013013 -0.003200 0.000000 0.000000 0.000000
# 3 0.000153 -0.003200 0.013205 0.000000 0.000000 0.000000
# 4 0.000000 0.000000 0.000000 0.085341 0.000000 0.000000
# 5 0.000000 0.000000 0.000000 0.000000 0.075809 0.000000
# 6 0.000000 0.000000 0.000000 0.000000 0.000000 0.079906
#
#
# Mechanical properties :
#
#
# Convention : Reuss Voigt Hill
#
# Bulk Modulus (GPa) = 32.89261 32.98854 32.94058
# Shear Modulus (GPa) = 16.92152 22.81867 19.87009
#
# Velocity S-wave (km/s) = 2.94086 3.41507 3.18680
# Velocity P-wave (km/s) = 5.32382 5.69305 5.51153
#
# Compressibility (1/GPa) = 0.03040196
#
# Stress axis : x y z
#
# Youngs Moduli (GPa) = 89.85826 76.84572 75.72933
#
# Poissons Ratio (x) = 0.03267 -0.01155
# Poissons Ratio (y) = 0.03821 0.24231
# Poissons Ratio (z) = -0.01371 0.24589
#
# Static dielectric constant tensor:
#      x y z
#    x 3.712850 0.000000 0.000000 
#    y 0.000000 3.471730 0.000000 
#    z 0.000000 0.000000 3.329420 
# 
# 
# High freq. dielectric constant tensor:
#      x y z
#    x 1.774290 0.000000 0.000000 
#    y 0.000000 1.750670 0.000000 
#    z 0.000000 0.000000 1.734860 
# 
# From -- ./inp_files/27389.got.cif
#   From: 2010.03.12/outbox.cif.g09.slc.cpg/sg59_14_cif.got.tgz:27389.got - 2010.04.16 16:29:54.
