data_PCOD8244361
_publ_section_title
;
Structure prediction by ZEFSAII (Michael W. Deem and Ramdas Pophale) SiO2 
 PCOD8244361
Probable space group: P M M N
;
_chemical_formula_sum "Si O2"
_cell_formula_units_Z 64
_cell_length_a 22.946330
_cell_length_b 8.929025
_cell_length_c 15.916459
_cell_angle_alpha 90.000000
_cell_angle_beta 90.000000
_cell_angle_gamma 90.000000
_cell_volume 3261.097090
_symmetry_space_group_name_H-M "P M M N"
_symmetry_group_IT_number 59
_space_group.IT_coordinate_system_code '2'
_symmetry_cell_setting 'orthorhombic'
loop_
_space_group_symop_operation_xyz
x,y,z
1/2-x,1/2-y,z
1/2+x,-y,-z
-x,1/2+y,-z
-x,-y,-z
1/2+x,1/2+y,-z
1/2-x,y,z
x,1/2-y,z
loop_
_atom_site_type_symbol
_atom_site_label
_atom_site_fract_x
_atom_site_fract_y
_atom_site_fract_z
Si Si1 0.683049 0.082302 0.997392
Si Si2 0.535927 0.920106 0.615764
Si Si3 0.182952 0.571744 0.671563
Si Si4 0.410404 0.921142 0.536015
Si Si5 0.816165 0.576725 0.825575
Si Si6 0.001993 0.073095 0.091223
Si Si7 0.422734 0.925286 0.224324
Si Si8 0.120814 0.573301 0.838745
O O1 0.750000 0.094186 0.020928
O O2 0.658836 0.250000 0.976025
O O3 0.652094 0.010230 0.078235
O O4 0.671712 0.971723 0.920885
O O5 0.552312 0.750000 0.638516
O O6 0.468977 0.933000 0.589960
O O7 0.581659 0.975329 0.545397
O O8 0.539851 0.024318 0.696524
O O9 0.250000 0.512529 0.665123
O O10 0.182761 0.750000 0.676024
O O11 0.144945 0.520934 0.590449
O O12 0.150656 0.505026 0.754638
O O13 0.400523 0.750000 0.506807
O O14 0.750000 0.543241 0.799560
O O15 0.831896 0.750000 0.815955
O O16 0.855834 0.478037 0.762947
O O17 0.007502 0.250000 0.079871
O O18 0.946930 0.030569 0.150675
O O19 0.057359 0.007147 0.139131
O O20 0.000000 0.000000 0.000000
O O21 0.428076 0.750000 0.212849
O O22 0.129527 0.750000 0.835300
#
# Coordination Sequence:
#
# PCOD8244361 Si02
#       8
#     8   8   8   8   8   8   8   8
#     4   9  16  28  49  76 105 139 182 227 267 313
#     4  10  20  36  59  83 108 140 178 224 276 330
#     4   9  16  28  50  80 112 144 179 222 272 327
#     4   9  18  34  56  83 111 139 176 222 274 333
#     4  10  21  37  56  77 103 136 174 219 273 328
#     4  11  22  36  54  79 114 153 192 236 285 334
#     4  12  24  38  57  81 109 141 181 226 273 328
#     4   9  17  29  47  74 108 145 184 225 269 319
#
# _framework density 19.625298000000001
#
# number of rings (size 3 to 8) (size 9 to 14) (size 15 to 20)
#    0.000    2.125    0.000    4.125    0.000    5.750 
#    0.000    1.250    0.000    3.375    0.000    0.000 
#    0.000    0.000    0.000    0.000    0.000    0.000 
#
# Total GULP energy -793498.828627 kJ/mol
# GULP energy per Si atom -12398.419197 kJ/mol
# Density = 1.958063 g / cm^3
# Si number density = 19.625298 Si / 1000 Ang^3
#
#
#
# Elastic Constant Matrix: (Units=GPa)
#
#
# Indices 1 2 3 4 5 6 
#
# 1 94.6912 42.5868 37.0315 0.0000 0.0000 0.0000
# 2 42.5868 81.5467 37.7427 0.0000 0.0000 0.0000
# 3 37.0315 37.7427 74.9538 0.0000 0.0000 0.0000
# 4 0.0000 0.0000 0.0000 29.4463 0.0000 0.0000
# 5 0.0000 0.0000 0.0000 0.0000 34.2532 0.0000
# 6 0.0000 0.0000 0.0000 0.0000 0.0000 22.8405
#
#
#
# Elastic Compliance Matrix: (Units=1/GPa)
#
#
# Indices 1 2 3 4 5 6 
#
# 1 0.014874 -0.005693 -0.004482 0.000000 0.000000 0.000000
# 2 -0.005693 0.018169 -0.006336 0.000000 0.000000 0.000000
# 3 -0.004482 -0.006336 0.018746 0.000000 0.000000 0.000000
# 4 0.000000 0.000000 0.000000 0.033960 0.000000 0.000000
# 5 0.000000 0.000000 0.000000 0.000000 0.029194 0.000000
# 6 0.000000 0.000000 0.000000 0.000000 0.000000 0.043782
#
#
# Mechanical properties :
#
#
# Convention : Reuss Voigt Hill
#
# Bulk Modulus (GPa) = 53.28562 53.99041 53.63802
# Shear Modulus (GPa) = 25.25217 26.23004 25.74111
#
# Velocity S-wave (km/s) = 3.59097 3.65984 3.62557
# Velocity P-wave (km/s) = 6.66362 6.74015 6.70200
#
# Compressibility (1/GPa) = 0.01876679
#
# Stress axis : x y z
#
# Youngs Moduli (GPa) = 67.23177 55.03965 53.34428
#
# Poissons Ratio (x) = 0.31337 0.23907
# Poissons Ratio (y) = 0.38278 0.33798
# Poissons Ratio (z) = 0.30131 0.34872
#
# Static dielectric constant tensor:
#      x y z
#    x 3.821870 0.000000 0.000000 
#    y 0.000000 3.361830 0.000000 
#    z 0.000000 0.000000 3.534480 
# 
# 
# High freq. dielectric constant tensor:
#      x y z
#    x 1.773560 0.000000 0.000000 
#    y 0.000000 1.738080 0.000000 
#    z 0.000000 0.000000 1.758440 
# 
# From -- ./inp_files/24769.got.cif
#   From: 2010.03.12/outbox.cif.g09.slc.cpg/sg59_13_cif.got.tgz:24769.got - 2010.04.16 16:29:54.
