data_PCOD8244765
_publ_section_title
;
Structure prediction by ZEFSAII (Michael W. Deem and Ramdas Pophale) SiO2 
 PCOD8244765
Probable space group: P M M N
;
_chemical_formula_sum "Si O2"
_cell_formula_units_Z 48
_cell_length_a 9.224016
_cell_length_b 9.671906
_cell_length_c 30.253707
_cell_angle_alpha 90.000000
_cell_angle_beta 90.000000
_cell_angle_gamma 90.000000
_cell_volume 2699.048640
_symmetry_space_group_name_H-M "P M M N"
_symmetry_group_IT_number 59
_space_group.IT_coordinate_system_code '2'
_symmetry_cell_setting 'orthorhombic'
loop_
_space_group_symop_operation_xyz
x,y,z
1/2-x,1/2-y,z
1/2+x,-y,-z
-x,1/2+y,-z
-x,-y,-z
1/2+x,1/2+y,-z
1/2-x,y,z
x,1/2-y,z
loop_
_atom_site_type_symbol
_atom_site_label
_atom_site_fract_x
_atom_site_fract_y
_atom_site_fract_z
Si Si1 0.419828 0.409339 0.295303
Si Si2 0.081000 0.910840 0.036265
Si Si3 0.581870 0.409371 0.207460
Si Si4 0.581350 0.905471 0.465790
Si Si5 0.916302 0.588540 0.365288
Si Si6 0.416884 0.409459 0.875084
O O1 0.250000 0.432635 0.290698
O O2 0.459299 0.250000 0.304738
O O3 0.492900 0.459525 0.249934
O O4 0.477561 0.499907 0.335386
O O5 0.250000 0.948124 0.036108
O O6 0.054135 0.750000 0.025789
O O7 0.015992 0.950664 0.083681
O O8 0.000000 0.000000 0.000000
O O9 0.750000 0.435323 0.217782
O O10 0.549852 0.250000 0.196238
O O11 0.529753 0.499377 0.165983
O O12 0.750000 0.913417 0.476380
O O13 0.524080 0.750000 0.471996
O O14 0.551157 0.954206 0.415764
O O15 0.500000 0.000000 0.500000
O O16 0.750000 0.554836 0.353204
O O17 0.947822 0.750000 0.357931
O O18 0.250000 0.441966 0.887230
O O19 0.437366 0.250000 0.861990
#
# Coordination Sequence:
#
# PCOD8244765 Si02
#       6
#     8   8   8   8   8   8
#     4  10  21  35  51  75 106 136 168 209 255 301
#     4  10  21  36  54  77 105 137 173 212 254 302
#     4   9  18  33  52  73  99 133 171 208 247 296
#     4   9  19  35  53  75 103 133 167 208 252 300
#     4   9  19  36  55  74  99 133 172 211 251 299
#     4   9  18  33  52  74 101 132 167 208 252 298
#
# _framework density 17.784044999999999
#
# number of rings (size 3 to 8) (size 9 to 14) (size 15 to 20)
#    0.000    2.667    0.000    2.000    0.000    6.000 
#    0.000    8.333    0.000    0.000    0.000    0.000 
#    0.000    0.000    0.000    0.000    0.000    0.000 
#
# Total GULP energy -595309.608774 kJ/mol
# GULP energy per Si atom -12402.283516 kJ/mol
# Density = 1.774357 g / cm^3
# Si number density = 17.784045 Si / 1000 Ang^3
#
#
#
# Elastic Constant Matrix: (Units=GPa)
#
#
# Indices 1 2 3 4 5 6 
#
# 1 87.0252 48.3720 74.8748 0.0000 0.0000 0.0000
# 2 48.3720 70.8646 74.9962 0.0000 0.0000 0.0000
# 3 74.8748 74.9962 143.4865 0.0000 0.0000 0.0000
# 4 0.0000 0.0000 0.0000 40.3429 0.0000 0.0000
# 5 0.0000 0.0000 0.0000 0.0000 37.5769 0.0000
# 6 0.0000 0.0000 0.0000 0.0000 0.0000 29.4315
#
#
#
# Elastic Compliance Matrix: (Units=1/GPa)
#
#
# Indices 1 2 3 4 5 6 
#
# 1 0.022095 -0.006445 -0.008161 0.000000 0.000000 0.000000
# 2 -0.006445 0.033459 -0.014125 0.000000 0.000000 0.000000
# 3 -0.008161 -0.014125 0.018611 0.000000 0.000000 0.000000
# 4 0.000000 0.000000 0.000000 0.024787 0.000000 0.000000
# 5 0.000000 0.000000 0.000000 0.000000 0.026612 0.000000
# 6 0.000000 0.000000 0.000000 0.000000 0.000000 0.033977
#
#
# Mechanical properties :
#
#
# Convention : Reuss Voigt Hill
#
# Bulk Modulus (GPa) = 59.87069 77.54028 68.70549
# Shear Modulus (GPa) = 22.46466 28.34582 25.40524
#
# Velocity S-wave (km/s) = 3.55800 3.99669 3.78371
# Velocity P-wave (km/s) = 7.11461 8.06187 7.60300
#
# Compressibility (1/GPa) = 0.01670266
#
# Stress axis : x y z
#
# Youngs Moduli (GPa) = 45.25920 29.88692 53.73267
#
# Poissons Ratio (x) = 0.19263 0.43851
# Poissons Ratio (y) = 0.29170 0.75898
# Poissons Ratio (z) = 0.36936 0.42215
#
# Static dielectric constant tensor:
#      x y z
#    x 3.250250 0.000000 0.000000 
#    y 0.000000 3.330230 0.000000 
#    z 0.000000 0.000000 3.230610 
# 
# 
# High freq. dielectric constant tensor:
#      x y z
#    x 1.688030 0.000000 0.000000 
#    y 0.000000 1.685830 0.000000 
#    z 0.000000 0.000000 1.694500 
# 
# From -- ./inp_files/32772.got.cif
#   From: 2010.03.12/outbox.cif.g09.slc.cpg/sg59_17_cif.got.tgz:32772.got - 2010.04.16 16:29:54.
