data_PCOD8244060
_publ_section_title
;
Structure prediction by ZEFSAII (Michael W. Deem and Ramdas Pophale) SiO2 
 PCOD8244060
Probable space group: P M M N
;
_chemical_formula_sum "Si O2"
_cell_formula_units_Z 48
_cell_length_a 9.154103
_cell_length_b 13.812827
_cell_length_c 20.184870
_cell_angle_alpha 90.000000
_cell_angle_beta 90.000000
_cell_angle_gamma 90.000000
_cell_volume 2552.256531
_symmetry_space_group_name_H-M "P M M N"
_symmetry_group_IT_number 59
_space_group.IT_coordinate_system_code '2'
_symmetry_cell_setting 'orthorhombic'
loop_
_space_group_symop_operation_xyz
x,y,z
1/2-x,1/2-y,z
1/2+x,-y,-z
-x,1/2+y,-z
-x,-y,-z
1/2+x,1/2+y,-z
1/2-x,y,z
x,1/2-y,z
loop_
_atom_site_type_symbol
_atom_site_label
_atom_site_fract_x
_atom_site_fract_y
_atom_site_fract_z
Si Si1 0.079253 0.030682 0.399715
Si Si2 0.915931 0.146850 0.894180
Si Si3 0.082366 0.097632 0.012650
Si Si4 0.421581 0.638136 0.717648
Si Si5 0.082126 0.057965 0.158246
Si Si6 0.080216 0.361606 0.534186
O O1 0.250000 0.019309 0.385742
O O2 0.046721 0.104019 0.459680
O O3 0.002741 0.072305 0.335325
O O4 0.014381 0.924563 0.414780
O O5 0.750000 0.122265 0.914821
O O6 0.924577 0.250000 0.854094
O O7 0.971613 0.054171 0.852177
O O8 0.005780 0.170233 0.961572
O O9 0.250000 0.089846 0.992317
O O10 0.067326 0.121526 0.090796
O O11 0.000000 0.000000 0.000000
O O12 0.250000 0.619186 0.712753
O O13 0.460061 0.750000 0.704619
O O14 0.476362 0.608023 0.789819
O O15 0.250000 0.059675 0.183366
O O16 0.250000 0.376236 0.551153
O O17 0.032844 0.250000 0.540861
#
# Coordination Sequence:
#
# PCOD8244060 Si02
#       6
#     8   8   8   8   8   8
#     4  10  20  35  57  84 113 145 180 218 261 310
#     4   9  18  33  53  77 105 136 170 212 264 319
#     4   9  17  30  49  73 100 131 169 213 261 310
#     4  11  24  39  55  76 103 138 179 222 269 319
#     4   9  19  35  53  74 102 137 175 216 262 314
#     4   9  18  34  57  85 116 147 179 217 260 305
#
# _framework density 18.806885999999999
#
# number of rings (size 3 to 8) (size 9 to 14) (size 15 to 20)
#    0.000    2.500    0.000    3.000    0.000    7.333 
#    0.000    4.167    0.000    3.000    0.000    0.000 
#    0.000    0.000    0.000    0.000    0.000    0.000 
#
# Total GULP energy -594829.197396 kJ/mol
# GULP energy per Si atom -12392.274946 kJ/mol
# Density = 1.876408 g / cm^3
# Si number density = 18.806886 Si / 1000 Ang^3
#
#
#
# Elastic Constant Matrix: (Units=GPa)
#
#
# Indices 1 2 3 4 5 6 
#
# 1 94.9555 46.2219 51.3514 0.0000 0.0000 0.0000
# 2 46.2219 107.7058 32.0099 0.0000 0.0000 0.0000
# 3 51.3514 32.0099 80.7880 0.0000 0.0000 0.0000
# 4 0.0000 0.0000 0.0000 19.8100 0.0000 0.0000
# 5 0.0000 0.0000 0.0000 0.0000 34.4019 0.0000
# 6 0.0000 0.0000 0.0000 0.0000 0.0000 25.7713
#
#
#
# Elastic Compliance Matrix: (Units=1/GPa)
#
#
# Indices 1 2 3 4 5 6 
#
# 1 0.018093 -0.004927 -0.009549 0.000000 0.000000 0.000000
# 2 -0.004927 0.011865 -0.001570 0.000000 0.000000 0.000000
# 3 -0.009549 -0.001570 0.019069 0.000000 0.000000 0.000000
# 4 0.000000 0.000000 0.000000 0.050479 0.000000 0.000000
# 5 0.000000 0.000000 0.000000 0.000000 0.029068 0.000000
# 6 0.000000 0.000000 0.000000 0.000000 0.000000 0.038803
#
#
# Mechanical properties :
#
#
# Convention : Reuss Voigt Hill
#
# Bulk Modulus (GPa) = 59.03910 60.29062 59.66486
# Shear Modulus (GPa) = 24.37659 26.25439 25.31549
#
# Velocity S-wave (km/s) = 3.60412 3.74036 3.67287
# Velocity P-wave (km/s) = 6.98427 7.12608 7.05553
#
# Compressibility (1/GPa) = 0.01693793
#
# Stress axis : x y z
#
# Youngs Moduli (GPa) = 55.26887 84.27847 52.44018
#
# Poissons Ratio (x) = 0.41524 0.50073
# Poissons Ratio (y) = 0.27231 0.08231
# Poissons Ratio (z) = 0.52774 0.13228
#
# Static dielectric constant tensor:
#      x y z
#    x 3.755680 0.000000 0.000000 
#    y 0.000000 3.841650 0.000000 
#    z 0.000000 0.000000 3.414450 
# 
# 
# High freq. dielectric constant tensor:
#      x y z
#    x 1.735340 0.000000 0.000000 
#    y 0.000000 1.739320 0.000000 
#    z 0.000000 0.000000 1.708220 
# 
# From -- ./inp_files/25460.got.cif
#   From: 2010.03.12/outbox.cif.g09.slc.cpg/sg59_13_cif.got.tgz:25460.got - 2010.04.16 16:29:54.
