data_PCOD8244177
_publ_section_title
;
Structure prediction by ZEFSAII (Michael W. Deem and Ramdas Pophale) SiO2 
 PCOD8244177
Probable space group: P M M N
;
_chemical_formula_sum "Si O2"
_cell_formula_units_Z 64
_cell_length_a 14.618608
_cell_length_b 17.790409
_cell_length_c 11.991414
_cell_angle_alpha 90.000000
_cell_angle_beta 90.000000
_cell_angle_gamma 90.000000
_cell_volume 3118.619214
_symmetry_space_group_name_H-M "P M M N"
_symmetry_group_IT_number 59
_space_group.IT_coordinate_system_code '2'
_symmetry_cell_setting 'orthorhombic'
loop_
_space_group_symop_operation_xyz
x,y,z
1/2-x,1/2-y,z
1/2+x,-y,-z
-x,1/2+y,-z
-x,-y,-z
1/2+x,1/2+y,-z
1/2-x,y,z
x,1/2-y,z
loop_
_atom_site_type_symbol
_atom_site_label
_atom_site_fract_x
_atom_site_fract_y
_atom_site_fract_z
Si Si1 0.035447 0.165288 0.928879
Si Si2 0.107173 0.943669 0.794474
Si Si3 0.533526 0.837523 0.474635
Si Si4 0.349730 0.904865 0.042821
Si Si5 0.649438 0.666113 0.683957
Si Si6 0.408458 0.438878 0.129801
Si Si7 0.146905 0.837068 0.588468
Si Si8 0.353714 0.107152 0.727071
O O1 0.044098 0.250000 0.974122
O O2 0.096963 0.158017 0.819300
O O3 0.928359 0.147921 0.904844
O O4 0.070661 0.106109 0.017843
O O5 0.125929 0.883118 0.699407
O O6 0.000369 0.961881 0.806246
O O7 0.156386 0.021085 0.764069
O O8 0.144446 0.909586 0.909185
O O9 0.550592 0.750000 0.446201
O O10 0.577193 0.860517 0.592638
O O11 0.425048 0.856280 0.488568
O O12 0.582607 0.888118 0.382283
O O13 0.250000 0.871010 0.073301
O O14 0.354225 0.987306 0.096338
O O15 0.750000 0.664871 0.628962
O O16 0.624113 0.750000 0.725472
O O17 0.652098 0.612018 0.789995
O O18 0.250000 0.854145 0.545319
O O19 0.135173 0.750000 0.621637
O O20 0.250000 0.137225 0.705683
#
# Coordination Sequence:
#
# PCOD8244177 Si02
#       8
#     8   8   8   8   8   8   8   8
#     4  11  24  40  61  93 126 160 210 257 302 362
#     4  11  21  39  63  92 125 161 205 253 306 364
#     4  10  22  40  61  86 121 159 200 252 307 363
#     4  11  22  40  63  88 128 171 204 248 309 373
#     4  10  20  35  58  89 123 160 201 250 309 366
#     4  11  20  39  62  90 124 165 200 251 314 361
#     4  10  21  39  64  92 121 157 205 257 309 364
#     4  12  24  41  64  90 123 165 209 253 304 370
#
# _framework density 20.521902999999998
#
# number of rings (size 3 to 8) (size 9 to 14) (size 15 to 20)
#    0.000    1.250    3.750    3.375    0.000    4.750 
#    0.000    0.625    0.000    1.500    0.000    0.000 
#    0.000    0.000    0.000    0.000    0.000    0.000 
#
# Total GULP energy -793600.488483 kJ/mol
# GULP energy per Si atom -12400.007633 kJ/mol
# Density = 2.047519 g / cm^3
# Si number density = 20.521903 Si / 1000 Ang^3
#
#
#
# Elastic Constant Matrix: (Units=GPa)
#
#
# Indices 1 2 3 4 5 6 
#
# 1 154.3511 13.3369 46.2723 0.0000 0.0000 0.0000
# 2 13.3369 50.6771 16.7705 0.0000 0.0000 0.0000
# 3 46.2723 16.7705 70.4546 0.0000 0.0000 0.0000
# 4 0.0000 0.0000 0.0000 19.0436 0.0000 0.0000
# 5 0.0000 0.0000 0.0000 0.0000 19.2376 0.0000
# 6 0.0000 0.0000 0.0000 0.0000 0.0000 24.5751
#
#
#
# Elastic Compliance Matrix: (Units=1/GPa)
#
#
# Indices 1 2 3 4 5 6 
#
# 1 0.008075 -0.000402 -0.005208 0.000000 0.000000 0.000000
# 2 -0.000402 0.021440 -0.004840 0.000000 0.000000 0.000000
# 3 -0.005208 -0.004840 0.018766 0.000000 0.000000 0.000000
# 4 0.000000 0.000000 0.000000 0.052511 0.000000 0.000000
# 5 0.000000 0.000000 0.000000 0.000000 0.051982 0.000000
# 6 0.000000 0.000000 0.000000 0.000000 0.000000 0.040692
#
#
# Mechanical properties :
#
#
# Convention : Reuss Voigt Hill
#
# Bulk Modulus (GPa) = 36.51948 47.58247 42.05098
# Shear Modulus (GPa) = 22.37237 25.84478 24.10858
#
# Velocity S-wave (km/s) = 3.30536 3.55262 3.43121
# Velocity P-wave (km/s) = 5.69220 6.32966 6.01938
#
# Compressibility (1/GPa) = 0.02738265
#
# Stress axis : x y z
#
# Youngs Moduli (GPa) = 123.84541 46.64162 53.28889
#
# Poissons Ratio (x) = 0.01874 0.27750
# Poissons Ratio (y) = 0.04975 0.25790
# Poissons Ratio (z) = 0.64493 0.22573
#
# Static dielectric constant tensor:
#      x y z
#    x 4.079140 0.000000 0.000000 
#    y 0.000000 3.604960 0.000000 
#    z 0.000000 0.000000 3.535520 
# 
# 
# High freq. dielectric constant tensor:
#      x y z
#    x 1.821930 0.000000 0.000000 
#    y 0.000000 1.793050 0.000000 
#    z 0.000000 0.000000 1.784360 
# 
# From -- ./inp_files/17250.got.cif
#   From: 2010.03.12/outbox.cif.g09.slc.cpg/sg59_9_cif.got.tgz:17250.got - 2010.04.16 16:29:54.
