data_PCOD8244102
_publ_section_title
;
Structure prediction by ZEFSAII (Michael W. Deem and Ramdas Pophale) SiO2 
 PCOD8244102
Probable space group: P M M N
;
_chemical_formula_sum "Si O2"
_cell_formula_units_Z 48
_cell_length_a 8.954910
_cell_length_b 13.111893
_cell_length_c 20.851246
_cell_angle_alpha 90.000000
_cell_angle_beta 90.000000
_cell_angle_gamma 90.000000
_cell_volume 2448.266183
_symmetry_space_group_name_H-M "P M M N"
_symmetry_group_IT_number 59
_space_group.IT_coordinate_system_code '2'
_symmetry_cell_setting 'orthorhombic'
loop_
_space_group_symop_operation_xyz
x,y,z
1/2-x,1/2-y,z
1/2+x,-y,-z
-x,1/2+y,-z
-x,-y,-z
1/2+x,1/2+y,-z
1/2-x,y,z
x,1/2-y,z
loop_
_atom_site_type_symbol
_atom_site_label
_atom_site_fract_x
_atom_site_fract_y
_atom_site_fract_z
Si Si1 0.423010 0.525988 0.675169
Si Si2 0.425188 0.945307 0.093012
Si Si3 0.073577 0.562310 0.444768
Si Si4 0.426846 0.250000 0.500960
Si Si5 0.077836 0.134888 0.784515
Si Si6 0.920641 0.250000 0.361644
Si Si7 0.574716 0.364735 0.044859
O O1 0.250000 0.506119 0.656105
O O2 0.538929 0.489793 0.622273
O O3 0.465243 0.457875 0.736863
O O4 0.451788 0.648743 0.681998
O O5 0.250000 0.955780 0.098876
O O6 0.482721 0.878119 0.151538
O O7 0.494018 0.059006 0.094052
O O8 0.474116 0.888204 0.028016
O O9 0.250000 0.573907 0.454171
O O10 0.000000 0.500000 0.500000
O O11 0.986379 0.665559 0.451460
O O12 0.250000 0.250000 0.495095
O O13 0.487045 0.250000 0.428044
O O14 0.250000 0.125191 0.803217
O O15 0.045298 0.250000 0.756747
O O16 0.750000 0.250000 0.384731
O O17 0.750000 0.379667 0.053330
O O18 0.525533 0.250000 0.062110
#
# Coordination Sequence:
#
# PCOD8244102 Si02
#       7
#     8   8   8   4   8   4   8
#     4  10  22  40  61  86 116 154 200 245 294 350
#     4  10  20  35  57  86 119 153 193 242 295 348
#     4  12  24  39  60  89 120 152 193 242 301 362
#     4  12  24  38  60  88 120 156 193 244 301 358
#     4  10  22  40  60  84 117 158 201 243 290 350
#     4  10  20  38  62  84 114 152 195 244 295 356
#     4   9  18  34  57  85 117 154 196 241 290 348
#
# _framework density 19.605710999999999
#
# number of rings (size 3 to 8) (size 9 to 14) (size 15 to 20)
#    0.000    1.667    1.667    3.250    1.167    2.667 
#    1.500    0.000    0.000    0.000    0.000    0.000 
#    0.000    0.000    0.000    0.000    0.000    0.000 
#
# Total GULP energy -594854.222225 kJ/mol
# GULP energy per Si atom -12392.796296 kJ/mol
# Density = 1.956109 g / cm^3
# Si number density = 19.605711 Si / 1000 Ang^3
#
#
#
# Elastic Constant Matrix: (Units=GPa)
#
#
# Indices 1 2 3 4 5 6 
#
# 1 85.1784 42.7592 27.8083 0.0000 0.0000 0.0000
# 2 42.7592 162.6898 43.0363 0.0000 0.0000 0.0000
# 3 27.8083 43.0363 68.0888 0.0000 0.0000 0.0000
# 4 0.0000 0.0000 0.0000 36.9567 0.0000 0.0000
# 5 0.0000 0.0000 0.0000 0.0000 32.9675 0.0000
# 6 0.0000 0.0000 0.0000 0.0000 0.0000 28.4754
#
#
#
# Elastic Compliance Matrix: (Units=1/GPa)
#
#
# Indices 1 2 3 4 5 6 
#
# 1 0.014463 -0.002688 -0.004208 0.000000 0.000000 0.000000
# 2 -0.002688 0.007880 -0.003883 0.000000 0.000000 0.000000
# 3 -0.004208 -0.003883 0.018860 0.000000 0.000000 0.000000
# 4 0.000000 0.000000 0.000000 0.027059 0.000000 0.000000
# 5 0.000000 0.000000 0.000000 0.000000 0.030333 0.000000
# 6 0.000000 0.000000 0.000000 0.000000 0.000000 0.035118
#
#
# Mechanical properties :
#
#
# Convention : Reuss Voigt Hill
#
# Bulk Modulus (GPa) = 50.90337 60.35162 55.62750
# Shear Modulus (GPa) = 30.89865 33.17012 32.03439
#
# Velocity S-wave (km/s) = 3.97420 4.11768 4.04658
# Velocity P-wave (km/s) = 6.86141 7.31140 7.08998
#
# Compressibility (1/GPa) = 0.01964506
#
# Stress axis : x y z
#
# Youngs Moduli (GPa) = 69.14056 126.89766 53.02361
#
# Poissons Ratio (x) = 0.34113 0.22312
# Poissons Ratio (y) = 0.18587 0.20589
# Poissons Ratio (z) = 0.29093 0.49274
#
# Static dielectric constant tensor:
#      x y z
#    x 3.571200 0.000000 0.000000 
#    y 0.000000 4.064090 0.000000 
#    z 0.000000 0.000000 3.274220 
# 
# 
# High freq. dielectric constant tensor:
#      x y z
#    x 1.762300 0.000000 0.000000 
#    y 0.000000 1.788320 0.000000 
#    z 0.000000 0.000000 1.740210 
# 
# From -- ./inp_files/25545.got.cif
#   From: 2010.03.12/outbox.cif.g09.slc.cpg/sg59_13_cif.got.tgz:25545.got - 2010.04.16 16:29:54.
