data_PCOD8244787
_publ_section_title
;
Structure prediction by ZEFSAII (Michael W. Deem and Ramdas Pophale) SiO2 
 PCOD8244787
Probable space group: P M M N
;
_chemical_formula_sum "Si O2"
_cell_formula_units_Z 48
_cell_length_a 9.112211
_cell_length_b 7.716506
_cell_length_c 34.688046
_cell_angle_alpha 90.000000
_cell_angle_beta 90.000000
_cell_angle_gamma 90.000000
_cell_volume 2439.070212
_symmetry_space_group_name_H-M "P M M N"
_symmetry_group_IT_number 59
_space_group.IT_coordinate_system_code '2'
_symmetry_cell_setting 'orthorhombic'
loop_
_space_group_symop_operation_xyz
x,y,z
1/2-x,1/2-y,z
1/2+x,-y,-z
-x,1/2+y,-z
-x,-y,-z
1/2+x,1/2+y,-z
1/2-x,y,z
x,1/2-y,z
loop_
_atom_site_type_symbol
_atom_site_label
_atom_site_fract_x
_atom_site_fract_y
_atom_site_fract_z
Si Si1 0.088683 0.949497 0.113293
Si Si2 0.422377 0.449943 0.811867
Si Si3 0.923879 0.250000 0.244308
Si Si4 0.076137 0.750000 0.669913
Si Si5 0.077468 0.050757 0.613856
Si Si6 0.914971 0.452770 0.038412
Si Si7 0.587365 0.453095 0.537963
O O1 0.250000 0.038706 0.109619
O O2 0.111645 0.750000 0.121716
O O3 0.000133 0.024497 0.149697
O O4 0.998552 0.967296 0.074306
O O5 0.250000 0.467736 0.819294
O O6 0.463550 0.250000 0.802037
O O7 0.475670 0.574374 0.777229
O O8 0.750000 0.250000 0.246972
O O9 0.992993 0.250000 0.287196
O O10 0.250000 0.750000 0.672609
O O11 0.024367 0.574638 0.648323
O O12 0.250000 0.033732 0.606420
O O13 0.035332 0.250000 0.624016
O O14 0.998722 0.979927 0.575458
O O15 0.750000 0.529280 0.036273
O O16 0.909344 0.250000 0.044044
O O17 0.000000 0.500000 0.000000
O O18 0.500000 0.500000 0.500000
O O19 0.750000 0.537571 0.536548
O O20 0.601659 0.250000 0.541072
#
# Coordination Sequence:
#
# PCOD8244787 Si02
#       7
#     8   8   4   4   8   8   8
#     4  10  21  37  57  81 109 142 181 225 274 327
#     4   9  18  33  54  80 111 145 180 225 279 329
#     4   9  18  32  53  83 113 139 181 233 277 333
#     4   9  18  32  53  81 109 141 181 229 279 329
#     4   9  18  33  52  75 106 142 181 225 274 328
#     4  11  24  39  56  80 110 144 183 226 270 320
#     4  10  21  35  52  76 106 140 179 226 277 327
#
# _framework density 19.67963
#
# number of rings (size 3 to 8) (size 9 to 14) (size 15 to 20)
#    0.000    2.333    0.000    2.000    2.333    6.000 
#    0.000    3.333    0.000    2.000    0.000    4.667 
#    0.000    0.000    0.000    0.000    0.000    0.000 
#
# Total GULP energy -595059.317983 kJ/mol
# GULP energy per Si atom -12397.069125 kJ/mol
# Density = 1.963484 g / cm^3
# Si number density = 19.679630 Si / 1000 Ang^3
#
#
#
# Elastic Constant Matrix: (Units=GPa)
#
#
# Indices 1 2 3 4 5 6 
#
# 1 100.7621 27.3869 63.8799 0.0000 0.0000 0.0000
# 2 27.3869 77.1296 56.7719 0.0000 0.0000 0.0000
# 3 63.8799 56.7719 197.1242 0.0000 0.0000 0.0000
# 4 0.0000 0.0000 0.0000 35.7352 0.0000 0.0000
# 5 0.0000 0.0000 0.0000 0.0000 25.6935 0.0000
# 6 0.0000 0.0000 0.0000 0.0000 0.0000 15.1775
#
#
#
# Elastic Compliance Matrix: (Units=1/GPa)
#
#
# Indices 1 2 3 4 5 6 
#
# 1 0.012701 -0.001879 -0.003575 0.000000 0.000000 0.000000
# 2 -0.001879 0.016731 -0.004210 0.000000 0.000000 0.000000
# 3 -0.003575 -0.004210 0.007444 0.000000 0.000000 0.000000
# 4 0.000000 0.000000 0.000000 0.027984 0.000000 0.000000
# 5 0.000000 0.000000 0.000000 0.000000 0.038920 0.000000
# 6 0.000000 0.000000 0.000000 0.000000 0.000000 0.065887
#
#
# Mechanical properties :
#
#
# Convention : Reuss Voigt Hill
#
# Bulk Modulus (GPa) = 56.98160 74.56591 65.77375
# Shear Modulus (GPa) = 25.66164 30.45305 28.05735
#
# Velocity S-wave (km/s) = 3.61497 3.93802 3.77995
# Velocity P-wave (km/s) = 6.81480 7.65829 7.24883
#
# Compressibility (1/GPa) = 0.01754953
#
# Stress axis : x y z
#
# Youngs Moduli (GPa) = 78.73163 59.76990 134.33919
#
# Poissons Ratio (x) = 0.11228 0.48026
# Poissons Ratio (y) = 0.14790 0.56553
# Poissons Ratio (z) = 0.28146 0.25161
#
# Static dielectric constant tensor:
#      x y z
#    x 3.812090 0.000000 0.000000 
#    y 0.000000 3.743870 0.000000 
#    z 0.000000 0.000000 3.706890 
# 
# 
# High freq. dielectric constant tensor:
#      x y z
#    x 1.753470 0.000000 0.000000 
#    y 0.000000 1.768520 0.000000 
#    z 0.000000 0.000000 1.767150 
# 
# From -- ./inp_files/33069.got.cif
#   From: 2010.03.12/outbox.cif.g09.slc.cpg/sg59_17_cif.got.tgz:33069.got - 2010.04.16 16:29:54.
