data_PCOD8244230
_publ_section_title
;
Structure prediction by ZEFSAII (Michael W. Deem and Ramdas Pophale) SiO2 
 PCOD8244230
Probable space group: P M M N
;
_chemical_formula_sum "Si O2"
_cell_formula_units_Z 56
_cell_length_a 9.201551
_cell_length_b 23.297971
_cell_length_c 13.660619
_cell_angle_alpha 90.000000
_cell_angle_beta 90.000000
_cell_angle_gamma 90.000000
_cell_volume 2928.528917
_symmetry_space_group_name_H-M "P M M N"
_symmetry_group_IT_number 59
_space_group.IT_coordinate_system_code '2'
_symmetry_cell_setting 'orthorhombic'
loop_
_space_group_symop_operation_xyz
x,y,z
1/2-x,1/2-y,z
1/2+x,-y,-z
-x,1/2+y,-z
-x,-y,-z
1/2+x,1/2+y,-z
1/2-x,y,z
x,1/2-y,z
loop_
_atom_site_type_symbol
_atom_site_label
_atom_site_fract_x
_atom_site_fract_y
_atom_site_fract_z
Si Si1 0.577241 0.093101 0.286651
Si Si2 0.588606 0.250000 0.989836
Si Si3 0.078032 0.465666 0.721143
Si Si4 0.077613 0.347078 0.638299
Si Si5 0.079497 0.250000 0.788763
Si Si6 0.082932 0.630432 0.926332
Si Si7 0.077739 0.450390 0.942004
Si Si8 0.581059 0.184996 0.442455
O O1 0.750000 0.095928 0.286390
O O2 0.516647 0.139613 0.363855
O O3 0.521718 0.028547 0.314655
O O4 0.521683 0.109211 0.178233
O O5 0.750000 0.250000 0.944466
O O6 0.484260 0.250000 0.897052
O O7 0.566948 0.301786 0.065289
O O8 0.250000 0.465765 0.718922
O O9 0.021545 0.412702 0.654858
O O10 0.024855 0.454258 0.830800
O O11 0.250000 0.344752 0.624008
O O12 0.030912 0.307175 0.729834
O O13 0.004122 0.322258 0.542552
O O14 0.250000 0.250000 0.802856
O O15 0.250000 0.609652 0.940192
O O16 0.980256 0.608462 0.013276
O O17 0.250000 0.455188 0.951926
O O18 0.000000 0.500000 0.000000
O O19 0.750000 0.172720 0.462396
O O20 0.558117 0.250000 0.403290
#
# Coordination Sequence:
#
# PCOD8244230 Si02
#       8
#     8   4   8   8   4   8   8   8
#     4   9  18  34  55  78 108 143 181 220 265 326
#     4  10  22  34  53  84 114 142 183 236 279 312
#     4   9  18  33  55  81 106 140 180 218 265 328
#     4  10  20  36  59  80 102 138 181 222 272 334
#     4  10  20  36  55  76 106 146 183 218 275 344
#     4  10  20  36  55  80 113 150 187 227 274 326
#     4  11  20  34  57  83 113 150 188 225 268 324
#     4  10  21  36  57  82 105 137 181 227 273 320
#
# _framework density 19.122229000000001
#
# number of rings (size 3 to 8) (size 9 to 14) (size 15 to 20)
#    0.000    2.143    2.143    1.286    1.000    2.857 
#    0.000    2.143    0.000    0.000    0.000    0.000 
#    0.000    0.000    0.000    0.000    0.000    0.000 
#
# Total GULP energy -694195.903263 kJ/mol
# GULP energy per Si atom -12396.355415 kJ/mol
# Density = 1.907871 g / cm^3
# Si number density = 19.122229 Si / 1000 Ang^3
#
#
#
# Elastic Constant Matrix: (Units=GPa)
#
#
# Indices 1 2 3 4 5 6 
#
# 1 31.3175 19.7980 15.5819 0.0000 0.0000 0.0000
# 2 19.7980 150.7513 39.6032 0.0000 0.0000 0.0000
# 3 15.5819 39.6032 67.4704 0.0000 0.0000 0.0000
# 4 0.0000 0.0000 0.0000 37.7924 0.0000 0.0000
# 5 0.0000 0.0000 0.0000 0.0000 23.7114 0.0000
# 6 0.0000 0.0000 0.0000 0.0000 0.0000 20.9866
#
#
#
# Elastic Compliance Matrix: (Units=1/GPa)
#
#
# Indices 1 2 3 4 5 6 
#
# 1 0.037273 -0.003114 -0.006780 0.000000 0.000000 0.000000
# 2 -0.003114 0.008103 -0.004037 0.000000 0.000000 0.000000
# 3 -0.006780 -0.004037 0.018757 0.000000 0.000000 0.000000
# 4 0.000000 0.000000 0.000000 0.026460 0.000000 0.000000
# 5 0.000000 0.000000 0.000000 0.000000 0.042174 0.000000
# 6 0.000000 0.000000 0.000000 0.000000 0.000000 0.047649
#
#
# Mechanical properties :
#
#
# Convention : Reuss Voigt Hill
#
# Bulk Modulus (GPa) = 27.57065 44.38948 35.98006
# Shear Modulus (GPa) = 22.68924 28.13515 25.41220
#
# Velocity S-wave (km/s) = 3.44835 3.83996 3.64941
# Velocity P-wave (km/s) = 5.50493 6.55166 6.05097
#
# Compressibility (1/GPa) = 0.03627046
#
# Stress axis : x y z
#
# Youngs Moduli (GPa) = 26.82911 123.41200 53.31388
#
# Poissons Ratio (x) = 0.38428 0.36148
# Poissons Ratio (y) = 0.08354 0.21523
# Poissons Ratio (z) = 0.18191 0.49823
#
# Static dielectric constant tensor:
#      x y z
#    x 3.605090 0.000000 0.000000 
#    y 0.000000 4.175970 0.000000 
#    z 0.000000 0.000000 3.822480 
# 
# 
# High freq. dielectric constant tensor:
#      x y z
#    x 1.705180 0.000000 0.000000 
#    y 0.000000 1.768750 0.000000 
#    z 0.000000 0.000000 1.737740 
# 
# From -- ./inp_files/16220.got.cif
#   From: 2010.03.12/outbox.cif.g09.slc.cpg/sg59_9_cif.got.tgz:16220.got - 2010.04.16 16:29:54.
