data_PCOD8244029
_publ_section_title
;
Structure prediction by ZEFSAII (Michael W. Deem and Ramdas Pophale) SiO2 
 PCOD8244029
Probable space group: P M M N
;
_chemical_formula_sum "Si O2"
_cell_formula_units_Z 48
_cell_length_a 8.982232
_cell_length_b 9.313224
_cell_length_c 31.135457
_cell_angle_alpha 90.000000
_cell_angle_beta 90.000000
_cell_angle_gamma 90.000000
_cell_volume 2604.591155
_symmetry_space_group_name_H-M "P M M N"
_symmetry_group_IT_number 59
_space_group.IT_coordinate_system_code '2'
_symmetry_cell_setting 'orthorhombic'
loop_
_space_group_symop_operation_xyz
x,y,z
1/2-x,1/2-y,z
1/2+x,-y,-z
-x,1/2+y,-z
-x,-y,-z
1/2+x,1/2+y,-z
1/2-x,y,z
x,1/2-y,z
loop_
_atom_site_type_symbol
_atom_site_label
_atom_site_fract_x
_atom_site_fract_y
_atom_site_fract_z
Si Si1 0.427464 0.410183 0.131761
Si Si2 0.920116 0.918109 0.962441
Si Si3 0.422095 0.581578 0.212888
Si Si4 0.074127 0.582154 0.539207
Si Si5 0.416923 0.079799 0.702693
Si Si6 0.424812 0.917584 0.383927
O O1 0.250000 0.411570 0.130394
O O2 0.485258 0.250000 0.141542
O O3 0.485402 0.460909 0.084730
O O4 0.488045 0.512694 0.169381
O O5 0.750000 0.964559 0.964674
O O6 0.940630 0.750000 0.969736
O O7 0.000000 0.000000 0.000000
O O8 0.250000 0.540829 0.219539
O O9 0.444756 0.750000 0.208492
O O10 0.511290 0.518350 0.253614
O O11 0.250000 0.558885 0.537137
O O12 0.032655 0.750000 0.536889
O O13 0.000000 0.500000 0.500000
O O14 0.012071 0.515305 0.582714
O O15 0.250000 0.018020 0.697127
O O16 0.413110 0.250000 0.705540
O O17 0.518837 0.032965 0.662775
O O18 0.250000 0.947461 0.387454
O O19 0.460410 0.750000 0.392650
#
# Coordination Sequence:
#
# PCOD8244029 Si02
#       6
#     8   8   8   8   8   8
#     4   8  15  29  47  66  91 123 157 195 242 295
#     4   9  18  32  49  70  96 126 162 204 249 299
#     4   9  16  27  46  71  94 119 159 206 243 283
#     4  11  24  40  58  82 111 142 177 216 258 306
#     4   9  17  30  49  73 102 135 167 202 249 300
#     4  10  20  35  57  83 108 137 176 218 258 302
#
# _framework density 18.428996999999999
#
# number of rings (size 3 to 8) (size 9 to 14) (size 15 to 20)
#    0.000    2.667    0.000    3.000    0.000    7.333 
#    0.000    3.333    0.000    6.500    0.000    0.000 
#    0.000    0.000    0.000    0.000    0.000    0.000 
#
# Total GULP energy -595059.082244 kJ/mol
# GULP energy per Si atom -12397.064213 kJ/mol
# Density = 1.838705 g / cm^3
# Si number density = 18.428997 Si / 1000 Ang^3
#
#
#
# Elastic Constant Matrix: (Units=GPa)
#
#
# Indices 1 2 3 4 5 6 
#
# 1 78.4947 46.5842 59.5796 0.0000 0.0000 0.0000
# 2 46.5842 63.2157 65.8237 0.0000 0.0000 0.0000
# 3 59.5796 65.8237 176.1423 0.0000 0.0000 0.0000
# 4 0.0000 0.0000 0.0000 33.5167 0.0000 0.0000
# 5 0.0000 0.0000 0.0000 0.0000 34.5234 0.0000
# 6 0.0000 0.0000 0.0000 0.0000 0.0000 21.9930
#
#
#
# Elastic Compliance Matrix: (Units=1/GPa)
#
#
# Indices 1 2 3 4 5 6 
#
# 1 0.023241 -0.014636 -0.002392 0.000000 0.000000 0.000000
# 2 -0.014636 0.035112 -0.008171 0.000000 0.000000 0.000000
# 3 -0.002392 -0.008171 0.009540 0.000000 0.000000 0.000000
# 4 0.000000 0.000000 0.000000 0.029836 0.000000 0.000000
# 5 0.000000 0.000000 0.000000 0.000000 0.028966 0.000000
# 6 0.000000 0.000000 0.000000 0.000000 0.000000 0.045469
#
#
# Mechanical properties :
#
#
# Convention : Reuss Voigt Hill
#
# Bulk Modulus (GPa) = 57.15686 73.53640 65.34663
# Shear Modulus (GPa) = 21.89209 27.73096 24.81153
#
# Velocity S-wave (km/s) = 3.45035 3.88331 3.67322
# Velocity P-wave (km/s) = 6.85239 7.75216 7.31612
#
# Compressibility (1/GPa) = 0.01749571
#
# Stress axis : x y z
#
# Youngs Moduli (GPa) = 43.02682 28.48018 104.82661
#
# Poissons Ratio (x) = 0.41684 0.25072
# Poissons Ratio (y) = 0.62975 0.85650
# Poissons Ratio (z) = 0.10291 0.23270
#
# Static dielectric constant tensor:
#      x y z
#    x 3.320300 0.000000 0.000000 
#    y 0.000000 3.276680 0.000000 
#    z 0.000000 0.000000 3.790510 
# 
# 
# High freq. dielectric constant tensor:
#      x y z
#    x 1.700700 0.000000 0.000000 
#    y 0.000000 1.690260 0.000000 
#    z 0.000000 0.000000 1.735980 
# 
# From -- ./inp_files/32881.got.cif
#   From: 2010.03.12/outbox.cif.g09.slc.cpg/sg59_17_cif.got.tgz:32881.got - 2010.04.16 16:29:54.
