data_PCOD8244135
_publ_section_title
;
Structure prediction by ZEFSAII (Michael W. Deem and Ramdas Pophale) SiO2 
 PCOD8244135
Probable space group: P M M N
;
_chemical_formula_sum "Si O2"
_cell_formula_units_Z 56
_cell_length_a 14.750691
_cell_length_b 8.938410
_cell_length_c 21.503734
_cell_angle_alpha 90.000000
_cell_angle_beta 90.000000
_cell_angle_gamma 90.000000
_cell_volume 2835.218384
_symmetry_space_group_name_H-M "P M M N"
_symmetry_group_IT_number 59
_space_group.IT_coordinate_system_code '2'
_symmetry_cell_setting 'orthorhombic'
loop_
_space_group_symop_operation_xyz
x,y,z
1/2-x,1/2-y,z
1/2+x,-y,-z
-x,1/2+y,-z
-x,-y,-z
1/2+x,1/2+y,-z
1/2-x,y,z
x,1/2-y,z
loop_
_atom_site_type_symbol
_atom_site_label
_atom_site_fract_x
_atom_site_fract_y
_atom_site_fract_z
Si Si1 0.495593 0.074693 0.090762
Si Si2 0.499242 0.573969 0.766789
Si Si3 0.108214 0.920473 0.562050
Si Si4 0.351324 0.418991 0.686026
Si Si5 0.854021 0.426775 0.993612
Si Si6 0.893870 0.920530 0.563001
Si Si7 0.148542 0.918790 0.311949
O O1 0.479177 0.250000 0.083440
O O2 0.510670 0.026937 0.161687
O O3 0.404534 0.994828 0.066275
O O4 0.586696 0.025014 0.053907
O O5 0.508261 0.750000 0.757820
O O6 0.410732 0.520426 0.730880
O O7 0.588389 0.499023 0.739413
O O8 0.142453 0.750000 0.565209
O O9 0.001094 0.930250 0.569166
O O10 0.152051 0.014951 0.616978
O O11 0.141159 0.991050 0.497277
O O12 0.250000 0.420050 0.713201
O O13 0.390086 0.250000 0.683662
O O14 0.750000 0.486920 0.999347
O O15 0.852424 0.250000 0.985925
O O16 0.860662 0.750000 0.558113
O O17 0.850971 0.995208 0.623108
O O18 0.250000 0.918762 0.285189
O O19 0.113064 0.750000 0.322769
#
# Coordination Sequence:
#
# PCOD8244135 Si02
#       7
#     8   8   8   8   8   8   8
#     4   9  20  37  58  86 119 154 192 232 281 333
#     4  11  23  40  61  85 116 156 196 239 287 338
#     4  10  20  35  58  85 112 147 189 236 294 353
#     4  11  24  40  59  84 115 152 193 240 293 347
#     4   9  18  35  60  89 120 153 190 232 277 328
#     4  10  20  35  58  85 112 146 188 238 296 352
#     4  11  24  40  59  83 113 152 195 241 294 350
#
# _framework density 19.751564999999999
#
# number of rings (size 3 to 8) (size 9 to 14) (size 15 to 20)
#    0.000    1.857    1.429    2.143    0.000    6.571 
#    0.000    4.286    0.000    0.000    0.000    0.000 
#    0.000    0.000    0.000    0.000    0.000    0.000 
#
# Total GULP energy -694536.418124 kJ/mol
# GULP energy per Si atom -12402.436038 kJ/mol
# Density = 1.970661 g / cm^3
# Si number density = 19.751565 Si / 1000 Ang^3
#
#
#
# Elastic Constant Matrix: (Units=GPa)
#
#
# Indices 1 2 3 4 5 6 
#
# 1 112.1209 25.9033 35.3527 0.0000 0.0000 0.0000
# 2 25.9033 82.5202 21.1949 0.0000 0.0000 0.0000
# 3 35.3527 21.1949 89.0356 0.0000 0.0000 0.0000
# 4 0.0000 0.0000 0.0000 33.2840 0.0000 0.0000
# 5 0.0000 0.0000 0.0000 0.0000 -28.1614 0.0000
# 6 0.0000 0.0000 0.0000 0.0000 0.0000 21.0815
#
#
#
# Elastic Compliance Matrix: (Units=1/GPa)
#
#
# Indices 1 2 3 4 5 6 
#
# 1 0.010623 -0.002398 -0.003647 0.000000 0.000000 0.000000
# 2 -0.002398 0.013449 -0.002249 0.000000 0.000000 0.000000
# 3 -0.003647 -0.002249 0.013215 0.000000 0.000000 0.000000
# 4 0.000000 0.000000 0.000000 0.030044 0.000000 0.000000
# 5 0.000000 0.000000 0.000000 0.000000 -0.035510 0.000000
# 6 0.000000 0.000000 0.000000 0.000000 0.000000 0.047435
#
#
# Mechanical properties :
#
#
# Convention : Reuss Voigt Hill
#
# Bulk Modulus (GPa) = 48.31392 49.84206 49.07799
# Shear Modulus (GPa) = 48.66449 18.65588 33.66018
#
# Velocity S-wave (km/s) = 4.96908 3.07665 4.13265
# Velocity P-wave (km/s) = 7.57867 6.15713 6.90458
#
# Compressibility (1/GPa) = 0.02069797
#
# Stress axis : x y z
#
# Youngs Moduli (GPa) = 94.13635 74.35685 75.67113
#
# Poissons Ratio (x) = 0.17829 0.27598
# Poissons Ratio (y) = 0.22572 0.17021
# Poissons Ratio (z) = 0.34333 0.16726
#
# Static dielectric constant tensor:
#      x y z
#    x 3.683400 0.000000 0.000000 
#    y 0.000000 3.713120 0.000000 
#    z 0.000000 0.000000 3.588690 
# 
# 
# High freq. dielectric constant tensor:
#      x y z
#    x 1.776470 0.000000 0.000000 
#    y 0.000000 1.779050 0.000000 
#    z 0.000000 0.000000 1.763660 
# 
# From -- ./inp_files/30328.got.cif
#   From: 2010.03.12/outbox.cif.g09.slc.cpg/sg59_16_cif.got.tgz:30328.got - 2010.04.16 16:29:54.
