data_PCOD8244634
_publ_section_title
;
Structure prediction by ZEFSAII (Michael W. Deem and Ramdas Pophale) SiO2 
 PCOD8244634
Probable space group: P M M N
;
_chemical_formula_sum "Si O2"
_cell_formula_units_Z 48
_cell_length_a 9.150266
_cell_length_b 14.884660
_cell_length_c 18.908837
_cell_angle_alpha 90.000000
_cell_angle_beta 90.000000
_cell_angle_gamma 90.000000
_cell_volume 2575.357095
_symmetry_space_group_name_H-M "P M M N"
_symmetry_group_IT_number 59
_space_group.IT_coordinate_system_code '2'
_symmetry_cell_setting 'orthorhombic'
loop_
_space_group_symop_operation_xyz
x,y,z
1/2-x,1/2-y,z
1/2+x,-y,-z
-x,1/2+y,-z
-x,-y,-z
1/2+x,1/2+y,-z
1/2-x,y,z
x,1/2-y,z
loop_
_atom_site_type_symbol
_atom_site_label
_atom_site_fract_x
_atom_site_fract_y
_atom_site_fract_z
Si Si1 0.083649 0.750000 0.727567
Si Si2 0.423710 0.750000 0.951406
Si Si3 0.579759 0.102644 0.156884
Si Si4 0.577110 0.750000 0.581756
Si Si5 0.423564 0.575810 0.195048
Si Si6 0.922339 0.591452 0.482753
Si Si7 0.423444 0.750000 0.109870
Si Si8 0.080083 0.353468 0.674170
O O1 0.250000 0.750000 0.700983
O O2 0.052089 0.839077 0.772851
O O3 0.978987 0.750000 0.661001
O O4 0.250000 0.750000 0.950612
O O5 0.475336 0.660249 0.910573
O O6 0.488732 0.750000 0.030458
O O7 0.750000 0.077099 0.150202
O O8 0.483887 0.013224 0.158095
O O9 0.750000 0.750000 0.583370
O O10 0.520360 0.837159 0.540043
O O11 0.250000 0.570733 0.198871
O O12 0.479124 0.661202 0.149894
O O13 0.486517 0.583750 0.274083
O O14 0.750000 0.578323 0.487589
O O15 0.968217 0.625057 0.405346
O O16 0.000000 0.500000 0.500000
O O17 0.250000 0.750000 0.106553
O O18 0.250000 0.375049 0.685969
O O19 0.044897 0.250000 0.690517
#
# Coordination Sequence:
#
# PCOD8244634 Si02
#       8
#     4   4   8   4   8   8   4   8
#     4   9  20  37  56  78 106 140 182 229 272 320
#     4   8  16  36  62  80 107 149 184 221 271 324
#     4   9  19  37  59  82 106 141 188 227 265 325
#     4  10  21  38  56  78 109 140 176 224 280 330
#     4  11  22  35  54  83 117 147 178 224 276 327
#     4  10  22  39  57  80 109 143 183 227 275 327
#     4   9  19  35  54  82 116 147 180 222 275 326
#     4  10  20  38  60  77 104 147 189 230 270 319
#
# _framework density 18.638190999999999
#
# number of rings (size 3 to 8) (size 9 to 14) (size 15 to 20)
#    0.000    2.333    1.667    1.500    2.333    2.667 
#    0.000    1.250    0.000    3.000    0.000    0.000 
#    0.000    0.000    0.000    0.000    0.000    0.000 
#
# Total GULP energy -595278.825073 kJ/mol
# GULP energy per Si atom -12401.642189 kJ/mol
# Density = 1.859577 g / cm^3
# Si number density = 18.638191 Si / 1000 Ang^3
#
#
#
# Elastic Constant Matrix: (Units=GPa)
#
#
# Indices 1 2 3 4 5 6 
#
# 1 43.7776 42.1548 32.4631 0.0000 0.0000 0.0000
# 2 42.1548 136.5974 47.2799 0.0000 0.0000 0.0000
# 3 32.4631 47.2799 116.1568 0.0000 0.0000 0.0000
# 4 0.0000 0.0000 0.0000 20.9640 0.0000 0.0000
# 5 0.0000 0.0000 0.0000 0.0000 22.9055 0.0000
# 6 0.0000 0.0000 0.0000 0.0000 0.0000 34.6576
#
#
#
# Elastic Compliance Matrix: (Units=1/GPa)
#
#
# Indices 1 2 3 4 5 6 
#
# 1 0.036275 -0.008946 -0.006497 0.000000 0.000000 0.000000
# 2 -0.008946 0.010728 -0.001866 0.000000 0.000000 0.000000
# 3 -0.006497 -0.001866 0.011184 0.000000 0.000000 0.000000
# 4 0.000000 0.000000 0.000000 0.047701 0.000000 0.000000
# 5 0.000000 0.000000 0.000000 0.000000 0.043658 0.000000
# 6 0.000000 0.000000 0.000000 0.000000 0.000000 0.028854
#
#
# Mechanical properties :
#
#
# Convention : Reuss Voigt Hill
#
# Bulk Modulus (GPa) = 42.42892 60.03638 51.23265
# Shear Modulus (GPa) = 22.63750 27.34770 24.99260
#
# Velocity S-wave (km/s) = 3.48886 3.83468 3.66585
# Velocity P-wave (km/s) = 6.24847 7.20332 6.74282
#
# Compressibility (1/GPa) = 0.02356883
#
# Stress axis : x y z
#
# Youngs Moduli (GPa) = 27.56751 93.21817 89.41064
#
# Poissons Ratio (x) = 0.83392 0.58086
# Poissons Ratio (y) = 0.24662 0.16687
# Poissons Ratio (z) = 0.17909 0.17397
#
# Static dielectric constant tensor:
#      x y z
#    x 3.136790 0.000000 0.000000 
#    y 0.000000 3.476870 0.000000 
#    z 0.000000 0.000000 3.631620 
# 
# 
# High freq. dielectric constant tensor:
#      x y z
#    x 1.699590 0.000000 0.000000 
#    y 0.000000 1.733030 0.000000 
#    z 0.000000 0.000000 1.731600 
# 
# From -- ./inp_files/25665.got.cif
#   From: 2010.03.12/outbox.cif.g09.slc.cpg/sg59_13_cif.got.tgz:25665.got - 2010.04.16 16:29:54.
