data_PCOD8244503
_publ_section_title
;
Structure prediction by ZEFSAII (Michael W. Deem and Ramdas Pophale) SiO2 
 PCOD8244503
Probable space group: P M M N
;
_chemical_formula_sum "Si O2"
_cell_formula_units_Z 64
_cell_length_a 8.844200
_cell_length_b 24.929290
_cell_length_c 14.587773
_cell_angle_alpha 90.000000
_cell_angle_beta 90.000000
_cell_angle_gamma 90.000000
_cell_volume 3216.306744
_symmetry_space_group_name_H-M "P M M N"
_symmetry_group_IT_number 59
_space_group.IT_coordinate_system_code '2'
_symmetry_cell_setting 'orthorhombic'
loop_
_space_group_symop_operation_xyz
x,y,z
1/2-x,1/2-y,z
1/2+x,-y,-z
-x,1/2+y,-z
-x,-y,-z
1/2+x,1/2+y,-z
1/2-x,y,z
x,1/2-y,z
loop_
_atom_site_type_symbol
_atom_site_label
_atom_site_fract_x
_atom_site_fract_y
_atom_site_fract_z
Si Si1 0.927919 0.093027 0.715622
Si Si2 0.423932 0.688631 0.790765
Si Si3 0.421006 0.108672 0.351308
Si Si4 0.423901 0.190544 0.818534
Si Si5 0.429411 0.558235 0.482911
Si Si6 0.427007 0.160026 0.019007
Si Si7 0.579925 0.519135 0.788198
Si Si8 0.073559 0.552104 0.958898
O O1 0.750000 0.096579 0.711934
O O2 0.988862 0.082786 0.613126
O O3 0.976321 0.042031 0.777564
O O4 0.985295 0.147894 0.759145
O O5 0.250000 0.669997 0.794631
O O6 0.438547 0.750000 0.757955
O O7 0.511797 0.652341 0.718032
O O8 0.490067 0.684572 0.893170
O O9 0.250000 0.126302 0.375244
O O10 0.519548 0.102803 0.442867
O O11 0.419861 0.049005 0.308639
O O12 0.250000 0.174768 0.807164
O O13 0.458489 0.250000 0.779439
O O14 0.463785 0.192837 0.926820
O O15 0.500000 0.500000 0.500000
O O16 0.250000 0.551779 0.485140
O O17 0.250000 0.158389 0.041852
O O18 0.490208 0.101602 0.994737
O O19 0.750000 0.520612 0.830672
O O20 0.461704 0.551713 0.850684
O O21 0.250000 0.555299 0.978998
O O22 0.000000 0.500000 0.000000
#
# Coordination Sequence:
#
# PCOD8244503 Si02
#       8
#     8   8   8   8   8   8   8   8
#     4  10  22  40  62  90 122 156 198 246 300 361
#     4  11  24  41  62  91 125 163 208 255 304 363
#     4  11  22  39  63  91 124 160 200 249 306 364
#     4  10  23  42  62  87 119 156 203 254 300 351
#     4  11  22  39  63  93 127 161 201 249 306 368
#     4  11  22  39  62  88 119 159 207 254 305 362
#     4  10  20  37  58  85 122 157 193 244 302 363
#     4  12  24  36  53  82 121 163 205 249 304 363
#
# _framework density 19.898599999999998
#
# number of rings (size 3 to 8) (size 9 to 14) (size 15 to 20)
#    0.000    1.250    2.500    3.750    0.000    6.750 
#    0.000    0.625    0.000    0.750    0.000    0.000 
#    0.000    0.000    0.000    0.000    0.000    0.000 
#
# Total GULP energy -793588.816381 kJ/mol
# GULP energy per Si atom -12399.825256 kJ/mol
# Density = 1.985331 g / cm^3
# Si number density = 19.898600 Si / 1000 Ang^3
#
#
#
# Elastic Constant Matrix: (Units=GPa)
#
#
# Indices 1 2 3 4 5 6 
#
# 1 82.3632 29.3760 37.6394 0.0000 0.0000 0.0000
# 2 29.3760 98.3640 25.9396 0.0000 0.0000 0.0000
# 3 37.6394 25.9396 79.5462 0.0000 0.0000 0.0000
# 4 0.0000 0.0000 0.0000 18.6265 0.0000 0.0000
# 5 0.0000 0.0000 0.0000 0.0000 34.1669 0.0000
# 6 0.0000 0.0000 0.0000 0.0000 0.0000 31.0562
#
#
#
# Elastic Compliance Matrix: (Units=1/GPa)
#
#
# Indices 1 2 3 4 5 6 
#
# 1 0.016313 -0.003103 -0.006707 0.000000 0.000000 0.000000
# 2 -0.003103 0.011713 -0.002351 0.000000 0.000000 0.000000
# 3 -0.006707 -0.002351 0.016512 0.000000 0.000000 0.000000
# 4 0.000000 0.000000 0.000000 0.053687 0.000000 0.000000
# 5 0.000000 0.000000 0.000000 0.000000 0.029268 0.000000
# 6 0.000000 0.000000 0.000000 0.000000 0.000000 0.032200
#
#
# Mechanical properties :
#
#
# Convention : Reuss Voigt Hill
#
# Bulk Modulus (GPa) = 49.46821 49.57595 49.52208
# Shear Modulus (GPa) = 26.21174 27.92448 27.06811
#
# Velocity S-wave (km/s) = 3.63335 3.75018 3.69223
# Velocity P-wave (km/s) = 6.52041 6.61212 6.56643
#
# Compressibility (1/GPa) = 0.02021500
#
# Stress axis : x y z
#
# Youngs Moduli (GPa) = 61.29991 85.37440 60.56317
#
# Poissons Ratio (x) = 0.26493 0.40620
# Poissons Ratio (y) = 0.19022 0.14240
# Poissons Ratio (z) = 0.41115 0.20074
#
# Static dielectric constant tensor:
#      x y z
#    x 3.896920 0.000000 0.000000 
#    y 0.000000 3.647720 0.000000 
#    z 0.000000 0.000000 3.842900 
# 
# 
# High freq. dielectric constant tensor:
#      x y z
#    x 1.778970 0.000000 0.000000 
#    y 0.000000 1.779130 0.000000 
#    z 0.000000 0.000000 1.774380 
# 
# From -- ./inp_files/21428.got.cif
#   From: 2010.03.12/outbox.cif.g09.slc.cpg/sg59_11_cif.got.tgz:21428.got - 2010.04.16 16:29:54.
