data_PCOD8244956
_publ_section_title
;
Structure prediction by ZEFSAII (Michael W. Deem and Ramdas Pophale) SiO2 
 PCOD8244956
Probable space group: P M M N
;
_chemical_formula_sum "Si O2"
_cell_formula_units_Z 64
_cell_length_a 19.400279
_cell_length_b 8.912586
_cell_length_c 20.103446
_cell_angle_alpha 90.000000
_cell_angle_beta 90.000000
_cell_angle_gamma 90.000000
_cell_volume 3476.019602
_symmetry_space_group_name_H-M "P M M N"
_symmetry_group_IT_number 59
_space_group.IT_coordinate_system_code '2'
_symmetry_cell_setting 'orthorhombic'
loop_
_space_group_symop_operation_xyz
x,y,z
1/2-x,1/2-y,z
1/2+x,-y,-z
-x,1/2+y,-z
-x,-y,-z
1/2+x,1/2+y,-z
1/2-x,y,z
x,1/2-y,z
loop_
_atom_site_type_symbol
_atom_site_label
_atom_site_fract_x
_atom_site_fract_y
_atom_site_fract_z
Si Si1 0.579754 0.424241 0.321396
Si Si2 0.328928 0.075764 0.061081
Si Si3 0.078516 0.421523 0.325845
Si Si4 0.576428 0.572987 0.181890
Si Si5 0.331110 0.577876 0.925832
Si Si6 0.933849 0.575529 0.825254
Si Si7 0.170869 0.923685 0.431183
Si Si8 0.330688 0.423341 0.567150
O O1 0.593676 0.250000 0.308621
O O2 0.501110 0.452132 0.343378
O O3 0.596992 0.509077 0.253535
O O4 0.629345 0.482358 0.378396
O O5 0.250000 0.039532 0.079317
O O6 0.338892 0.250000 0.043623
O O7 0.374115 0.027417 0.124245
O O8 0.354204 0.979998 0.998242
O O9 0.098783 0.250000 0.341662
O O10 0.092648 0.460091 0.248832
O O11 0.125126 0.532235 0.368393
O O12 0.576016 0.750000 0.186389
O O13 0.633420 0.521531 0.129894
O O14 0.501964 0.517291 0.157504
O O15 0.250000 0.557169 0.916795
O O16 0.354065 0.750000 0.918577
O O17 0.953468 0.750000 0.831089
O O18 0.250000 0.958471 0.413282
O O19 0.159609 0.750000 0.448111
O O20 0.146859 0.019420 0.494634
O O21 0.250000 0.450368 0.578625
O O22 0.351052 0.250000 0.573306
#
# Coordination Sequence:
#
# PCOD8244956 Si02
#       8
#     8   8   8   8   8   8   8   8
#     4  10  21  38  58  80 108 140 175 217 265 317
#     4   9  18  34  56  81 108 139 177 221 267 315
#     4   9  19  35  55  79 106 139 178 218 262 313
#     4  11  22  36  56  80 107 140 178 220 263 311
#     4  10  21  37  56  78 106 140 177 219 267 317
#     4   9  19  36  56  79 109 142 177 218 264 316
#     4  10  21  36  54  78 108 142 179 219 264 312
#     4  10  21  37  57  81 108 139 177 219 262 312
#
# _framework density 18.411864999999999
#
# number of rings (size 3 to 8) (size 9 to 14) (size 15 to 20)
#    0.000    2.250    0.000    3.375    0.000    7.250 
#    0.000    1.250    0.000    1.500    0.000    0.000 
#    0.000    0.000    0.000    0.000    0.000    0.000 
#
# Total GULP energy -793877.981459 kJ/mol
# GULP energy per Si atom -12404.343460 kJ/mol
# Density = 1.836996 g / cm^3
# Si number density = 18.411865 Si / 1000 Ang^3
#
#
#
# Elastic Constant Matrix: (Units=GPa)
#
#
# Indices 1 2 3 4 5 6 
#
# 1 69.9465 48.5403 66.2926 0.0000 0.0000 0.0000
# 2 48.5403 105.6966 57.0152 0.0000 0.0000 0.0000
# 3 66.2926 57.0152 115.1568 0.0000 0.0000 0.0000
# 4 0.0000 0.0000 0.0000 36.6163 0.0000 0.0000
# 5 0.0000 0.0000 0.0000 0.0000 41.1051 0.0000
# 6 0.0000 0.0000 0.0000 0.0000 0.0000 26.2485
#
#
#
# Elastic Compliance Matrix: (Units=1/GPa)
#
#
# Indices 1 2 3 4 5 6 
#
# 1 0.034972 -0.007096 -0.016619 0.000000 0.000000 0.000000
# 2 -0.007096 0.014348 -0.003019 0.000000 0.000000 0.000000
# 3 -0.016619 -0.003019 0.019746 0.000000 0.000000 0.000000
# 4 0.000000 0.000000 0.000000 0.027310 0.000000 0.000000
# 5 0.000000 0.000000 0.000000 0.000000 0.024328 0.000000
# 6 0.000000 0.000000 0.000000 0.000000 0.000000 0.038097
#
#
# Mechanical properties :
#
#
# Convention : Reuss Voigt Hill
#
# Bulk Modulus (GPa) = 64.11145 70.49956 67.30551
# Shear Modulus (GPa) = 22.99179 28.72410 25.85794
#
# Velocity S-wave (km/s) = 3.53760 3.95408 3.75162
# Velocity P-wave (km/s) = 7.18209 7.69544 7.44319
#
# Compressibility (1/GPa) = 0.01559784
#
# Stress axis : x y z
#
# Youngs Moduli (GPa) = 28.59442 69.69455 50.64370
#
# Poissons Ratio (x) = 0.49454 0.84165
# Poissons Ratio (y) = 0.20290 0.15290
# Poissons Ratio (z) = 0.47521 0.21042
#
# Static dielectric constant tensor:
#      x y z
#    x 3.352530 0.000000 0.000000 
#    y 0.000000 3.466220 0.000000 
#    z 0.000000 0.000000 3.438540 
# 
# 
# High freq. dielectric constant tensor:
#      x y z
#    x 1.710610 0.000000 0.000000 
#    y 0.000000 1.721940 0.000000 
#    z 0.000000 0.000000 1.720060 
# 
# From -- ./inp_files/28227.got.cif
#   From: 2010.03.12/outbox.cif.g09.slc.cpg/sg59_15_cif.got.tgz:28227.got - 2010.04.16 16:29:54.
