data_PCOD8244016
_publ_section_title
;
Structure prediction by ZEFSAII (Michael W. Deem and Ramdas Pophale) SiO2 
 PCOD8244016
Probable space group: P M M N
;
_chemical_formula_sum "Si O2"
_cell_formula_units_Z 48
_cell_length_a 15.400745
_cell_length_b 8.939416
_cell_length_c 19.033605
_cell_angle_alpha 90.000000
_cell_angle_beta 90.000000
_cell_angle_gamma 90.000000
_cell_volume 2620.426183
_symmetry_space_group_name_H-M "P M M N"
_symmetry_group_IT_number 59
_space_group.IT_coordinate_system_code '2'
_symmetry_cell_setting 'orthorhombic'
loop_
_space_group_symop_operation_xyz
x,y,z
1/2-x,1/2-y,z
1/2+x,-y,-z
-x,1/2+y,-z
-x,-y,-z
1/2+x,1/2+y,-z
1/2-x,y,z
x,1/2-y,z
loop_
_atom_site_type_symbol
_atom_site_label
_atom_site_fract_x
_atom_site_fract_y
_atom_site_fract_z
Si Si1 0.504701 0.427084 0.169784
Si Si2 0.424807 0.574116 0.455867
Si Si3 0.924256 0.074513 0.706832
Si Si4 0.850016 0.578027 0.082968
Si Si5 0.250000 0.082640 0.291430
Si Si6 0.845904 0.927520 0.924187
Si Si7 0.250000 0.417738 0.457987
O O1 0.502210 0.250000 0.177927
O O2 0.500968 0.502176 0.246968
O O3 0.593998 0.474824 0.134047
O O4 0.422464 0.489530 0.125121
O O5 0.500000 0.500000 0.500000
O O6 0.422882 0.750000 0.468864
O O7 0.440736 0.534824 0.374368
O O8 0.334630 0.506090 0.484028
O O9 0.919800 0.250000 0.718709
O O10 0.834763 0.003264 0.735117
O O11 0.750000 0.561783 0.105540
O O12 0.880269 0.750000 0.089816
O O13 0.863319 0.517937 0.003717
O O14 0.250000 0.250000 0.259014
O O15 0.250000 0.088617 0.374724
O O16 0.750000 0.983726 0.898790
O O17 0.846267 0.750000 0.924488
O O18 0.250000 0.250000 0.489654
#
# Coordination Sequence:
#
# PCOD8244016 Si02
#       7
#     8   8   8   8   4   8   4
#     4  11  21  31  51  79 107 138 174 221 267 310
#     4  10  20  35  57  81 109 143 179 222 266 315
#     4  10  21  35  51  76 110 144 177 212 260 321
#     4   9  18  35  56  72  95 137 181 221 268 319
#     4   9  17  31  51  75 105 139 172 209 254 307
#     4   8  16  31  50  75 105 137 174 212 260 317
#     4   9  17  31  53  81 109 139 174 209 254 315
#
# _framework density 18.317630000000001
#
# number of rings (size 3 to 8) (size 9 to 14) (size 15 to 20)
#    0.000    2.500    0.000    3.500    1.167    4.333 
#    0.000    0.833    1.833    2.000    0.000    0.000 
#    0.000    0.000    0.000    0.000    0.000    0.000 
#
# Total GULP energy -595199.748763 kJ/mol
# GULP energy per Si atom -12399.994766 kJ/mol
# Density = 1.827594 g / cm^3
# Si number density = 18.317630 Si / 1000 Ang^3
#
#
#
# Elastic Constant Matrix: (Units=GPa)
#
#
# Indices 1 2 3 4 5 6 
#
# 1 113.3688 51.2844 55.4407 0.0000 0.0000 0.0000
# 2 51.2844 92.9319 46.9184 0.0000 0.0000 0.0000
# 3 55.4407 46.9184 70.3875 0.0000 0.0000 0.0000
# 4 0.0000 0.0000 0.0000 24.3970 0.0000 0.0000
# 5 0.0000 0.0000 0.0000 0.0000 31.3033 0.0000
# 6 0.0000 0.0000 0.0000 0.0000 0.0000 35.6139
#
#
#
# Elastic Compliance Matrix: (Units=1/GPa)
#
#
# Indices 1 2 3 4 5 6 
#
# 1 0.015067 -0.003502 -0.009533 0.000000 0.000000 0.000000
# 2 -0.003502 0.017032 -0.008595 0.000000 0.000000 0.000000
# 3 -0.009533 -0.008595 0.027445 0.000000 0.000000 0.000000
# 4 0.000000 0.000000 0.000000 0.040989 0.000000 0.000000
# 5 0.000000 0.000000 0.000000 0.000000 0.031946 0.000000
# 6 0.000000 0.000000 0.000000 0.000000 0.000000 0.028079
#
#
# Mechanical properties :
#
#
# Convention : Reuss Voigt Hill
#
# Bulk Modulus (GPa) = 61.40927 64.88614 63.14771
# Shear Modulus (GPa) = 23.89527 26.46581 25.18054
#
# Velocity S-wave (km/s) = 3.61570 3.80521 3.71167
# Velocity P-wave (km/s) = 7.14342 7.40310 7.27442
#
# Compressibility (1/GPa) = 0.01628419
#
# Stress axis : x y z
#
# Youngs Moduli (GPa) = 66.37083 58.71161 36.43591
#
# Poissons Ratio (x) = 0.20558 0.34736
# Poissons Ratio (y) = 0.23240 0.31318
# Poissons Ratio (z) = 0.63274 0.50465
#
# Static dielectric constant tensor:
#      x y z
#    x 3.446580 0.000000 0.000000 
#    y 0.000000 3.288600 0.000000 
#    z 0.000000 0.000000 3.269520 
# 
# 
# High freq. dielectric constant tensor:
#      x y z
#    x 1.706880 0.000000 0.000000 
#    y 0.000000 1.704980 0.000000 
#    z 0.000000 0.000000 1.694340 
# 
# From -- ./inp_files/25521.got.cif
#   From: 2010.03.12/outbox.cif.g09.slc.cpg/sg59_13_cif.got.tgz:25521.got - 2010.04.16 16:29:54.
