data_PCOD8244298
_publ_section_title
;
Structure prediction by ZEFSAII (Michael W. Deem and Ramdas Pophale) SiO2 
 PCOD8244298
Probable space group: P M M N
;
_chemical_formula_sum "Si O2"
_cell_formula_units_Z 48
_cell_length_a 18.746825
_cell_length_b 8.726084
_cell_length_c 14.862481
_cell_angle_alpha 90.000000
_cell_angle_beta 90.000000
_cell_angle_gamma 90.000000
_cell_volume 2431.299311
_symmetry_space_group_name_H-M "P M M N"
_symmetry_group_IT_number 59
_space_group.IT_coordinate_system_code '2'
_symmetry_cell_setting 'orthorhombic'
loop_
_space_group_symop_operation_xyz
x,y,z
1/2-x,1/2-y,z
1/2+x,-y,-z
-x,1/2+y,-z
-x,-y,-z
1/2+x,1/2+y,-z
1/2-x,y,z
x,1/2-y,z
loop_
_atom_site_type_symbol
_atom_site_label
_atom_site_fract_x
_atom_site_fract_y
_atom_site_fract_z
Si Si1 0.581569 0.429651 0.125133
Si Si2 0.332676 0.070253 0.037757
Si Si3 0.095962 0.072994 0.546871
Si Si4 0.168959 0.426670 0.723315
Si Si5 0.445849 0.569959 0.376390
Si Si6 0.934643 0.068328 0.825424
O O1 0.582984 0.250000 0.103887
O O2 0.616924 0.463371 0.221599
O O3 0.500597 0.488157 0.124095
O O4 0.626502 0.519785 0.051405
O O5 0.250000 0.027028 0.026763
O O6 0.343514 0.250000 0.052703
O O7 0.362696 0.979661 0.123875
O O8 0.088289 0.250000 0.523662
O O9 0.159931 0.040400 0.616743
O O10 0.024054 0.011154 0.594784
O O11 0.110262 0.988842 0.451723
O O12 0.250000 0.460238 0.750902
O O13 0.147916 0.250000 0.743596
O O14 0.441916 0.750000 0.372897
O O15 0.428135 0.506655 0.277035
O O16 0.945935 0.250000 0.829095
#
# Coordination Sequence:
#
# PCOD8244298 Si02
#       6
#     8   8   8   8   8   8
#     4  12  24  38  60  89 119 152 195 243 293 349
#     4  11  25  44  63  85 117 155 194 239 294 352
#     4   9  17  32  53  80 113 148 189 233 282 343
#     4  10  20  36  57  82 117 158 196 240 297 354
#     4   9  18  33  55  82 111 146 187 234 285 335
#     4  11  22  40  64  89 119 153 196 244 291 346
#
# _framework density 19.742529999999999
#
# number of rings (size 3 to 8) (size 9 to 14) (size 15 to 20)
#    0.000    1.667    1.667    3.500    0.000    5.667 
#    0.000    0.833    0.000    3.000    0.000    0.000 
#    0.000    0.000    0.000    0.000    0.000    0.000 
#
# Total GULP energy -595285.166898 kJ/mol
# GULP energy per Si atom -12401.774310 kJ/mol
# Density = 1.969760 g / cm^3
# Si number density = 19.742530 Si / 1000 Ang^3
#
#
#
# Elastic Constant Matrix: (Units=GPa)
#
#
# Indices 1 2 3 4 5 6 
#
# 1 59.4063 19.1769 37.1517 0.0000 0.0000 0.0000
# 2 19.1769 42.8435 20.7001 0.0000 0.0000 0.0000
# 3 37.1517 20.7001 127.7163 0.0000 0.0000 0.0000
# 4 0.0000 0.0000 0.0000 35.7612 0.0000 0.0000
# 5 0.0000 0.0000 0.0000 0.0000 26.1587 0.0000
# 6 0.0000 0.0000 0.0000 0.0000 0.0000 25.5752
#
#
#
# Elastic Compliance Matrix: (Units=1/GPa)
#
#
# Indices 1 2 3 4 5 6 
#
# 1 0.022616 -0.007534 -0.005358 0.000000 0.000000 0.000000
# 2 -0.007534 0.027834 -0.002320 0.000000 0.000000 0.000000
# 3 -0.005358 -0.002320 0.009764 0.000000 0.000000 0.000000
# 4 0.000000 0.000000 0.000000 0.027963 0.000000 0.000000
# 5 0.000000 0.000000 0.000000 0.000000 0.038228 0.000000
# 6 0.000000 0.000000 0.000000 0.000000 0.000000 0.039100
#
#
# Mechanical properties :
#
#
# Convention : Reuss Voigt Hill
#
# Bulk Modulus (GPa) = 33.56729 42.66930 38.11829
# Shear Modulus (GPa) = 24.28838 27.69484 25.99161
#
# Velocity S-wave (km/s) = 3.51131 3.74946 3.63234
# Velocity P-wave (km/s) = 5.78606 6.35645 6.07795
#
# Compressibility (1/GPa) = 0.02979091
#
# Stress axis : x y z
#
# Youngs Moduli (GPa) = 44.21646 35.92736 102.41379
#
# Poissons Ratio (x) = 0.27069 0.54870
# Poissons Ratio (y) = 0.33315 0.23756
# Poissons Ratio (z) = 0.23690 0.08334
#
# Static dielectric constant tensor:
#      x y z
#    x 3.488380 0.000000 0.000000 
#    y 0.000000 3.511360 0.000000 
#    z 0.000000 0.000000 3.841790 
# 
# 
# High freq. dielectric constant tensor:
#      x y z
#    x 1.749600 0.000000 0.000000 
#    y 0.000000 1.763490 0.000000 
#    z 0.000000 0.000000 1.783860 
# 
# From -- ./inp_files/23670.got.cif
#   From: 2010.03.12/outbox.cif.g09.slc.cpg/sg59_12_cif.got.tgz:23670.got - 2010.04.16 16:29:54.
