data_PCOD8244946
_publ_section_title
;
Structure prediction by ZEFSAII (Michael W. Deem and Ramdas Pophale) SiO2 
 PCOD8244946
Probable space group: P M M N
;
_chemical_formula_sum "Si O2"
_cell_formula_units_Z 56
_cell_length_a 9.216924
_cell_length_b 13.848956
_cell_length_c 21.530370
_cell_angle_alpha 90.000000
_cell_angle_beta 90.000000
_cell_angle_gamma 90.000000
_cell_volume 2748.239233
_symmetry_space_group_name_H-M "P M M N"
_symmetry_group_IT_number 59
_space_group.IT_coordinate_system_code '2'
_symmetry_cell_setting 'orthorhombic'
loop_
_space_group_symop_operation_xyz
x,y,z
1/2-x,1/2-y,z
1/2+x,-y,-z
-x,1/2+y,-z
-x,-y,-z
1/2+x,1/2+y,-z
1/2-x,y,z
x,1/2-y,z
loop_
_atom_site_type_symbol
_atom_site_label
_atom_site_fract_x
_atom_site_fract_y
_atom_site_fract_z
Si Si1 0.084396 0.859772 0.510768
Si Si2 0.415777 0.863862 0.791268
Si Si3 0.918801 0.537251 0.405504
Si Si4 0.421509 0.512282 0.280823
Si Si5 0.912594 0.634998 0.910041
Si Si6 0.915900 0.864234 0.046194
Si Si7 0.919556 0.359648 0.836031
O O1 0.250000 0.874098 0.487590
O O2 0.055827 0.750000 0.532150
O O3 0.054214 0.928603 0.569609
O O4 0.975767 0.885374 0.455227
O O5 0.250000 0.897866 0.786622
O O6 0.430843 0.750000 0.785064
O O7 0.479287 0.901989 0.856824
O O8 0.507568 0.908842 0.734818
O O9 0.750000 0.557041 0.392626
O O10 0.009902 0.553741 0.343386
O O11 0.250000 0.501515 0.289008
O O12 0.466188 0.584347 0.225648
O O13 0.750000 0.596971 0.894822
O O14 0.909583 0.750000 0.911789
O O15 0.965227 0.596864 0.977915
O O16 0.750000 0.892412 0.057846
O O17 0.938318 0.750000 0.047027
O O18 0.010335 0.909139 0.102396
O O19 0.750000 0.364068 0.846589
O O20 0.974416 0.250000 0.827497
#
# Coordination Sequence:
#
# PCOD8244946 Si02
#       7
#     8   8   8   8   8   8   8
#     4   9  19  38  63  88 116 150 183 218 265 319
#     4  10  21  36  54  77 105 139 182 232 281 327
#     4  10  21  37  58  87 119 148 183 227 270 313
#     4  11  23  38  56  79 111 151 188 222 268 325
#     4   8  14  27  48  73 101 133 171 219 277 337
#     4   8  14  26  47  74 101 131 170 220 278 333
#     4   9  19  35  53  74 102 138 181 227 273 324
#
# _framework density 20.376684000000001
#
# number of rings (size 3 to 8) (size 9 to 14) (size 15 to 20)
#    0.000    2.714    0.000    2.143    0.000    4.571 
#    0.000    6.429    0.000    0.000    0.000    0.000 
#    0.000    0.000    0.000    0.000    0.000    0.000 
#
# Total GULP energy -694367.919614 kJ/mol
# GULP energy per Si atom -12399.427136 kJ/mol
# Density = 2.033031 g / cm^3
# Si number density = 20.376684 Si / 1000 Ang^3
#
#
#
# Elastic Constant Matrix: (Units=GPa)
#
#
# Indices 1 2 3 4 5 6 
#
# 1 81.1746 6.6582 37.5490 0.0000 0.0000 0.0000
# 2 6.6582 36.4818 1.5751 0.0000 0.0000 0.0000
# 3 37.5490 1.5751 92.8245 0.0000 0.0000 0.0000
# 4 0.0000 0.0000 0.0000 22.0867 0.0000 0.0000
# 5 0.0000 0.0000 0.0000 0.0000 38.5048 0.0000
# 6 0.0000 0.0000 0.0000 0.0000 0.0000 22.9005
#
#
#
# Elastic Compliance Matrix: (Units=1/GPa)
#
#
# Indices 1 2 3 4 5 6 
#
# 1 0.015387 -0.002541 -0.006181 0.000000 0.000000 0.000000
# 2 -0.002541 0.027851 0.000555 0.000000 0.000000 0.000000
# 3 -0.006181 0.000555 0.013264 0.000000 0.000000 0.000000
# 4 0.000000 0.000000 0.000000 0.045276 0.000000 0.000000
# 5 0.000000 0.000000 0.000000 0.000000 0.025971 0.000000
# 6 0.000000 0.000000 0.000000 0.000000 0.000000 0.043667
#
#
# Mechanical properties :
#
#
# Convention : Reuss Voigt Hill
#
# Bulk Modulus (GPa) = 24.89574 33.56059 29.22816
# Shear Modulus (GPa) = 24.85849 27.67832 26.26841
#
# Velocity S-wave (km/s) = 3.49656 3.68956 3.59436
# Velocity P-wave (km/s) = 5.34280 5.88696 5.62147
#
# Compressibility (1/GPa) = 0.04016752
#
# Stress axis : x y z
#
# Youngs Moduli (GPa) = 64.99105 35.90567 75.39246
#
# Poissons Ratio (x) = 0.09125 0.46600
# Poissons Ratio (y) = 0.16516 -0.04187
# Poissons Ratio (z) = 0.40171 -0.01994
#
# Static dielectric constant tensor:
#      x y z
#    x 3.688660 0.000000 0.000000 
#    y 0.000000 3.588550 0.000000 
#    z 0.000000 0.000000 3.808960 
# 
# 
# High freq. dielectric constant tensor:
#      x y z
#    x 1.794240 0.000000 0.000000 
#    y 0.000000 1.788870 0.000000 
#    z 0.000000 0.000000 1.794190 
# 
# From -- ./inp_files/29104.got.cif
#   From: 2010.03.12/outbox.cif.g09.slc.cpg/sg59_15_cif.got.tgz:29104.got - 2010.04.16 16:29:54.
