data_PCOD8244880
_publ_section_title
;
Structure prediction by ZEFSAII (Michael W. Deem and Ramdas Pophale) SiO2 
 PCOD8244880
Probable space group: P M M N
;
_chemical_formula_sum "Si O2"
_cell_formula_units_Z 48
_cell_length_a 10.001498
_cell_length_b 9.032080
_cell_length_c 30.538927
_cell_angle_alpha 90.000000
_cell_angle_beta 90.000000
_cell_angle_gamma 90.000000
_cell_volume 2758.713511
_symmetry_space_group_name_H-M "P M M N"
_symmetry_group_IT_number 59
_space_group.IT_coordinate_system_code '2'
_symmetry_cell_setting 'orthorhombic'
loop_
_space_group_symop_operation_xyz
x,y,z
1/2-x,1/2-y,z
1/2+x,-y,-z
-x,1/2+y,-z
-x,-y,-z
1/2+x,1/2+y,-z
1/2-x,y,z
x,1/2-y,z
loop_
_atom_site_type_symbol
_atom_site_label
_atom_site_fract_x
_atom_site_fract_y
_atom_site_fract_z
Si Si1 0.899669 0.925876 0.800622
Si Si2 0.903934 0.576252 0.034529
Si Si3 0.600317 0.926243 0.703295
Si Si4 0.403296 0.922302 0.874990
Si Si5 0.402464 0.576058 0.533717
Si Si6 0.398744 0.926286 0.631710
O O1 0.750000 0.980697 0.812713
O O2 0.903493 0.750000 0.800721
O O3 0.939357 0.982640 0.751990
O O4 0.005061 0.986979 0.835954
O O5 0.750000 0.539741 0.022653
O O6 0.931061 0.750000 0.034378
O O7 0.940352 0.513456 0.081996
O O8 0.000000 0.500000 0.000000
O O9 0.750000 0.979499 0.691787
O O10 0.593291 0.750000 0.702106
O O11 0.500184 0.995345 0.667340
O O12 0.250000 0.947039 0.861082
O O13 0.432732 0.750000 0.884351
O O14 0.500000 0.500000 0.500000
O O15 0.250000 0.531130 0.523002
O O16 0.421617 0.750000 0.529605
O O17 0.439851 0.522689 0.582863
O O18 0.250000 0.983916 0.642938
O O19 0.400634 0.750000 0.633601
#
# Coordination Sequence:
#
# PCOD8244880 Si02
#       6
#     8   8   8   8   8   8
#     4   8  14  24  38  59  88 118 146 178 217 261
#     4  10  21  36  53  73  97 125 157 194 235 276
#     4   8  13  21  34  55  83 112 142 177 217 262
#     4   9  17  29  45  66  92 120 150 184 221 264
#     4   9  18  31  45  64  90 118 151 191 233 278
#     4   8  14  24  37  55  82 113 143 179 222 266
#
# _framework density 17.399414
#
# number of rings (size 3 to 8) (size 9 to 14) (size 15 to 20)
#    0.000    3.333    0.000    2.500    0.000    3.333 
#    0.000    6.667    0.000    0.000    0.000    1.167 
#    0.000    4.000    0.000    0.000    0.000    0.000 
#
# Total GULP energy -594932.475741 kJ/mol
# GULP energy per Si atom -12394.426578 kJ/mol
# Density = 1.735981 g / cm^3
# Si number density = 17.399414 Si / 1000 Ang^3
#
#
#
# Elastic Constant Matrix: (Units=GPa)
#
#
# Indices 1 2 3 4 5 6 
#
# 1 135.4716 33.9516 124.5101 0.0000 0.0000 0.0000
# 2 33.9516 29.5937 39.1819 0.0000 0.0000 0.0000
# 3 124.5101 39.1819 174.0264 0.0000 0.0000 0.0000
# 4 0.0000 0.0000 0.0000 18.5203 0.0000 0.0000
# 5 0.0000 0.0000 0.0000 0.0000 45.5731 0.0000
# 6 0.0000 0.0000 0.0000 0.0000 0.0000 16.9397
#
#
#
# Elastic Compliance Matrix: (Units=1/GPa)
#
#
# Indices 1 2 3 4 5 6 
#
# 1 0.022370 -0.006374 -0.014570 0.000000 0.000000 0.000000
# 2 -0.006374 0.049958 -0.006688 0.000000 0.000000 0.000000
# 3 -0.014570 -0.006688 0.017676 0.000000 0.000000 0.000000
# 4 0.000000 0.000000 0.000000 0.053995 0.000000 0.000000
# 5 0.000000 0.000000 0.000000 0.000000 0.021943 0.000000
# 6 0.000000 0.000000 0.000000 0.000000 0.000000 0.059033
#
#
# Mechanical properties :
#
#
# Convention : Reuss Voigt Hill
#
# Bulk Modulus (GPa) = 28.78415 81.59766 55.19090
# Shear Modulus (GPa) = 17.13393 25.63647 21.38520
#
# Velocity S-wave (km/s) = 3.14146 3.84267 3.50962
# Velocity P-wave (km/s) = 5.45321 8.16619 6.94349
#
# Compressibility (1/GPa) = 0.03474135
#
# Stress axis : x y z
#
# Youngs Moduli (GPa) = 44.70252 20.01684 56.57260
#
# Poissons Ratio (x) = 0.12758 0.82427
# Poissons Ratio (y) = 0.28492 0.37835
# Poissons Ratio (z) = 0.65132 0.13387
#
# Static dielectric constant tensor:
#      x y z
#    x 3.495560 0.000000 0.000000 
#    y 0.000000 2.721120 0.000000 
#    z 0.000000 0.000000 0.876390 
# 
# 
# High freq. dielectric constant tensor:
#      x y z
#    x 1.677170 0.000000 0.000000 
#    y 0.000000 1.616560 0.000000 
#    z 0.000000 0.000000 1.681790 
# 
# From -- ./inp_files/32594.got.cif
#   From: 2010.03.12/outbox.cif.g09.slc.cpg/sg59_17_cif.got.tgz:32594.got - 2010.04.16 16:29:54.
