data_PCOD8244762
_publ_section_title
;
Structure prediction by ZEFSAII (Michael W. Deem and Ramdas Pophale) SiO2 
 PCOD8244762
Probable space group: P M M N
;
_chemical_formula_sum "Si O2"
_cell_formula_units_Z 64
_cell_length_a 18.642727
_cell_length_b 9.068352
_cell_length_c 21.344783
_cell_angle_alpha 90.000000
_cell_angle_beta 90.000000
_cell_angle_gamma 90.000000
_cell_volume 3608.523628
_symmetry_space_group_name_H-M "P M M N"
_symmetry_group_IT_number 59
_space_group.IT_coordinate_system_code '2'
_symmetry_cell_setting 'orthorhombic'
loop_
_space_group_symop_operation_xyz
x,y,z
1/2-x,1/2-y,z
1/2+x,-y,-z
-x,1/2+y,-z
-x,-y,-z
1/2+x,1/2+y,-z
1/2-x,y,z
x,1/2-y,z
loop_
_atom_site_type_symbol
_atom_site_label
_atom_site_fract_x
_atom_site_fract_y
_atom_site_fract_z
Si Si1 0.330943 0.923916 0.142443
Si Si2 0.541774 0.912726 0.086781
Si Si3 0.465519 0.420024 0.193096
Si Si4 0.460205 0.924370 0.442669
Si Si5 0.168457 0.079360 0.637300
Si Si6 0.106621 0.912255 0.015420
Si Si7 0.967171 0.079636 0.328043
Si Si8 0.832196 0.581760 0.508516
O O1 0.250000 0.962350 0.163767
O O2 0.346929 0.750000 0.146942
O O3 0.341463 0.975218 0.070043
O O4 0.387106 0.005869 0.187394
O O5 0.566537 0.750000 0.108144
O O6 0.472499 0.901494 0.043584
O O7 0.524786 0.008754 0.147849
O O8 0.606302 0.984437 0.046004
O O9 0.457877 0.250000 0.174505
O O10 0.492546 0.442035 0.263038
O O11 0.469657 0.750000 0.446340
O O12 0.500000 0.000000 0.500000
O O13 0.490693 0.980903 0.377474
O O14 0.376995 0.970428 0.448147
O O15 0.250000 0.030792 0.652081
O O16 0.157473 0.250000 0.654960
O O17 0.150660 0.054289 0.564330
O O18 0.114637 0.978572 0.677628
O O19 0.132671 0.750000 0.994305
O O20 0.966339 0.250000 0.348889
O O21 0.750000 0.548304 0.523220
O O22 0.851618 0.750000 0.525913
#
# Coordination Sequence:
#
# PCOD8244762 Si02
#       8
#     8   8   8   8   8   8   8   8
#     4   9  18  33  53  77 105 139 181 225 267 312
#     4   9  16  27  46  71  98 128 163 204 250 299
#     4  10  21  35  51  74 104 139 181 223 264 314
#     4  12  23  35  54  79 107 137 173 219 270 321
#     4   9  18  33  55  81 105 130 161 204 262 320
#     4   8  14  25  44  71 100 127 158 202 254 300
#     4  11  23  37  54  78 106 140 182 222 264 318
#     4   9  18  34  55  79 107 135 165 207 263 322
#
# _framework density 17.735786000000001
#
# number of rings (size 3 to 8) (size 9 to 14) (size 15 to 20)
#    0.000    2.375    1.250    3.750    0.000    5.750 
#    0.000    1.875    0.000    1.500    0.000    1.750 
#    0.000    0.000    0.000    0.000    0.000    0.000 
#
# Total GULP energy -793479.533530 kJ/mol
# GULP energy per Si atom -12398.117711 kJ/mol
# Density = 1.769542 g / cm^3
# Si number density = 17.735786 Si / 1000 Ang^3
#
#
#
# Elastic Constant Matrix: (Units=GPa)
#
#
# Indices 1 2 3 4 5 6 
#
# 1 93.7174 58.2743 42.8122 0.0000 0.0000 0.0000
# 2 58.2743 128.4945 59.6645 0.0000 0.0000 0.0000
# 3 42.8122 59.6645 75.5036 0.0000 0.0000 0.0000
# 4 0.0000 0.0000 0.0000 27.5758 0.0000 0.0000
# 5 0.0000 0.0000 0.0000 0.0000 20.7835 0.0000
# 6 0.0000 0.0000 0.0000 0.0000 0.0000 28.4768
#
#
#
# Elastic Compliance Matrix: (Units=1/GPa)
#
#
# Indices 1 2 3 4 5 6 
#
# 1 0.016104 -0.004839 -0.005307 0.000000 0.000000 0.000000
# 2 -0.004839 0.013747 -0.008119 0.000000 0.000000 0.000000
# 3 -0.005307 -0.008119 0.022670 0.000000 0.000000 0.000000
# 4 0.000000 0.000000 0.000000 0.036264 0.000000 0.000000
# 5 0.000000 0.000000 0.000000 0.000000 0.048115 0.000000
# 6 0.000000 0.000000 0.000000 0.000000 0.000000 0.035116
#
#
# Mechanical properties :
#
#
# Convention : Reuss Voigt Hill
#
# Bulk Modulus (GPa) = 62.54175 68.80193 65.67184
# Shear Modulus (GPa) = 23.37788 24.49818 23.93803
#
# Velocity S-wave (km/s) = 3.63453 3.72060 3.67782
# Velocity P-wave (km/s) = 7.27686 7.57193 7.42586
#
# Compressibility (1/GPa) = 0.01598932
#
# Stress axis : x y z
#
# Youngs Moduli (GPa) = 62.09716 72.74254 44.11120
#
# Poissons Ratio (x) = 0.35200 0.23412
# Poissons Ratio (y) = 0.30048 0.35816
# Poissons Ratio (z) = 0.32957 0.59063
#
# Static dielectric constant tensor:
#      x y z
#    x 3.327600 0.000000 0.000000 
#    y 0.000000 3.467070 0.000000 
#    z 0.000000 0.000000 3.118640 
# 
# 
# High freq. dielectric constant tensor:
#      x y z
#    x 1.674360 0.000000 0.000000 
#    y 0.000000 1.692280 0.000000 
#    z 0.000000 0.000000 1.660930 
# 
# From -- ./inp_files/30780.got.cif
#   From: 2010.03.12/outbox.cif.g09.slc.cpg/sg59_16_cif.got.tgz:30780.got - 2010.04.16 16:29:54.
