data_PCOD8244882
_publ_section_title
;
Structure prediction by ZEFSAII (Michael W. Deem and Ramdas Pophale) SiO2 
 PCOD8244882
Probable space group: P M M N
;
_chemical_formula_sum "Si O2"
_cell_formula_units_Z 48
_cell_length_a 18.335412
_cell_length_b 9.113703
_cell_length_c 15.946118
_cell_angle_alpha 90.000000
_cell_angle_beta 90.000000
_cell_angle_gamma 90.000000
_cell_volume 2664.652119
_symmetry_space_group_name_H-M "P M M N"
_symmetry_group_IT_number 59
_space_group.IT_coordinate_system_code '2'
_symmetry_cell_setting 'orthorhombic'
loop_
_space_group_symop_operation_xyz
x,y,z
1/2-x,1/2-y,z
1/2+x,-y,-z
-x,1/2+y,-z
-x,-y,-z
1/2+x,1/2+y,-z
1/2-x,y,z
x,1/2-y,z
loop_
_atom_site_type_symbol
_atom_site_label
_atom_site_fract_x
_atom_site_fract_y
_atom_site_fract_z
Si Si1 0.913100 0.920478 0.827886
Si Si2 0.333488 0.079324 0.341683
Si Si3 0.834199 0.421671 0.164692
Si Si4 0.042908 0.420406 0.749940
Si Si5 0.036446 0.921158 0.422241
Si Si6 0.165727 0.419097 0.003173
O O1 0.934664 0.750000 0.828118
O O2 0.855285 0.953788 0.754267
O O3 0.878457 0.970127 0.915412
O O4 0.985690 0.014888 0.816339
O O5 0.250000 0.030358 0.354648
O O6 0.344142 0.250000 0.362875
O O7 0.383482 0.986989 0.405203
O O8 0.750000 0.460052 0.181097
O O9 0.849251 0.250000 0.166339
O O10 0.879840 0.498979 0.238352
O O11 0.860065 0.483384 0.074904
O O12 0.052746 0.250000 0.768398
O O13 0.016015 0.451471 0.656252
O O14 0.045196 0.750000 0.441329
O O15 0.000000 0.000000 0.500000
O O16 0.250000 0.445926 0.023738
O O17 0.150547 0.250000 0.981049
#
# Coordination Sequence:
#
# PCOD8244882 Si02
#       6
#     8   8   8   8   8   8
#     4   9  17  30  50  76 105 137 171 207 248 296
#     4   9  17  31  53  80 109 139 170 206 250 301
#     4  10  21  36  53  73  98 131 172 215 257 299
#     4  10  21  36  54  76 100 129 166 206 252 304
#     4  10  21  37  57  80 105 134 168 207 254 307
#     4   9  17  30  49  73 102 137 175 212 250 292
#
# _framework density 18.013608999999999
#
# number of rings (size 3 to 8) (size 9 to 14) (size 15 to 20)
#    0.000    2.500    0.000    2.000    0.000    6.667 
#    0.000    0.833    0.000    4.000    0.000    0.000 
#    0.000    0.000    0.000    0.000    0.000    0.000 
#
# Total GULP energy -595351.510271 kJ/mol
# GULP energy per Si atom -12403.156464 kJ/mol
# Density = 1.797261 g / cm^3
# Si number density = 18.013609 Si / 1000 Ang^3
#
#
#
# Elastic Constant Matrix: (Units=GPa)
#
#
# Indices 1 2 3 4 5 6 
#
# 1 122.8140 71.0565 67.1332 0.0000 0.0000 0.0000
# 2 71.0565 98.1193 56.0759 0.0000 0.0000 0.0000
# 3 67.1332 56.0759 81.8511 0.0000 0.0000 0.0000
# 4 0.0000 0.0000 0.0000 29.4103 0.0000 0.0000
# 5 0.0000 0.0000 0.0000 0.0000 29.0870 0.0000
# 6 0.0000 0.0000 0.0000 0.0000 0.0000 32.3623
#
#
#
# Elastic Compliance Matrix: (Units=1/GPa)
#
#
# Indices 1 2 3 4 5 6 
#
# 1 0.017473 -0.007336 -0.009306 0.000000 0.000000 0.000000
# 2 -0.007336 0.019829 -0.007569 0.000000 0.000000 0.000000
# 3 -0.009306 -0.007569 0.025035 0.000000 0.000000 0.000000
# 4 0.000000 0.000000 0.000000 0.034002 0.000000 0.000000
# 5 0.000000 0.000000 0.000000 0.000000 0.034380 0.000000
# 6 0.000000 0.000000 0.000000 0.000000 0.000000 0.030900
#
#
# Mechanical properties :
#
#
# Convention : Reuss Voigt Hill
#
# Bulk Modulus (GPa) = 71.84990 76.81283 74.33136
# Shear Modulus (GPa) = 23.29066 25.40651 24.34858
#
# Velocity S-wave (km/s) = 3.59966 3.75961 3.68050
# Velocity P-wave (km/s) = 7.56636 7.84732 7.70812
#
# Compressibility (1/GPa) = 0.01391790
#
# Stress axis : x y z
#
# Youngs Moduli (GPa) = 57.23016 50.43001 39.94413
#
# Poissons Ratio (x) = 0.36993 0.37171
# Poissons Ratio (y) = 0.41982 0.30232
# Poissons Ratio (z) = 0.53257 0.38168
#
# Static dielectric constant tensor:
#      x y z
#    x 3.385310 0.000000 0.000000 
#    y 0.000000 3.350560 0.000000 
#    z 0.000000 0.000000 3.227180 
# 
# 
# High freq. dielectric constant tensor:
#      x y z
#    x 1.699410 0.000000 0.000000 
#    y 0.000000 1.701390 0.000000 
#    z 0.000000 0.000000 1.685760 
# 
# From -- ./inp_files/20293.got.cif
#   From: 2010.03.12/outbox.cif.g09.slc.cpg/sg59_11_cif.got.tgz:20293.got - 2010.04.16 16:29:54.
