data_PCOD8244075
_publ_section_title
;
Structure prediction by ZEFSAII (Michael W. Deem and Ramdas Pophale) SiO2 
 PCOD8244075
Probable space group: P M M N
;
_chemical_formula_sum "Si O2"
_cell_formula_units_Z 64
_cell_length_a 9.028602
_cell_length_b 25.005751
_cell_length_c 14.614971
_cell_angle_alpha 90.000000
_cell_angle_beta 90.000000
_cell_angle_gamma 90.000000
_cell_volume 3299.577770
_symmetry_space_group_name_H-M "P M M N"
_symmetry_group_IT_number 59
_space_group.IT_coordinate_system_code '2'
_symmetry_cell_setting 'orthorhombic'
loop_
_space_group_symop_operation_xyz
x,y,z
1/2-x,1/2-y,z
1/2+x,-y,-z
-x,1/2+y,-z
-x,-y,-z
1/2+x,1/2+y,-z
1/2-x,y,z
x,1/2-y,z
loop_
_atom_site_type_symbol
_atom_site_label
_atom_site_fract_x
_atom_site_fract_y
_atom_site_fract_z
Si Si1 0.921248 0.095147 0.720100
Si Si2 0.420179 0.689622 0.796156
Si Si3 0.580622 0.095704 0.337917
Si Si4 0.420696 0.190993 0.822201
Si Si5 0.420577 0.554558 0.472144
Si Si6 0.422339 0.155703 0.020854
Si Si7 0.579513 0.520641 0.781580
Si Si8 0.076025 0.550226 0.956189
O O1 0.750000 0.109001 0.710350
O O2 0.988453 0.081425 0.619781
O O3 0.945954 0.043014 0.783969
O O4 0.994114 0.146241 0.765937
O O5 0.250000 0.678338 0.823680
O O6 0.441206 0.750000 0.759647
O O7 0.469620 0.650276 0.713476
O O8 0.517356 0.683009 0.887277
O O9 0.750000 0.081567 0.311586
O O10 0.565621 0.099540 0.447883
O O11 0.470465 0.046496 0.313954
O O12 0.250000 0.179660 0.802804
O O13 0.467602 0.250000 0.786867
O O14 0.449473 0.191692 0.931526
O O15 0.500000 0.500000 0.500000
O O16 0.250000 0.539460 0.452590
O O17 0.250000 0.142694 0.035904
O O18 0.512835 0.102529 0.995988
O O19 0.750000 0.534144 0.803620
O O20 0.469974 0.551499 0.850385
O O21 0.250000 0.546964 0.969958
O O22 0.000000 0.500000 0.000000
#
# Coordination Sequence:
#
# PCOD8244075 Si02
#       8
#     8   8   8   8   8   8   8   8
#     4  10  22  38  58  88 120 150 192 241 290 348
#     4  10  21  37  57  84 117 154 196 241 290 348
#     4  10  20  35  57  84 117 153 190 236 291 348
#     4  10  23  42  61  83 113 151 197 244 290 342
#     4  10  20  36  58  87 119 152 192 238 292 349
#     4  11  22  38  60  85 113 150 197 246 296 345
#     4  11  21  35  56  84 119 153 188 235 289 346
#     4  12  24  37  53  80 118 157 197 238 290 349
#
# _framework density 19.396421
#
# number of rings (size 3 to 8) (size 9 to 14) (size 15 to 20)
#    0.000    1.500    2.500    3.000    0.000    5.500 
#    0.000    0.625    0.000    2.250    0.000    0.000 
#    0.000    0.000    0.000    0.000    0.000    0.000 
#
# Total GULP energy -793439.467039 kJ/mol
# GULP energy per Si atom -12397.491672 kJ/mol
# Density = 1.935227 g / cm^3
# Si number density = 19.396421 Si / 1000 Ang^3
#
#
#
# Elastic Constant Matrix: (Units=GPa)
#
#
# Indices 1 2 3 4 5 6 
#
# 1 94.7495 50.5354 35.0798 0.0000 0.0000 0.0000
# 2 50.5354 121.1205 39.1931 0.0000 0.0000 0.0000
# 3 35.0798 39.1931 85.6217 0.0000 0.0000 0.0000
# 4 0.0000 0.0000 0.0000 22.7809 0.0000 0.0000
# 5 0.0000 0.0000 0.0000 0.0000 25.7861 0.0000
# 6 0.0000 0.0000 0.0000 0.0000 0.0000 28.2337
#
#
#
# Elastic Compliance Matrix: (Units=1/GPa)
#
#
# Indices 1 2 3 4 5 6 
#
# 1 0.014523 -0.004853 -0.003729 0.000000 0.000000 0.000000
# 2 -0.004853 0.011313 -0.003190 0.000000 0.000000 0.000000
# 3 -0.003729 -0.003190 0.014667 0.000000 0.000000 0.000000
# 4 0.000000 0.000000 0.000000 0.043896 0.000000 0.000000
# 5 0.000000 0.000000 0.000000 0.000000 0.038781 0.000000
# 6 0.000000 0.000000 0.000000 0.000000 0.000000 0.035419
#
#
# Mechanical properties :
#
#
# Convention : Reuss Voigt Hill
#
# Bulk Modulus (GPa) = 58.96353 61.23426 60.09889
# Shear Modulus (GPa) = 26.62453 27.13904 26.88179
#
# Velocity S-wave (km/s) = 3.70895 3.74462 3.72683
# Velocity P-wave (km/s) = 6.98620 7.09469 7.04065
#
# Compressibility (1/GPa) = 0.01695964
#
# Stress axis : x y z
#
# Youngs Moduli (GPa) = 68.85630 88.39066 68.17845
#
# Poissons Ratio (x) = 0.42895 0.25422
# Poissons Ratio (y) = 0.33415 0.21752
# Poissons Ratio (z) = 0.25675 0.28200
#
# Static dielectric constant tensor:
#      x y z
#    x 3.365220 0.000000 0.000000 
#    y 0.000000 3.531030 0.000000 
#    z 0.000000 0.000000 3.977160 
# 
# 
# High freq. dielectric constant tensor:
#      x y z
#    x 1.752090 0.000000 0.000000 
#    y 0.000000 1.752370 0.000000 
#    z 0.000000 0.000000 1.756480 
# 
# From -- ./inp_files/21429.got.cif
#   From: 2010.03.12/outbox.cif.g09.slc.cpg/sg59_11_cif.got.tgz:21429.got - 2010.04.16 16:29:54.
