data_PCOD8244782
_publ_section_title
;
Structure prediction by ZEFSAII (Michael W. Deem and Ramdas Pophale) SiO2 
 PCOD8244782
Probable space group: P M M N
;
_chemical_formula_sum "Si O2"
_cell_formula_units_Z 48
_cell_length_a 9.281648
_cell_length_b 14.245038
_cell_length_c 19.183715
_cell_angle_alpha 90.000000
_cell_angle_beta 90.000000
_cell_angle_gamma 90.000000
_cell_volume 2536.421466
_symmetry_space_group_name_H-M "P M M N"
_symmetry_group_IT_number 59
_space_group.IT_coordinate_system_code '2'
_symmetry_cell_setting 'orthorhombic'
loop_
_space_group_symop_operation_xyz
x,y,z
1/2-x,1/2-y,z
1/2+x,-y,-z
-x,1/2+y,-z
-x,-y,-z
1/2+x,1/2+y,-z
1/2-x,y,z
x,1/2-y,z
loop_
_atom_site_type_symbol
_atom_site_label
_atom_site_fract_x
_atom_site_fract_y
_atom_site_fract_z
Si Si1 0.916490 0.491957 0.237823
Si Si2 0.415634 0.139304 0.143677
Si Si3 0.583998 0.857289 0.124049
Si Si4 0.419013 0.143212 0.489314
Si Si5 0.417328 0.505851 0.603010
Si Si6 0.587256 0.361711 0.009252
O O1 0.750000 0.461969 0.230377
O O2 0.950581 0.585028 0.193573
O O3 0.957287 0.514895 0.317189
O O4 0.015089 0.406458 0.212151
O O5 0.250000 0.109223 0.136166
O O6 0.431812 0.250000 0.151842
O O7 0.501367 0.100710 0.076371
O O8 0.750000 0.865543 0.101467
O O9 0.542129 0.750000 0.140368
O O10 0.489952 0.898937 0.060537
O O11 0.250000 0.139244 0.475035
O O12 0.472491 0.250000 0.498397
O O13 0.461344 0.086494 0.559224
O O14 0.496459 0.096909 0.422983
O O15 0.250000 0.528798 0.593560
O O16 0.750000 0.400510 0.012341
O O17 0.584063 0.250000 0.009066
#
# Coordination Sequence:
#
# PCOD8244782 Si02
#       6
#     8   8   8   8   8   8
#     4  10  21  35  52  76 105 137 170 206 253 305
#     4  10  21  36  53  73  99 134 175 217 260 304
#     4   9  18  33  52  74 101 133 170 212 257 305
#     4   9  18  34  57  81 104 134 170 206 247 296
#     4   9  19  35  53  77 108 136 167 208 249 296
#     4   9  17  31  52  75  99 130 171 218 261 302
#
# _framework density 18.924299000000001
#
# number of rings (size 3 to 8) (size 9 to 14) (size 15 to 20)
#    0.000    2.667    0.000    1.000    0.000    6.667 
#    0.000    6.667    0.000    0.000    0.000    4.667 
#    0.000    0.000    0.000    0.000    0.000    0.000 
#
# Total GULP energy -595329.925973 kJ/mol
# GULP energy per Si atom -12402.706791 kJ/mol
# Density = 1.888123 g / cm^3
# Si number density = 18.924299 Si / 1000 Ang^3
#
#
#
# Elastic Constant Matrix: (Units=GPa)
#
#
# Indices 1 2 3 4 5 6 
#
# 1 85.0758 40.9471 51.0407 0.0000 0.0000 0.0000
# 2 40.9471 85.9816 44.0917 0.0000 0.0000 0.0000
# 3 51.0407 44.0917 127.3523 0.0000 0.0000 0.0000
# 4 0.0000 0.0000 0.0000 24.1418 0.0000 0.0000
# 5 0.0000 0.0000 0.0000 0.0000 31.6815 0.0000
# 6 0.0000 0.0000 0.0000 0.0000 0.0000 25.1567
#
#
#
# Elastic Compliance Matrix: (Units=1/GPa)
#
#
# Indices 1 2 3 4 5 6 
#
# 1 0.017557 -0.005779 -0.005036 0.000000 0.000000 0.000000
# 2 -0.005779 0.016043 -0.003238 0.000000 0.000000 0.000000
# 3 -0.005036 -0.003238 0.010992 0.000000 0.000000 0.000000
# 4 0.000000 0.000000 0.000000 0.041422 0.000000 0.000000
# 5 0.000000 0.000000 0.000000 0.000000 0.031564 0.000000
# 6 0.000000 0.000000 0.000000 0.000000 0.000000 0.039751
#
#
# Mechanical properties :
#
#
# Convention : Reuss Voigt Hill
#
# Bulk Modulus (GPa) = 60.65845 63.39652 62.02749
# Shear Modulus (GPa) = 26.18773 27.01802 26.60288
#
# Velocity S-wave (km/s) = 3.72400 3.78258 3.75340
# Velocity P-wave (km/s) = 7.11433 7.25603 7.18553
#
# Compressibility (1/GPa) = 0.01648575
#
# Stress axis : x y z
#
# Youngs Moduli (GPa) = 56.95840 62.33227 90.97800
#
# Poissons Ratio (x) = 0.36020 0.45814
# Poissons Ratio (y) = 0.32914 0.29462
# Poissons Ratio (z) = 0.28683 0.20186
#
# Static dielectric constant tensor:
#      x y z
#    x 3.510650 0.000000 0.000000 
#    y 0.000000 3.431000 0.000000 
#    z 0.000000 0.000000 3.485450 
# 
# 
# High freq. dielectric constant tensor:
#      x y z
#    x 1.733650 0.000000 0.000000 
#    y 0.000000 1.733690 0.000000 
#    z 0.000000 0.000000 1.730780 
# 
# From -- ./inp_files/25409.got.cif
#   From: 2010.03.12/outbox.cif.g09.slc.cpg/sg59_13_cif.got.tgz:25409.got - 2010.04.16 16:29:54.
