data_PCOD8244609
_publ_section_title
;
Structure prediction by ZEFSAII (Michael W. Deem and Ramdas Pophale) SiO2 
 PCOD8244609
Probable space group: P M M N
;
_chemical_formula_sum "Si O2"
_cell_formula_units_Z 64
_cell_length_a 23.627975
_cell_length_b 14.619879
_cell_length_c 9.488641
_cell_angle_alpha 90.000000
_cell_angle_beta 90.000000
_cell_angle_gamma 90.000000
_cell_volume 3277.738456
_symmetry_space_group_name_H-M "P M M N"
_symmetry_group_IT_number 59
_space_group.IT_coordinate_system_code '2'
_symmetry_cell_setting 'orthorhombic'
loop_
_space_group_symop_operation_xyz
x,y,z
1/2-x,1/2-y,z
1/2+x,-y,-z
-x,1/2+y,-z
-x,-y,-z
1/2+x,1/2+y,-z
1/2-x,y,z
x,1/2-y,z
loop_
_atom_site_type_symbol
_atom_site_label
_atom_site_fract_x
_atom_site_fract_y
_atom_site_fract_z
Si Si1 0.497753 0.475093 0.158216
Si Si2 0.817869 0.508638 0.922650
Si Si3 0.893294 0.641584 0.755058
Si Si4 0.972662 0.351080 0.673075
Si Si5 0.878411 0.006459 0.224504
Si Si6 0.687648 0.351136 0.407154
Si Si7 0.589827 0.645505 0.438764
Si Si8 0.346665 0.646867 0.297286
O O1 0.453662 0.394753 0.190622
O O2 0.478345 0.572499 0.212157
O O3 0.560092 0.447603 0.208927
O O4 0.500000 0.500000 0.000000
O O5 0.750000 0.514461 0.936372
O O6 0.841175 0.597117 0.839624
O O7 0.836738 0.418730 0.835988
O O8 0.846515 0.508209 0.076540
O O9 0.891781 0.750000 0.777486
O O10 0.886394 0.614329 0.590417
O O11 0.982268 0.250000 0.740298
O O12 0.907921 0.360672 0.623576
O O13 0.020920 0.366578 0.553229
O O14 0.846032 0.076728 0.319315
O O15 0.882905 0.911124 0.310201
O O16 0.750000 0.349900 0.342026
O O17 0.659909 0.250000 0.394255
O O18 0.693888 0.378316 0.572692
O O19 0.606657 0.750000 0.408859
O O20 0.336352 0.750000 0.240364
#
# Coordination Sequence:
#
# PCOD8244609 Si02
#       8
#     8   8   8   8   8   8   8   8
#     4  11  21  38  59  92 126 155 195 247 312 372
#     4  12  25  43  63  88 124 167 217 262 309 366
#     4  11  24  42  64  92 127 164 209 260 313 372
#     4   9  18  33  58  88 122 156 192 237 300 372
#     4  11  23  38  65  90 123 159 201 255 312 370
#     4  10  22  39  58  86 123 163 205 246 295 358
#     4   9  21  39  62  93 125 160 200 253 316 373
#     4  10  20  37  63  92 125 163 206 251 302 367
#
# _framework density 19.525658
#
# number of rings (size 3 to 8) (size 9 to 14) (size 15 to 20)
#    0.000    1.625    2.500    1.500    1.750    4.000 
#    0.000    0.625    0.000    2.625    0.000    0.000 
#    0.000    0.000    0.000    0.000    0.000    0.000 
#
# Total GULP energy -793023.005808 kJ/mol
# GULP energy per Si atom -12390.984466 kJ/mol
# Density = 1.948122 g / cm^3
# Si number density = 19.525658 Si / 1000 Ang^3
#
#
#
# Elastic Constant Matrix: (Units=GPa)
#
#
# Indices 1 2 3 4 5 6 
#
# 1 122.6553 52.6309 44.6522 0.0000 0.0000 0.0000
# 2 52.6309 114.4972 62.2335 0.0000 0.0000 0.0000
# 3 44.6522 62.2335 112.0649 0.0000 0.0000 0.0000
# 4 0.0000 0.0000 0.0000 -1.2111 0.0000 0.0000
# 5 0.0000 0.0000 0.0000 0.0000 22.8368 0.0000
# 6 0.0000 0.0000 0.0000 0.0000 0.0000 21.3165
#
#
#
# Elastic Compliance Matrix: (Units=1/GPa)
#
#
# Indices 1 2 3 4 5 6 
#
# 1 0.010507 -0.003659 -0.002155 0.000000 0.000000 0.000000
# 2 -0.003659 0.013784 -0.006197 0.000000 0.000000 0.000000
# 3 -0.002155 -0.006197 0.013223 0.000000 0.000000 0.000000
# 4 0.000000 0.000000 0.000000 -0.825689 0.000000 0.000000
# 5 0.000000 0.000000 0.000000 0.000000 0.043789 0.000000
# 6 0.000000 0.000000 0.000000 0.000000 0.000000 0.046912
#
#
# Mechanical properties :
#
#
# Convention : Reuss Voigt Hill
#
# Bulk Modulus (GPa) = 74.10834 74.25004 74.17919
# Shear Modulus (GPa) = -7.47434 21.23516 6.88041
#
# Velocity S-wave (km/s) = -1.95864 3.30138 1.87921
# Velocity P-wave (km/s) = 5.73774 7.25546 6.54077
#
# Compressibility (1/GPa) = 0.01349376
#
# Stress axis : x y z
#
# Youngs Moduli (GPa) = 95.17188 72.54874 75.62388
#
# Poissons Ratio (x) = 0.26543 0.16296
# Poissons Ratio (y) = 0.34820 0.46863
# Poissons Ratio (z) = 0.20508 0.44957
#
# Static dielectric constant tensor:
#      x y z
#    x 3.831830 0.000000 0.000000 
#    y 0.000000 3.583680 0.000000 
#    z 0.000000 0.000000 3.547730 
# 
# 
# High freq. dielectric constant tensor:
#      x y z
#    x 1.765420 0.000000 0.000000 
#    y 0.000000 1.767480 0.000000 
#    z 0.000000 0.000000 1.756050 
# 
# From -- ./inp_files/12190.got.cif
#   From: 2010.03.12/outbox.cif.g09.slc.cpg/sg59_7_cif.got.tgz:12190.got - 2010.04.16 16:29:54.
