data_PCOD8244638
_publ_section_title
;
Structure prediction by ZEFSAII (Michael W. Deem and Ramdas Pophale) SiO2 
 PCOD8244638
Probable space group: P M M N
;
_chemical_formula_sum "Si O2"
_cell_formula_units_Z 48
_cell_length_a 9.181477
_cell_length_b 15.980501
_cell_length_c 16.873503
_cell_angle_alpha 90.000000
_cell_angle_beta 90.000000
_cell_angle_gamma 90.000000
_cell_volume 2475.758018
_symmetry_space_group_name_H-M "P M M N"
_symmetry_group_IT_number 59
_space_group.IT_coordinate_system_code '2'
_symmetry_cell_setting 'orthorhombic'
loop_
_space_group_symop_operation_xyz
x,y,z
1/2-x,1/2-y,z
1/2+x,-y,-z
-x,1/2+y,-z
-x,-y,-z
1/2+x,1/2+y,-z
1/2-x,y,z
x,1/2-y,z
loop_
_atom_site_type_symbol
_atom_site_label
_atom_site_fract_x
_atom_site_fract_y
_atom_site_fract_z
Si Si1 0.576961 0.843364 0.510558
Si Si2 0.914225 0.345540 0.192632
Si Si3 0.420082 0.405577 0.658251
Si Si4 0.582483 0.750000 0.230235
Si Si5 0.422238 0.427517 0.328904
Si Si6 0.076877 0.750000 0.065735
Si Si7 0.420528 0.584379 0.974936
O O1 0.750000 0.838164 0.508372
O O2 0.512184 0.750000 0.518495
O O3 0.519634 0.884304 0.429395
O O4 0.522376 0.897746 0.584809
O O5 0.750000 0.364554 0.222003
O O6 0.928171 0.250000 0.164543
O O7 0.953142 0.403182 0.117871
O O8 0.026022 0.361393 0.263609
O O9 0.250000 0.427114 0.655565
O O10 0.453419 0.330004 0.716788
O O11 0.507414 0.483945 0.692026
O O12 0.750000 0.750000 0.202611
O O13 0.479790 0.750000 0.154843
O O14 0.250000 0.434394 0.325793
O O15 0.250000 0.750000 0.065310
O O16 0.019700 0.834399 0.022539
O O17 0.250000 0.573230 0.991255
O O18 0.500000 0.500000 0.000000
#
# Coordination Sequence:
#
# PCOD8244638 Si02
#       7
#     8   8   8   4   8   4   8
#     4   9  17  34  58  81 110 151 193 235 283 335
#     4  10  21  41  64  84 114 155 196 235 281 341
#     4  10  20  38  60  81 110 151 197 238 281 339
#     4  10  22  38  60  85 108 146 196 239 282 340
#     4  11  23  35  55  88 121 150 187 236 290 340
#     4  10  22  42  64  87 120 154 188 239 302 354
#     4  10  22  41  64  89 117 155 195 237 292 353
#
# _framework density 19.388002
#
# number of rings (size 3 to 8) (size 9 to 14) (size 15 to 20)
#    0.000    2.000    1.667    1.500    2.333    3.000 
#    0.000    0.833    0.000    2.000    0.000    0.000 
#    0.000    0.000    0.000    0.000    0.000    0.000 
#
# Total GULP energy -595326.725535 kJ/mol
# GULP energy per Si atom -12402.640115 kJ/mol
# Density = 1.934387 g / cm^3
# Si number density = 19.388002 Si / 1000 Ang^3
#
#
#
# Elastic Constant Matrix: (Units=GPa)
#
#
# Indices 1 2 3 4 5 6 
#
# 1 47.0327 38.7922 37.7395 0.0000 0.0000 0.0000
# 2 38.7922 123.8528 44.5762 0.0000 0.0000 0.0000
# 3 37.7395 44.5762 111.0904 0.0000 0.0000 0.0000
# 4 0.0000 0.0000 0.0000 30.0744 0.0000 0.0000
# 5 0.0000 0.0000 0.0000 0.0000 32.3976 0.0000
# 6 0.0000 0.0000 0.0000 0.0000 0.0000 29.8296
#
#
#
# Elastic Compliance Matrix: (Units=1/GPa)
#
#
# Indices 1 2 3 4 5 6 
#
# 1 0.034561 -0.007713 -0.008646 0.000000 0.000000 0.000000
# 2 -0.007713 0.011158 -0.001857 0.000000 0.000000 0.000000
# 3 -0.008646 -0.001857 0.012684 0.000000 0.000000 0.000000
# 4 0.000000 0.000000 0.000000 0.033251 0.000000 0.000000
# 5 0.000000 0.000000 0.000000 0.000000 0.030867 0.000000
# 6 0.000000 0.000000 0.000000 0.000000 0.000000 0.033524
#
#
# Mechanical properties :
#
#
# Convention : Reuss Voigt Hill
#
# Bulk Modulus (GPa) = 45.51461 58.24351 51.87906
# Shear Modulus (GPa) = 25.02486 29.18484 27.10485
#
# Velocity S-wave (km/s) = 3.59658 3.88403 3.74307
# Velocity P-wave (km/s) = 6.38544 7.08664 6.74516
#
# Compressibility (1/GPa) = 0.02197097
#
# Stress axis : x y z
#
# Youngs Moduli (GPa) = 28.93413 89.61895 78.83881
#
# Poissons Ratio (x) = 0.69125 0.68165
# Poissons Ratio (y) = 0.22317 0.14641
# Poissons Ratio (z) = 0.25017 0.16643
#
# Static dielectric constant tensor:
#      x y z
#    x 3.237230 0.000000 0.000000 
#    y 0.000000 3.614870 0.000000 
#    z 0.000000 0.000000 3.594180 
# 
# 
# High freq. dielectric constant tensor:
#      x y z
#    x 1.727340 0.000000 0.000000 
#    y 0.000000 1.768820 0.000000 
#    z 0.000000 0.000000 1.765140 
# 
# From -- ./inp_files/20626.got.cif
#   From: 2010.03.12/outbox.cif.g09.slc.cpg/sg59_11_cif.got.tgz:20626.got - 2010.04.16 16:29:54.
