data_PCOD8244118
_publ_section_title
;
Structure prediction by ZEFSAII (Michael W. Deem and Ramdas Pophale) SiO2 
 PCOD8244118
Probable space group: P M M N
;
_chemical_formula_sum "Si O2"
_cell_formula_units_Z 56
_cell_length_a 21.502967
_cell_length_b 15.866481
_cell_length_c 7.967683
_cell_angle_alpha 90.000000
_cell_angle_beta 90.000000
_cell_angle_gamma 90.000000
_cell_volume 2718.385541
_symmetry_space_group_name_H-M "P M M N"
_symmetry_group_IT_number 59
_space_group.IT_coordinate_system_code '2'
_symmetry_cell_setting 'orthorhombic'
loop_
_space_group_symop_operation_xyz
x,y,z
1/2-x,1/2-y,z
1/2+x,-y,-z
-x,1/2+y,-z
-x,-y,-z
1/2+x,1/2+y,-z
1/2-x,y,z
x,1/2-y,z
loop_
_atom_site_type_symbol
_atom_site_label
_atom_site_fract_x
_atom_site_fract_y
_atom_site_fract_z
Si Si1 0.431915 0.342192 0.533271
Si Si2 0.939759 0.844191 0.849780
Si Si3 0.858193 0.008958 0.492781
Si Si4 0.181600 0.453599 0.149808
Si Si5 0.182978 0.920690 0.841809
Si Si6 0.066183 0.652724 0.984682
Si Si7 0.433860 0.653787 0.356988
O O1 0.399532 0.250000 0.566350
O O2 0.457159 0.344934 0.344876
O O3 0.386650 0.419861 0.566867
O O4 0.491662 0.350820 0.651514
O O5 0.929624 0.750000 0.918701
O O6 0.874540 0.889763 0.880626
O O7 0.999731 0.890497 0.935453
O O8 0.822384 0.999021 0.668507
O O9 0.814070 0.033423 0.338604
O O10 0.907846 0.085052 0.513151
O O11 0.250000 0.409238 0.145142
O O12 0.176725 0.516680 0.996518
O O13 0.250000 0.872758 0.858051
O O14 0.122194 0.862176 0.853094
O O15 0.050043 0.750000 0.978343
O O16 0.088484 0.626341 0.170666
O O17 0.411923 0.750000 0.401650
#
# Coordination Sequence:
#
# PCOD8244118 Si02
#       7
#     8   8   8   8   8   8   8
#     4   9  19  35  55  87 125 156 197 251 305 360
#     4   9  19  36  60  87 116 155 199 248 302 355
#     4  11  21  38  62  87 115 164 205 249 301 363
#     4  10  22  40  58  84 122 155 196 248 295 357
#     4  11  24  40  60  85 117 158 199 245 302 360
#     4  10  21  38  60  88 121 156 200 253 304 359
#     4  10  20  35  57  88 125 160 197 252 310 360
#
# _framework density 20.600463000000001
#
# number of rings (size 3 to 8) (size 9 to 14) (size 15 to 20)
#    0.000    2.000    1.429    1.714    2.000    4.000 
#    0.000    0.000    0.000    3.429    0.000    0.000 
#    0.000    0.000    0.000    0.000    0.000    0.000 
#
# Total GULP energy -693783.406826 kJ/mol
# GULP energy per Si atom -12388.989408 kJ/mol
# Density = 2.055358 g / cm^3
# Si number density = 20.600463 Si / 1000 Ang^3
#
#
#
# Elastic Constant Matrix: (Units=GPa)
#
#
# Indices 1 2 3 4 5 6 
#
# 1 135.9989 25.5546 29.7941 0.0000 0.0000 0.0000
# 2 25.5546 50.4530 20.1028 0.0000 0.0000 0.0000
# 3 29.7941 20.1028 83.8498 0.0000 0.0000 0.0000
# 4 0.0000 0.0000 0.0000 17.5624 0.0000 0.0000
# 5 0.0000 0.0000 0.0000 0.0000 -49.3638 0.0000
# 6 0.0000 0.0000 0.0000 0.0000 0.0000 11.7997
#
#
#
# Elastic Compliance Matrix: (Units=1/GPa)
#
#
# Indices 1 2 3 4 5 6 
#
# 1 0.008476 -0.003420 -0.002192 0.000000 0.000000 0.000000
# 2 -0.003420 0.023294 -0.004369 0.000000 0.000000 0.000000
# 3 -0.002192 -0.004369 0.013752 0.000000 0.000000 0.000000
# 4 0.000000 0.000000 0.000000 0.056940 0.000000 0.000000
# 5 0.000000 0.000000 0.000000 0.000000 -0.020258 0.000000
# 6 0.000000 0.000000 0.000000 0.000000 0.000000 0.084748
#
#
# Mechanical properties :
#
#
# Convention : Reuss Voigt Hill
#
# Bulk Modulus (GPa) = 39.12391 46.80054 42.96222
# Shear Modulus (GPa) = 25.58419 8.98968 17.28693
#
# Velocity S-wave (km/s) = 3.52792 2.09124 2.89996
# Velocity P-wave (km/s) = 5.96891 5.34776 5.66685
#
# Compressibility (1/GPa) = 0.02555982
#
# Stress axis : x y z
#
# Youngs Moduli (GPa) = 117.98384 42.93043 72.71423
#
# Poissons Ratio (x) = 0.14681 0.15937
# Poissons Ratio (y) = 0.40347 0.31772
# Poissons Ratio (z) = 0.25860 0.18758
#
# Static dielectric constant tensor:
#      x y z
#    x 3.826780 0.000000 0.000000 
#    y 0.000000 3.717530 0.000000 
#    z 0.000000 0.000000 3.900190 
# 
# 
# High freq. dielectric constant tensor:
#      x y z
#    x 1.799520 0.000000 0.000000 
#    y 0.000000 1.787140 0.000000 
#    z 0.000000 0.000000 1.815910 
# 
# From -- ./inp_files/11422.got.cif
#   From: 2010.03.12/outbox.cif.g09.slc.cpg/sg59_6_cif.got.tgz:11422.got - 2010.04.16 16:29:54.
