data_PCOD8244951
_publ_section_title
;
Structure prediction by ZEFSAII (Michael W. Deem and Ramdas Pophale) SiO2 
 PCOD8244951
Probable space group: P M M N
;
_chemical_formula_sum "Si O2"
_cell_formula_units_Z 64
_cell_length_a 13.828590
_cell_length_b 9.027196
_cell_length_c 28.679867
_cell_angle_alpha 90.000000
_cell_angle_beta 90.000000
_cell_angle_gamma 90.000000
_cell_volume 3580.205089
_symmetry_space_group_name_H-M "P M M N"
_symmetry_group_IT_number 59
_space_group.IT_coordinate_system_code '2'
_symmetry_cell_setting 'orthorhombic'
loop_
_space_group_symop_operation_xyz
x,y,z
1/2-x,1/2-y,z
1/2+x,-y,-z
-x,1/2+y,-z
-x,-y,-z
1/2+x,1/2+y,-z
1/2-x,y,z
x,1/2-y,z
loop_
_atom_site_type_symbol
_atom_site_label
_atom_site_fract_x
_atom_site_fract_y
_atom_site_fract_z
Si Si1 0.527879 0.575862 0.568965
Si Si2 0.637439 0.576985 0.113332
Si Si3 0.638656 0.920713 0.660863
Si Si4 0.638042 0.077108 0.755868
Si Si5 0.476864 0.074918 0.162840
Si Si6 0.640602 0.575159 0.477423
Si Si7 0.134864 0.917821 0.980256
Si Si8 0.638899 0.577303 0.928495
O O1 0.511286 0.750000 0.567608
O O2 0.573652 0.525519 0.617790
O O3 0.600430 0.525877 0.527872
O O4 0.424215 0.497522 0.563099
O O5 0.750000 0.544932 0.121229
O O6 0.614713 0.750000 0.111334
O O7 0.581561 0.501038 0.156444
O O8 0.598835 0.503897 0.065478
O O9 0.750000 0.941541 0.646327
O O10 0.618040 0.750000 0.673947
O O11 0.610939 0.023595 0.704230
O O12 0.750000 0.042264 0.766693
O O13 0.615038 0.250000 0.760418
O O14 0.572587 0.985750 0.791064
O O15 0.488775 0.250000 0.167244
O O16 0.413110 0.026999 0.118542
O O17 0.750000 0.516483 0.472547
O O18 0.636273 0.750000 0.471465
O O19 0.250000 0.925443 0.982609
O O20 0.096825 0.750000 0.976886
O O21 0.092327 0.993757 0.026953
O O22 0.750000 0.531997 0.922080
O O23 0.626845 0.750000 0.938240
#
# Coordination Sequence:
#
# PCOD8244951 Si02
#       8
#     8   8   8   8   8   8   8   8
#     4   9  17  29  47  72 100 133 175 217 253 294
#     4  10  21  37  55  73  96 127 162 202 247 293
#     4   9  17  31  52  75 100 132 168 206 249 296
#     4  10  21  36  54  78 107 134 161 199 248 301
#     4  11  22  35  54  77 100 129 164 202 245 295
#     4   9  17  29  45  68 102 141 176 211 254 301
#     4   9  17  30  49  72  97 126 161 199 237 281
#     4   9  18  32  49  71 100 131 160 191 232 285
#
# _framework density 17.876071
#
# number of rings (size 3 to 8) (size 9 to 14) (size 15 to 20)
#    0.000    2.500    0.000    2.250    0.000    7.250 
#    0.000    1.250    0.000    3.000    0.000    3.500 
#    0.000    0.000    0.000    0.000    0.000    0.000 
#
# Total GULP energy -793769.101444 kJ/mol
# GULP energy per Si atom -12402.642210 kJ/mol
# Density = 1.783538 g / cm^3
# Si number density = 17.876071 Si / 1000 Ang^3
#
#
#
# Elastic Constant Matrix: (Units=GPa)
#
#
# Indices 1 2 3 4 5 6 
#
# 1 92.4791 43.5498 60.6202 0.0000 0.0000 0.0000
# 2 43.5498 79.5440 50.7125 0.0000 0.0000 0.0000
# 3 60.6202 50.7125 109.7812 0.0000 0.0000 0.0000
# 4 0.0000 0.0000 0.0000 31.5301 0.0000 0.0000
# 5 0.0000 0.0000 0.0000 0.0000 32.4314 0.0000
# 6 0.0000 0.0000 0.0000 0.0000 0.0000 27.1416
#
#
#
# Elastic Compliance Matrix: (Units=1/GPa)
#
#
# Indices 1 2 3 4 5 6 
#
# 1 0.018282 -0.005065 -0.007756 0.000000 0.000000 0.000000
# 2 -0.005065 0.019223 -0.006083 0.000000 0.000000 0.000000
# 3 -0.007756 -0.006083 0.016202 0.000000 0.000000 0.000000
# 4 0.000000 0.000000 0.000000 0.031716 0.000000 0.000000
# 5 0.000000 0.000000 0.000000 0.000000 0.030834 0.000000
# 6 0.000000 0.000000 0.000000 0.000000 0.000000 0.036844
#
#
# Mechanical properties :
#
#
# Convention : Reuss Voigt Hill
#
# Bulk Modulus (GPa) = 62.89462 65.72993 64.31227
# Shear Modulus (GPa) = 25.48325 26.68208 26.08267
#
# Velocity S-wave (km/s) = 3.77974 3.86763 3.82394
# Velocity P-wave (km/s) = 7.36944 7.53620 7.45329
#
# Compressibility (1/GPa) = 0.01589961
#
# Stress axis : x y z
#
# Youngs Moduli (GPa) = 54.69806 52.02147 61.72230
#
# Poissons Ratio (x) = 0.26348 0.47869
# Poissons Ratio (y) = 0.27704 0.37546
# Poissons Ratio (z) = 0.42422 0.31645
#
# Static dielectric constant tensor:
#      x y z
#    x 3.338040 0.000000 0.000000 
#    y 0.000000 3.288340 0.000000 
#    z 0.000000 0.000000 3.225640 
# 
# 
# High freq. dielectric constant tensor:
#      x y z
#    x 1.689090 0.000000 0.000000 
#    y 0.000000 1.694780 0.000000 
#    z 0.000000 0.000000 1.676440 
# 
# From -- ./inp_files/32103.got.cif
#   From: 2010.03.12/outbox.cif.g09.slc.cpg/sg59_17_cif.got.tgz:32103.got - 2010.04.16 16:29:54.
