data_PCOD8244552
_publ_section_title
;
Structure prediction by ZEFSAII (Michael W. Deem and Ramdas Pophale) SiO2 
 PCOD8244552
Probable space group: P M M N
;
_chemical_formula_sum "Si O2"
_cell_formula_units_Z 56
_cell_length_a 22.943135
_cell_length_b 14.678999
_cell_length_c 7.939267
_cell_angle_alpha 90.000000
_cell_angle_beta 90.000000
_cell_angle_gamma 90.000000
_cell_volume 2673.804249
_symmetry_space_group_name_H-M "P M M N"
_symmetry_group_IT_number 59
_space_group.IT_coordinate_system_code '2'
_symmetry_cell_setting 'orthorhombic'
loop_
_space_group_symop_operation_xyz
x,y,z
1/2-x,1/2-y,z
1/2+x,-y,-z
-x,1/2+y,-z
-x,-y,-z
1/2+x,1/2+y,-z
1/2-x,y,z
x,1/2-y,z
loop_
_atom_site_type_symbol
_atom_site_label
_atom_site_fract_x
_atom_site_fract_y
_atom_site_fract_z
Si Si1 0.315706 0.035291 0.332020
Si Si2 0.420351 0.144610 0.451869
Si Si3 0.582050 0.855658 0.172534
Si Si4 0.995021 0.857988 0.860292
Si Si5 0.183950 0.027752 0.948668
Si Si6 0.126352 0.645989 0.838791
Si Si7 0.316247 0.650520 0.487182
O O1 0.250000 0.056198 0.392557
O O2 0.358428 0.094531 0.445361
O O3 0.323901 0.062262 0.138566
O O4 0.329704 0.927644 0.351803
O O5 0.408537 0.250000 0.414192
O O6 0.446028 0.131068 0.641010
O O7 0.463703 0.104112 0.309322
O O8 0.597002 0.750000 0.139661
O O9 0.537424 0.892122 0.029964
O O10 0.641881 0.912413 0.167887
O O11 0.996293 0.750000 0.852044
O O12 0.061131 0.893194 0.865092
O O13 0.250000 0.042275 0.886185
O O14 0.169324 0.920207 0.940254
O O15 0.133797 0.750000 0.904260
O O16 0.139827 0.639498 0.641619
O O17 0.250000 0.642752 0.555619
O O18 0.326195 0.750000 0.402056
#
# Coordination Sequence:
#
# PCOD8244552 Si02
#       7
#     8   8   8   8   8   8   8
#     4  10  21  37  56  83 118 153 192 240 291 342
#     4  10  20  37  61  86 115 153 192 235 289 344
#     4  10  21  39  63  89 119 156 193 238 293 344
#     4   9  19  39  60  85 120 151 192 241 285 346
#     4  11  23  38  58  86 119 154 195 243 291 347
#     4  10  21  38  60  85 114 153 194 241 295 343
#     4   9  18  35  57  79 108 148 194 242 289 341
#
# _framework density 20.943940999999999
#
# number of rings (size 3 to 8) (size 9 to 14) (size 15 to 20)
#    0.000    2.143    1.429    1.286    0.000    4.286 
#    2.571    5.714    0.000    0.000    0.000    0.000 
#    0.000    0.000    0.000    0.000    0.000    0.000 
#
# Total GULP energy -694353.376651 kJ/mol
# GULP energy per Si atom -12399.167440 kJ/mol
# Density = 2.089627 g / cm^3
# Si number density = 20.943941 Si / 1000 Ang^3
#
#
#
# Elastic Constant Matrix: (Units=GPa)
#
#
# Indices 1 2 3 4 5 6 
#
# 1 68.5196 13.2791 23.5473 0.0000 0.0000 0.0000
# 2 13.2791 51.6469 14.1744 0.0000 0.0000 0.0000
# 3 23.5473 14.1744 98.5762 0.0000 0.0000 0.0000
# 4 0.0000 0.0000 0.0000 28.2399 0.0000 0.0000
# 5 0.0000 0.0000 0.0000 0.0000 23.5287 0.0000
# 6 0.0000 0.0000 0.0000 0.0000 0.0000 29.2031
#
#
#
# Elastic Compliance Matrix: (Units=1/GPa)
#
#
# Indices 1 2 3 4 5 6 
#
# 1 0.016414 -0.003273 -0.003450 0.000000 0.000000 0.000000
# 2 -0.003273 0.020811 -0.002210 0.000000 0.000000 0.000000
# 3 -0.003450 -0.002210 0.011286 0.000000 0.000000 0.000000
# 4 0.000000 0.000000 0.000000 0.035411 0.000000 0.000000
# 5 0.000000 0.000000 0.000000 0.000000 0.042501 0.000000
# 6 0.000000 0.000000 0.000000 0.000000 0.000000 0.034243
#
#
# Mechanical properties :
#
#
# Convention : Reuss Voigt Hill
#
# Bulk Modulus (GPa) = 32.63374 35.63825 34.13599
# Shear Modulus (GPa) = 26.49017 27.37715 26.93366
#
# Velocity S-wave (km/s) = 3.56028 3.61939 3.58996
# Velocity P-wave (km/s) = 5.70229 5.87534 5.78946
#
# Compressibility (1/GPa) = 0.03064314
#
# Stress axis : x y z
#
# Youngs Moduli (GPa) = 60.92179 48.05255 88.60168
#
# Poissons Ratio (x) = 0.15730 0.30570
# Poissons Ratio (y) = 0.19942 0.19585
# Poissons Ratio (z) = 0.21020 0.10622
#
# Static dielectric constant tensor:
#      x y z
#    x 3.813680 0.000000 0.000000 
#    y 0.000000 3.746840 0.000000 
#    z 0.000000 0.000000 3.691420 
# 
# 
# High freq. dielectric constant tensor:
#      x y z
#    x 1.814010 0.000000 0.000000 
#    y 0.000000 1.816920 0.000000 
#    z 0.000000 0.000000 1.814400 
# 
# From -- ./inp_files/11447.got.cif
#   From: 2010.03.12/outbox.cif.g09.slc.cpg/sg59_6_cif.got.tgz:11447.got - 2010.04.16 16:29:54.
