data_PCOD8244670
_publ_section_title
;
Structure prediction by ZEFSAII (Michael W. Deem and Ramdas Pophale) SiO2 
 PCOD8244670
Probable space group: P M M N
;
_chemical_formula_sum "Si O2"
_cell_formula_units_Z 64
_cell_length_a 18.218035
_cell_length_b 15.903200
_cell_length_c 11.006935
_cell_angle_alpha 90.000000
_cell_angle_beta 90.000000
_cell_angle_gamma 90.000000
_cell_volume 3188.984840
_symmetry_space_group_name_H-M "P M M N"
_symmetry_group_IT_number 59
_space_group.IT_coordinate_system_code '2'
_symmetry_cell_setting 'orthorhombic'
loop_
_space_group_symop_operation_xyz
x,y,z
1/2-x,1/2-y,z
1/2+x,-y,-z
-x,1/2+y,-z
-x,-y,-z
1/2+x,1/2+y,-z
1/2-x,y,z
x,1/2-y,z
loop_
_atom_site_type_symbol
_atom_site_label
_atom_site_fract_x
_atom_site_fract_y
_atom_site_fract_z
Si Si1 0.065093 0.988245 0.591810
Si Si2 0.667191 0.566228 0.073117
Si Si3 0.080767 0.156631 0.739928
Si Si4 0.085433 0.842255 0.193542
Si Si5 0.667933 0.899123 0.788833
Si Si6 0.939311 0.066465 0.036835
Si Si7 0.667639 0.058716 0.615121
Si Si8 0.507595 0.656283 0.754626
O O1 0.136740 0.958039 0.519301
O O2 0.034816 0.917112 0.682825
O O3 0.086959 0.079101 0.646637
O O4 0.000000 0.000000 0.500000
O O5 0.750000 0.549014 0.110043
O O6 0.638595 0.645883 0.149997
O O7 0.620995 0.484194 0.116196
O O8 0.657089 0.579772 0.929834
O O9 0.094803 0.250000 0.680185
O O10 0.001586 0.155287 0.799336
O O11 0.115905 0.750000 0.166504
O O12 0.119294 0.870194 0.321139
O O13 0.106059 0.900379 0.079699
O O14 0.750000 0.856329 0.772345
O O15 0.596917 0.845144 0.747905
O O16 0.665261 0.979718 0.703935
O O17 0.978641 0.142583 0.108040
O O18 0.000000 0.000000 0.000000
O O19 0.750000 0.091670 0.598177
O O20 0.484329 0.750000 0.710803
#
# Coordination Sequence:
#
# PCOD8244670 Si02
#       8
#     8   8   8   8   8   8   8   8
#     4  12  23  43  66  91 122 168 218 270 312 369
#     4  11  22  37  65  96 131 170 205 253 321 387
#     4  11  23  41  67  96 126 164 215 265 314 375
#     4  11  21  35  62  97 125 157 210 271 319 375
#     4  10  20  38  63  94 128 162 202 255 321 387
#     4  12  19  38  64  90 127 170 211 256 312 383
#     4  11  23  41  64  89 122 165 211 264 329 383
#     4  12  24  39  64  96 129 170 214 260 314 374
#
# _framework density 20.069082000000002
#
# number of rings (size 3 to 8) (size 9 to 14) (size 15 to 20)
#    0.000    0.750    7.500    0.375    0.000    3.750 
#    0.000    1.250    0.000    1.875    0.000    0.000 
#    0.000    0.000    0.000    0.000    0.000    0.000 
#
# Total GULP energy -793073.050940 kJ/mol
# GULP energy per Si atom -12391.766421 kJ/mol
# Density = 2.002340 g / cm^3
# Si number density = 20.069082 Si / 1000 Ang^3
#
#
#
# Elastic Constant Matrix: (Units=GPa)
#
#
# Indices 1 2 3 4 5 6 
#
# 1 126.0135 48.2778 37.6078 0.0000 0.0000 0.0000
# 2 48.2778 142.7878 47.5020 0.0000 0.0000 0.0000
# 3 37.6078 47.5020 82.4256 0.0000 0.0000 0.0000
# 4 0.0000 0.0000 0.0000 20.3285 0.0000 0.0000
# 5 0.0000 0.0000 0.0000 0.0000 27.5648 0.0000
# 6 0.0000 0.0000 0.0000 0.0000 0.0000 4.0222
#
#
#
# Elastic Compliance Matrix: (Units=1/GPa)
#
#
# Indices 1 2 3 4 5 6 
#
# 1 0.009735 -0.002244 -0.003148 0.000000 0.000000 0.000000
# 2 -0.002244 0.009182 -0.004268 0.000000 0.000000 0.000000
# 3 -0.003148 -0.004268 0.016028 0.000000 0.000000 0.000000
# 4 0.000000 0.000000 0.000000 0.049192 0.000000 0.000000
# 5 0.000000 0.000000 0.000000 0.000000 0.036278 0.000000
# 6 0.000000 0.000000 0.000000 0.000000 0.000000 0.248623
#
#
# Mechanical properties :
#
#
# Convention : Reuss Voigt Hill
#
# Bulk Modulus (GPa) = 64.00139 68.66691 66.33415
# Shear Modulus (GPa) = 12.70433 24.90570 18.80502
#
# Velocity S-wave (km/s) = 2.51874 3.52660 3.06439
# Velocity P-wave (km/s) = 6.35755 7.13247 6.75613
#
# Compressibility (1/GPa) = 0.01562466
#
# Stress axis : x y z
#
# Youngs Moduli (GPa) = 102.72174 108.91004 62.39028
#
# Poissons Ratio (x) = 0.24440 0.19643
# Poissons Ratio (y) = 0.23052 0.26626
# Poissons Ratio (z) = 0.32342 0.46479
#
# Static dielectric constant tensor:
#      x y z
#    x 4.205080 0.000000 0.000000 
#    y 0.000000 4.139260 0.000000 
#    z 0.000000 0.000000 3.894580 
# 
# 
# High freq. dielectric constant tensor:
#      x y z
#    x 1.784360 0.000000 0.000000 
#    y 0.000000 1.774310 0.000000 
#    z 0.000000 0.000000 1.777110 
# 
# From -- ./inp_files/17824.got.cif
#   From: 2010.03.12/outbox.cif.g09.slc.cpg/sg59_9_cif.got.tgz:17824.got - 2010.04.16 16:29:54.
