data_PCOD8244780
_publ_section_title
;
Structure prediction by ZEFSAII (Michael W. Deem and Ramdas Pophale) SiO2 
 PCOD8244780
Probable space group: P M M N
;
_chemical_formula_sum "Si O2"
_cell_formula_units_Z 56
_cell_length_a 9.277524
_cell_length_b 14.960416
_cell_length_c 21.418541
_cell_angle_alpha 90.000000
_cell_angle_beta 90.000000
_cell_angle_gamma 90.000000
_cell_volume 2972.799645
_symmetry_space_group_name_H-M "P M M N"
_symmetry_group_IT_number 59
_space_group.IT_coordinate_system_code '2'
_symmetry_cell_setting 'orthorhombic'
loop_
_space_group_symop_operation_xyz
x,y,z
1/2-x,1/2-y,z
1/2+x,-y,-z
-x,1/2+y,-z
-x,-y,-z
1/2+x,1/2+y,-z
1/2-x,y,z
x,1/2-y,z
loop_
_atom_site_type_symbol
_atom_site_label
_atom_site_fract_x
_atom_site_fract_y
_atom_site_fract_z
Si Si1 0.915704 0.148269 0.868280
Si Si2 0.417982 0.475200 0.207276
Si Si3 0.081660 0.644744 0.889532
Si Si4 0.085895 0.079521 0.471173
Si Si5 0.418607 0.010482 0.346283
Si Si6 0.584814 0.847694 0.403827
Si Si7 0.087744 0.355968 0.989462
O O1 0.750000 0.146277 0.890263
O O2 0.957672 0.250000 0.847651
O O3 0.011973 0.113366 0.925704
O O4 0.943083 0.078947 0.812022
O O5 0.250000 0.449166 0.199717
O O6 0.513377 0.406784 0.168360
O O7 0.475722 0.462957 0.278066
O O8 0.250000 0.622510 0.894876
O O9 0.055166 0.750000 0.879902
O O10 0.003741 0.608180 0.951929
O O11 0.250000 0.048764 0.470828
O O12 0.042775 0.089515 0.397322
O O13 0.060212 0.160044 0.519996
O O14 0.000000 0.000000 0.500000
O O15 0.250000 0.993243 0.339808
O O16 0.484874 0.917412 0.368955
O O17 0.750000 0.874789 0.390758
O O18 0.549455 0.750000 0.376630
O O19 0.250000 0.395140 0.992210
O O20 0.090731 0.250000 0.991827
#
# Coordination Sequence:
#
# PCOD8244780 Si02
#       7
#     8   8   8   8   8   8   8
#     4   9  18  33  51  72 102 137 170 206 251 305
#     4  10  21  35  52  76 104 137 175 210 250 301
#     4  10  21  37  56  76  99 130 169 213 261 310
#     4   8  14  27  46  66  90 120 154 193 234 277
#     4   9  18  32  49  70  97 130 167 204 245 294
#     4   9  17  29  47  72  99 127 161 201 247 298
#     4   9  17  31  53  78 101 127 164 213 263 305
#
# _framework density 18.83746
#
# number of rings (size 3 to 8) (size 9 to 14) (size 15 to 20)
#    0.000    2.857    0.000    0.857    0.000    5.143 
#    0.000    2.143    0.000    4.286    0.000    0.000 
#    0.000    0.000    0.000    0.000    0.000    0.000 
#
# Total GULP energy -693759.151630 kJ/mol
# GULP energy per Si atom -12388.556279 kJ/mol
# Density = 1.879459 g / cm^3
# Si number density = 18.837460 Si / 1000 Ang^3
#
#
#
# Elastic Constant Matrix: (Units=GPa)
#
#
# Indices 1 2 3 4 5 6 
#
# 1 66.0318 17.7620 42.2796 0.0000 0.0000 0.0000
# 2 17.7620 31.9156 12.1237 0.0000 0.0000 0.0000
# 3 42.2796 12.1237 115.6956 0.0000 0.0000 0.0000
# 4 0.0000 0.0000 0.0000 21.5684 0.0000 0.0000
# 5 0.0000 0.0000 0.0000 0.0000 25.3765 0.0000
# 6 0.0000 0.0000 0.0000 0.0000 0.0000 23.6214
#
#
#
# Elastic Compliance Matrix: (Units=1/GPa)
#
#
# Indices 1 2 3 4 5 6 
#
# 1 0.022331 -0.009715 -0.007142 0.000000 0.000000 0.000000
# 2 -0.009715 0.036858 -0.000312 0.000000 0.000000 0.000000
# 3 -0.007142 -0.000312 0.011286 0.000000 0.000000 0.000000
# 4 0.000000 0.000000 0.000000 0.046364 0.000000 0.000000
# 5 0.000000 0.000000 0.000000 0.000000 0.039407 0.000000
# 6 0.000000 0.000000 0.000000 0.000000 0.000000 0.042334
#
#
# Mechanical properties :
#
#
# Convention : Reuss Voigt Hill
#
# Bulk Modulus (GPa) = 27.67317 39.77484 33.72400
# Shear Modulus (GPa) = 20.41120 23.54510 21.97815
#
# Velocity S-wave (km/s) = 3.29529 3.53924 3.41944
# Velocity P-wave (km/s) = 5.40379 6.15323 5.79065
#
# Compressibility (1/GPa) = 0.03613609
#
# Stress axis : x y z
#
# Youngs Moduli (GPa) = 44.78155 27.13135 88.60354
#
# Poissons Ratio (x) = 0.26357 0.63285
# Poissons Ratio (y) = 0.43503 0.02767
# Poissons Ratio (z) = 0.31985 0.00847
#
# Static dielectric constant tensor:
#      x y z
#    x 3.513000 0.000000 0.000000 
#    y 0.000000 3.525140 0.000000 
#    z 0.000000 0.000000 3.777620 
# 
# 
# High freq. dielectric constant tensor:
#      x y z
#    x 1.730600 0.000000 0.000000 
#    y 0.000000 1.708210 0.000000 
#    z 0.000000 0.000000 1.734530 
# 
# From -- ./inp_files/29124.got.cif
#   From: 2010.03.12/outbox.cif.g09.slc.cpg/sg59_15_cif.got.tgz:29124.got - 2010.04.16 16:29:54.
