data_PCOD8244538
_publ_section_title
;
Structure prediction by ZEFSAII (Michael W. Deem and Ramdas Pophale) SiO2 
 PCOD8244538
Probable space group: P M M N
;
_chemical_formula_sum "Si O2"
_cell_formula_units_Z 48
_cell_length_a 16.018034
_cell_length_b 8.683219
_cell_length_c 17.915166
_cell_angle_alpha 90.000000
_cell_angle_beta 90.000000
_cell_angle_gamma 90.000000
_cell_volume 2491.786349
_symmetry_space_group_name_H-M "P M M N"
_symmetry_group_IT_number 59
_space_group.IT_coordinate_system_code '2'
_symmetry_cell_setting 'orthorhombic'
loop_
_space_group_symop_operation_xyz
x,y,z
1/2-x,1/2-y,z
1/2+x,-y,-z
-x,1/2+y,-z
-x,-y,-z
1/2+x,1/2+y,-z
1/2-x,y,z
x,1/2-y,z
loop_
_atom_site_type_symbol
_atom_site_label
_atom_site_fract_x
_atom_site_fract_y
_atom_site_fract_z
Si Si1 0.415990 0.930263 0.032652
Si Si2 0.156907 0.575062 0.321224
Si Si3 0.002138 0.570461 0.418784
Si Si4 0.750000 0.570375 0.211124
Si Si5 0.750000 0.432400 0.048400
Si Si6 0.428398 0.073409 0.189766
Si Si7 0.909049 0.429712 0.283889
O O1 0.420207 0.750000 0.019207
O O2 0.410282 0.965700 0.119834
O O3 0.333618 0.998420 0.991466
O O4 0.500000 0.000000 0.000000
O O5 0.250000 0.546538 0.351375
O O6 0.144114 0.750000 0.292990
O O7 0.140782 0.462266 0.251972
O O8 0.095318 0.539156 0.389171
O O9 0.979597 0.750000 0.420968
O O10 0.936074 0.484409 0.365973
O O11 0.000000 0.500000 0.500000
O O12 0.750000 0.750000 0.192795
O O13 0.750000 0.477639 0.134384
O O14 0.829928 0.527719 0.259821
O O15 0.750000 0.250000 0.041850
O O16 0.421612 0.250000 0.164728
O O17 0.519105 0.036088 0.223476
O O18 0.886577 0.250000 0.286803
#
# Coordination Sequence:
#
# PCOD8244538 Si02
#       7
#     8   8   8   4   4   8   8
#     4  11  23  39  58  82 114 153 196 242 295 351
#     4   9  19  36  58  83 111 149 192 230 278 340
#     4  10  20  37  60  86 119 153 191 237 285 340
#     4  12  24  38  60  88 115 144 193 248 290 340
#     4  10  24  42  58  80 115 158 197 238 294 356
#     4  10  21  36  57  84 114 148 190 238 288 342
#     4  10  21  39  61  84 114 156 195 233 289 348
#
# _framework density 19.263289
#
# number of rings (size 3 to 8) (size 9 to 14) (size 15 to 20)
#    0.000    1.833    0.000    3.750    1.167    8.333 
#    1.500    0.000    0.000    0.000    0.000    0.000 
#    0.000    0.000    0.000    0.000    0.000    0.000 
#
# Total GULP energy -595377.659407 kJ/mol
# GULP energy per Si atom -12403.701238 kJ/mol
# Density = 1.921944 g / cm^3
# Si number density = 19.263289 Si / 1000 Ang^3
#
#
#
# Elastic Constant Matrix: (Units=GPa)
#
#
# Indices 1 2 3 4 5 6 
#
# 1 136.4390 29.4127 55.5031 0.0000 0.0000 0.0000
# 2 29.4127 46.3067 18.6088 0.0000 0.0000 0.0000
# 3 55.5031 18.6088 118.1461 0.0000 0.0000 0.0000
# 4 0.0000 0.0000 0.0000 37.6428 0.0000 0.0000
# 5 0.0000 0.0000 0.0000 0.0000 18.9801 0.0000
# 6 0.0000 0.0000 0.0000 0.0000 0.0000 29.7090
#
#
#
# Elastic Compliance Matrix: (Units=1/GPa)
#
#
# Indices 1 2 3 4 5 6 
#
# 1 0.009949 -0.004741 -0.003927 0.000000 0.000000 0.000000
# 2 -0.004741 0.025314 -0.001760 0.000000 0.000000 0.000000
# 3 -0.003927 -0.001760 0.010586 0.000000 0.000000 0.000000
# 4 0.000000 0.000000 0.000000 0.026566 0.000000 0.000000
# 5 0.000000 0.000000 0.000000 0.000000 0.052687 0.000000
# 6 0.000000 0.000000 0.000000 0.000000 0.000000 0.033660
#
#
# Mechanical properties :
#
#
# Convention : Reuss Voigt Hill
#
# Bulk Modulus (GPa) = 40.01144 56.43789 48.22466
# Shear Modulus (GPa) = 26.60315 30.42419 28.51367
#
# Velocity S-wave (km/s) = 3.72025 3.97846 3.85152
# Velocity P-wave (km/s) = 6.26655 7.10394 6.69834
#
# Compressibility (1/GPa) = 0.02499285
#
# Stress axis : x y z
#
# Youngs Moduli (GPa) = 100.51395 39.50418 94.46313
#
# Poissons Ratio (x) = 0.18729 0.37096
# Poissons Ratio (y) = 0.47655 0.16624
# Poissons Ratio (z) = 0.39472 0.06952
#
# Static dielectric constant tensor:
#      x y z
#    x 3.813010 0.000000 0.000000 
#    y 0.000000 4.185010 0.000000 
#    z 0.000000 0.000000 3.555410 
# 
# 
# High freq. dielectric constant tensor:
#      x y z
#    x 1.757070 0.000000 0.000000 
#    y 0.000000 1.755300 0.000000 
#    z 0.000000 0.000000 1.748960 
# 
# From -- ./inp_files/25633.got.cif
#   From: 2010.03.12/outbox.cif.g09.slc.cpg/sg59_13_cif.got.tgz:25633.got - 2010.04.16 16:29:54.
