data_PCOD8244789
_publ_section_title
;
Structure prediction by ZEFSAII (Michael W. Deem and Ramdas Pophale) SiO2 
 PCOD8244789
Probable space group: P M M N
;
_chemical_formula_sum "Si O2"
_cell_formula_units_Z 64
_cell_length_a 19.070120
_cell_length_b 9.193396
_cell_length_c 20.296983
_cell_angle_alpha 90.000000
_cell_angle_beta 90.000000
_cell_angle_gamma 90.000000
_cell_volume 3558.450110
_symmetry_space_group_name_H-M "P M M N"
_symmetry_group_IT_number 59
_space_group.IT_coordinate_system_code '2'
_symmetry_cell_setting 'orthorhombic'
loop_
_space_group_symop_operation_xyz
x,y,z
1/2-x,1/2-y,z
1/2+x,-y,-z
-x,1/2+y,-z
-x,-y,-z
1/2+x,1/2+y,-z
1/2-x,y,z
x,1/2-y,z
loop_
_atom_site_type_symbol
_atom_site_label
_atom_site_fract_x
_atom_site_fract_y
_atom_site_fract_z
Si Si1 0.584267 0.584489 0.612216
Si Si2 0.829674 0.078278 0.506262
Si Si3 0.423960 0.920889 0.615303
Si Si4 0.575231 0.922867 0.250485
Si Si5 0.833298 0.088510 0.001307
Si Si6 0.567506 0.581249 0.761881
Si Si7 0.832647 0.082643 0.147726
Si Si8 0.170735 0.420961 0.123891
O O1 0.599524 0.750000 0.592126
O O2 0.637112 0.483919 0.572540
O O3 0.503937 0.543672 0.595299
O O4 0.599279 0.558317 0.689287
O O5 0.750000 0.022721 0.498700
O O6 0.832771 0.250000 0.512062
O O7 0.873698 0.025396 0.443156
O O8 0.415359 0.750000 0.631051
O O9 0.402102 0.010698 0.679478
O O10 0.572551 0.750000 0.255789
O O11 0.500377 0.983065 0.227423
O O12 0.632298 0.970884 0.197503
O O13 0.750000 0.086241 0.001848
O O14 0.861140 0.250000 0.986076
O O15 0.862153 0.984645 0.943594
O O16 0.858796 0.039914 0.073970
O O17 0.546392 0.750000 0.771909
O O18 0.625249 0.528065 0.813929
O O19 0.750000 0.062796 0.154385
O O20 0.853516 0.250000 0.163211
O O21 0.250000 0.477710 0.135320
O O22 0.169381 0.250000 0.116285
#
# Coordination Sequence:
#
# PCOD8244789 Si02
#       8
#     8   8   8   8   8   8   8   8
#     4   9  18  33  54  75  96 131 174 211 245 288
#     4  10  21  35  52  77 106 132 161 202 250 299
#     4   9  19  37  56  72  97 136 175 203 240 303
#     4  11  22  34  52  79 106 130 165 215 260 295
#     4   8  15  29  49  73 100 131 168 207 249 302
#     4   9  19  36  54  73 102 139 174 204 245 307
#     4   9  18  34  55  75  99 136 174 205 248 309
#     4   9  17  30  51  77 102 131 169 213 256 297
#
# _framework density 17.985358999999999
#
# number of rings (size 3 to 8) (size 9 to 14) (size 15 to 20)
#    0.000    2.750    0.000    3.000    0.000    5.000 
#    0.000    4.375    0.000    1.500    0.000    0.000 
#    0.000    0.000    0.000    0.000    0.000    0.000 
#
# Total GULP energy -793542.382020 kJ/mol
# GULP energy per Si atom -12399.099719 kJ/mol
# Density = 1.794442 g / cm^3
# Si number density = 17.985359 Si / 1000 Ang^3
#
#
#
# Elastic Constant Matrix: (Units=GPa)
#
#
# Indices 1 2 3 4 5 6 
#
# 1 74.2164 34.5993 63.3589 0.0000 0.0000 0.0000
# 2 34.5993 58.5390 49.8343 0.0000 0.0000 0.0000
# 3 63.3589 49.8343 127.1814 0.0000 0.0000 0.0000
# 4 0.0000 0.0000 0.0000 34.2824 0.0000 0.0000
# 5 0.0000 0.0000 0.0000 0.0000 30.0357 0.0000
# 6 0.0000 0.0000 0.0000 0.0000 0.0000 24.5575
#
#
#
# Elastic Compliance Matrix: (Units=1/GPa)
#
#
# Indices 1 2 3 4 5 6 
#
# 1 0.024873 -0.006231 -0.009950 0.000000 0.000000 0.000000
# 2 -0.006231 0.027194 -0.007551 0.000000 0.000000 0.000000
# 3 -0.009950 -0.007551 0.015778 0.000000 0.000000 0.000000
# 4 0.000000 0.000000 0.000000 0.029170 0.000000 0.000000
# 5 0.000000 0.000000 0.000000 0.000000 0.033294 0.000000
# 6 0.000000 0.000000 0.000000 0.000000 0.000000 0.040721
#
#
# Mechanical properties :
#
#
# Convention : Reuss Voigt Hill
#
# Bulk Modulus (GPa) = 49.06471 61.72463 55.39467
# Shear Modulus (GPa) = 22.19387 25.25139 23.72263
#
# Velocity S-wave (km/s) = 3.51664 3.75106 3.63574
# Velocity P-wave (km/s) = 6.62032 7.29071 6.96359
#
# Compressibility (1/GPa) = 0.02038125
#
# Stress axis : x y z
#
# Youngs Moduli (GPa) = 40.20420 36.77285 63.37769
#
# Poissons Ratio (x) = 0.22913 0.63059
# Poissons Ratio (y) = 0.25051 0.47859
# Poissons Ratio (z) = 0.40002 0.27769
#
# Static dielectric constant tensor:
#      x y z
#    x 3.249640 0.000000 0.000000 
#    y 0.000000 3.256220 0.000000 
#    z 0.000000 0.000000 3.496220 
# 
# 
# High freq. dielectric constant tensor:
#      x y z
#    x 1.679110 0.000000 0.000000 
#    y 0.000000 1.685450 0.000000 
#    z 0.000000 0.000000 1.707430 
# 
# From -- ./inp_files/30652.got.cif
#   From: 2010.03.12/outbox.cif.g09.slc.cpg/sg59_16_cif.got.tgz:30652.got - 2010.04.16 16:29:54.
