data_PCOD8244878
_publ_section_title
;
Structure prediction by ZEFSAII (Michael W. Deem and Ramdas Pophale) SiO2 
 PCOD8244878
Probable space group: P M M N
;
_chemical_formula_sum "Si O2"
_cell_formula_units_Z 56
_cell_length_a 14.301498
_cell_length_b 9.392307
_cell_length_c 22.790661
_cell_angle_alpha 90.000000
_cell_angle_beta 90.000000
_cell_angle_gamma 90.000000
_cell_volume 3061.334110
_symmetry_space_group_name_H-M "P M M N"
_symmetry_group_IT_number 59
_space_group.IT_coordinate_system_code '2'
_symmetry_cell_setting 'orthorhombic'
loop_
_space_group_symop_operation_xyz
x,y,z
1/2-x,1/2-y,z
1/2+x,-y,-z
-x,1/2+y,-z
-x,-y,-z
1/2+x,1/2+y,-z
1/2-x,y,z
x,1/2-y,z
loop_
_atom_site_type_symbol
_atom_site_label
_atom_site_fract_x
_atom_site_fract_y
_atom_site_fract_z
Si Si1 0.858891 0.912780 0.527118
Si Si2 0.854359 0.415769 0.412173
Si Si3 0.350698 0.087914 0.911345
Si Si4 0.047008 0.587872 0.139717
Si Si5 0.592322 0.413507 0.988494
Si Si6 0.358110 0.418926 0.242649
Si Si7 0.459024 0.083315 0.357889
O O1 0.750000 0.924902 0.540717
O O2 0.889019 0.750000 0.515429
O O3 0.911560 0.979060 0.583374
O O4 0.886881 0.002721 0.470280
O O5 0.750000 0.463127 0.391694
O O6 0.856147 0.250000 0.428027
O O7 0.929211 0.449411 0.360520
O O8 0.250000 0.079855 0.877308
O O9 0.372351 0.250000 0.931283
O O10 0.439010 0.037479 0.872006
O O11 0.333548 0.991436 0.969524
O O12 0.047225 0.750000 0.163124
O O13 0.111635 0.576920 0.081230
O O14 0.092652 0.484557 0.186380
O O15 0.583461 0.250000 0.008174
O O16 0.500000 0.500000 0.000000
O O17 0.250000 0.465797 0.246233
O O18 0.367541 0.250000 0.237955
O O19 0.412420 0.481853 0.299542
O O20 0.437962 0.250000 0.356790
#
# Coordination Sequence:
#
# PCOD8244878 Si02
#       7
#     8   8   8   8   8   8   8
#     4   9  16  27  46  70  94 121 153 189 230 278
#     4   9  17  29  46  69  96 123 150 185 234 289
#     4   9  18  33  53  77 105 135 165 199 244 299
#     4   9  19  35  52  72 101 134 163 197 245 294
#     4   9  17  30  49  73 101 132 165 201 243 290
#     4  10  21  36  53  71  91 122 167 211 245 284
#     4   9  17  31  49  67  91 124 159 195 236 281
#
# _framework density 18.292677999999999
#
# number of rings (size 3 to 8) (size 9 to 14) (size 15 to 20)
#    0.000    2.857    0.000    2.143    0.000    5.714 
#    0.000    5.000    0.000    2.571    0.000    0.000 
#    0.000    0.000    0.000    0.000    0.000    0.000 
#
# Total GULP energy -693852.044476 kJ/mol
# GULP energy per Si atom -12390.215080 kJ/mol
# Density = 1.825104 g / cm^3
# Si number density = 18.292678 Si / 1000 Ang^3
#
#
#
# Elastic Constant Matrix: (Units=GPa)
#
#
# Indices 1 2 3 4 5 6 
#
# 1 120.5849 34.7703 70.1650 0.0000 0.0000 0.0000
# 2 34.7703 53.1886 40.5711 0.0000 0.0000 0.0000
# 3 70.1650 40.5711 103.5995 0.0000 0.0000 0.0000
# 4 0.0000 0.0000 0.0000 25.6794 0.0000 0.0000
# 5 0.0000 0.0000 0.0000 0.0000 26.4972 0.0000
# 6 0.0000 0.0000 0.0000 0.0000 0.0000 19.9072
#
#
#
# Elastic Compliance Matrix: (Units=1/GPa)
#
#
# Indices 1 2 3 4 5 6 
#
# 1 0.013959 -0.002729 -0.008385 0.000000 0.000000 0.000000
# 2 -0.002729 0.027343 -0.008860 0.000000 0.000000 0.000000
# 3 -0.008385 -0.008860 0.018801 0.000000 0.000000 0.000000
# 4 0.000000 0.000000 0.000000 0.038942 0.000000 0.000000
# 5 0.000000 0.000000 0.000000 0.000000 0.037740 0.000000
# 6 0.000000 0.000000 0.000000 0.000000 0.000000 0.050233
#
#
# Mechanical properties :
#
#
# Convention : Reuss Voigt Hill
#
# Bulk Modulus (GPa) = 49.61484 63.15399 56.38441
# Shear Modulus (GPa) = 21.39641 23.20787 22.30214
#
# Velocity S-wave (km/s) = 3.42375 3.56574 3.49547
# Velocity P-wave (km/s) = 6.54302 7.17996 6.86888
#
# Compressibility (1/GPa) = 0.02015526
#
# Stress axis : x y z
#
# Youngs Moduli (GPa) = 71.63840 36.57242 53.18819
#
# Poissons Ratio (x) = 0.09981 0.44600
# Poissons Ratio (y) = 0.19551 0.47122
# Poissons Ratio (z) = 0.60071 0.32402
#
# Static dielectric constant tensor:
#      x y z
#    x 3.498540 0.000000 0.000000 
#    y 0.000000 3.446900 0.000000 
#    z 0.000000 0.000000 3.157510 
# 
# 
# High freq. dielectric constant tensor:
#      x y z
#    x 1.722610 0.000000 0.000000 
#    y 0.000000 1.691420 0.000000 
#    z 0.000000 0.000000 1.683130 
# 
# From -- ./inp_files/30339.got.cif
#   From: 2010.03.12/outbox.cif.g09.slc.cpg/sg59_16_cif.got.tgz:30339.got - 2010.04.16 16:29:54.
