data_PCOD8244092
_publ_section_title
;
Structure prediction by ZEFSAII (Michael W. Deem and Ramdas Pophale) SiO2 
 PCOD8244092
Probable space group: P M M N
;
_chemical_formula_sum "Si O2"
_cell_formula_units_Z 40
_cell_length_a 12.659354
_cell_length_b 18.718675
_cell_length_c 8.809992
_cell_angle_alpha 90.000000
_cell_angle_beta 90.000000
_cell_angle_gamma 90.000000
_cell_volume 2087.671500
_symmetry_space_group_name_H-M "P M M N"
_symmetry_group_IT_number 59
_space_group.IT_coordinate_system_code '2'
_symmetry_cell_setting 'orthorhombic'
loop_
_space_group_symop_operation_xyz
x,y,z
1/2-x,1/2-y,z
1/2+x,-y,-z
-x,1/2+y,-z
-x,-y,-z
1/2+x,1/2+y,-z
1/2-x,y,z
x,1/2-y,z
loop_
_atom_site_type_symbol
_atom_site_label
_atom_site_fract_x
_atom_site_fract_y
_atom_site_fract_z
Si Si1 0.508283 0.888822 0.056342
Si Si2 0.971126 0.076079 0.432920
Si Si3 0.369713 0.830297 0.307866
Si Si4 0.626068 0.833028 0.763600
Si Si5 0.370617 0.516716 0.851285
O O1 0.444515 0.833398 0.160105
O O2 0.585406 0.935794 0.163468
O O3 0.573938 0.847811 0.927213
O O4 0.423495 0.943994 0.992043
O O5 0.912519 0.120641 0.559490
O O6 0.073275 0.117965 0.366819
O O7 0.887817 0.062952 0.299232
O O8 0.000000 0.000000 0.500000
O O9 0.250000 0.853152 0.265337
O O10 0.371881 0.750000 0.369646
O O11 0.750000 0.852181 0.770804
O O12 0.608804 0.750000 0.722096
O O13 0.250000 0.510916 0.891522
#
# Coordination Sequence:
#
# PCOD8244092 Si02
#       5
#     8   8   8   8   8
#     4  10  20  37  58  87 119 152 194 242 293 345
#     4  11  22  40  58  85 117 156 195 245 289 347
#     4  11  23  39  60  87 120 157 196 243 296 349
#     4  10  22  40  62  87 119 159 198 241 295 352
#     4  10  20  35  57  85 115 150 194 241 292 344
#
# _framework density 19.160101999999998
#
# number of rings (size 3 to 8) (size 9 to 14) (size 15 to 20)
#    0.000    1.600    2.000    3.000    0.000    1.600 
#    0.000    0.000    0.000   13.200    0.000    0.000 
#    0.000    0.000    0.000    0.000    0.000    0.000 
#
# Total GULP energy -495999.613988 kJ/mol
# GULP energy per Si atom -12399.990350 kJ/mol
# Density = 1.911649 g / cm^3
# Si number density = 19.160102 Si / 1000 Ang^3
#
#
#
# Elastic Constant Matrix: (Units=GPa)
#
#
# Indices 1 2 3 4 5 6 
#
# 1 144.1108 64.5163 42.3065 0.0000 0.0000 0.0000
# 2 64.5163 120.2529 48.0158 0.0000 0.0000 0.0000
# 3 42.3065 48.0158 76.4797 0.0000 0.0000 0.0000
# 4 0.0000 0.0000 0.0000 28.0648 0.0000 0.0000
# 5 0.0000 0.0000 0.0000 0.0000 24.0453 0.0000
# 6 0.0000 0.0000 0.0000 0.0000 0.0000 28.7328
#
#
#
# Elastic Compliance Matrix: (Units=1/GPa)
#
#
# Indices 1 2 3 4 5 6 
#
# 1 0.009549 -0.004022 -0.002757 0.000000 0.000000 0.000000
# 2 -0.004022 0.012792 -0.005806 0.000000 0.000000 0.000000
# 3 -0.002757 -0.005806 0.018246 0.000000 0.000000 0.000000
# 4 0.000000 0.000000 0.000000 0.035632 0.000000 0.000000
# 5 0.000000 0.000000 0.000000 0.000000 0.041588 0.000000
# 6 0.000000 0.000000 0.000000 0.000000 0.000000 0.034803
#
#
# Mechanical properties :
#
#
# Convention : Reuss Voigt Hill
#
# Bulk Modulus (GPa) = 64.86768 72.28006 68.57387
# Shear Modulus (GPa) = 27.33431 28.56892 27.95162
#
# Velocity S-wave (km/s) = 3.78117 3.86562 3.82363
# Velocity P-wave (km/s) = 7.27957 7.59804 7.44051
#
# Compressibility (1/GPa) = 0.01541600
#
# Stress axis : x y z
#
# Youngs Moduli (GPa) = 104.72046 78.17284 54.80731
#
# Poissons Ratio (x) = 0.31444 0.15111
# Poissons Ratio (y) = 0.42122 0.31822
# Poissons Ratio (z) = 0.28872 0.45389
#
# Static dielectric constant tensor:
#      x y z
#    x 3.645580 0.000000 0.000000 
#    y 0.000000 3.384920 0.000000 
#    z 0.000000 0.000000 3.512300 
# 
# 
# High freq. dielectric constant tensor:
#      x y z
#    x 1.751920 0.000000 0.000000 
#    y 0.000000 1.753290 0.000000 
#    z 0.000000 0.000000 1.745490 
# 
# From -- ./inp_files/7099.got.cif
#   From: 2010.03.12/outbox.cif.g09.slc.cpg/sg59_4_cif.got.tgz:7099.got - 2010.04.16 16:29:54.
