data_PCOD8244242
_publ_section_title
;
Structure prediction by ZEFSAII (Michael W. Deem and Ramdas Pophale) SiO2 
 PCOD8244242
Probable space group: P M M N
;
_chemical_formula_sum "Si O2"
_cell_formula_units_Z 48
_cell_length_a 9.597791
_cell_length_b 9.667599
_cell_length_c 28.414640
_cell_angle_alpha 90.000000
_cell_angle_beta 90.000000
_cell_angle_gamma 90.000000
_cell_volume 2636.526099
_symmetry_space_group_name_H-M "P M M N"
_symmetry_group_IT_number 59
_space_group.IT_coordinate_system_code '2'
_symmetry_cell_setting 'orthorhombic'
loop_
_space_group_symop_operation_xyz
x,y,z
1/2-x,1/2-y,z
1/2+x,-y,-z
-x,1/2+y,-z
-x,-y,-z
1/2+x,1/2+y,-z
1/2-x,y,z
x,1/2-y,z
loop_
_atom_site_type_symbol
_atom_site_label
_atom_site_fract_x
_atom_site_fract_y
_atom_site_fract_z
Si Si1 0.089620 0.407888 0.127504
Si Si2 0.409606 0.250000 0.436845
Si Si3 0.910993 0.250000 0.529928
Si Si4 0.412536 0.587870 0.037014
Si Si5 0.910464 0.465511 0.607654
Si Si6 0.407794 0.094039 0.697330
Si Si7 0.088846 0.909612 0.782667
O O1 0.250000 0.417088 0.142759
O O2 0.053595 0.250000 0.111272
O O3 0.055550 0.517948 0.087046
O O4 0.997237 0.453359 0.171604
O O5 0.250000 0.250000 0.453953
O O6 0.501747 0.250000 0.482866
O O7 0.443825 0.376645 0.402968
O O8 0.750000 0.250000 0.515257
O O9 0.950641 0.383567 0.560503
O O10 0.250000 0.574248 0.024104
O O11 0.457334 0.750000 0.037687
O O12 0.500000 0.500000 0.000000
O O13 0.750000 0.438076 0.620851
O O14 0.001338 0.416255 0.650887
O O15 0.250000 0.050256 0.684626
O O16 0.413339 0.250000 0.716506
O O17 0.467640 0.996030 0.738286
O O18 0.250000 0.943260 0.792880
O O19 0.064783 0.750000 0.770353
#
# Coordination Sequence:
#
# PCOD8244242 Si02
#       7
#     8   4   4   8   8   8   8
#     4   9  18  34  54  77 107 142 180 223 271 322
#     4  10  22  36  54  80 106 134 170 212 255 304
#     4  10  20  36  56  76 104 138 172 208 253 308
#     4  10  21  36  55  81 113 149 190 234 278 327
#     4  10  21  37  54  77 107 136 169 212 258 307
#     4  10  21  36  54  77 104 136 174 215 261 313
#     4   9  19  35  54  77 106 138 174 219 267 317
#
# _framework density 18.205774999999999
#
# number of rings (size 3 to 8) (size 9 to 14) (size 15 to 20)
#    0.000    2.333    0.833    1.000    1.167    4.333 
#    0.000    1.667    0.000    0.000    0.000    0.000 
#    0.000    0.000    0.000    0.000    0.000    0.000 
#
# Total GULP energy -595258.446496 kJ/mol
# GULP energy per Si atom -12401.217635 kJ/mol
# Density = 1.816434 g / cm^3
# Si number density = 18.205775 Si / 1000 Ang^3
#
#
#
# Elastic Constant Matrix: (Units=GPa)
#
#
# Indices 1 2 3 4 5 6 
#
# 1 63.7856 36.0350 57.4012 0.0000 0.0000 0.0000
# 2 36.0350 109.0385 47.2597 0.0000 0.0000 0.0000
# 3 57.4012 47.2597 104.4383 0.0000 0.0000 0.0000
# 4 0.0000 0.0000 0.0000 6.0560 0.0000 0.0000
# 5 0.0000 0.0000 0.0000 0.0000 36.0167 0.0000
# 6 0.0000 0.0000 0.0000 0.0000 0.0000 25.9928
#
#
#
# Elastic Compliance Matrix: (Units=1/GPa)
#
#
# Indices 1 2 3 4 5 6 
#
# 1 0.032173 -0.003693 -0.016012 0.000000 0.000000 0.000000
# 2 -0.003693 0.011832 -0.003325 0.000000 0.000000 0.000000
# 3 -0.016012 -0.003325 0.019880 0.000000 0.000000 0.000000
# 4 0.000000 0.000000 0.000000 0.165124 0.000000 0.000000
# 5 0.000000 0.000000 0.000000 0.000000 0.027765 0.000000
# 6 0.000000 0.000000 0.000000 0.000000 0.000000 0.038472
#
#
# Mechanical properties :
#
#
# Convention : Reuss Voigt Hill
#
# Bulk Modulus (GPa) = 56.09548 62.07269 59.08408
# Shear Modulus (GPa) = 14.39896 22.71755 18.55825
#
# Velocity S-wave (km/s) = 2.81535 3.53628 3.19621
# Velocity P-wave (km/s) = 6.43794 7.13041 6.79301
#
# Compressibility (1/GPa) = 0.01782675
#
# Stress axis : x y z
#
# Youngs Moduli (GPa) = 31.08217 84.51340 50.30192
#
# Poissons Ratio (x) = 0.31207 0.80543
# Poissons Ratio (y) = 0.11477 0.16725
# Poissons Ratio (z) = 0.49768 0.28099
#
# Static dielectric constant tensor:
#      x y z
#    x 3.339720 0.000000 0.000000 
#    y 0.000000 3.618920 0.000000 
#    z 0.000000 0.000000 3.220700 
# 
# 
# High freq. dielectric constant tensor:
#      x y z
#    x 1.701580 0.000000 0.000000 
#    y 0.000000 1.720300 0.000000 
#    z 0.000000 0.000000 1.701120 
# 
# From -- ./inp_files/32989.got.cif
#   From: 2010.03.12/outbox.cif.g09.slc.cpg/sg59_17_cif.got.tgz:32989.got - 2010.04.16 16:29:54.
