data_PCOD8244963
_publ_section_title
;
Structure prediction by ZEFSAII (Michael W. Deem and Ramdas Pophale) SiO2 
 PCOD8244963
Probable space group: P M M N
;
_chemical_formula_sum "Si O2"
_cell_formula_units_Z 56
_cell_length_a 19.407948
_cell_length_b 8.820924
_cell_length_c 17.503017
_cell_angle_alpha 90.000000
_cell_angle_beta 90.000000
_cell_angle_gamma 90.000000
_cell_volume 2996.447099
_symmetry_space_group_name_H-M "P M M N"
_symmetry_group_IT_number 59
_space_group.IT_coordinate_system_code '2'
_symmetry_cell_setting 'orthorhombic'
loop_
_space_group_symop_operation_xyz
x,y,z
1/2-x,1/2-y,z
1/2+x,-y,-z
-x,1/2+y,-z
-x,-y,-z
1/2+x,1/2+y,-z
1/2-x,y,z
x,1/2-y,z
loop_
_atom_site_type_symbol
_atom_site_label
_atom_site_fract_x
_atom_site_fract_y
_atom_site_fract_z
Si Si1 0.549173 0.927590 0.195241
Si Si2 0.671008 0.922375 0.932713
Si Si3 0.066440 0.572760 0.961450
Si Si4 0.908235 0.921601 0.785218
Si Si5 0.431132 0.929284 0.646749
Si Si6 0.828003 0.070769 0.482953
Si Si7 0.913511 0.923690 0.614420
O O1 0.562221 0.750000 0.192117
O O2 0.583662 0.003218 0.121241
O O3 0.468035 0.961889 0.192976
O O4 0.583529 0.993349 0.271967
O O5 0.750000 0.958399 0.945073
O O6 0.652246 0.750000 0.956497
O O7 0.654343 0.947436 0.843220
O O8 0.631067 0.040990 0.984723
O O9 0.053353 0.750000 0.953024
O O10 0.000000 0.500000 0.000000
O O11 0.938367 0.750000 0.791308
O O12 0.882205 0.948641 0.699058
O O13 0.428785 0.750000 0.658558
O O14 0.372017 0.988451 0.589408
O O15 0.506337 0.976466 0.613836
O O16 0.750000 0.003766 0.480236
O O17 0.824768 0.250000 0.481096
O O18 0.867213 0.024207 0.559497
O O19 0.907777 0.750000 0.587872
#
# Coordination Sequence:
#
# PCOD8244963 Si02
#       7
#     8   8   8   8   8   8   8
#     4  11  21  34  57  87 111 138 181 234 286 335
#     4  10  21  37  57  82 115 154 192 231 281 339
#     4  12  23  37  59  85 114 149 192 237 280 331
#     4   9  18  34  55  80 112 147 182 224 276 335
#     4   9  19  37  57  78 108 144 184 231 280 334
#     4  10  21  36  54  78 109 146 185 228 282 334
#     4   9  18  32  54  82 109 142 185 226 270 327
#
# _framework density 18.688800000000001
#
# number of rings (size 3 to 8) (size 9 to 14) (size 15 to 20)
#    0.000    2.000    1.429    3.857    0.000    4.000 
#    0.000    2.143    0.000    2.571    0.000    0.000 
#    0.000    0.000    0.000    0.000    0.000    0.000 
#
# Total GULP energy -694435.746687 kJ/mol
# GULP energy per Si atom -12400.638334 kJ/mol
# Density = 1.864626 g / cm^3
# Si number density = 18.688800 Si / 1000 Ang^3
#
#
#
# Elastic Constant Matrix: (Units=GPa)
#
#
# Indices 1 2 3 4 5 6 
#
# 1 100.6704 32.2903 68.8997 0.0000 0.0000 0.0000
# 2 32.2903 74.9864 48.0552 0.0000 0.0000 0.0000
# 3 68.8997 48.0552 148.2237 0.0000 0.0000 0.0000
# 4 0.0000 0.0000 0.0000 32.8116 0.0000 0.0000
# 5 0.0000 0.0000 0.0000 0.0000 24.6680 0.0000
# 6 0.0000 0.0000 0.0000 0.0000 0.0000 23.3609
#
#
#
# Elastic Compliance Matrix: (Units=1/GPa)
#
#
# Indices 1 2 3 4 5 6 
#
# 1 0.014931 -0.002501 -0.006129 0.000000 0.000000 0.000000
# 2 -0.002501 0.017252 -0.004431 0.000000 0.000000 0.000000
# 3 -0.006129 -0.004431 0.011032 0.000000 0.000000 0.000000
# 4 0.000000 0.000000 0.000000 0.030477 0.000000 0.000000
# 5 0.000000 0.000000 0.000000 0.000000 0.040538 0.000000
# 6 0.000000 0.000000 0.000000 0.000000 0.000000 0.042806
#
#
# Mechanical properties :
#
#
# Convention : Reuss Voigt Hill
#
# Bulk Modulus (GPa) = 58.50537 69.15234 63.82885
# Shear Modulus (GPa) = 26.47504 27.81045 27.14274
#
# Velocity S-wave (km/s) = 3.76789 3.86175 3.81511
# Velocity P-wave (km/s) = 7.09242 7.54762 7.32355
#
# Compressibility (1/GPa) = 0.01709245
#
# Stress axis : x y z
#
# Youngs Moduli (GPa) = 66.97599 57.96355 90.64427
#
# Poissons Ratio (x) = 0.14499 0.55559
# Poissons Ratio (y) = 0.16753 0.40161
# Poissons Ratio (z) = 0.41052 0.25681
#
# Static dielectric constant tensor:
#      x y z
#    x 3.404330 0.000000 0.000000 
#    y 0.000000 3.326030 0.000000 
#    z 0.000000 0.000000 3.668460 
# 
# 
# High freq. dielectric constant tensor:
#      x y z
#    x 1.702980 0.000000 0.000000 
#    y 0.000000 1.717650 0.000000 
#    z 0.000000 0.000000 1.740430 
# 
# From -- ./inp_files/28095.got.cif
#   From: 2010.03.12/outbox.cif.g09.slc.cpg/sg59_15_cif.got.tgz:28095.got - 2010.04.16 16:29:54.
