data_PCOD8244520
_publ_section_title
;
Structure prediction by ZEFSAII (Michael W. Deem and Ramdas Pophale) SiO2 
 PCOD8244520
Probable space group: P M M N
;
_chemical_formula_sum "Si O2"
_cell_formula_units_Z 64
_cell_length_a 18.610243
_cell_length_b 16.748492
_cell_length_c 11.289185
_cell_angle_alpha 90.000000
_cell_angle_beta 90.000000
_cell_angle_gamma 90.000000
_cell_volume 3518.765653
_symmetry_space_group_name_H-M "P M M N"
_symmetry_group_IT_number 59
_space_group.IT_coordinate_system_code '2'
_symmetry_cell_setting 'orthorhombic'
loop_
_space_group_symop_operation_xyz
x,y,z
1/2-x,1/2-y,z
1/2+x,-y,-z
-x,1/2+y,-z
-x,-y,-z
1/2+x,1/2+y,-z
1/2-x,y,z
x,1/2-y,z
loop_
_atom_site_type_symbol
_atom_site_label
_atom_site_fract_x
_atom_site_fract_y
_atom_site_fract_z
Si Si1 0.471123 0.838370 0.740331
Si Si2 0.832269 0.442103 0.619120
Si Si3 0.940207 0.438329 0.037380
Si Si4 0.829518 0.111999 0.360313
Si Si5 0.332170 0.030961 0.808461
Si Si6 0.581569 0.156549 0.801780
Si Si7 0.055684 0.434549 0.454749
Si Si8 0.926186 0.656906 0.308255
O O1 0.501165 0.750000 0.762158
O O2 0.477532 0.886660 0.860870
O O3 0.388137 0.831125 0.698872
O O4 0.517784 0.879439 0.640410
O O5 0.750000 0.467045 0.639202
O O6 0.842012 0.390141 0.500455
O O7 0.856955 0.386853 0.727026
O O8 0.877391 0.523574 0.609942
O O9 0.869777 0.484885 0.082967
O O10 0.917268 0.379974 0.932422
O O11 0.000000 0.500000 0.000000
O O12 0.750000 0.145326 0.329811
O O13 0.838241 0.022038 0.310513
O O14 0.250000 0.047590 0.844484
O O15 0.371211 0.114619 0.782080
O O16 0.599194 0.250000 0.810845
O O17 0.506160 0.140588 0.737786
O O18 0.082722 0.378885 0.561060
O O19 0.000000 0.500000 0.500000
O O20 0.907136 0.750000 0.310745
#
# Coordination Sequence:
#
# PCOD8244520 Si02
#       8
#     8   8   8   8   8   8   8   8
#     4  11  22  35  56  87 116 146 186 237 291 335
#     4  11  22  36  58  84 116 157 192 232 285 344
#     4  11  21  39  61  82 108 155 200 243 281 338
#     4   9  18  34  57  83 114 150 186 224 278 346
#     4  10  20  37  59  86 115 148 193 241 287 344
#     4  11  23  38  57  86 119 151 195 245 293 346
#     4  12  19  36  59  86 116 151 193 235 277 348
#     4  11  21  34  58  90 120 151 187 241 299 347
#
# _framework density 18.188196000000001
#
# number of rings (size 3 to 8) (size 9 to 14) (size 15 to 20)
#    0.000    1.250    5.000    2.250    0.000    2.750 
#    0.000    1.250    0.000    3.375    0.000    0.000 
#    0.000    0.000    0.000    0.000    0.000    0.000 
#
# Total GULP energy -793820.361297 kJ/mol
# GULP energy per Si atom -12403.443145 kJ/mol
# Density = 1.814680 g / cm^3
# Si number density = 18.188196 Si / 1000 Ang^3
#
#
#
# Elastic Constant Matrix: (Units=GPa)
#
#
# Indices 1 2 3 4 5 6 
#
# 1 107.7965 56.1848 37.2210 0.0000 0.0000 0.0000
# 2 56.1848 124.2379 50.0306 0.0000 0.0000 0.0000
# 3 37.2210 50.0306 93.2520 0.0000 0.0000 0.0000
# 4 0.0000 0.0000 0.0000 28.7184 0.0000 0.0000
# 5 0.0000 0.0000 0.0000 0.0000 23.3822 0.0000
# 6 0.0000 0.0000 0.0000 0.0000 0.0000 18.8788
#
#
#
# Elastic Compliance Matrix: (Units=1/GPa)
#
#
# Indices 1 2 3 4 5 6 
#
# 1 0.012583 -0.004679 -0.002512 0.000000 0.000000 0.000000
# 2 -0.004679 0.012007 -0.004574 0.000000 0.000000 0.000000
# 3 -0.002512 -0.004574 0.014181 0.000000 0.000000 0.000000
# 4 0.000000 0.000000 0.000000 0.034821 0.000000 0.000000
# 5 0.000000 0.000000 0.000000 0.000000 0.042768 0.000000
# 6 0.000000 0.000000 0.000000 0.000000 0.000000 0.052970
#
#
# Mechanical properties :
#
#
# Convention : Reuss Voigt Hill
#
# Bulk Modulus (GPa) = 65.61769 68.01769 66.81769
# Shear Modulus (GPa) = 25.26031 26.31921 25.78976
#
# Velocity S-wave (km/s) = 3.73074 3.80814 3.76964
# Velocity P-wave (km/s) = 7.39685 7.53748 7.46750
#
# Compressibility (1/GPa) = 0.01523979
#
# Stress axis : x y z
#
# Youngs Moduli (GPa) = 79.47383 83.28414 70.51903
#
# Poissons Ratio (x) = 0.38966 0.17715
# Poissons Ratio (y) = 0.37184 0.32259
# Poissons Ratio (z) = 0.19965 0.38098
#
# Static dielectric constant tensor:
#      x y z
#    x 3.447520 0.000000 0.000000 
#    y 0.000000 3.372150 0.000000 
#    z 0.000000 0.000000 3.427670 
# 
# 
# High freq. dielectric constant tensor:
#      x y z
#    x 1.701540 0.000000 0.000000 
#    y 0.000000 1.702670 0.000000 
#    z 0.000000 0.000000 1.706410 
# 
# From -- ./inp_files/17854.got.cif
#   From: 2010.03.12/outbox.cif.g09.slc.cpg/sg59_9_cif.got.tgz:17854.got - 2010.04.16 16:29:54.
