data_PCOD8244022
_publ_section_title
;
Structure prediction by ZEFSAII (Michael W. Deem and Ramdas Pophale) SiO2 
 PCOD8244022
Probable space group: P M M N
;
_chemical_formula_sum "Si O2"
_cell_formula_units_Z 56
_cell_length_a 13.521790
_cell_length_b 19.418297
_cell_length_c 9.685084
_cell_angle_alpha 90.000000
_cell_angle_beta 90.000000
_cell_angle_gamma 90.000000
_cell_volume 2543.013806
_symmetry_space_group_name_H-M "P M M N"
_symmetry_group_IT_number 59
_space_group.IT_coordinate_system_code '2'
_symmetry_cell_setting 'orthorhombic'
loop_
_space_group_symop_operation_xyz
x,y,z
1/2-x,1/2-y,z
1/2+x,-y,-z
-x,1/2+y,-z
-x,-y,-z
1/2+x,1/2+y,-z
1/2-x,y,z
x,1/2-y,z
loop_
_atom_site_type_symbol
_atom_site_label
_atom_site_fract_x
_atom_site_fract_y
_atom_site_fract_z
Si Si1 0.133877 0.458912 0.784986
Si Si2 0.957714 0.328225 0.185911
Si Si3 0.633363 0.472928 0.687718
Si Si4 0.132397 0.938918 0.013532
Si Si5 0.367339 0.174908 0.644865
Si Si6 0.632893 0.080619 0.403415
Si Si7 0.135237 0.129928 0.339561
O O1 0.250000 0.454424 0.760957
O O2 0.109888 0.487649 0.938173
O O3 0.088778 0.383476 0.749117
O O4 0.089344 0.513430 0.675262
O O5 0.928471 0.250000 0.150844
O O6 0.922091 0.375438 0.059516
O O7 0.906976 0.350812 0.330560
O O8 0.075518 0.334089 0.214107
O O9 0.750000 0.470467 0.707142
O O10 0.599598 0.422623 0.563534
O O11 0.602489 0.550533 0.653556
O O12 0.586723 0.446646 0.832452
O O13 0.250000 0.924057 0.010413
O O14 0.250000 0.175236 0.655719
O O15 0.409802 0.250000 0.688585
O O16 0.396183 0.161332 0.486131
O O17 0.750000 0.080211 0.390248
O O18 0.250000 0.140704 0.305611
#
# Coordination Sequence:
#
# PCOD8244022 Si02
#       7
#     8   8   8   8   8   8   8
#     4   8  13  26  47  76 108 138 176 223 272 324
#     4  11  23  36  54  83 116 153 193 233 285 341
#     4   9  17  34  59  86 113 144 186 235 287 340
#     4   9  19  35  57  84 115 149 188 236 285 341
#     4   9  15  25  46  74 104 140 181 228 279 327
#     4   9  17  33  57  84 114 142 181 235 284 335
#     4  10  20  35  57  82 111 145 189 241 283 331
#
# _framework density 22.021114000000001
#
# number of rings (size 3 to 8) (size 9 to 14) (size 15 to 20)
#    0.000    2.714    1.429    1.714    0.000    3.143 
#    0.000    0.714    0.000    4.286    0.000   10.000 
#    0.000    0.000    0.000    0.000    0.000    0.000 
#
# Total GULP energy -694098.817393 kJ/mol
# GULP energy per Si atom -12394.621739 kJ/mol
# Density = 2.197099 g / cm^3
# Si number density = 22.021114 Si / 1000 Ang^3
#
#
#
# Elastic Constant Matrix: (Units=GPa)
#
#
# Indices 1 2 3 4 5 6 
#
# 1 18.9972 23.2055 20.3871 0.0000 0.0000 0.0000
# 2 23.2055 154.0130 70.1778 0.0000 0.0000 0.0000
# 3 20.3871 70.1778 136.5884 0.0000 0.0000 0.0000
# 4 0.0000 0.0000 0.0000 27.5158 0.0000 0.0000
# 5 0.0000 0.0000 0.0000 0.0000 -7.4850 0.0000
# 6 0.0000 0.0000 0.0000 0.0000 0.0000 37.2503
#
#
#
# Elastic Compliance Matrix: (Units=1/GPa)
#
#
# Indices 1 2 3 4 5 6 
#
# 1 0.068586 -0.007402 -0.006434 0.000000 0.000000 0.000000
# 2 -0.007402 0.009277 -0.003661 0.000000 0.000000 0.000000
# 3 -0.006434 -0.003661 0.010163 0.000000 0.000000 0.000000
# 4 0.000000 0.000000 0.000000 0.036343 0.000000 0.000000
# 5 0.000000 0.000000 0.000000 0.000000 -0.133601 0.000000
# 6 0.000000 0.000000 0.000000 0.000000 0.000000 0.026845
#
#
# Mechanical properties :
#
#
# Convention : Reuss Voigt Hill
#
# Bulk Modulus (GPa) = 18.85718 59.68214 39.26966
# Shear Modulus (GPa) = 71.14001 24.51146 47.82573
#
# Velocity S-wave (km/s) = 5.68995 3.33992 4.66533
# Velocity P-wave (km/s) = 7.19369 6.48340 6.84776
#
# Compressibility (1/GPa) = 0.05303020
#
# Stress axis : x y z
#
# Youngs Moduli (GPa) = 14.58026 107.79774 98.39852
#
# Poissons Ratio (x) = 0.79795 0.63308
# Poissons Ratio (y) = 0.10793 0.36027
# Poissons Ratio (z) = 0.09381 0.39469
#
# Static dielectric constant tensor:
#      x y z
#    x 3.894230 0.000000 0.000000 
#    y 0.000000 4.034340 0.000000 
#    z 0.000000 0.000000 4.006990 
# 
# 
# High freq. dielectric constant tensor:
#      x y z
#    x 1.869300 0.000000 0.000000 
#    y 0.000000 1.843260 0.000000 
#    z 0.000000 0.000000 1.855840 
# 
# From -- ./inp_files/9339.got.cif
#   From: 2010.03.12/outbox.cif.g09.slc.cpg/sg59_5_cif.got.tgz:9339.got - 2010.04.16 16:29:54.
