data_PCOD8244065
_publ_section_title
;
Structure prediction by ZEFSAII (Michael W. Deem and Ramdas Pophale) SiO2 
 PCOD8244065
Probable space group: P M M N
;
_chemical_formula_sum "Si O2"
_cell_formula_units_Z 64
_cell_length_a 8.747875
_cell_length_b 14.609190
_cell_length_c 24.740812
_cell_angle_alpha 90.000000
_cell_angle_beta 90.000000
_cell_angle_gamma 90.000000
_cell_volume 3161.860137
_symmetry_space_group_name_H-M "P M M N"
_symmetry_group_IT_number 59
_space_group.IT_coordinate_system_code '2'
_symmetry_cell_setting 'orthorhombic'
loop_
_space_group_symop_operation_xyz
x,y,z
1/2-x,1/2-y,z
1/2+x,-y,-z
-x,1/2+y,-z
-x,-y,-z
1/2+x,1/2+y,-z
1/2-x,y,z
x,1/2-y,z
loop_
_atom_site_type_symbol
_atom_site_label
_atom_site_fract_x
_atom_site_fract_y
_atom_site_fract_z
Si Si1 0.073941 0.547518 0.250184
Si Si2 0.920747 0.652059 0.718595
Si Si3 0.569500 0.644291 0.353465
Si Si4 0.432171 0.968263 0.133115
Si Si5 0.925900 0.143816 0.968025
Si Si6 0.569264 0.851372 0.919822
Si Si7 0.077935 0.648836 0.609863
Si Si8 0.927045 0.485284 0.558019
O O1 0.250000 0.575453 0.259829
O O2 0.053821 0.437495 0.245687
O O3 0.011918 0.575309 0.190551
O O4 0.979408 0.593631 0.298292
O O5 0.750000 0.646562 0.692680
O O6 0.934569 0.750000 0.750968
O O7 0.050849 0.653292 0.673413
O O8 0.750000 0.637509 0.358070
O O9 0.514927 0.750000 0.351880
O O10 0.500444 0.596167 0.406622
O O11 0.250000 0.965719 0.134354
O O12 0.496106 0.907580 0.084029
O O13 0.487105 0.073692 0.124004
O O14 0.750000 0.116640 0.976870
O O15 0.946139 0.250000 0.955927
O O16 0.017298 0.114213 0.021206
O O17 0.750000 0.845890 0.920360
O O18 0.500460 0.750000 0.906669
O O19 0.250000 0.611896 0.599053
O O20 0.058881 0.750000 0.583953
O O21 0.950371 0.581921 0.586848
O O22 0.750000 0.462238 0.551690
O O23 0.000000 0.500000 0.500000
#
# Coordination Sequence:
#
# PCOD8244065 Si02
#       8
#     8   8   8   8   8   8   8   8
#     4  10  20  35  57  84 113 151 195 240 287 344
#     4   9  17  30  51  80 111 144 183 227 278 336
#     4  11  25  45  66  88 119 159 200 243 292 344
#     4   9  18  31  49  76 107 139 182 230 280 337
#     4   9  17  30  48  69  97 136 182 233 285 337
#     4   9  17  30  49  73 103 139 178 225 281 341
#     4  10  20  35  58  87 119 153 187 227 277 334
#     4  12  25  42  66  94 124 157 194 240 289 340
#
# _framework density 20.241250999999998
#
# number of rings (size 3 to 8) (size 9 to 14) (size 15 to 20)
#    0.000    2.125    1.250    2.250    0.000    3.250 
#    0.000    5.000    0.000    1.500    0.000    3.500 
#    0.000    0.000    0.000    0.000    0.000    0.000 
#
# Total GULP energy -793007.323622 kJ/mol
# GULP energy per Si atom -12390.739432 kJ/mol
# Density = 2.019518 g / cm^3
# Si number density = 20.241251 Si / 1000 Ang^3
#
#
#
# Elastic Constant Matrix: (Units=GPa)
#
#
# Indices 1 2 3 4 5 6 
#
# 1 56.7668 28.7702 24.5085 0.0000 0.0000 0.0000
# 2 28.7702 98.3067 43.5501 0.0000 0.0000 0.0000
# 3 24.5085 43.5501 112.2688 0.0000 0.0000 0.0000
# 4 0.0000 0.0000 0.0000 16.0245 0.0000 0.0000
# 5 0.0000 0.0000 0.0000 0.0000 26.2114 0.0000
# 6 0.0000 0.0000 0.0000 0.0000 0.0000 23.9407
#
#
#
# Elastic Compliance Matrix: (Units=1/GPa)
#
#
# Indices 1 2 3 4 5 6 
#
# 1 0.021341 -0.005049 -0.002700 0.000000 0.000000 0.000000
# 2 -0.005049 0.013478 -0.004126 0.000000 0.000000 0.000000
# 3 -0.002700 -0.004126 0.011097 0.000000 0.000000 0.000000
# 4 0.000000 0.000000 0.000000 0.062404 0.000000 0.000000
# 5 0.000000 0.000000 0.000000 0.000000 0.038151 0.000000
# 6 0.000000 0.000000 0.000000 0.000000 0.000000 0.041770
#
#
# Mechanical properties :
#
#
# Convention : Reuss Voigt Hill
#
# Bulk Modulus (GPa) = 45.11615 51.22221 48.16918
# Shear Modulus (GPa) = 22.79152 24.60291 23.69721
#
# Velocity S-wave (km/s) = 3.35922 3.49016 3.42532
# Velocity P-wave (km/s) = 6.11420 6.44999 6.28434
#
# Compressibility (1/GPa) = 0.02216501
#
# Stress axis : x y z
#
# Youngs Moduli (GPa) = 46.85873 74.19628 90.11390
#
# Poissons Ratio (x) = 0.37465 0.24331
# Poissons Ratio (y) = 0.23661 0.37180
# Poissons Ratio (z) = 0.12652 0.30612
#
# Static dielectric constant tensor:
#      x y z
#    x 3.531490 0.000000 0.000000 
#    y 0.000000 5.565600 0.000000 
#    z 0.000000 0.000000 4.582430 
# 
# 
# High freq. dielectric constant tensor:
#      x y z
#    x 1.767840 0.000000 0.000000 
#    y 0.000000 1.802240 0.000000 
#    z 0.000000 0.000000 1.781600 
# 
# From -- ./inp_files/31421.got.cif
#   From: 2010.03.12/outbox.cif.g09.slc.cpg/sg59_16_cif.got.tgz:31421.got - 2010.04.16 16:29:54.
