data_PCOD8244490
_publ_section_title
;
Structure prediction by ZEFSAII (Michael W. Deem and Ramdas Pophale) SiO2 
 PCOD8244490
Probable space group: P M M N
;
_chemical_formula_sum "Si O2"
_cell_formula_units_Z 48
_cell_length_a 34.607401
_cell_length_b 8.286178
_cell_length_c 8.034635
_cell_angle_alpha 90.000000
_cell_angle_beta 90.000000
_cell_angle_gamma 90.000000
_cell_volume 2304.036718
_symmetry_space_group_name_H-M "P M M N"
_symmetry_group_IT_number 59
_space_group.IT_coordinate_system_code '2'
_symmetry_cell_setting 'orthorhombic'
loop_
_space_group_symop_operation_xyz
x,y,z
1/2-x,1/2-y,z
1/2+x,-y,-z
-x,1/2+y,-z
-x,-y,-z
1/2+x,1/2+y,-z
1/2-x,y,z
x,1/2-y,z
loop_
_atom_site_type_symbol
_atom_site_label
_atom_site_fract_x
_atom_site_fract_y
_atom_site_fract_z
Si Si1 0.923042 0.933570 0.355156
Si Si2 0.656169 0.058259 0.322733
Si Si3 0.505271 0.434035 0.179302
Si Si4 0.293575 0.557921 0.988358
Si Si5 0.928783 0.068643 0.696706
Si Si6 0.343543 0.941185 0.296662
O O1 0.920946 0.750000 0.421012
O O2 0.883789 0.978011 0.256806
O O3 0.961823 0.950997 0.250579
O O4 0.924739 0.067174 0.498836
O O5 0.652485 0.250000 0.319616
O O6 0.687742 0.999859 0.186916
O O7 0.665919 0.997205 0.513430
O O8 0.519223 0.250000 0.185747
O O9 0.463585 0.447789 0.265017
O O10 0.500000 0.500000 0.000000
O O11 0.250000 0.491409 0.992113
O O12 0.294542 0.750000 0.995977
O O13 0.314905 0.488416 0.154769
O O14 0.938591 0.250000 0.758171
O O15 0.886970 0.009563 0.764178
O O16 0.340588 0.750000 0.301701
#
# Coordination Sequence:
#
# PCOD8244490 Si02
#       6
#     8   8   8   8   8   8
#     4  11  22  38  58  81 109 148 193 239 289 344
#     4   9  18  33  54  80 111 148 188 235 288 344
#     4  12  25  39  55  82 116 151 191 238 285 340
#     4   9  17  29  50  82 114 144 181 231 291 349
#     4  10  20  37  58  81 110 150 194 238 288 342
#     4   8  16  30  49  76 109 145 184 229 281 336
#
# _framework density 20.833002
#
# number of rings (size 3 to 8) (size 9 to 14) (size 15 to 20)
#    0.000    2.167    0.000    5.000    2.333    0.667 
#    0.000    3.333    0.000    0.500    0.000    0.000 
#    0.000    0.000    0.000    0.000    0.000    0.000 
#
# Total GULP energy -594740.781898 kJ/mol
# GULP energy per Si atom -12390.432956 kJ/mol
# Density = 2.078559 g / cm^3
# Si number density = 20.833002 Si / 1000 Ang^3
#
#
#
# Elastic Constant Matrix: (Units=GPa)
#
#
# Indices 1 2 3 4 5 6 
#
# 1 175.3432 19.2096 81.5429 0.0000 0.0000 0.0000
# 2 19.2096 48.6302 12.4018 0.0000 0.0000 0.0000
# 3 81.5429 12.4018 113.5028 0.0000 0.0000 0.0000
# 4 0.0000 0.0000 0.0000 16.4070 0.0000 0.0000
# 5 0.0000 0.0000 0.0000 0.0000 41.5898 0.0000
# 6 0.0000 0.0000 0.0000 0.0000 0.0000 21.8722
#
#
#
# Elastic Compliance Matrix: (Units=1/GPa)
#
#
# Indices 1 2 3 4 5 6 
#
# 1 0.008732 -0.001903 -0.006066 0.000000 0.000000 0.000000
# 2 -0.001903 0.021567 -0.000990 0.000000 0.000000 0.000000
# 3 -0.006066 -0.000990 0.013276 0.000000 0.000000 0.000000
# 4 0.000000 0.000000 0.000000 0.060950 0.000000 0.000000
# 5 0.000000 0.000000 0.000000 0.000000 0.024044 0.000000
# 6 0.000000 0.000000 0.000000 0.000000 0.000000 0.045720
#
#
# Mechanical properties :
#
#
# Convention : Reuss Voigt Hill
#
# Bulk Modulus (GPa) = 38.97109 62.64277 50.80693
# Shear Modulus (GPa) = 24.90550 30.92860 27.91705
#
# Velocity S-wave (km/s) = 3.46133 3.85723 3.66463
# Velocity P-wave (km/s) = 5.89249 7.06908 6.50743
#
# Compressibility (1/GPa) = 0.02566005
#
# Stress axis : x y z
#
# Youngs Moduli (GPa) = 114.51698 46.36657 75.32293
#
# Poissons Ratio (x) = 0.08821 0.45688
# Poissons Ratio (y) = 0.21787 0.07455
# Poissons Ratio (z) = 0.69462 0.04589
#
# Static dielectric constant tensor:
#      x y z
#    x 3.641780 0.000000 0.000000 
#    y 0.000000 3.313230 0.000000 
#    z 0.000000 0.000000 3.903300 
# 
# 
# High freq. dielectric constant tensor:
#      x y z
#    x 1.820730 0.000000 0.000000 
#    y 0.000000 1.779040 0.000000 
#    z 0.000000 0.000000 1.813120 
# 
# From -- ./inp_files/12946.got.cif
#   From: 2010.03.12/outbox.cif.g09.slc.cpg/sg59_7_cif.got.tgz:12946.got - 2010.04.16 16:29:54.
