data_PCOD8244557
_publ_section_title
;
Structure prediction by ZEFSAII (Michael W. Deem and Ramdas Pophale) SiO2 
 PCOD8244557
Probable space group: P M M N
;
_chemical_formula_sum "Si O2"
_cell_formula_units_Z 48
_cell_length_a 8.557551
_cell_length_b 14.621819
_cell_length_c 19.649806
_cell_angle_alpha 90.000000
_cell_angle_beta 90.000000
_cell_angle_gamma 90.000000
_cell_volume 2458.720525
_symmetry_space_group_name_H-M "P M M N"
_symmetry_group_IT_number 59
_space_group.IT_coordinate_system_code '2'
_symmetry_cell_setting 'orthorhombic'
loop_
_space_group_symop_operation_xyz
x,y,z
1/2-x,1/2-y,z
1/2+x,-y,-z
-x,1/2+y,-z
-x,-y,-z
1/2+x,1/2+y,-z
1/2-x,y,z
x,1/2-y,z
loop_
_atom_site_type_symbol
_atom_site_label
_atom_site_fract_x
_atom_site_fract_y
_atom_site_fract_z
Si Si1 0.436105 0.250000 0.636200
Si Si2 0.568454 0.644815 0.912322
Si Si3 0.431701 0.484449 0.835057
Si Si4 0.564604 0.750000 0.519134
Si Si5 0.930521 0.145402 0.945867
Si Si6 0.935511 0.438115 0.690520
Si Si7 0.934576 0.944639 0.562708
O O1 0.250000 0.250000 0.640637
O O2 0.497201 0.250000 0.558493
O O3 0.503345 0.162424 0.674379
O O4 0.750000 0.628132 0.898000
O O5 0.520001 0.750000 0.902381
O O6 0.467990 0.587416 0.858727
O O7 0.530866 0.613054 0.989191
O O8 0.250000 0.462696 0.841927
O O9 0.527526 0.413907 0.880788
O O10 0.485265 0.474651 0.758157
O O11 0.750000 0.750000 0.517327
O O12 0.502690 0.659938 0.558535
O O13 0.750000 0.131544 0.964498
O O14 0.968556 0.250000 0.927268
O O15 0.750000 0.436107 0.698726
O O16 0.990946 0.508712 0.632244
O O17 0.750000 0.946356 0.557169
O O18 0.000000 0.000000 0.500000
#
# Coordination Sequence:
#
# PCOD8244557 Si02
#       7
#     4   8   8   4   8   8   8
#     4  11  21  37  63  89 119 156 193 236 297 361
#     4  10  21  40  65  90 118 154 200 248 298 355
#     4  12  25  40  60  85 121 162 202 246 299 358
#     4   9  18  35  61  89 115 148 191 240 293 351
#     4  10  21  38  62  91 122 155 197 247 298 353
#     4  11  24  40  59  87 123 157 197 245 298 357
#     4  10  20  37  61  87 117 152 195 242 291 349
#
# _framework density 19.522348000000001
#
# number of rings (size 3 to 8) (size 9 to 14) (size 15 to 20)
#    0.000    1.500    1.667    3.750    1.167    2.667 
#    1.500    0.417    0.000    0.000    0.000    0.000 
#    0.000    0.000    0.000    0.000    0.000    0.000 
#
# Total GULP energy -595405.809439 kJ/mol
# GULP energy per Si atom -12404.287697 kJ/mol
# Density = 1.947791 g / cm^3
# Si number density = 19.522348 Si / 1000 Ang^3
#
#
#
# Elastic Constant Matrix: (Units=GPa)
#
#
# Indices 1 2 3 4 5 6 
#
# 1 48.0719 22.5394 15.0154 0.0000 0.0000 0.0000
# 2 22.5394 141.6820 75.4595 0.0000 0.0000 0.0000
# 3 15.0154 75.4595 126.3224 0.0000 0.0000 0.0000
# 4 0.0000 0.0000 0.0000 20.0938 0.0000 0.0000
# 5 0.0000 0.0000 0.0000 0.0000 32.5690 0.0000
# 6 0.0000 0.0000 0.0000 0.0000 0.0000 26.2353
#
#
#
# Elastic Compliance Matrix: (Units=1/GPa)
#
#
# Indices 1 2 3 4 5 6 
#
# 1 0.022532 -0.003165 -0.000788 0.000000 0.000000 0.000000
# 2 -0.003165 0.010796 -0.006073 0.000000 0.000000 0.000000
# 3 -0.000788 -0.006073 0.011638 0.000000 0.000000 0.000000
# 4 0.000000 0.000000 0.000000 0.049766 0.000000 0.000000
# 5 0.000000 0.000000 0.000000 0.000000 0.030704 0.000000
# 6 0.000000 0.000000 0.000000 0.000000 0.000000 0.038117
#
#
# Mechanical properties :
#
#
# Convention : Reuss Voigt Hill
#
# Bulk Modulus (GPa) = 40.13704 60.23387 50.18545
# Shear Modulus (GPa) = 26.05409 29.31710 27.68559
#
# Velocity S-wave (km/s) = 3.65715 3.87941 3.76992
# Velocity P-wave (km/s) = 6.19977 7.14053 6.68672
#
# Compressibility (1/GPa) = 0.02491465
#
# Stress axis : x y z
#
# Youngs Moduli (GPa) = 44.38102 92.62755 85.92908
#
# Poissons Ratio (x) = 0.29317 0.06768
# Poissons Ratio (y) = 0.14047 0.52183
# Poissons Ratio (z) = 0.03496 0.56251
#
# Static dielectric constant tensor:
#      x y z
#    x 3.546320 0.000000 0.000000 
#    y 0.000000 3.874260 0.000000 
#    z 0.000000 0.000000 3.580830 
# 
# 
# High freq. dielectric constant tensor:
#      x y z
#    x 1.760910 0.000000 0.000000 
#    y 0.000000 1.775880 0.000000 
#    z 0.000000 0.000000 1.757290 
# 
# From -- ./inp_files/25568.got.cif
#   From: 2010.03.12/outbox.cif.g09.slc.cpg/sg59_13_cif.got.tgz:25568.got - 2010.04.16 16:29:54.
