data_PCOD8244214
_publ_section_title
;
Structure prediction by ZEFSAII (Michael W. Deem and Ramdas Pophale) SiO2 
 PCOD8244214
Probable space group: P M M N
;
_chemical_formula_sum "Si O2"
_cell_formula_units_Z 48
_cell_length_a 14.060831
_cell_length_b 8.712926
_cell_length_c 20.192396
_cell_angle_alpha 90.000000
_cell_angle_beta 90.000000
_cell_angle_gamma 90.000000
_cell_volume 2473.790223
_symmetry_space_group_name_H-M "P M M N"
_symmetry_group_IT_number 59
_space_group.IT_coordinate_system_code '2'
_symmetry_cell_setting 'orthorhombic'
loop_
_space_group_symop_operation_xyz
x,y,z
1/2-x,1/2-y,z
1/2+x,-y,-z
-x,1/2+y,-z
-x,-y,-z
1/2+x,1/2+y,-z
1/2-x,y,z
x,1/2-y,z
loop_
_atom_site_type_symbol
_atom_site_label
_atom_site_fract_x
_atom_site_fract_y
_atom_site_fract_z
Si Si1 0.250000 0.431185 0.111171
Si Si2 0.951824 0.074718 0.696458
Si Si3 0.445122 0.070757 0.561265
Si Si4 0.250000 0.072035 0.753239
Si Si5 0.250000 0.923277 0.252566
Si Si6 0.250000 0.931662 0.608107
Si Si7 0.431816 0.572136 0.807298
Si Si8 0.047595 0.431440 0.064447
O O1 0.250000 0.250000 0.106140
O O2 0.250000 0.469349 0.188658
O O3 0.155073 0.496225 0.075095
O O4 0.978535 0.250000 0.716220
O O5 0.839344 0.046115 0.699859
O O6 0.987895 0.036816 0.623650
O O7 0.998926 0.954539 0.745936
O O8 0.428893 0.250000 0.549900
O O9 0.500000 0.000000 0.500000
O O10 0.342676 0.993716 0.570764
O O11 0.250000 0.250000 0.734274
O O12 0.250000 0.979569 0.684856
O O13 0.160564 0.031749 0.798536
O O14 0.250000 0.750000 0.225122
O O15 0.250000 0.750000 0.604294
O O16 0.402813 0.750000 0.810371
O O17 0.484074 0.516973 0.873571
O O18 0.050253 0.250000 0.057992
O O19 0.000000 0.500000 0.000000
#
# Coordination Sequence:
#
# PCOD8244214 Si02
#       8
#     4   8   8   4   4   4   8   8
#     4  10  20  39  60  85 117 157 199 247 308 366
#     4  10  21  37  60  90 125 162 205 254 306 364
#     4  11  24  42  64  93 130 169 213 260 315 380
#     4  12  24  39  62  93 127 163 207 259 314 375
#     4  10  20  35  60  93 121 157 205 251 302 365
#     4  12  24  41  66  93 125 167 213 263 320 376
#     4  11  22  38  62  91 121 157 207 258 306 365
#     4  10  23  40  61  88 123 160 203 254 308 371
#
# _framework density 19.403424000000001
#
# number of rings (size 3 to 8) (size 9 to 14) (size 15 to 20)
#    0.000    1.333    3.333    2.500    0.000    4.000 
#    0.000    3.333    0.000    0.000    0.000    0.000 
#    0.000    0.000    0.000    0.000    0.000    0.000 
#
# Total GULP energy -595333.758669 kJ/mol
# GULP energy per Si atom -12402.786639 kJ/mol
# Density = 1.935926 g / cm^3
# Si number density = 19.403424 Si / 1000 Ang^3
#
#
#
# Elastic Constant Matrix: (Units=GPa)
#
#
# Indices 1 2 3 4 5 6 
#
# 1 188.4826 51.3196 86.8984 0.0000 0.0000 0.0000
# 2 51.3196 75.3259 50.3397 0.0000 0.0000 0.0000
# 3 86.8984 50.3397 145.9605 0.0000 0.0000 0.0000
# 4 0.0000 0.0000 0.0000 34.0521 0.0000 0.0000
# 5 0.0000 0.0000 0.0000 0.0000 35.4159 0.0000
# 6 0.0000 0.0000 0.0000 0.0000 0.0000 31.1680
#
#
#
# Elastic Compliance Matrix: (Units=1/GPa)
#
#
# Indices 1 2 3 4 5 6 
#
# 1 0.007759 -0.002858 -0.003634 0.000000 0.000000 0.000000
# 2 -0.002858 0.018305 -0.004612 0.000000 0.000000 0.000000
# 3 -0.003634 -0.004612 0.010605 0.000000 0.000000 0.000000
# 4 0.000000 0.000000 0.000000 0.029367 0.000000 0.000000
# 5 0.000000 0.000000 0.000000 0.000000 0.028236 0.000000
# 6 0.000000 0.000000 0.000000 0.000000 0.000000 0.032084
#
#
# Mechanical properties :
#
#
# Convention : Reuss Voigt Hill
#
# Bulk Modulus (GPa) = 69.14526 87.43160 78.28843
# Shear Modulus (GPa) = 32.59830 34.87463 33.73647
#
# Velocity S-wave (km/s) = 4.10326 4.24411 4.17428
# Velocity P-wave (km/s) = 7.62640 8.31711 7.97923
#
# Compressibility (1/GPa) = 0.01446231
#
# Stress axis : x y z
#
# Youngs Moduli (GPa) = 128.88373 54.63124 94.29527
#
# Poissons Ratio (x) = 0.15612 0.34264
# Poissons Ratio (y) = 0.36832 0.43485
# Poissons Ratio (z) = 0.46833 0.25194
#
# Static dielectric constant tensor:
#      x y z
#    x 2.267240 0.000000 0.000000 
#    y 0.000000 3.558720 0.000000 
#    z 0.000000 0.000000 3.433100 
# 
# 
# High freq. dielectric constant tensor:
#      x y z
#    x 1.776700 0.000000 0.000000 
#    y 0.000000 1.755690 0.000000 
#    z 0.000000 0.000000 1.749140 
# 
# From -- ./inp_files/27538.got.cif
#   From: 2010.03.12/outbox.cif.g09.slc.cpg/sg59_14_cif.got.tgz:27538.got - 2010.04.16 16:29:54.
