data_PCOD8244686
_publ_section_title
;
Structure prediction by ZEFSAII (Michael W. Deem and Ramdas Pophale) SiO2 
 PCOD8244686
Probable space group: P M M N
;
_chemical_formula_sum "Si O2"
_cell_formula_units_Z 56
_cell_length_a 8.962193
_cell_length_b 22.444657
_cell_length_c 14.258195
_cell_angle_alpha 90.000000
_cell_angle_beta 90.000000
_cell_angle_gamma 90.000000
_cell_volume 2868.083659
_symmetry_space_group_name_H-M "P M M N"
_symmetry_group_IT_number 59
_space_group.IT_coordinate_system_code '2'
_symmetry_cell_setting 'orthorhombic'
loop_
_space_group_symop_operation_xyz
x,y,z
1/2-x,1/2-y,z
1/2+x,-y,-z
-x,1/2+y,-z
-x,-y,-z
1/2+x,1/2+y,-z
1/2-x,y,z
x,1/2-y,z
loop_
_atom_site_type_symbol
_atom_site_label
_atom_site_fract_x
_atom_site_fract_y
_atom_site_fract_z
Si Si1 0.423578 0.097538 0.348796
Si Si2 0.921491 0.029699 0.086169
Si Si3 0.427947 0.750000 0.171113
Si Si4 0.580695 0.520956 0.286470
Si Si5 0.425787 0.750000 0.957792
Si Si6 0.920331 0.183242 0.487153
Si Si7 0.579100 0.145283 0.696371
Si Si8 0.422982 0.145033 0.149275
O O1 0.250000 0.084018 0.358626
O O2 0.478768 0.133009 0.439421
O O3 0.457322 0.140147 0.259979
O O4 0.501544 0.033395 0.340392
O O5 0.750000 0.048332 0.064699
O O6 0.028756 0.084667 0.101765
O O7 0.928206 0.986186 0.174771
O O8 0.000000 0.000000 0.000000
O O9 0.250000 0.750000 0.175729
O O10 0.485460 0.690009 0.223634
O O11 0.489910 0.750000 0.064321
O O12 0.750000 0.521085 0.322133
O O13 0.509780 0.584020 0.310435
O O14 0.250000 0.750000 0.964361
O O15 0.477495 0.694345 0.898333
O O16 0.750000 0.172041 0.456239
O O17 0.970651 0.250000 0.457203
O O18 0.937060 0.179176 0.598464
O O19 0.750000 0.129158 0.718742
O O20 0.250000 0.158328 0.130066
#
# Coordination Sequence:
#
# PCOD8244686 Si02
#       8
#     8   8   4   8   4   8   8   8
#     4  10  22  40  62  87 117 155 197 240 295 353
#     4  10  21  37  58  84 115 152 196 243 292 349
#     4   9  20  39  60  85 116 154 199 241 282 349
#     4  10  22  39  59  87 119 151 194 245 296 346
#     4  11  23  37  58  89 118 156 201 239 290 351
#     4  10  21  38  62  90 118 154 195 239 293 348
#     4  10  20  39  64  87 118 156 196 239 291 352
#     4  10  22  40  58  83 119 155 194 242 291 347
#
# _framework density 19.525233
#
# number of rings (size 3 to 8) (size 9 to 14) (size 15 to 20)
#    0.000    2.000    0.714    1.929    3.000    4.857 
#    0.000    1.071    0.000    0.000    0.000    0.000 
#    0.000    0.000    0.000    0.000    0.000    0.000 
#
# Total GULP energy -694383.452995 kJ/mol
# GULP energy per Si atom -12399.704518 kJ/mol
# Density = 1.948079 g / cm^3
# Si number density = 19.525233 Si / 1000 Ang^3
#
#
#
# Elastic Constant Matrix: (Units=GPa)
#
#
# Indices 1 2 3 4 5 6 
#
# 1 79.7397 47.4808 31.8821 0.0000 0.0000 0.0000
# 2 47.4808 112.7321 40.3750 0.0000 0.0000 0.0000
# 3 31.8821 40.3750 54.8777 0.0000 0.0000 0.0000
# 4 0.0000 0.0000 0.0000 34.4244 0.0000 0.0000
# 5 0.0000 0.0000 0.0000 0.0000 30.0912 0.0000
# 6 0.0000 0.0000 0.0000 0.0000 0.0000 36.1106
#
#
#
# Elastic Compliance Matrix: (Units=1/GPa)
#
#
# Indices 1 2 3 4 5 6 
#
# 1 0.018428 -0.005332 -0.006783 0.000000 0.000000 0.000000
# 2 -0.005332 0.013587 -0.006899 0.000000 0.000000 0.000000
# 3 -0.006783 -0.006899 0.027239 0.000000 0.000000 0.000000
# 4 0.000000 0.000000 0.000000 0.029049 0.000000 0.000000
# 5 0.000000 0.000000 0.000000 0.000000 0.033232 0.000000
# 6 0.000000 0.000000 0.000000 0.000000 0.000000 0.027693
#
#
# Mechanical properties :
#
#
# Convention : Reuss Voigt Hill
#
# Bulk Modulus (GPa) = 47.11196 54.09169 50.60183
# Shear Modulus (GPa) = 25.72937 28.63269 27.18103
#
# Velocity S-wave (km/s) = 3.63402 3.83357 3.73513
# Velocity P-wave (km/s) = 6.46446 6.88176 6.67637
#
# Compressibility (1/GPa) = 0.02122603
#
# Stress axis : x y z
#
# Youngs Moduli (GPa) = 54.26572 73.59903 36.71272
#
# Poissons Ratio (x) = 0.39244 0.24902
# Poissons Ratio (y) = 0.28935 0.25327
# Poissons Ratio (z) = 0.36808 0.50773
#
# Static dielectric constant tensor:
#      x y z
#    x 3.532230 0.000000 0.000000 
#    y 0.000000 2.894520 0.000000 
#    z 0.000000 0.000000 3.319220 
# 
# 
# High freq. dielectric constant tensor:
#      x y z
#    x 1.758050 0.000000 0.000000 
#    y 0.000000 1.769000 0.000000 
#    z 0.000000 0.000000 1.763270 
# 
# From -- ./inp_files/21237.got.cif
#   From: 2010.03.12/outbox.cif.g09.slc.cpg/sg59_11_cif.got.tgz:21237.got - 2010.04.16 16:29:54.
