data_PCOD8244888
_publ_section_title
;
Structure prediction by ZEFSAII (Michael W. Deem and Ramdas Pophale) SiO2 
 PCOD8244888
Probable space group: P M M N
;
_chemical_formula_sum "Si O2"
_cell_formula_units_Z 48
_cell_length_a 9.192162
_cell_length_b 9.239984
_cell_length_c 30.887775
_cell_angle_alpha 90.000000
_cell_angle_beta 90.000000
_cell_angle_gamma 90.000000
_cell_volume 2623.466445
_symmetry_space_group_name_H-M "P M M N"
_symmetry_group_IT_number 59
_space_group.IT_coordinate_system_code '2'
_symmetry_cell_setting 'orthorhombic'
loop_
_space_group_symop_operation_xyz
x,y,z
1/2-x,1/2-y,z
1/2+x,-y,-z
-x,1/2+y,-z
-x,-y,-z
1/2+x,1/2+y,-z
1/2-x,y,z
x,1/2-y,z
loop_
_atom_site_type_symbol
_atom_site_label
_atom_site_fract_x
_atom_site_fract_y
_atom_site_fract_z
Si Si1 0.579099 0.582959 0.698221
Si Si2 0.583529 0.419708 0.876568
Si Si3 0.078639 0.917474 0.538296
Si Si4 0.420597 0.416443 0.623949
Si Si5 0.581583 0.920352 0.038243
Si Si6 0.422792 0.410238 0.205452
O O1 0.750000 0.559865 0.692433
O O2 0.537688 0.750000 0.688860
O O3 0.497715 0.476002 0.666327
O O4 0.527601 0.538845 0.746750
O O5 0.750000 0.469021 0.884664
O O6 0.572350 0.250000 0.870901
O O7 0.487326 0.474142 0.916665
O O8 0.517868 0.486426 0.832423
O O9 0.250000 0.934911 0.531710
O O10 0.031203 0.750000 0.538773
O O11 0.027130 0.990336 0.582930
O O12 0.000000 0.000000 0.500000
O O13 0.250000 0.433153 0.631083
O O14 0.465252 0.250000 0.616319
O O15 0.750000 0.964030 0.037712
O O16 0.558811 0.750000 0.032268
O O17 0.500000 0.000000 0.000000
O O18 0.250000 0.408660 0.204979
O O19 0.483512 0.250000 0.196204
#
# Coordination Sequence:
#
# PCOD8244888 Si02
#       6
#     8   8   8   8   8   8
#     4   9  18  33  53  77 104 135 172 212 252 296
#     4   9  17  30  49  72  98 129 164 202 247 298
#     4  10  21  37  57  79 103 134 171 210 255 306
#     4  10  21  36  53  75 104 137 172 210 254 303
#     4  10  21  36  53  74 101 133 168 207 252 301
#     4   8  15  29  49  73 100 129 164 206 249 294
#
# _framework density 18.296403000000002
#
# number of rings (size 3 to 8) (size 9 to 14) (size 15 to 20)
#    0.000    2.667    0.000    2.500    0.000    5.333 
#    0.000    4.167    0.000    3.000    0.000    0.000 
#    0.000    0.000    0.000    0.000    0.000    0.000 
#
# Total GULP energy -595164.044479 kJ/mol
# GULP energy per Si atom -12399.250927 kJ/mol
# Density = 1.825476 g / cm^3
# Si number density = 18.296403 Si / 1000 Ang^3
#
#
#
# Elastic Constant Matrix: (Units=GPa)
#
#
# Indices 1 2 3 4 5 6 
#
# 1 56.4865 44.2900 60.6882 0.0000 0.0000 0.0000
# 2 44.2900 99.5083 84.6148 0.0000 0.0000 0.0000
# 3 60.6882 84.6148 179.5939 0.0000 0.0000 0.0000
# 4 0.0000 0.0000 0.0000 42.8932 0.0000 0.0000
# 5 0.0000 0.0000 0.0000 0.0000 32.6705 0.0000
# 6 0.0000 0.0000 0.0000 0.0000 0.0000 25.9897
#
#
#
# Elastic Compliance Matrix: (Units=1/GPa)
#
#
# Indices 1 2 3 4 5 6 
#
# 1 0.031400 -0.008264 -0.006717 0.000000 0.000000 0.000000
# 2 -0.008264 0.018942 -0.006132 0.000000 0.000000 0.000000
# 3 -0.006717 -0.006132 0.010727 0.000000 0.000000 0.000000
# 4 0.000000 0.000000 0.000000 0.023314 0.000000 0.000000
# 5 0.000000 0.000000 0.000000 0.000000 0.030609 0.000000
# 6 0.000000 0.000000 0.000000 0.000000 0.000000 0.038477
#
#
# Mechanical properties :
#
#
# Convention : Reuss Voigt Hill
#
# Bulk Modulus (GPa) = 53.07085 79.41942 66.24513
# Shear Modulus (GPa) = 24.75574 30.04373 27.39973
#
# Velocity S-wave (km/s) = 3.68236 4.05663 3.87401
# Velocity P-wave (km/s) = 6.86650 8.08968 7.50306
#
# Compressibility (1/GPa) = 0.01884274
#
# Stress axis : x y z
#
# Youngs Moduli (GPa) = 31.84748 52.79395 93.22408
#
# Poissons Ratio (x) = 0.43629 0.62619
# Poissons Ratio (y) = 0.26319 0.57162
# Poissons Ratio (z) = 0.21392 0.32372
#
# Static dielectric constant tensor:
#      x y z
#    x 3.142470 0.000000 0.000000 
#    y 0.000000 4.654220 0.000000 
#    z 0.000000 0.000000 3.650170 
# 
# 
# High freq. dielectric constant tensor:
#      x y z
#    x 1.685500 0.000000 0.000000 
#    y 0.000000 1.709460 0.000000 
#    z 0.000000 0.000000 1.725330 
# 
# From -- ./inp_files/32878.got.cif
#   From: 2010.03.12/outbox.cif.g09.slc.cpg/sg59_17_cif.got.tgz:32878.got - 2010.04.16 16:29:54.
