data_PCOD8244728
_publ_section_title
;
Structure prediction by ZEFSAII (Michael W. Deem and Ramdas Pophale) SiO2 
 PCOD8244728
Probable space group: P M M N
;
_chemical_formula_sum "Si O2"
_cell_formula_units_Z 32
_cell_length_a 15.356383
_cell_length_b 11.707679
_cell_length_c 9.212443
_cell_angle_alpha 90.000000
_cell_angle_beta 90.000000
_cell_angle_gamma 90.000000
_cell_volume 1656.283043
_symmetry_space_group_name_H-M "P M M N"
_symmetry_group_IT_number 59
_space_group.IT_coordinate_system_code '2'
_symmetry_cell_setting 'orthorhombic'
loop_
_space_group_symop_operation_xyz
x,y,z
1/2-x,1/2-y,z
1/2+x,-y,-z
-x,1/2+y,-z
-x,-y,-z
1/2+x,1/2+y,-z
1/2-x,y,z
x,1/2-y,z
loop_
_atom_site_type_symbol
_atom_site_label
_atom_site_fract_x
_atom_site_fract_y
_atom_site_fract_z
Si Si1 0.533727 0.534144 0.843795
Si Si2 0.917231 0.506520 0.400050
Si Si3 0.852972 0.750000 0.785440
Si Si4 0.850224 0.750000 0.440963
Si Si5 0.652833 0.120202 0.652228
O O1 0.444993 0.555963 0.750081
O O2 0.598668 0.641155 0.853162
O O3 0.586573 0.431497 0.768829
O O4 0.500000 0.500000 0.000000
O O5 0.891820 0.637707 0.369212
O O6 0.843920 0.441191 0.493493
O O7 0.000000 0.500000 0.500000
O O8 0.750000 0.750000 0.826314
O O9 0.865561 0.750000 0.613200
O O10 0.750000 0.750000 0.400312
O O11 0.750000 0.110039 0.716979
O O12 0.624312 0.250000 0.626670
#
# Coordination Sequence:
#
# PCOD8244728 Si02
#       5
#     8   8   4   4   8
#     4  11  25  38  60  90 126 157 198 242 301 362
#     4  10  21  34  61  86 117 148 200 253 299 349
#     4  11  22  41  67  89 118 162 205 246 299 363
#     4  11  20  37  63  91 116 154 209 258 301 347
#     4  10  21  38  61  85 117 155 198 247 301 358
#
# _framework density 19.32037
#
# number of rings (size 3 to 8) (size 9 to 14) (size 15 to 20)
#    0.000    1.500    5.000    1.500   10.500    0.000 
#    0.000    6.250    0.000    3.000    0.000    0.000 
#    0.000    0.000    0.000    0.000    0.000    0.000 
#
# Total GULP energy -396598.398246 kJ/mol
# GULP energy per Si atom -12393.699945 kJ/mol
# Density = 1.927640 g / cm^3
# Si number density = 19.320370 Si / 1000 Ang^3
#
#
#
# Elastic Constant Matrix: (Units=GPa)
#
#
# Indices 1 2 3 4 5 6 
#
# 1 98.0821 53.2207 46.3881 0.0000 0.0000 0.0000
# 2 53.2207 146.2120 36.0126 0.0000 0.0000 0.0000
# 3 46.3881 36.0126 124.1322 0.0000 0.0000 0.0000
# 4 0.0000 0.0000 0.0000 12.5585 0.0000 0.0000
# 5 0.0000 0.0000 0.0000 0.0000 24.8848 0.0000
# 6 0.0000 0.0000 0.0000 0.0000 0.0000 37.7227
#
#
#
# Elastic Compliance Matrix: (Units=1/GPa)
#
#
# Indices 1 2 3 4 5 6 
#
# 1 0.014472 -0.004238 -0.004178 0.000000 0.000000 0.000000
# 2 -0.004238 0.008607 -0.000913 0.000000 0.000000 0.000000
# 3 -0.004178 -0.000913 0.009882 0.000000 0.000000 0.000000
# 4 0.000000 0.000000 0.000000 0.079627 0.000000 0.000000
# 5 0.000000 0.000000 0.000000 0.000000 0.040185 0.000000
# 6 0.000000 0.000000 0.000000 0.000000 0.000000 0.026509
#
#
# Mechanical properties :
#
#
# Convention : Reuss Voigt Hill
#
# Bulk Modulus (GPa) = 69.92514 71.07436 70.49975
# Shear Modulus (GPa) = 24.66584 30.55353 27.60969
#
# Velocity S-wave (km/s) = 3.57694 3.98102 3.78437
# Velocity P-wave (km/s) = 7.30276 7.61567 7.46086
#
# Compressibility (1/GPa) = 0.01430101
#
# Stress axis : x y z
#
# Youngs Moduli (GPa) = 69.10109 116.18345 101.19103
#
# Poissons Ratio (x) = 0.49244 0.42281
# Poissons Ratio (y) = 0.29288 0.09240
# Poissons Ratio (z) = 0.28873 0.10609
#
# Static dielectric constant tensor:
#      x y z
#    x 4.520390 0.000000 0.000000 
#    y 0.000000 3.770370 0.000000 
#    z 0.000000 0.000000 3.542070 
# 
# 
# High freq. dielectric constant tensor:
#      x y z
#    x 1.762510 0.000000 0.000000 
#    y 0.000000 1.760030 0.000000 
#    z 0.000000 0.000000 1.720010 
# 
# From -- ./inp_files/6835.got.cif
#   From: 2010.03.12/outbox.cif.g09.slc.cpg/sg59_4_cif.got.tgz:6835.got - 2010.04.16 16:29:54.
