data_PCOD8244326
_publ_section_title
;
Structure prediction by ZEFSAII (Michael W. Deem and Ramdas Pophale) SiO2 
 PCOD8244326
Probable space group: P M M N
;
_chemical_formula_sum "Si O2"
_cell_formula_units_Z 64
_cell_length_a 8.798030
_cell_length_b 18.309394
_cell_length_c 21.381529
_cell_angle_alpha 90.000000
_cell_angle_beta 90.000000
_cell_angle_gamma 90.000000
_cell_volume 3444.277760
_symmetry_space_group_name_H-M "P M M N"
_symmetry_group_IT_number 59
_space_group.IT_coordinate_system_code '2'
_symmetry_cell_setting 'orthorhombic'
loop_
_space_group_symop_operation_xyz
x,y,z
1/2-x,1/2-y,z
1/2+x,-y,-z
-x,1/2+y,-z
-x,-y,-z
1/2+x,1/2+y,-z
1/2-x,y,z
x,1/2-y,z
loop_
_atom_site_type_symbol
_atom_site_label
_atom_site_fract_x
_atom_site_fract_y
_atom_site_fract_z
Si Si1 0.574061 0.538317 0.817620
Si Si2 0.573117 0.107398 0.747987
Si Si3 0.573742 0.164694 0.252987
Si Si4 0.070027 0.829854 0.607926
Si Si5 0.925405 0.668387 0.132662
Si Si6 0.930810 0.421228 0.507688
Si Si7 0.070940 0.165084 0.622726
Si Si8 0.572825 0.974024 0.063643
O O1 0.750000 0.536316 0.835400
O O2 0.536105 0.476627 0.765758
O O3 0.529858 0.617916 0.793010
O O4 0.480349 0.525619 0.880394
O O5 0.750000 0.118996 0.732830
O O6 0.527489 0.158655 0.805888
O O7 0.475086 0.129614 0.688334
O O8 0.750000 0.146584 0.241085
O O9 0.541581 0.250000 0.241291
O O10 0.525122 0.141724 0.323287
O O11 0.250000 0.824208 0.603793
O O12 0.998438 0.750000 0.597053
O O13 0.005912 0.881176 0.553992
O O14 0.750000 0.655967 0.152084
O O15 0.951684 0.750000 0.105986
O O16 0.972710 0.610160 0.079251
O O17 0.750000 0.425563 0.510011
O O18 0.000000 0.500000 0.500000
O O19 0.987050 0.379055 0.568568
O O20 0.250000 0.156515 0.613848
O O21 0.021443 0.250000 0.620519
O O22 0.750000 0.982834 0.055469
O O23 0.500000 0.000000 0.000000
#
# Coordination Sequence:
#
# PCOD8244326 Si02
#       8
#     8   8   8   8   8   8   8   8
#     4  10  21  36  55  82 114 146 182 224 271 327
#     4  10  21  35  54  83 114 145 181 225 276 331
#     4   9  18  34  57  83 108 138 181 229 277 330
#     4   8  16  33  56  78 100 134 179 224 273 330
#     4   9  18  34  56  82 111 144 183 225 272 326
#     4  11  23  38  56  80 109 144 185 230 280 336
#     4  11  24  40  57  79 109 146 187 231 280 334
#     4  10  20  36  58  82 111 149 187 226 271 322
#
# _framework density 18.581544999999998
#
# number of rings (size 3 to 8) (size 9 to 14) (size 15 to 20)
#    0.000    2.250    0.000    3.375    1.750    5.500 
#    0.000    1.250    0.000    3.750    0.000    0.000 
#    0.000    0.000    0.000    0.000    0.000    0.000 
#
# Total GULP energy -793583.284570 kJ/mol
# GULP energy per Si atom -12399.738821 kJ/mol
# Density = 1.853925 g / cm^3
# Si number density = 18.581545 Si / 1000 Ang^3
#
#
#
# Elastic Constant Matrix: (Units=GPa)
#
#
# Indices 1 2 3 4 5 6 
#
# 1 61.8110 39.3205 42.2275 0.0000 0.0000 0.0000
# 2 39.3205 117.1097 76.3227 0.0000 0.0000 0.0000
# 3 42.2275 76.3227 125.8112 0.0000 0.0000 0.0000
# 4 0.0000 0.0000 0.0000 26.3970 0.0000 0.0000
# 5 0.0000 0.0000 0.0000 0.0000 32.2332 0.0000
# 6 0.0000 0.0000 0.0000 0.0000 0.0000 29.9664
#
#
#
# Elastic Compliance Matrix: (Units=1/GPa)
#
#
# Indices 1 2 3 4 5 6 
#
# 1 0.022229 -0.004302 -0.004851 0.000000 0.000000 0.000000
# 2 -0.004302 0.014955 -0.007628 0.000000 0.000000 0.000000
# 3 -0.004851 -0.007628 0.014204 0.000000 0.000000 0.000000
# 4 0.000000 0.000000 0.000000 0.037883 0.000000 0.000000
# 5 0.000000 0.000000 0.000000 0.000000 0.031024 0.000000
# 6 0.000000 0.000000 0.000000 0.000000 0.000000 0.033371
#
#
# Mechanical properties :
#
#
# Convention : Reuss Voigt Hill
#
# Bulk Modulus (GPa) = 56.09996 68.94146 62.52071
# Shear Modulus (GPa) = 25.88369 27.51007 26.69688
#
# Velocity S-wave (km/s) = 3.73631 3.85191 3.79455
# Velocity P-wave (km/s) = 6.99072 7.54755 7.27447
#
# Compressibility (1/GPa) = 0.01782532
#
# Stress axis : x y z
#
# Youngs Moduli (GPa) = 44.98570 66.86704 70.40025
#
# Poissons Ratio (x) = 0.28766 0.34153
# Poissons Ratio (y) = 0.19353 0.53705
# Poissons Ratio (z) = 0.21824 0.51009
#
# Static dielectric constant tensor:
#      x y z
#    x 3.351610 0.000000 0.000000 
#    y 0.000000 3.562350 0.000000 
#    z 0.000000 0.000000 3.524080 
# 
# 
# High freq. dielectric constant tensor:
#      x y z
#    x 1.717600 0.000000 0.000000 
#    y 0.000000 1.728650 0.000000 
#    z 0.000000 0.000000 1.715960 
# 
# From -- ./inp_files/29497.got.cif
#   From: 2010.03.12/outbox.cif.g09.slc.cpg/sg59_15_cif.got.tgz:29497.got - 2010.04.16 16:29:54.
