data_PCOD8244248
_publ_section_title
;
Structure prediction by ZEFSAII (Michael W. Deem and Ramdas Pophale) SiO2 
 PCOD8244248
Probable space group: P M M N
;
_chemical_formula_sum "Si O2"
_cell_formula_units_Z 48
_cell_length_a 9.078525
_cell_length_b 9.708576
_cell_length_c 28.687243
_cell_angle_alpha 90.000000
_cell_angle_beta 90.000000
_cell_angle_gamma 90.000000
_cell_volume 2528.480687
_symmetry_space_group_name_H-M "P M M N"
_symmetry_group_IT_number 59
_space_group.IT_coordinate_system_code '2'
_symmetry_cell_setting 'orthorhombic'
loop_
_space_group_symop_operation_xyz
x,y,z
1/2-x,1/2-y,z
1/2+x,-y,-z
-x,1/2+y,-z
-x,-y,-z
1/2+x,1/2+y,-z
1/2-x,y,z
x,1/2-y,z
loop_
_atom_site_type_symbol
_atom_site_label
_atom_site_fract_x
_atom_site_fract_y
_atom_site_fract_z
Si Si1 0.079179 0.909090 0.038326
Si Si2 0.422423 0.250000 0.532981
Si Si3 0.418540 0.904360 0.298073
Si Si4 0.423140 0.088368 0.212596
Si Si5 0.576750 0.250000 0.434475
Si Si6 0.076898 0.092367 0.864563
Si Si7 0.922633 0.968965 0.392470
O O1 0.250000 0.950724 0.041919
O O2 0.060580 0.750000 0.024239
O O3 0.002694 0.940362 0.087207
O O4 0.000000 0.000000 0.000000
O O5 0.250000 0.250000 0.522428
O O6 0.504771 0.250000 0.484609
O O7 0.472289 0.118307 0.562784
O O8 0.250000 0.933332 0.310313
O O9 0.440370 0.750000 0.277574
O O10 0.506461 0.915700 0.345537
O O11 0.474171 0.016399 0.260670
O O12 0.250000 0.064249 0.203775
O O13 0.462225 0.250000 0.214836
O O14 0.514432 0.016179 0.172063
O O15 0.750000 0.250000 0.443290
O O16 0.524967 0.377491 0.403345
O O17 0.250000 0.067776 0.870831
O O18 0.044199 0.250000 0.848778
O O19 0.750000 0.955184 0.384857
#
# Coordination Sequence:
#
# PCOD8244248 Si02
#       7
#     8   4   8   8   4   8   8
#     4  10  21  37  59  87 119 158 201 245 293 343
#     4  10  20  36  56  78 106 142 182 222 263 320
#     4  10  21  37  58  83 109 142 185 228 273 330
#     4  10  22  39  59  85 116 148 186 235 288 342
#     4  10  22  36  54  80 110 142 176 220 271 322
#     4  10  21  38  60  86 116 153 198 242 287 343
#     4  10  21  37  55  79 110 142 178 220 270 326
#
# _framework density 18.983733000000001
#
# number of rings (size 3 to 8) (size 9 to 14) (size 15 to 20)
#    0.000    2.000    0.833    2.000    1.167    5.667 
#    0.000    0.000    0.000    0.000    0.000    0.000 
#    0.000    0.000    0.000    0.000    0.000    0.000 
#
# Total GULP energy -595275.653753 kJ/mol
# GULP energy per Si atom -12401.576120 kJ/mol
# Density = 1.894053 g / cm^3
# Si number density = 18.983733 Si / 1000 Ang^3
#
#
#
# Elastic Constant Matrix: (Units=GPa)
#
#
# Indices 1 2 3 4 5 6 
#
# 1 74.0681 45.6472 53.3070 0.0000 0.0000 0.0000
# 2 45.6472 124.8302 56.2863 0.0000 0.0000 0.0000
# 3 53.3070 56.2863 110.0107 0.0000 0.0000 0.0000
# 4 0.0000 0.0000 0.0000 65.1487 0.0000 0.0000
# 5 0.0000 0.0000 0.0000 0.0000 35.3765 0.0000
# 6 0.0000 0.0000 0.0000 0.0000 0.0000 29.4068
#
#
#
# Elastic Compliance Matrix: (Units=1/GPa)
#
#
# Indices 1 2 3 4 5 6 
#
# 1 0.022360 -0.004278 -0.008646 0.000000 0.000000 0.000000
# 2 -0.004278 0.011232 -0.003674 0.000000 0.000000 0.000000
# 3 -0.008646 -0.003674 0.015159 0.000000 0.000000 0.000000
# 4 0.000000 0.000000 0.000000 0.015350 0.000000 0.000000
# 5 0.000000 0.000000 0.000000 0.000000 0.028267 0.000000
# 6 0.000000 0.000000 0.000000 0.000000 0.000000 0.034006
#
#
# Mechanical properties :
#
#
# Convention : Reuss Voigt Hill
#
# Bulk Modulus (GPa) = 64.28565 68.82110 66.55337
# Shear Modulus (GPa) = 30.34822 36.23097 33.28959
#
# Velocity S-wave (km/s) = 4.00264 4.37341 4.19213
# Velocity P-wave (km/s) = 7.43630 7.86344 7.65285
#
# Compressibility (1/GPa) = 0.01555557
#
# Stress axis : x y z
#
# Youngs Moduli (GPa) = 44.72245 89.03363 65.96661
#
# Poissons Ratio (x) = 0.38089 0.57035
# Poissons Ratio (y) = 0.19132 0.24234
# Poissons Ratio (z) = 0.38667 0.32708
#
# Static dielectric constant tensor:
#      x y z
#    x 3.450650 0.000000 0.000000 
#    y 0.000000 -15.792060 0.000000 
#    z 0.000000 0.000000 3.602820 
# 
# 
# High freq. dielectric constant tensor:
#      x y z
#    x 1.736190 0.000000 0.000000 
#    y 0.000000 1.750880 0.000000 
#    z 0.000000 0.000000 1.742000 
# 
# From -- ./inp_files/33010.got.cif
#   From: 2010.03.12/outbox.cif.g09.slc.cpg/sg59_17_cif.got.tgz:33010.got - 2010.04.16 16:29:54.
