data_PCOD8244865
_publ_section_title
;
Structure prediction by ZEFSAII (Michael W. Deem and Ramdas Pophale) SiO2 
 PCOD8244865
Probable space group: P M M N
;
_chemical_formula_sum "Si O2"
_cell_formula_units_Z 56
_cell_length_a 8.829902
_cell_length_b 19.499138
_cell_length_c 17.713242
_cell_angle_alpha 90.000000
_cell_angle_beta 90.000000
_cell_angle_gamma 90.000000
_cell_volume 3049.785902
_symmetry_space_group_name_H-M "P M M N"
_symmetry_group_IT_number 59
_space_group.IT_coordinate_system_code '2'
_symmetry_cell_setting 'orthorhombic'
loop_
_space_group_symop_operation_xyz
x,y,z
1/2-x,1/2-y,z
1/2+x,-y,-z
-x,1/2+y,-z
-x,-y,-z
1/2+x,1/2+y,-z
1/2-x,y,z
x,1/2-y,z
loop_
_atom_site_type_symbol
_atom_site_label
_atom_site_fract_x
_atom_site_fract_y
_atom_site_fract_z
Si Si1 0.571585 0.427895 0.816921
Si Si2 0.430032 0.077124 0.235793
Si Si3 0.925111 0.671521 0.300055
Si Si4 0.570647 0.928646 0.025177
Si Si5 0.428298 0.444145 0.398869
Si Si6 0.930105 0.826833 0.894820
Si Si7 0.924856 0.583785 0.438507
O O1 0.750000 0.427509 0.831300
O O2 0.513062 0.502820 0.792158
O O3 0.531118 0.373067 0.753228
O O4 0.487060 0.406061 0.893087
O O5 0.250000 0.078116 0.232898
O O6 0.490645 0.090533 0.321511
O O7 0.494626 0.135842 0.180494
O O8 0.750000 0.659955 0.277779
O O9 0.973533 0.750000 0.291269
O O10 0.952089 0.650864 0.387737
O O11 0.750000 0.936626 0.024759
O O12 0.517035 0.869351 0.967794
O O13 0.500000 0.000000 0.000000
O O14 0.250000 0.447164 0.391874
O O15 0.478759 0.402743 0.474510
O O16 0.483235 0.522008 0.402037
O O17 0.750000 0.823886 0.891470
O O18 0.997885 0.750000 0.898836
O O19 0.750000 0.561596 0.439319
#
# Coordination Sequence:
#
# PCOD8244865 Si02
#       7
#     8   8   8   8   8   8   8
#     4  11  21  35  55  80 106 135 180 230 272 319
#     4   9  16  29  50  77 105 131 166 216 264 310
#     4  10  21  36  51  72 108 148 182 220 271 329
#     4  11  21  35  56  83 110 142 181 220 266 318
#     4   9  16  28  49  75 102 130 165 215 264 307
#     4   9  18  33  53  77 105 136 169 208 258 314
#     4   9  17  29  47  73 101 132 172 212 258 311
#
# _framework density 18.361944999999999
#
# number of rings (size 3 to 8) (size 9 to 14) (size 15 to 20)
#    0.000    2.286    2.857    0.857    0.000    0.857 
#    0.000    2.143    0.000    5.571    0.000    0.000 
#    0.000    1.143    0.000    0.000    0.000    0.000 
#
# Total GULP energy -694178.809775 kJ/mol
# GULP energy per Si atom -12396.050175 kJ/mol
# Density = 1.832015 g / cm^3
# Si number density = 18.361945 Si / 1000 Ang^3
#
#
#
# Elastic Constant Matrix: (Units=GPa)
#
#
# Indices 1 2 3 4 5 6 
#
# 1 26.8016 19.3388 26.0493 0.0000 0.0000 0.0000
# 2 19.3388 131.0339 73.6582 0.0000 0.0000 0.0000
# 3 26.0493 73.6582 171.2538 0.0000 0.0000 0.0000
# 4 0.0000 0.0000 0.0000 29.6062 0.0000 0.0000
# 5 0.0000 0.0000 0.0000 0.0000 23.3711 0.0000
# 6 0.0000 0.0000 0.0000 0.0000 0.0000 20.2805
#
#
#
# Elastic Compliance Matrix: (Units=1/GPa)
#
#
# Indices 1 2 3 4 5 6 
#
# 1 0.045099 -0.003693 -0.005272 0.000000 0.000000 0.000000
# 2 -0.003693 0.010367 -0.003897 0.000000 0.000000 0.000000
# 3 -0.005272 -0.003897 0.008318 0.000000 0.000000 0.000000
# 4 0.000000 0.000000 0.000000 0.033777 0.000000 0.000000
# 5 0.000000 0.000000 0.000000 0.000000 0.042788 0.000000
# 6 0.000000 0.000000 0.000000 0.000000 0.000000 0.049308
#
#
# Mechanical properties :
#
#
# Convention : Reuss Voigt Hill
#
# Bulk Modulus (GPa) = 26.27385 63.02022 44.64703
# Shear Modulus (GPa) = 21.92327 28.65444 25.28885
#
# Velocity S-wave (km/s) = 3.45911 3.95465 3.71515
# Velocity P-wave (km/s) = 5.50398 7.43289 6.53994
#
# Compressibility (1/GPa) = 0.03806066
#
# Stress axis : x y z
#
# Youngs Moduli (GPa) = 22.17321 96.45540 120.22790
#
# Poissons Ratio (x) = 0.35617 0.63382
# Poissons Ratio (y) = 0.08188 0.46859
# Poissons Ratio (z) = 0.11689 0.37593
#
# Static dielectric constant tensor:
#      x y z
#    x 3.126450 0.000000 0.000000 
#    y 0.000000 3.376010 0.000000 
#    z 0.000000 0.000000 4.011590 
# 
# 
# High freq. dielectric constant tensor:
#      x y z
#    x 1.682290 0.000000 0.000000 
#    y 0.000000 1.690150 0.000000 
#    z 0.000000 0.000000 1.735340 
# 
# From -- ./inp_files/26115.got.cif
#   From: 2010.03.12/outbox.cif.g09.slc.cpg/sg59_14_cif.got.tgz:26115.got - 2010.04.16 16:29:54.
