data_PCOD8244012
_publ_section_title
;
Structure prediction by ZEFSAII (Michael W. Deem and Ramdas Pophale) SiO2 
 PCOD8244012
Probable space group: P M M N
;
_chemical_formula_sum "Si O2"
_cell_formula_units_Z 64
_cell_length_a 9.350578
_cell_length_b 24.139707
_cell_length_c 15.612139
_cell_angle_alpha 90.000000
_cell_angle_beta 90.000000
_cell_angle_gamma 90.000000
_cell_volume 3523.975344
_symmetry_space_group_name_H-M "P M M N"
_symmetry_group_IT_number 59
_space_group.IT_coordinate_system_code '2'
_symmetry_cell_setting 'orthorhombic'
loop_
_space_group_symop_operation_xyz
x,y,z
1/2-x,1/2-y,z
1/2+x,-y,-z
-x,1/2+y,-z
-x,-y,-z
1/2+x,1/2+y,-z
1/2-x,y,z
x,1/2-y,z
loop_
_atom_site_type_symbol
_atom_site_label
_atom_site_fract_x
_atom_site_fract_y
_atom_site_fract_z
Si Si1 0.084834 0.084454 0.727329
Si Si2 0.083350 0.186434 0.144019
Si Si3 0.404619 0.686835 0.698281
Si Si4 0.912791 0.550078 0.464594
Si Si5 0.915368 0.582051 0.967411
Si Si6 0.416845 0.967705 0.120884
Si Si7 0.585871 0.152119 0.486818
Si Si8 0.913481 0.311767 0.673511
O O1 0.250000 0.090515 0.755352
O O2 0.069985 0.053990 0.637054
O O3 0.998983 0.045635 0.791956
O O4 0.017224 0.145874 0.722300
O O5 0.250000 0.184474 0.161684
O O6 0.037506 0.250000 0.119012
O O7 0.041616 0.142316 0.070340
O O8 0.014020 0.162878 0.231865
O O9 0.250000 0.656767 0.708355
O O10 0.386472 0.750000 0.722918
O O11 0.456341 0.684068 0.599928
O O12 0.750000 0.543359 0.492449
O O13 0.000000 0.500000 0.500000
O O14 0.975591 0.602632 0.511831
O O15 0.750000 0.581901 0.997444
O O16 0.940140 0.532754 0.898843
O O17 0.017539 0.571588 0.047723
O O18 0.250000 0.953311 0.130257
O O19 0.750000 0.131040 0.484167
O O20 0.561841 0.189482 0.570886
O O21 0.750000 0.328658 0.693963
O O22 0.947024 0.250000 0.707551
#
# Coordination Sequence:
#
# PCOD8244012 Si02
#       8
#     8   8   8   8   8   8   8   8
#     4  10  21  36  53  75 104 136 170 211 259 308
#     4   9  18  33  52  75 105 138 169 204 252 309
#     4   9  17  29  46  70 100 132 166 203 242 288
#     4  10  21  35  50  70  98 133 171 210 253 299
#     4   9  19  36  56  78 103 131 165 207 256 309
#     4  10  20  35  57  81 102 129 168 212 256 304
#     4   9  17  30  48  70  97 131 170 210 252 296
#     4   9  17  31  52  75 100 133 173 215 258 305
#
# _framework density 18.161307999999998
#
# number of rings (size 3 to 8) (size 9 to 14) (size 15 to 20)
#    0.000    2.625    0.000    1.500    0.000    5.750 
#    0.000    3.125    0.000    4.500    0.000    0.000 
#    0.000    0.000    0.000    0.000    0.000    0.000 
#
# Total GULP energy -793252.303900 kJ/mol
# GULP energy per Si atom -12394.567248 kJ/mol
# Density = 1.811997 g / cm^3
# Si number density = 18.161308 Si / 1000 Ang^3
#
#
#
# Elastic Constant Matrix: (Units=GPa)
#
#
# Indices 1 2 3 4 5 6 
#
# 1 100.1903 52.4663 38.8992 0.0000 0.0000 0.0000
# 2 52.4663 90.5888 36.1993 0.0000 0.0000 0.0000
# 3 38.8992 36.1993 56.9588 0.0000 0.0000 0.0000
# 4 0.0000 0.0000 0.0000 24.3594 0.0000 0.0000
# 5 0.0000 0.0000 0.0000 0.0000 33.7900 0.0000
# 6 0.0000 0.0000 0.0000 0.0000 0.0000 26.1658
#
#
#
# Elastic Compliance Matrix: (Units=1/GPa)
#
#
# Indices 1 2 3 4 5 6 
#
# 1 0.016068 -0.006596 -0.006781 0.000000 0.000000 0.000000
# 2 -0.006596 0.017505 -0.006620 0.000000 0.000000 0.000000
# 3 -0.006781 -0.006620 0.026395 0.000000 0.000000 0.000000
# 4 0.000000 0.000000 0.000000 0.041052 0.000000 0.000000
# 5 0.000000 0.000000 0.000000 0.000000 0.029595 0.000000
# 6 0.000000 0.000000 0.000000 0.000000 0.000000 0.038218
#
#
# Mechanical properties :
#
#
# Convention : Reuss Voigt Hill
#
# Bulk Modulus (GPa) = 50.06869 55.87417 52.97143
# Shear Modulus (GPa) = 23.20350 24.87458 24.03904
#
# Velocity S-wave (km/s) = 3.57828 3.70489 3.64213
# Velocity P-wave (km/s) = 6.68587 7.00956 6.84962
#
# Compressibility (1/GPa) = 0.01997256
#
# Stress axis : x y z
#
# Youngs Moduli (GPa) = 62.23490 57.12770 37.88610
#
# Poissons Ratio (x) = 0.37684 0.25692
# Poissons Ratio (y) = 0.41053 0.25080
# Poissons Ratio (z) = 0.42203 0.37818
#
# Static dielectric constant tensor:
#      x y z
#    x 3.560010 0.000000 0.000000 
#    y 0.000000 3.198120 0.000000 
#    z 0.000000 0.000000 3.301610 
# 
# 
# High freq. dielectric constant tensor:
#      x y z
#    x 1.708910 0.000000 0.000000 
#    y 0.000000 1.696460 0.000000 
#    z 0.000000 0.000000 1.692080 
# 
# From -- ./inp_files/21414.got.cif
#   From: 2010.03.12/outbox.cif.g09.slc.cpg/sg59_11_cif.got.tgz:21414.got - 2010.04.16 16:29:54.
