data_PCOD8244964
_publ_section_title
;
Structure prediction by ZEFSAII (Michael W. Deem and Ramdas Pophale) SiO2 
 PCOD8244964
Probable space group: P M M N
;
_chemical_formula_sum "Si O2"
_cell_formula_units_Z 64
_cell_length_a 8.785559
_cell_length_b 19.761493
_cell_length_c 19.889636
_cell_angle_alpha 90.000000
_cell_angle_beta 90.000000
_cell_angle_gamma 90.000000
_cell_volume 3453.154324
_symmetry_space_group_name_H-M "P M M N"
_symmetry_group_IT_number 59
_space_group.IT_coordinate_system_code '2'
_symmetry_cell_setting 'orthorhombic'
loop_
_space_group_symop_operation_xyz
x,y,z
1/2-x,1/2-y,z
1/2+x,-y,-z
-x,1/2+y,-z
-x,-y,-z
1/2+x,1/2+y,-z
1/2-x,y,z
x,1/2-y,z
loop_
_atom_site_type_symbol
_atom_site_label
_atom_site_fract_x
_atom_site_fract_y
_atom_site_fract_z
Si Si1 0.422772 0.408878 0.689030
Si Si2 0.928053 0.952293 0.669560
Si Si3 0.071773 0.933412 0.531932
Si Si4 0.928043 0.430460 0.191592
Si Si5 0.575431 0.827297 0.438858
Si Si6 0.573810 0.327093 0.949603
Si Si7 0.424594 0.416892 0.839281
Si Si8 0.573416 0.828472 0.910553
O O1 0.250000 0.437712 0.684131
O O2 0.536724 0.468015 0.667603
O O3 0.448092 0.346084 0.639500
O O4 0.453319 0.385327 0.765333
O O5 0.750000 0.940090 0.664583
O O6 0.006177 0.917282 0.605570
O O7 0.988621 0.918194 0.737700
O O8 0.250000 0.945318 0.536998
O O9 0.036285 0.869635 0.485428
O O10 0.000000 0.000000 0.500000
O O11 0.750000 0.426064 0.205249
O O12 0.970318 0.503926 0.161143
O O13 0.977098 0.372319 0.141007
O O14 0.750000 0.840774 0.460189
O O15 0.529081 0.750000 0.447591
O O16 0.750000 0.335646 0.968166
O O17 0.536939 0.250000 0.927796
O O18 0.533441 0.377429 0.889610
O O19 0.475803 0.347796 0.014258
O O20 0.250000 0.407147 0.861845
O O21 0.750000 0.845629 0.901825
O O22 0.538263 0.750000 0.895981
#
# Coordination Sequence:
#
# PCOD8244964 Si02
#       8
#     8   8   8   8   8   8   8   8
#     4   9  18  34  55  79 111 148 187 227 273 335
#     4  11  21  35  58  86 113 144 184 232 280 332
#     4  12  23  37  59  85 112 148 193 238 283 337
#     4  10  21  38  59  85 116 147 183 231 280 336
#     4  10  21  37  57  83 116 152 190 235 286 340
#     4  10  21  36  54  78 109 148 192 235 280 333
#     4   9  19  34  54  82 113 147 187 229 275 327
#     4  10  21  38  60  84 110 144 187 233 283 342
#
# _framework density 18.53378
#
# number of rings (size 3 to 8) (size 9 to 14) (size 15 to 20)
#    0.000    1.875    1.250    4.125    0.000    5.250 
#    0.000    1.875    0.000    3.750    0.000    0.000 
#    0.000    0.000    0.000    0.000    0.000    0.000 
#
# Total GULP energy -793813.591296 kJ/mol
# GULP energy per Si atom -12403.337364 kJ/mol
# Density = 1.849160 g / cm^3
# Si number density = 18.533780 Si / 1000 Ang^3
#
#
#
# Elastic Constant Matrix: (Units=GPa)
#
#
# Indices 1 2 3 4 5 6 
#
# 1 100.9580 39.6977 46.2216 0.0000 0.0000 0.0000
# 2 39.6977 83.9372 60.1561 0.0000 0.0000 0.0000
# 3 46.2216 60.1561 116.9360 0.0000 0.0000 0.0000
# 4 0.0000 0.0000 0.0000 30.7235 0.0000 0.0000
# 5 0.0000 0.0000 0.0000 0.0000 35.5255 0.0000
# 6 0.0000 0.0000 0.0000 0.0000 0.0000 29.3545
#
#
#
# Elastic Compliance Matrix: (Units=1/GPa)
#
#
# Indices 1 2 3 4 5 6 
#
# 1 0.012836 -0.003856 -0.003090 0.000000 0.000000 0.000000
# 2 -0.003856 0.020030 -0.008780 0.000000 0.000000 0.000000
# 3 -0.003090 -0.008780 0.014290 0.000000 0.000000 0.000000
# 4 0.000000 0.000000 0.000000 0.032548 0.000000 0.000000
# 5 0.000000 0.000000 0.000000 0.000000 0.028149 0.000000
# 6 0.000000 0.000000 0.000000 0.000000 0.000000 0.034066
#
#
# Mechanical properties :
#
#
# Convention : Reuss Voigt Hill
#
# Bulk Modulus (GPa) = 63.67973 65.99801 64.83887
# Shear Modulus (GPa) = 27.99464 29.50440 28.74952
#
# Velocity S-wave (km/s) = 3.89069 3.99422 3.94280
# Velocity P-wave (km/s) = 7.39030 7.54709 7.46911
#
# Compressibility (1/GPa) = 0.01570358
#
# Stress axis : x y z
#
# Youngs Moduli (GPa) = 77.90525 49.92574 69.98060
#
# Poissons Ratio (x) = 0.19253 0.21624
# Poissons Ratio (y) = 0.30042 0.61441
# Poissons Ratio (z) = 0.24072 0.43834
#
# Static dielectric constant tensor:
#      x y z
#    x 3.408640 0.000000 0.000000 
#    y 0.000000 3.265900 0.000000 
#    z 0.000000 0.000000 3.544920 
# 
# 
# High freq. dielectric constant tensor:
#      x y z
#    x 1.725640 0.000000 0.000000 
#    y 0.000000 1.700640 0.000000 
#    z 0.000000 0.000000 1.729250 
# 
# From -- ./inp_files/26226.got.cif
#   From: 2010.03.12/outbox.cif.g09.slc.cpg/sg59_14_cif.got.tgz:26226.got - 2010.04.16 16:29:54.
