data_PCOD8244511
_publ_section_title
;
Structure prediction by ZEFSAII (Michael W. Deem and Ramdas Pophale) SiO2 
 PCOD8244511
Probable space group: P M M N
;
_chemical_formula_sum "Si O2"
_cell_formula_units_Z 64
_cell_length_a 8.992834
_cell_length_b 18.906036
_cell_length_c 19.588331
_cell_angle_alpha 90.000000
_cell_angle_beta 90.000000
_cell_angle_gamma 90.000000
_cell_volume 3330.385380
_symmetry_space_group_name_H-M "P M M N"
_symmetry_group_IT_number 59
_space_group.IT_coordinate_system_code '2'
_symmetry_cell_setting 'orthorhombic'
loop_
_space_group_symop_operation_xyz
x,y,z
1/2-x,1/2-y,z
1/2+x,-y,-z
-x,1/2+y,-z
-x,-y,-z
1/2+x,1/2+y,-z
1/2-x,y,z
x,1/2-y,z
loop_
_atom_site_type_symbol
_atom_site_label
_atom_site_fract_x
_atom_site_fract_y
_atom_site_fract_z
Si Si1 0.079878 0.669869 0.110601
Si Si2 0.080462 0.832068 0.716188
Si Si3 0.575159 0.830963 0.972284
Si Si4 0.077649 0.912474 0.852420
Si Si5 0.923838 0.454029 0.789304
Si Si6 0.923231 0.901336 0.594239
Si Si7 0.073363 0.669852 0.467006
Si Si8 0.075126 0.554505 0.363578
O O1 0.250000 0.661264 0.086402
O O2 0.046293 0.750000 0.133885
O O3 0.045765 0.621197 0.175605
O O4 0.975680 0.647227 0.047981
O O5 0.250000 0.849122 0.694254
O O6 0.045248 0.750000 0.710074
O O7 0.050864 0.855245 0.793374
O O8 0.965918 0.873340 0.668710
O O9 0.750000 0.840784 0.966476
O O10 0.527056 0.750000 0.957041
O O11 0.498282 0.883816 0.920196
O O12 0.250000 0.924439 0.867575
O O13 0.007639 0.986924 0.832243
O O14 0.750000 0.473458 0.787430
O O15 0.992327 0.449513 0.712702
O O16 0.750000 0.888433 0.581345
O O17 0.015087 0.859238 0.538369
O O18 0.963628 0.984493 0.592804
O O19 0.250000 0.666486 0.470229
O O20 0.017466 0.750000 0.455768
O O21 0.010418 0.621745 0.405061
O O22 0.250000 0.563579 0.355545
#
# Coordination Sequence:
#
# PCOD8244511 Si02
#       8
#     8   8   8   8   8   8   8   8
#     4   9  19  36  59  85 111 144 186 233 284 334
#     4  10  21  36  54  78 109 145 183 223 269 323
#     4  10  21  37  58  83 113 150 189 231 280 333
#     4  11  22  36  56  82 114 149 187 230 277 333
#     4  10  20  37  59  83 114 146 185 234 280 333
#     4  11  21  35  56  81 111 145 180 224 275 328
#     4  10  21  37  57  81 110 145 186 230 275 326
#     4   9  19  36  57  81 110 145 184 227 276 328
#
# _framework density 19.216995000000001
#
# number of rings (size 3 to 8) (size 9 to 14) (size 15 to 20)
#    0.000    2.000    1.250    2.250    0.000    5.250 
#    0.000    3.750    0.000    0.000    0.000    1.750 
#    0.000    0.000    0.000    0.000    0.000    0.000 
#
# Total GULP energy -793775.033901 kJ/mol
# GULP energy per Si atom -12402.734905 kJ/mol
# Density = 1.917326 g / cm^3
# Si number density = 19.216995 Si / 1000 Ang^3
#
#
#
# Elastic Constant Matrix: (Units=GPa)
#
#
# Indices 1 2 3 4 5 6 
#
# 1 46.7912 36.9631 30.9624 0.0000 0.0000 0.0000
# 2 36.9631 112.8446 43.2353 0.0000 0.0000 0.0000
# 3 30.9624 43.2353 73.7515 0.0000 0.0000 0.0000
# 4 0.0000 0.0000 0.0000 37.6913 0.0000 0.0000
# 5 0.0000 0.0000 0.0000 0.0000 21.9558 0.0000
# 6 0.0000 0.0000 0.0000 0.0000 0.0000 26.0955
#
#
#
# Elastic Compliance Matrix: (Units=1/GPa)
#
#
# Indices 1 2 3 4 5 6 
#
# 1 0.033616 -0.007227 -0.009876 0.000000 0.000000 0.000000
# 2 -0.007227 0.012983 -0.004577 0.000000 0.000000 0.000000
# 3 -0.009876 -0.004577 0.020388 0.000000 0.000000 0.000000
# 4 0.000000 0.000000 0.000000 0.026531 0.000000 0.000000
# 5 0.000000 0.000000 0.000000 0.000000 0.045546 0.000000
# 6 0.000000 0.000000 0.000000 0.000000 0.000000 0.038321
#
#
# Mechanical properties :
#
#
# Convention : Reuss Voigt Hill
#
# Bulk Modulus (GPa) = 42.32433 50.63432 46.47933
# Shear Modulus (GPa) = 21.87043 25.29696 23.58369
#
# Velocity S-wave (km/s) = 3.37720 3.63214 3.50699
# Velocity P-wave (km/s) = 6.10570 6.63293 6.37477
#
# Compressibility (1/GPa) = 0.02362707
#
# Stress axis : x y z
#
# Youngs Moduli (GPa) = 29.74802 77.02618 49.04840
#
# Poissons Ratio (x) = 0.55669 0.48439
# Poissons Ratio (y) = 0.21500 0.22448
# Poissons Ratio (z) = 0.29378 0.35252
#
# Static dielectric constant tensor:
#      x y z
#    x 3.409470 0.000000 0.000000 
#    y 0.000000 3.696270 0.000000 
#    z 0.000000 0.000000 3.556840 
# 
# 
# High freq. dielectric constant tensor:
#      x y z
#    x 1.732510 0.000000 0.000000 
#    y 0.000000 1.756630 0.000000 
#    z 0.000000 0.000000 1.751380 
# 
# From -- ./inp_files/29373.got.cif
#   From: 2010.03.12/outbox.cif.g09.slc.cpg/sg59_15_cif.got.tgz:29373.got - 2010.04.16 16:29:54.
