data_PCOD8244555
_publ_section_title
;
Structure prediction by ZEFSAII (Michael W. Deem and Ramdas Pophale) SiO2 
 PCOD8244555
Probable space group: P M M N
;
_chemical_formula_sum "Si O2"
_cell_formula_units_Z 56
_cell_length_a 17.449802
_cell_length_b 14.326134
_cell_length_c 11.645766
_cell_angle_alpha 90.000000
_cell_angle_beta 90.000000
_cell_angle_gamma 90.000000
_cell_volume 2911.304100
_symmetry_space_group_name_H-M "P M M N"
_symmetry_group_IT_number 59
_space_group.IT_coordinate_system_code '2'
_symmetry_cell_setting 'orthorhombic'
loop_
_space_group_symop_operation_xyz
x,y,z
1/2-x,1/2-y,z
1/2+x,-y,-z
-x,1/2+y,-z
-x,-y,-z
1/2+x,1/2+y,-z
1/2-x,y,z
x,1/2-y,z
loop_
_atom_site_type_symbol
_atom_site_label
_atom_site_fract_x
_atom_site_fract_y
_atom_site_fract_z
Si Si1 0.659344 0.507380 0.447852
Si Si2 0.070407 0.857694 0.688324
Si Si3 0.933140 0.642050 0.039125
Si Si4 0.433932 0.004148 0.324740
Si Si5 0.595707 0.355984 0.048759
Si Si6 0.938443 0.640686 0.307723
Si Si7 0.836585 0.995243 0.901543
O O1 0.750000 0.503820 0.454289
O O2 0.628772 0.410495 0.395264
O O3 0.626360 0.519631 0.574721
O O4 0.634571 0.596789 0.372029
O O5 0.062811 0.750000 0.650295
O O6 0.105216 0.865949 0.815429
O O7 0.986488 0.903827 0.684164
O O8 0.925939 0.750000 0.010185
O O9 0.927045 0.621020 0.173565
O O10 0.863603 0.593734 0.973829
O O11 0.013445 0.603193 0.990566
O O12 0.485593 0.912861 0.351501
O O13 0.388483 0.987105 0.208556
O O14 0.604664 0.250000 0.007358
O O15 0.660566 0.414881 0.984606
O O16 0.946244 0.750000 0.336089
O O17 0.750000 0.978256 0.861585
#
# Coordination Sequence:
#
# PCOD8244555 Si02
#       7
#     8   8   8   8   8   8   8
#     4  11  25  41  56  84 122 153 190 244 297 343
#     4  10  21  39  66  88 109 150 201 244 284 338
#     4  10  20  37  61  87 116 150 191 237 282 339
#     4  11  22  39  60  84 116 155 199 239 282 342
#     4  10  20  37  61  87 116 150 191 237 282 339
#     4  10  21  39  66  88 109 150 201 244 284 338
#     4  12  23  35  57  89 124 157 186 229 295 353
#
# _framework density 19.235365999999999
#
# number of rings (size 3 to 8) (size 9 to 14) (size 15 to 20)
#    0.000    1.429    2.857    4.286    0.000    5.714 
#    0.000    2.857    0.000    5.143    0.000    0.000 
#    0.000    0.000    0.000    0.000    0.000    0.000 
#
# Total GULP energy -694625.422577 kJ/mol
# GULP energy per Si atom -12404.025403 kJ/mol
# Density = 1.919159 g / cm^3
# Si number density = 19.235366 Si / 1000 Ang^3
#
#
#
# Elastic Constant Matrix: (Units=GPa)
#
#
# Indices 1 2 3 4 5 6 
#
# 1 98.7567 12.6708 17.0726 0.0000 0.0000 0.0000
# 2 12.6708 85.1565 14.3824 0.0000 0.0000 0.0000
# 3 17.0726 14.3824 76.0485 0.0000 0.0000 0.0000
# 4 0.0000 0.0000 0.0000 19.0728 0.0000 0.0000
# 5 0.0000 0.0000 0.0000 0.0000 19.7053 0.0000
# 6 0.0000 0.0000 0.0000 0.0000 0.0000 12.3838
#
#
#
# Elastic Compliance Matrix: (Units=1/GPa)
#
#
# Indices 1 2 3 4 5 6 
#
# 1 0.010656 -0.001221 -0.002161 0.000000 0.000000 0.000000
# 2 -0.001221 0.012270 -0.002047 0.000000 0.000000 0.000000
# 3 -0.002161 -0.002047 0.014022 0.000000 0.000000 0.000000
# 4 0.000000 0.000000 0.000000 0.052431 0.000000 0.000000
# 5 0.000000 0.000000 0.000000 0.000000 0.050748 0.000000
# 6 0.000000 0.000000 0.000000 0.000000 0.000000 0.080750
#
#
# Mechanical properties :
#
#
# Convention : Reuss Voigt Hill
#
# Bulk Modulus (GPa) = 38.32710 38.69037 38.50874
# Shear Modulus (GPa) = 20.79598 24.62146 22.70872
#
# Velocity S-wave (km/s) = 3.29163 3.58160 3.43967
# Velocity P-wave (km/s) = 5.86643 6.10424 5.98651
#
# Compressibility (1/GPa) = 0.02609120
#
# Stress axis : x y z
#
# Youngs Moduli (GPa) = 93.84248 81.49725 71.31757
#
# Poissons Ratio (x) = 0.09947 0.15415
# Poissons Ratio (y) = 0.11454 0.14596
# Poissons Ratio (z) = 0.20284 0.16679
#
# Static dielectric constant tensor:
#      x y z
#    x 3.347000 0.000000 0.000000 
#    y 0.000000 3.698170 0.000000 
#    z 0.000000 0.000000 3.606670 
# 
# 
# High freq. dielectric constant tensor:
#      x y z
#    x 1.731710 0.000000 0.000000 
#    y 0.000000 1.756590 0.000000 
#    z 0.000000 0.000000 1.760500 
# 
# From -- ./inp_files/16970.got.cif
#   From: 2010.03.12/outbox.cif.g09.slc.cpg/sg59_9_cif.got.tgz:16970.got - 2010.04.16 16:29:54.
