data_PCOD8244368
_publ_section_title
;
Structure prediction by ZEFSAII (Michael W. Deem and Ramdas Pophale) SiO2 
 PCOD8244368
Probable space group: P M M N
;
_chemical_formula_sum "Si O2"
_cell_formula_units_Z 48
_cell_length_a 8.316350
_cell_length_b 16.975800
_cell_length_c 16.335387
_cell_angle_alpha 90.000000
_cell_angle_beta 90.000000
_cell_angle_gamma 90.000000
_cell_volume 2306.175937
_symmetry_space_group_name_H-M "P M M N"
_symmetry_group_IT_number 59
_space_group.IT_coordinate_system_code '2'
_symmetry_cell_setting 'orthorhombic'
loop_
_space_group_symop_operation_xyz
x,y,z
1/2-x,1/2-y,z
1/2+x,-y,-z
-x,1/2+y,-z
-x,-y,-z
1/2+x,1/2+y,-z
1/2-x,y,z
x,1/2-y,z
loop_
_atom_site_type_symbol
_atom_site_label
_atom_site_fract_x
_atom_site_fract_y
_atom_site_fract_z
Si Si1 0.562605 0.097908 0.792736
Si Si2 0.563893 0.919293 0.541726
Si Si3 0.064801 0.250000 0.711977
Si Si4 0.933142 0.750000 0.481089
Si Si5 0.441260 0.663409 0.863292
Si Si6 0.063459 0.554989 0.718296
Si Si7 0.560052 0.084441 0.975900
O O1 0.750000 0.074236 0.791345
O O2 0.534487 0.177790 0.746145
O O3 0.496763 0.107005 0.885762
O O4 0.457694 0.035090 0.743436
O O5 0.750000 0.917444 0.519188
O O6 0.488033 0.833982 0.512263
O O7 0.537392 0.924543 0.638301
O O8 0.500000 0.000000 0.500000
O O9 0.250000 0.250000 0.741374
O O10 0.052533 0.250000 0.615422
O O11 0.750000 0.750000 0.512000
O O12 0.250000 0.657641 0.864188
O O13 0.502545 0.750000 0.840968
O O14 0.508365 0.605987 0.793277
O O15 0.508001 0.642501 0.953807
O O16 0.250000 0.572788 0.700651
O O17 0.750000 0.087202 0.975645
O O18 0.500000 0.000000 0.000000
#
# Coordination Sequence:
#
# PCOD8244368 Si02
#       7
#     8   8   4   4   8   8   8
#     4  11  23  38  60  91 125 162 207 255 305 363
#     4  11  23  42  66  93 124 160 203 254 315 380
#     4  11  23  41  65  90 121 158 204 252 306 373
#     4   9  22  43  65  88 119 160 198 246 312 373
#     4   9  19  35  57  84 117 158 202 249 300 354
#     4  11  22  38  62  90 122 161 204 250 305 369
#     4  10  20  36  59  83 115 158 203 249 299 353
#
# _framework density 20.813677999999999
#
# number of rings (size 3 to 8) (size 9 to 14) (size 15 to 20)
#    0.000    1.667    1.667    2.750    2.333    2.000 
#    0.000    3.750    0.000    2.000    0.000    0.000 
#    0.000    0.000    0.000    0.000    0.000    0.000 
#
# Total GULP energy -594984.222999 kJ/mol
# GULP energy per Si atom -12395.504646 kJ/mol
# Density = 2.076630 g / cm^3
# Si number density = 20.813678 Si / 1000 Ang^3
#
#
#
# Elastic Constant Matrix: (Units=GPa)
#
#
# Indices 1 2 3 4 5 6 
#
# 1 28.8387 6.9553 13.6897 0.0000 0.0000 0.0000
# 2 6.9553 171.8589 60.9617 0.0000 0.0000 0.0000
# 3 13.6897 60.9617 135.3011 0.0000 0.0000 0.0000
# 4 0.0000 0.0000 0.0000 20.2345 0.0000 0.0000
# 5 0.0000 0.0000 0.0000 0.0000 23.3859 0.0000
# 6 0.0000 0.0000 0.0000 0.0000 0.0000 23.7464
#
#
#
# Elastic Compliance Matrix: (Units=1/GPa)
#
#
# Indices 1 2 3 4 5 6 
#
# 1 0.036431 -0.000199 -0.003597 0.000000 0.000000 0.000000
# 2 -0.000199 0.006927 -0.003101 0.000000 0.000000 0.000000
# 3 -0.003597 -0.003101 0.009152 0.000000 0.000000 0.000000
# 4 0.000000 0.000000 0.000000 0.049421 0.000000 0.000000
# 5 0.000000 0.000000 0.000000 0.000000 0.042761 0.000000
# 6 0.000000 0.000000 0.000000 0.000000 0.000000 0.042112
#
#
# Mechanical properties :
#
#
# Convention : Reuss Voigt Hill
#
# Bulk Modulus (GPa) = 25.82818 55.46802 40.64810
# Shear Modulus (GPa) = 23.41919 30.43283 26.92601
#
# Velocity S-wave (km/s) = 3.35801 3.82796 3.60066
# Velocity P-wave (km/s) = 5.24130 6.80040 6.07110
#
# Compressibility (1/GPa) = 0.03871740
#
# Stress axis : x y z
#
# Youngs Moduli (GPa) = 27.44933 144.36921 109.26651
#
# Poissons Ratio (x) = 0.02868 0.39298
# Poissons Ratio (y) = 0.00545 0.33882
# Poissons Ratio (z) = 0.09872 0.44766
#
# Static dielectric constant tensor:
#      x y z
#    x 3.709390 0.000000 0.000000 
#    y 0.000000 4.058120 0.000000 
#    z 0.000000 0.000000 4.662080 
# 
# 
# High freq. dielectric constant tensor:
#      x y z
#    x 1.785400 0.000000 0.000000 
#    y 0.000000 1.828670 0.000000 
#    z 0.000000 0.000000 1.831950 
# 
# From -- ./inp_files/20566.got.cif
#   From: 2010.03.12/outbox.cif.g09.slc.cpg/sg59_11_cif.got.tgz:20566.got - 2010.04.16 16:29:54.
