data_PCOD8244274
_publ_section_title
;
Structure prediction by ZEFSAII (Michael W. Deem and Ramdas Pophale) SiO2 
 PCOD8244274
Probable space group: P M M N
;
_chemical_formula_sum "Si O2"
_cell_formula_units_Z 40
_cell_length_a 8.815765
_cell_length_b 14.286936
_cell_length_c 17.144932
_cell_angle_alpha 90.000000
_cell_angle_beta 90.000000
_cell_angle_gamma 90.000000
_cell_volume 2159.408820
_symmetry_space_group_name_H-M "P M M N"
_symmetry_group_IT_number 59
_space_group.IT_coordinate_system_code '2'
_symmetry_cell_setting 'orthorhombic'
loop_
_space_group_symop_operation_xyz
x,y,z
1/2-x,1/2-y,z
1/2+x,-y,-z
-x,1/2+y,-z
-x,-y,-z
1/2+x,1/2+y,-z
1/2-x,y,z
x,1/2-y,z
loop_
_atom_site_type_symbol
_atom_site_label
_atom_site_fract_x
_atom_site_fract_y
_atom_site_fract_z
Si Si1 0.069920 0.250000 0.660955
Si Si2 0.071177 0.562086 0.281181
Si Si3 0.570487 0.750000 0.515969
Si Si4 0.925840 0.982487 0.121927
Si Si5 0.425554 0.642504 0.997346
Si Si6 0.428873 0.053830 0.428961
O O1 0.250000 0.250000 0.662012
O O2 0.004672 0.250000 0.572415
O O3 0.011190 0.160354 0.707299
O O4 0.250000 0.578636 0.283764
O O5 0.016269 0.489947 0.347746
O O6 0.024390 0.516464 0.199794
O O7 0.750000 0.750000 0.508434
O O8 0.513426 0.660662 0.564810
O O9 0.750000 0.971461 0.142985
O O10 0.959903 0.080890 0.079224
O O11 0.973745 0.894834 0.068510
O O12 0.250000 0.632761 0.021567
O O13 0.469060 0.750000 0.979516
O O14 0.250000 0.047493 0.437445
O O15 0.500000 0.000000 0.500000
#
# Coordination Sequence:
#
# PCOD8244274 Si02
#       6
#     4   8   4   8   8   8
#     4  11  21  35  59  83 108 145 188 233 279 330
#     4  11  23  37  55  83 117 148 181 230 283 331
#     4   9  18  35  57  79 104 141 186 231 277 326
#     4  10  21  37  58  84 114 146 185 227 274 335
#     4   9  19  38  62  84 110 145 183 229 280 328
#     4  10  20  36  57  79 108 145 186 229 278 328
#
# _framework density 18.523589000000001
#
# number of rings (size 3 to 8) (size 9 to 14) (size 15 to 20)
#    0.000    2.000    2.000    1.500    1.400    2.000 
#    1.800    0.500    0.000    0.000    0.000    0.000 
#    0.000    0.000    0.000    0.000    0.000    0.000 
#
# Total GULP energy -496089.080585 kJ/mol
# GULP energy per Si atom -12402.227015 kJ/mol
# Density = 1.848143 g / cm^3
# Si number density = 18.523589 Si / 1000 Ang^3
#
#
#
# Elastic Constant Matrix: (Units=GPa)
#
#
# Indices 1 2 3 4 5 6 
#
# 1 50.1951 32.9568 35.2891 0.0000 0.0000 0.0000
# 2 32.9568 158.8622 66.3062 0.0000 0.0000 0.0000
# 3 35.2891 66.3062 129.1542 0.0000 0.0000 0.0000
# 4 0.0000 0.0000 0.0000 22.1092 0.0000 0.0000
# 5 0.0000 0.0000 0.0000 0.0000 30.6133 0.0000
# 6 0.0000 0.0000 0.0000 0.0000 0.0000 21.4014
#
#
#
# Elastic Compliance Matrix: (Units=1/GPa)
#
#
# Indices 1 2 3 4 5 6 
#
# 1 0.025781 -0.003065 -0.005471 0.000000 0.000000 0.000000
# 2 -0.003065 0.008376 -0.003463 0.000000 0.000000 0.000000
# 3 -0.005471 -0.003463 0.011015 0.000000 0.000000 0.000000
# 4 0.000000 0.000000 0.000000 0.045230 0.000000 0.000000
# 5 0.000000 0.000000 0.000000 0.000000 0.032666 0.000000
# 6 0.000000 0.000000 0.000000 0.000000 0.000000 0.046726
#
#
# Mechanical properties :
#
#
# Convention : Reuss Voigt Hill
#
# Bulk Modulus (GPa) = 47.22496 67.47953 57.35224
# Shear Modulus (GPa) = 24.89446 28.40208 26.64827
#
# Velocity S-wave (km/s) = 3.66995 3.91998 3.79702
# Velocity P-wave (km/s) = 6.59605 7.54959 7.08887
#
# Compressibility (1/GPa) = 0.02117524
#
# Stress axis : x y z
#
# Youngs Moduli (GPa) = 38.78868 119.39093 90.78464
#
# Poissons Ratio (x) = 0.36594 0.49664
# Poissons Ratio (y) = 0.11889 0.31435
# Poissons Ratio (z) = 0.21220 0.41340
#
# Static dielectric constant tensor:
#      x y z
#    x 3.358420 0.000000 0.000000 
#    y 0.000000 3.345420 0.000000 
#    z 0.000000 0.000000 3.456670 
# 
# 
# High freq. dielectric constant tensor:
#      x y z
#    x 1.713810 0.000000 0.000000 
#    y 0.000000 1.727240 0.000000 
#    z 0.000000 0.000000 1.717820 
# 
# From -- ./inp_files/19895.got.cif
#   From: 2010.03.12/outbox.cif.g09.slc.cpg/sg59_10_cif.got.tgz:19895.got - 2010.04.16 16:29:54.
