data_PCOD8244405
_publ_section_title
;
Structure prediction by ZEFSAII (Michael W. Deem and Ramdas Pophale) SiO2 
 PCOD8244405
Probable space group: P M M N
;
_chemical_formula_sum "Si O2"
_cell_formula_units_Z 64
_cell_length_a 8.912116
_cell_length_b 23.563630
_cell_length_c 15.104365
_cell_angle_alpha 90.000000
_cell_angle_beta 90.000000
_cell_angle_gamma 90.000000
_cell_volume 3171.943897
_symmetry_space_group_name_H-M "P M M N"
_symmetry_group_IT_number 59
_space_group.IT_coordinate_system_code '2'
_symmetry_cell_setting 'orthorhombic'
loop_
_space_group_symop_operation_xyz
x,y,z
1/2-x,1/2-y,z
1/2+x,-y,-z
-x,1/2+y,-z
-x,-y,-z
1/2+x,1/2+y,-z
1/2-x,y,z
x,1/2-y,z
loop_
_atom_site_type_symbol
_atom_site_label
_atom_site_fract_x
_atom_site_fract_y
_atom_site_fract_z
Si Si1 0.576197 0.315601 0.052899
Si Si2 0.426535 0.885987 0.118536
Si Si3 0.422977 0.869182 0.430012
Si Si4 0.081708 0.021999 0.628283
Si Si5 0.573425 0.613241 0.803160
Si Si6 0.076303 0.605391 0.622529
Si Si7 0.423862 0.184699 0.728501
Si Si8 0.919610 0.504523 0.167112
O O1 0.750000 0.326661 0.075154
O O2 0.543981 0.250000 0.033855
O O3 0.476337 0.334774 0.135513
O O4 0.525125 0.349718 0.966243
O O5 0.250000 0.892716 0.127058
O O6 0.483325 0.854435 0.205891
O O7 0.497915 0.948407 0.107256
O O8 0.250000 0.859499 0.405510
O O9 0.463597 0.934488 0.412018
O O10 0.450437 0.856822 0.534646
O O11 0.523895 0.826875 0.372207
O O12 0.250000 0.035585 0.594084
O O13 0.077041 0.027652 0.733681
O O14 0.029892 0.959257 0.599725
O O15 0.750000 0.605996 0.804339
O O16 0.521752 0.628562 0.703531
O O17 0.500676 0.555796 0.840686
O O18 0.250000 0.605925 0.652778
O O19 0.250000 0.168626 0.736603
O O20 0.453424 0.250000 0.751853
O O21 0.750000 0.496658 0.132648
#
# Coordination Sequence:
#
# PCOD8244405 Si02
#       8
#     8   8   8   8   8   8   8   8
#     4  10  23  44  67  89 116 153 196 245 302 359
#     4  11  22  38  64  94 120 150 195 246 297 356
#     4  11  21  33  55  84 114 151 198 245 290 343
#     4   9  17  31  52  80 117 156 192 232 284 347
#     4  11  23  39  62  91 121 156 200 250 298 350
#     4   9  20  37  56  82 117 157 196 239 295 351
#     4  11  24  40  57  80 117 163 202 242 298 357
#     4  10  20  36  59  88 126 166 196 233 294 360
#
# _framework density 20.176902999999999
#
# number of rings (size 3 to 8) (size 9 to 14) (size 15 to 20)
#    0.000    1.750    1.250    4.125    0.000    6.250 
#    0.000    0.625    0.000    0.750    0.000    0.000 
#    0.000    0.000    0.000    0.000    0.000    0.000 
#
# Total GULP energy -793821.520958 kJ/mol
# GULP energy per Si atom -12403.461265 kJ/mol
# Density = 2.013098 g / cm^3
# Si number density = 20.176903 Si / 1000 Ang^3
#
#
#
# Elastic Constant Matrix: (Units=GPa)
#
#
# Indices 1 2 3 4 5 6 
#
# 1 96.3371 23.7644 32.9850 0.0000 0.0000 0.0000
# 2 23.7644 41.2031 30.8490 0.0000 0.0000 0.0000
# 3 32.9850 30.8490 69.2207 0.0000 0.0000 0.0000
# 4 0.0000 0.0000 0.0000 26.0400 0.0000 0.0000
# 5 0.0000 0.0000 0.0000 0.0000 23.9840 0.0000
# 6 0.0000 0.0000 0.0000 0.0000 0.0000 30.3792
#
#
#
# Elastic Compliance Matrix: (Units=1/GPa)
#
#
# Indices 1 2 3 4 5 6 
#
# 1 0.012882 -0.004253 -0.004243 0.000000 0.000000 0.000000
# 2 -0.004253 0.037828 -0.014832 0.000000 0.000000 0.000000
# 3 -0.004243 -0.014832 0.023078 0.000000 0.000000 0.000000
# 4 0.000000 0.000000 0.000000 0.038402 0.000000 0.000000
# 5 0.000000 0.000000 0.000000 0.000000 0.041694 0.000000
# 6 0.000000 0.000000 0.000000 0.000000 0.000000 0.032917
#
#
# Mechanical properties :
#
#
# Convention : Reuss Voigt Hill
#
# Bulk Modulus (GPa) = 36.85634 42.43975 39.64805
# Shear Modulus (GPa) = 20.61838 24.02482 22.32160
#
# Velocity S-wave (km/s) = 3.20015 3.45441 3.32971
# Velocity P-wave (km/s) = 5.65340 6.08195 5.87158
#
# Compressibility (1/GPa) = 0.02713237
#
# Stress axis : x y z
#
# Youngs Moduli (GPa) = 77.62648 26.43578 43.33055
#
# Poissons Ratio (x) = 0.11243 0.18386
# Poissons Ratio (y) = 0.33015 0.64266
# Poissons Ratio (z) = 0.32938 0.39209
#
# Static dielectric constant tensor:
#      x y z
#    x 3.640560 0.000000 0.000000 
#    y 0.000000 3.544780 0.000000 
#    z 0.000000 0.000000 3.670260 
# 
# 
# High freq. dielectric constant tensor:
#      x y z
#    x 1.790220 0.000000 0.000000 
#    y 0.000000 1.774740 0.000000 
#    z 0.000000 0.000000 1.788120 
# 
# From -- ./inp_files/21564.got.cif
#   From: 2010.03.12/outbox.cif.g09.slc.cpg/sg59_11_cif.got.tgz:21564.got - 2010.04.16 16:29:54.
