data_PCOD8244569
_publ_section_title
;
Structure prediction by ZEFSAII (Michael W. Deem and Ramdas Pophale) SiO2 
 PCOD8244569
Probable space group: P M M N
;
_chemical_formula_sum "Si O2"
_cell_formula_units_Z 48
_cell_length_a 19.031849
_cell_length_b 8.602368
_cell_length_c 15.045174
_cell_angle_alpha 90.000000
_cell_angle_beta 90.000000
_cell_angle_gamma 90.000000
_cell_volume 2463.180373
_symmetry_space_group_name_H-M "P M M N"
_symmetry_group_IT_number 59
_space_group.IT_coordinate_system_code '2'
_symmetry_cell_setting 'orthorhombic'
loop_
_space_group_symop_operation_xyz
x,y,z
1/2-x,1/2-y,z
1/2+x,-y,-z
-x,1/2+y,-z
-x,-y,-z
1/2+x,1/2+y,-z
1/2-x,y,z
x,1/2-y,z
loop_
_atom_site_type_symbol
_atom_site_label
_atom_site_fract_x
_atom_site_fract_y
_atom_site_fract_z
Si Si1 0.078777 0.068623 0.719013
Si Si2 0.924537 0.567043 0.975994
Si Si3 0.171578 0.565336 0.373658
Si Si4 0.167647 0.569892 0.872138
Si Si5 0.425674 0.933481 0.212679
Si Si6 0.426165 0.567126 0.529399
O O1 0.079559 0.250000 0.698082
O O2 0.003564 0.017544 0.757402
O O3 0.138542 0.026387 0.789113
O O4 0.095218 0.979543 0.628316
O O5 0.924993 0.750000 0.992742
O O6 0.905154 0.527441 0.875083
O O7 0.865776 0.489424 0.036870
O O8 0.000000 0.500000 0.000000
O O9 0.250000 0.494695 0.369879
O O10 0.174501 0.750000 0.375094
O O11 0.128557 0.510162 0.287535
O O12 0.133398 0.503107 0.462362
O O13 0.250000 0.540299 0.878342
O O14 0.149068 0.750000 0.858309
O O15 0.421170 0.750000 0.193883
O O16 0.500000 0.500000 0.500000
O O17 0.431655 0.750000 0.521349
#
# Coordination Sequence:
#
# PCOD8244569 Si02
#       6
#     8   8   8   8   8   8
#     4  11  22  38  62  92 123 159 203 253 309 368
#     4  12  24  39  63  93 125 161 204 252 305 367
#     4   9  19  37  60  86 118 156 199 248 299 353
#     4  11  25  44  65  91 123 161 206 255 310 371
#     4  10  20  37  61  90 120 156 204 252 300 362
#     4  11  21  36  60  90 122 160 209 256 305 364
#
# _framework density 19.487000999999999
#
# number of rings (size 3 to 8) (size 9 to 14) (size 15 to 20)
#    0.000    1.333    3.333    3.000    0.000    3.333 
#    0.000    3.333    0.000    3.500    0.000    0.000 
#    0.000    0.000    0.000    0.000    0.000    0.000 
#
# Total GULP energy -595442.651605 kJ/mol
# GULP energy per Si atom -12405.055242 kJ/mol
# Density = 1.944265 g / cm^3
# Si number density = 19.487001 Si / 1000 Ang^3
#
#
#
# Elastic Constant Matrix: (Units=GPa)
#
#
# Indices 1 2 3 4 5 6 
#
# 1 137.8551 37.6991 66.6209 0.0000 0.0000 0.0000
# 2 37.6991 36.7233 12.1909 0.0000 0.0000 0.0000
# 3 66.6209 12.1909 145.1281 0.0000 0.0000 0.0000
# 4 0.0000 0.0000 0.0000 35.3784 0.0000 0.0000
# 5 0.0000 0.0000 0.0000 0.0000 37.6569 0.0000
# 6 0.0000 0.0000 0.0000 0.0000 0.0000 26.6916
#
#
#
# Elastic Compliance Matrix: (Units=1/GPa)
#
#
# Indices 1 2 3 4 5 6 
#
# 1 0.012754 -0.011470 -0.004891 0.000000 0.000000 0.000000
# 2 -0.011470 0.038326 0.002046 0.000000 0.000000 0.000000
# 3 -0.004891 0.002046 0.008964 0.000000 0.000000 0.000000
# 4 0.000000 0.000000 0.000000 0.028266 0.000000 0.000000
# 5 0.000000 0.000000 0.000000 0.000000 0.026556 0.000000
# 6 0.000000 0.000000 0.000000 0.000000 0.000000 0.037465
#
#
# Mechanical properties :
#
#
# Convention : Reuss Voigt Hill
#
# Bulk Modulus (GPa) = 31.83323 61.41425 46.62374
# Shear Modulus (GPa) = 26.11884 33.49175 29.80530
#
# Velocity S-wave (km/s) = 3.66501 4.15018 3.91512
# Velocity P-wave (km/s) = 5.85498 7.38575 6.66446
#
# Compressibility (1/GPa) = 0.03141371
#
# Stress axis : x y z
#
# Youngs Moduli (GPa) = 78.40407 26.09202 111.55681
#
# Poissons Ratio (x) = 0.29926 0.54568
# Poissons Ratio (y) = 0.89926 -0.22821
# Poissons Ratio (z) = 0.38351 -0.05338
#
# Static dielectric constant tensor:
#      x y z
#    x 3.643340 0.000000 0.000000 
#    y 0.000000 3.530430 0.000000 
#    z 0.000000 0.000000 3.597330 
# 
# 
# High freq. dielectric constant tensor:
#      x y z
#    x 1.759490 0.000000 0.000000 
#    y 0.000000 1.750030 0.000000 
#    z 0.000000 0.000000 1.777420 
# 
# From -- ./inp_files/20360.got.cif
#   From: 2010.03.12/outbox.cif.g09.slc.cpg/sg59_11_cif.got.tgz:20360.got - 2010.04.16 16:29:54.
