data_PCOD8244833
_publ_section_title
;
Structure prediction by ZEFSAII (Michael W. Deem and Ramdas Pophale) SiO2 
 PCOD8244833
Probable space group: P M M N
;
_chemical_formula_sum "Si O2"
_cell_formula_units_Z 48
_cell_length_a 10.145669
_cell_length_b 8.727803
_cell_length_c 29.019909
_cell_angle_alpha 90.000000
_cell_angle_beta 90.000000
_cell_angle_gamma 90.000000
_cell_volume 2569.695540
_symmetry_space_group_name_H-M "P M M N"
_symmetry_group_IT_number 59
_space_group.IT_coordinate_system_code '2'
_symmetry_cell_setting 'orthorhombic'
loop_
_space_group_symop_operation_xyz
x,y,z
1/2-x,1/2-y,z
1/2+x,-y,-z
-x,1/2+y,-z
-x,-y,-z
1/2+x,1/2+y,-z
1/2-x,y,z
x,1/2-y,z
loop_
_atom_site_type_symbol
_atom_site_label
_atom_site_fract_x
_atom_site_fract_y
_atom_site_fract_z
Si Si1 0.601061 0.569431 0.360991
Si Si2 0.102943 0.430736 0.534922
Si Si3 0.898969 0.570166 0.710137
Si Si4 0.250000 0.431950 0.048378
Si Si5 0.250000 0.570362 0.949291
Si Si6 0.502032 0.930354 0.097301
Si Si7 0.899880 0.073613 0.804001
O O1 0.750000 0.519056 0.347550
O O2 0.587343 0.750000 0.356305
O O3 0.569812 0.516289 0.413125
O O4 0.495225 0.492394 0.328415
O O5 0.250000 0.486837 0.521629
O O6 0.095316 0.250000 0.531734
O O7 0.000000 0.500000 0.500000
O O8 0.750000 0.505142 0.702962
O O9 0.898222 0.750000 0.706341
O O10 0.951980 0.523000 0.760588
O O11 0.250000 0.250000 0.057075
O O12 0.376009 0.511307 0.070168
O O13 0.250000 0.465410 0.994315
O O14 0.250000 0.750000 0.962113
O O15 0.375977 0.529854 0.919041
O O16 0.521827 0.750000 0.087421
O O17 0.488312 0.962683 0.151666
O O18 0.750000 0.028515 0.816502
O O19 0.910192 0.250000 0.789875
#
# Coordination Sequence:
#
# PCOD8244833 Si02
#       7
#     8   8   8   4   4   8   8
#     4   9  19  37  57  77 106 147 190 229 273 330
#     4   9  19  35  54  78 109 144 185 231 277 328
#     4  10  21  35  54  83 114 142 178 229 279 327
#     4  12  24  40  64  90 116 154 192 232 285 340
#     4  12  26  42  58  86 122 154 190 236 285 338
#     4  11  22  41  64  88 116 150 192 238 283 338
#     4   9  18  36  61  85 109 144 186 227 274 333
#
# _framework density 18.679254
#
# number of rings (size 3 to 8) (size 9 to 14) (size 15 to 20)
#    0.000    2.000    0.833    4.000    0.000    4.333 
#    1.500    5.000    0.000    0.000    0.000    0.000 
#    0.000    0.000    0.000    0.000    0.000    0.000 
#
# Total GULP energy -595224.997325 kJ/mol
# GULP energy per Si atom -12400.520778 kJ/mol
# Density = 1.863674 g / cm^3
# Si number density = 18.679254 Si / 1000 Ang^3
#
#
#
# Elastic Constant Matrix: (Units=GPa)
#
#
# Indices 1 2 3 4 5 6 
#
# 1 116.8309 30.7533 75.0724 0.0000 0.0000 0.0000
# 2 30.7533 51.9351 36.0004 0.0000 0.0000 0.0000
# 3 75.0724 36.0004 130.1137 0.0000 0.0000 0.0000
# 4 0.0000 0.0000 0.0000 34.8555 0.0000 0.0000
# 5 0.0000 0.0000 0.0000 0.0000 27.6807 0.0000
# 6 0.0000 0.0000 0.0000 0.0000 0.0000 33.8475
#
#
#
# Elastic Compliance Matrix: (Units=1/GPa)
#
#
# Indices 1 2 3 4 5 6 
#
# 1 0.014056 -0.003343 -0.007185 0.000000 0.000000 0.000000
# 2 -0.003343 0.024619 -0.004883 0.000000 0.000000 0.000000
# 3 -0.007185 -0.004883 0.013182 0.000000 0.000000 0.000000
# 4 0.000000 0.000000 0.000000 0.028690 0.000000 0.000000
# 5 0.000000 0.000000 0.000000 0.000000 0.036126 0.000000
# 6 0.000000 0.000000 0.000000 0.000000 0.000000 0.029544
#
#
# Mechanical properties :
#
#
# Convention : Reuss Voigt Hill
#
# Bulk Modulus (GPa) = 47.53835 64.72575 56.13205
# Shear Modulus (GPa) = 27.16623 29.74699 28.45661
#
# Velocity S-wave (km/s) = 3.81774 3.99496 3.90735
# Velocity P-wave (km/s) = 6.70362 7.48372 7.10438
#
# Compressibility (1/GPa) = 0.02103565
#
# Stress axis : x y z
#
# Youngs Moduli (GPa) = 71.14217 40.61907 75.85891
#
# Poissons Ratio (x) = 0.13578 0.54507
# Poissons Ratio (y) = 0.23781 0.37042
# Poissons Ratio (z) = 0.51118 0.19834
#
# Static dielectric constant tensor:
#      x y z
#    x 3.168430 0.000000 0.000000 
#    y 0.000000 3.361020 0.000000 
#    z 0.000000 0.000000 2.817170 
# 
# 
# High freq. dielectric constant tensor:
#      x y z
#    x 1.724400 0.000000 0.000000 
#    y 0.000000 1.725420 0.000000 
#    z 0.000000 0.000000 1.734150 
# 
# From -- ./inp_files/32944.got.cif
#   From: 2010.03.12/outbox.cif.g09.slc.cpg/sg59_17_cif.got.tgz:32944.got - 2010.04.16 16:29:54.
