data_PCOD8244064
_publ_section_title
;
Structure prediction by ZEFSAII (Michael W. Deem and Ramdas Pophale) SiO2 
 PCOD8244064
Probable space group: P M M N
;
_chemical_formula_sum "Si O2"
_cell_formula_units_Z 64
_cell_length_a 8.926976
_cell_length_b 22.672185
_cell_length_c 16.704271
_cell_angle_alpha 90.000000
_cell_angle_beta 90.000000
_cell_angle_gamma 90.000000
_cell_volume 3380.845083
_symmetry_space_group_name_H-M "P M M N"
_symmetry_group_IT_number 59
_space_group.IT_coordinate_system_code '2'
_symmetry_cell_setting 'orthorhombic'
loop_
_space_group_symop_operation_xyz
x,y,z
1/2-x,1/2-y,z
1/2+x,-y,-z
-x,1/2+y,-z
-x,-y,-z
1/2+x,1/2+y,-z
1/2-x,y,z
x,1/2-y,z
loop_
_atom_site_type_symbol
_atom_site_label
_atom_site_fract_x
_atom_site_fract_y
_atom_site_fract_z
Si Si1 0.927637 0.519312 0.918150
Si Si2 0.927635 0.426203 0.787641
Si Si3 0.923837 0.319102 0.357330
Si Si4 0.425444 0.537058 0.387495
Si Si5 0.413573 0.183878 0.202520
Si Si6 0.926796 0.140029 0.061070
Si Si7 0.575835 0.912786 0.540323
Si Si8 0.571960 0.316407 0.887325
O O1 0.750000 0.516752 0.925833
O O2 0.986219 0.476217 0.848306
O O3 0.986126 0.584426 0.901496
O O4 0.000000 0.500000 0.000000
O O5 0.750000 0.426636 0.788095
O O6 0.986202 0.441611 0.699115
O O7 0.984233 0.361452 0.818053
O O8 0.750000 0.332451 0.347755
O O9 0.953478 0.250000 0.372173
O O10 0.003357 0.345767 0.277940
O O11 0.988248 0.354854 0.432153
O O12 0.250000 0.551096 0.398207
O O13 0.455885 0.467464 0.399604
O O14 0.519238 0.573397 0.451593
O O15 0.250000 0.153346 0.186826
O O16 0.383677 0.250000 0.229366
O O17 0.521413 0.188485 0.124834
O O18 0.750000 0.129341 0.060823
O O19 0.983659 0.158564 0.973038
O O20 0.750000 0.897867 0.536620
O O21 0.750000 0.313415 0.889234
O O22 0.507855 0.250000 0.872639
#
# Coordination Sequence:
#
# PCOD8244064 Si02
#       8
#     8   8   8   8   8   8   8   8
#     4  11  21  35  54  78 110 146 182 228 282 334
#     4   9  18  34  54  78 108 141 183 233 281 329
#     4  10  21  37  57  82 113 148 187 232 279 333
#     4   9  19  36  58  81 109 145 183 230 281 335
#     4  10  21  36  53  77 111 149 188 228 273 327
#     4  11  21  34  52  79 110 145 188 231 276 329
#     4  10  20  35  57  84 113 146 182 224 281 341
#     4   9  17  31  53  78 105 140 183 230 278 326
#
# _framework density 18.930178999999999
#
# number of rings (size 3 to 8) (size 9 to 14) (size 15 to 20)
#    0.000    2.125    1.250    2.250    1.750    2.500 
#    0.000    1.875    0.000    2.250    0.000    0.000 
#    0.000    0.000    0.000    0.000    0.000    0.000 
#
# Total GULP energy -793329.253142 kJ/mol
# GULP energy per Si atom -12395.769580 kJ/mol
# Density = 1.888709 g / cm^3
# Si number density = 18.930179 Si / 1000 Ang^3
#
#
#
# Elastic Constant Matrix: (Units=GPa)
#
#
# Indices 1 2 3 4 5 6 
#
# 1 69.3796 36.8782 39.3099 0.0000 0.0000 0.0000
# 2 36.8782 103.2039 66.8750 0.0000 0.0000 0.0000
# 3 39.3099 66.8750 137.3238 0.0000 0.0000 0.0000
# 4 0.0000 0.0000 0.0000 27.6844 0.0000 0.0000
# 5 0.0000 0.0000 0.0000 0.0000 28.9159 0.0000
# 6 0.0000 0.0000 0.0000 0.0000 0.0000 26.5260
#
#
#
# Elastic Compliance Matrix: (Units=1/GPa)
#
#
# Indices 1 2 3 4 5 6 
#
# 1 0.018631 -0.004678 -0.003055 0.000000 0.000000 0.000000
# 2 -0.004678 0.015331 -0.006127 0.000000 0.000000 0.000000
# 3 -0.003055 -0.006127 0.011141 0.000000 0.000000 0.000000
# 4 0.000000 0.000000 0.000000 0.036121 0.000000 0.000000
# 5 0.000000 0.000000 0.000000 0.000000 0.034583 0.000000
# 6 0.000000 0.000000 0.000000 0.000000 0.000000 0.037699
#
#
# Mechanical properties :
#
#
# Convention : Reuss Voigt Hill
#
# Bulk Modulus (GPa) = 57.52883 66.22594 61.87739
# Shear Modulus (GPa) = 26.73503 27.74822 27.24162
#
# Velocity S-wave (km/s) = 3.76213 3.83276 3.79761
# Velocity P-wave (km/s) = 7.02335 7.39236 7.21022
#
# Compressibility (1/GPa) = 0.01738259
#
# Stress axis : x y z
#
# Youngs Moduli (GPa) = 53.67426 65.22567 89.76249
#
# Poissons Ratio (x) = 0.30510 0.27425
# Poissons Ratio (y) = 0.25107 0.54999
# Poissons Ratio (z) = 0.16399 0.39965
#
# Static dielectric constant tensor:
#      x y z
#    x 3.461840 0.000000 0.000000 
#    y 0.000000 1.979340 0.000000 
#    z 0.000000 0.000000 3.470050 
# 
# 
# High freq. dielectric constant tensor:
#      x y z
#    x 1.719630 0.000000 0.000000 
#    y 0.000000 1.735400 0.000000 
#    z 0.000000 0.000000 1.732640 
# 
# From -- ./inp_files/21481.got.cif
#   From: 2010.03.12/outbox.cif.g09.slc.cpg/sg59_11_cif.got.tgz:21481.got - 2010.04.16 16:29:54.
