data_PCOD8244799
_publ_section_title
;
Structure prediction by ZEFSAII (Michael W. Deem and Ramdas Pophale) SiO2 
 PCOD8244799
Probable space group: P M M N
;
_chemical_formula_sum "Si O2"
_cell_formula_units_Z 48
_cell_length_a 9.276158
_cell_length_b 9.158880
_cell_length_c 30.348564
_cell_angle_alpha 90.000000
_cell_angle_beta 90.000000
_cell_angle_gamma 90.000000
_cell_volume 2578.390264
_symmetry_space_group_name_H-M "P M M N"
_symmetry_group_IT_number 59
_space_group.IT_coordinate_system_code '2'
_symmetry_cell_setting 'orthorhombic'
loop_
_space_group_symop_operation_xyz
x,y,z
1/2-x,1/2-y,z
1/2+x,-y,-z
-x,1/2+y,-z
-x,-y,-z
1/2+x,1/2+y,-z
1/2-x,y,z
x,1/2-y,z
loop_
_atom_site_type_symbol
_atom_site_label
_atom_site_fract_x
_atom_site_fract_y
_atom_site_fract_z
Si Si1 0.917777 0.418615 0.626535
Si Si2 0.914755 0.578297 0.287875
Si Si3 0.919142 0.581081 0.538742
Si Si4 0.081936 0.078493 0.960716
Si Si5 0.916281 0.581838 0.887033
Si Si6 0.412804 0.080795 0.214647
O O1 0.750000 0.441262 0.636177
O O2 0.954924 0.250000 0.616844
O O3 0.969485 0.512212 0.584882
O O4 0.001903 0.478738 0.669005
O O5 0.750000 0.530694 0.292807
O O6 0.933700 0.750000 0.283358
O O7 0.976987 0.508917 0.243846
O O8 0.750000 0.557805 0.531754
O O9 0.962612 0.750000 0.538524
O O10 0.000000 0.500000 0.500000
O O11 0.250000 0.039664 0.963517
O O12 0.055087 0.250000 0.964474
O O13 0.020098 0.022515 0.914479
O O14 0.000000 0.000000 0.000000
O O15 0.750000 0.545007 0.897619
O O16 0.947433 0.750000 0.899247
O O17 0.951165 0.552140 0.836112
O O18 0.250000 0.028470 0.224461
O O19 0.428930 0.250000 0.226201
#
# Coordination Sequence:
#
# PCOD8244799 Si02
#       6
#     8   8   8   8   8   8
#     4   9  18  34  54  74 101 140 182 220 260 310
#     4  10  21  35  52  78 111 143 176 218 266 314
#     4  10  21  36  55  80 108 138 173 215 263 314
#     4  11  24  39  56  81 111 142 178 220 265 315
#     4   9  19  37  59  82 108 139 178 222 266 314
#     4   9  19  36  57  80 107 141 180 221 264 312
#
# _framework density 18.616267000000001
#
# number of rings (size 3 to 8) (size 9 to 14) (size 15 to 20)
#    0.000    2.333    0.000    3.000    0.000    8.667 
#    0.000    8.333    0.000    0.000    0.000    0.000 
#    0.000    0.000    0.000    0.000    0.000    0.000 
#
# Total GULP energy -595368.014078 kJ/mol
# GULP energy per Si atom -12403.500293 kJ/mol
# Density = 1.857390 g / cm^3
# Si number density = 18.616267 Si / 1000 Ang^3
#
#
#
# Elastic Constant Matrix: (Units=GPa)
#
#
# Indices 1 2 3 4 5 6 
#
# 1 105.8574 63.7752 80.3273 0.0000 0.0000 0.0000
# 2 63.7752 81.6327 65.3700 0.0000 0.0000 0.0000
# 3 80.3273 65.3700 134.0767 0.0000 0.0000 0.0000
# 4 0.0000 0.0000 0.0000 39.9577 0.0000 0.0000
# 5 0.0000 0.0000 0.0000 0.0000 39.3558 0.0000
# 6 0.0000 0.0000 0.0000 0.0000 0.0000 31.3506
#
#
#
# Elastic Compliance Matrix: (Units=1/GPa)
#
#
# Indices 1 2 3 4 5 6 
#
# 1 0.021949 -0.010856 -0.007857 0.000000 0.000000 0.000000
# 2 -0.010856 0.025465 -0.005912 0.000000 0.000000 0.000000
# 3 -0.007857 -0.005912 0.015048 0.000000 0.000000 0.000000
# 4 0.000000 0.000000 0.000000 0.025026 0.000000 0.000000
# 5 0.000000 0.000000 0.000000 0.000000 0.025409 0.000000
# 6 0.000000 0.000000 0.000000 0.000000 0.000000 0.031897
#
#
# Mechanical properties :
#
#
# Convention : Reuss Voigt Hill
#
# Bulk Modulus (GPa) = 75.68461 82.27908 78.98185
# Shear Modulus (GPa) = 25.19536 29.60579 27.40057
#
# Velocity S-wave (km/s) = 3.68286 3.99221 3.84065
# Velocity P-wave (km/s) = 7.66994 8.09590 7.88580
#
# Compressibility (1/GPa) = 0.01321272
#
# Stress axis : x y z
#
# Youngs Moduli (GPa) = 45.55988 39.26950 66.45319
#
# Poissons Ratio (x) = 0.42630 0.52214
# Poissons Ratio (y) = 0.49458 0.39286
# Poissons Ratio (z) = 0.35798 0.23216
#
# Static dielectric constant tensor:
#      x y z
#    x 4.445950 0.000000 0.000000 
#    y 0.000000 3.214260 0.000000 
#    z 0.000000 0.000000 3.495750 
# 
# 
# High freq. dielectric constant tensor:
#      x y z
#    x 1.721570 0.000000 0.000000 
#    y 0.000000 1.720380 0.000000 
#    z 0.000000 0.000000 1.735130 
# 
# From -- ./inp_files/32822.got.cif
#   From: 2010.03.12/outbox.cif.g09.slc.cpg/sg59_17_cif.got.tgz:32822.got - 2010.04.16 16:29:54.
