data_PCOD8244596
_publ_section_title
;
Structure prediction by ZEFSAII (Michael W. Deem and Ramdas Pophale) SiO2 
 PCOD8244596
Probable space group: P M M N
;
_chemical_formula_sum "Si O2"
_cell_formula_units_Z 40
_cell_length_a 9.156603
_cell_length_b 19.945981
_cell_length_c 11.447499
_cell_angle_alpha 90.000000
_cell_angle_beta 90.000000
_cell_angle_gamma 90.000000
_cell_volume 2090.741791
_symmetry_space_group_name_H-M "P M M N"
_symmetry_group_IT_number 59
_space_group.IT_coordinate_system_code '2'
_symmetry_cell_setting 'orthorhombic'
loop_
_space_group_symop_operation_xyz
x,y,z
1/2-x,1/2-y,z
1/2+x,-y,-z
-x,1/2+y,-z
-x,-y,-z
1/2+x,1/2+y,-z
1/2-x,y,z
x,1/2-y,z
loop_
_atom_site_type_symbol
_atom_site_label
_atom_site_fract_x
_atom_site_fract_y
_atom_site_fract_z
Si Si1 0.078565 0.250000 0.376748
Si Si2 0.081528 0.070213 0.991724
Si Si3 0.576435 0.250000 0.625937
Si Si4 0.582305 0.884754 0.754770
Si Si5 0.413785 0.503983 0.618313
Si Si6 0.084998 0.133303 0.753897
O O1 0.250000 0.250000 0.406697
O O2 0.033740 0.185831 0.299863
O O3 0.991160 0.250000 0.496985
O O4 0.250000 0.051806 0.971266
O O5 0.058566 0.116201 0.105904
O O6 0.025409 0.114269 0.882590
O O7 0.000000 0.000000 0.000000
O O8 0.750000 0.250000 0.614790
O O9 0.525520 0.314549 0.697421
O O10 0.750000 0.900130 0.722944
O O11 0.484511 0.943569 0.705379
O O12 0.500000 0.500000 0.500000
O O13 0.250000 0.527874 0.591491
O O14 0.415589 0.431652 0.674494
O O15 0.250000 0.163032 0.760114
#
# Coordination Sequence:
#
# PCOD8244596 Si02
#       6
#     4   8   4   8   8   8
#     4  10  22  41  60  84 120 159 197 240 297 362
#     4  10  20  37  62  91 121 155 196 245 296 352
#     4  12  26  41  60  88 118 155 201 252 299 346
#     4  10  21  37  61  89 117 154 198 245 294 350
#     4  11  22  36  57  86 117 154 200 246 296 352
#     4  10  22  40  61  85 118 161 197 237 298 362
#
# _framework density 19.131965999999998
#
# number of rings (size 3 to 8) (size 9 to 14) (size 15 to 20)
#    0.000    1.600    2.000    2.700    0.000    8.800 
#    0.000    3.000    0.000    1.200    0.000    0.000 
#    0.000    0.000    0.000    0.000    0.000    0.000 
#
# Total GULP energy -496109.474637 kJ/mol
# GULP energy per Si atom -12402.736866 kJ/mol
# Density = 1.908842 g / cm^3
# Si number density = 19.131966 Si / 1000 Ang^3
#
#
#
# Elastic Constant Matrix: (Units=GPa)
#
#
# Indices 1 2 3 4 5 6 
#
# 1 88.3003 46.8881 56.8798 0.0000 0.0000 0.0000
# 2 46.8881 104.4448 51.2332 0.0000 0.0000 0.0000
# 3 56.8798 51.2332 156.8720 0.0000 0.0000 0.0000
# 4 0.0000 0.0000 0.0000 39.3172 0.0000 0.0000
# 5 0.0000 0.0000 0.0000 0.0000 27.0131 0.0000
# 6 0.0000 0.0000 0.0000 0.0000 0.0000 18.3823
#
#
#
# Elastic Compliance Matrix: (Units=1/GPa)
#
#
# Indices 1 2 3 4 5 6 
#
# 1 0.017083 -0.005514 -0.004393 0.000000 0.000000 0.000000
# 2 -0.005514 0.013181 -0.002305 0.000000 0.000000 0.000000
# 3 -0.004393 -0.002305 0.008720 0.000000 0.000000 0.000000
# 4 0.000000 0.000000 0.000000 0.025434 0.000000 0.000000
# 5 0.000000 0.000000 0.000000 0.000000 0.037019 0.000000
# 6 0.000000 0.000000 0.000000 0.000000 0.000000 0.054400
#
#
# Mechanical properties :
#
#
# Convention : Reuss Voigt Hill
#
# Bulk Modulus (GPa) = 68.68678 73.29104 70.98891
# Shear Modulus (GPa) = 27.01012 29.91690 28.46351
#
# Velocity S-wave (km/s) = 3.76144 3.95867 3.86132
# Velocity P-wave (km/s) = 7.40568 7.69975 7.55414
#
# Compressibility (1/GPa) = 0.01455884
#
# Stress axis : x y z
#
# Youngs Moduli (GPa) = 58.53803 75.86856 114.67264
#
# Poissons Ratio (x) = 0.41834 0.50378
# Poissons Ratio (y) = 0.32278 0.26437
# Poissons Ratio (z) = 0.25717 0.17491
#
# Static dielectric constant tensor:
#      x y z
#    x 3.640690 0.000000 0.000000 
#    y 0.000000 4.029880 0.000000 
#    z 0.000000 0.000000 4.108110 
# 
# 
# High freq. dielectric constant tensor:
#      x y z
#    x 1.740010 0.000000 0.000000 
#    y 0.000000 1.744190 0.000000 
#    z 0.000000 0.000000 1.765160 
# 
# From -- ./inp_files/14130.got.cif
#   From: 2010.03.12/outbox.cif.g09.slc.cpg/sg59_8_cif.got.tgz:14130.got - 2010.04.16 16:29:54.
