data_PCOD8244364
_publ_section_title
;
Structure prediction by ZEFSAII (Michael W. Deem and Ramdas Pophale) SiO2 
 PCOD8244364
Probable space group: P M M N
;
_chemical_formula_sum "Si O2"
_cell_formula_units_Z 48
_cell_length_a 20.443602
_cell_length_b 13.040845
_cell_length_c 9.889058
_cell_angle_alpha 90.000000
_cell_angle_beta 90.000000
_cell_angle_gamma 90.000000
_cell_volume 2636.441107
_symmetry_space_group_name_H-M "P M M N"
_symmetry_group_IT_number 59
_space_group.IT_coordinate_system_code '2'
_symmetry_cell_setting 'orthorhombic'
loop_
_space_group_symop_operation_xyz
x,y,z
1/2-x,1/2-y,z
1/2+x,-y,-z
-x,1/2+y,-z
-x,-y,-z
1/2+x,1/2+y,-z
1/2-x,y,z
x,1/2-y,z
loop_
_atom_site_type_symbol
_atom_site_label
_atom_site_fract_x
_atom_site_fract_y
_atom_site_fract_z
Si Si1 0.826006 0.631256 0.262974
Si Si2 0.469765 0.864739 0.413671
Si Si3 0.100085 0.059179 0.987665
Si Si4 0.602937 0.556400 0.512648
Si Si5 0.536523 0.132650 0.901008
Si Si6 0.323555 0.132124 0.236017
O O1 0.750000 0.622802 0.229590
O O2 0.849175 0.750000 0.258204
O O3 0.866911 0.562736 0.158909
O O4 0.838860 0.582064 0.409522
O O5 0.442910 0.750000 0.431000
O O6 0.541362 0.871296 0.479989
O O7 0.475088 0.895276 0.255979
O O8 0.419893 0.938060 0.494183
O O9 0.030191 0.115365 0.983866
O O10 0.147749 0.120839 0.086489
O O11 0.092069 0.941248 0.036058
O O12 0.629179 0.572856 0.662843
O O13 0.559717 0.250000 0.918791
O O14 0.250000 0.086608 0.239836
O O15 0.321851 0.250000 0.278657
#
# Coordination Sequence:
#
# PCOD8244364 Si02
#       6
#     8   8   8   8   8   8
#     4  11  22  37  59  83 113 151 183 220 276 335
#     4  10  20  36  59  83 111 146 183 228 278 329
#     4  11  21  36  57  84 111 145 184 227 277 327
#     4  11  21  36  57  84 111 145 184 227 277 327
#     4  10  20  36  59  83 111 146 183 228 278 329
#     4  11  22  35  53  81 115 145 181 230 276 323
#
# _framework density 18.206361000000001
#
# number of rings (size 3 to 8) (size 9 to 14) (size 15 to 20)
#    0.000    1.333    3.333    4.000    0.000    2.667 
#    0.000    2.500    0.000    6.000    0.000    0.000 
#    0.000    0.000    0.000    0.000    0.000    0.000 
#
# Total GULP energy -595385.408599 kJ/mol
# GULP energy per Si atom -12403.862679 kJ/mol
# Density = 1.816492 g / cm^3
# Si number density = 18.206361 Si / 1000 Ang^3
#
#
#
# Elastic Constant Matrix: (Units=GPa)
#
#
# Indices 1 2 3 4 5 6 
#
# 1 77.6704 40.6184 22.1630 0.0000 0.0000 0.0000
# 2 40.6184 99.9711 29.4035 0.0000 0.0000 0.0000
# 3 22.1630 29.4035 68.9912 0.0000 0.0000 0.0000
# 4 0.0000 0.0000 0.0000 30.3275 0.0000 0.0000
# 5 0.0000 0.0000 0.0000 0.0000 30.5406 0.0000
# 6 0.0000 0.0000 0.0000 0.0000 0.0000 22.1290
#
#
#
# Elastic Compliance Matrix: (Units=1/GPa)
#
#
# Indices 1 2 3 4 5 6 
#
# 1 0.016824 -0.005998 -0.002848 0.000000 0.000000 0.000000
# 2 -0.005998 0.013575 -0.003859 0.000000 0.000000 0.000000
# 3 -0.002848 -0.003859 0.017054 0.000000 0.000000 0.000000
# 4 0.000000 0.000000 0.000000 0.032973 0.000000 0.000000
# 5 0.000000 0.000000 0.000000 0.000000 0.032743 0.000000
# 6 0.000000 0.000000 0.000000 0.000000 0.000000 0.045190
#
#
# Mechanical properties :
#
#
# Convention : Reuss Voigt Hill
#
# Bulk Modulus (GPa) = 45.36544 47.88915 46.62729
# Shear Modulus (GPa) = 26.16190 26.89593 26.52892
#
# Velocity S-wave (km/s) = 3.79484 3.84771 3.82137
# Velocity P-wave (km/s) = 6.64625 6.78973 6.71837
#
# Compressibility (1/GPa) = 0.02204321
#
# Stress axis : x y z
#
# Youngs Moduli (GPa) = 59.43738 73.66594 58.63667
#
# Poissons Ratio (x) = 0.44185 0.16702
# Poissons Ratio (y) = 0.35651 0.22626
# Poissons Ratio (z) = 0.16930 0.28425
#
# Static dielectric constant tensor:
#      x y z
#    x 3.279960 0.000000 0.000000 
#    y 0.000000 3.305450 0.000000 
#    z 0.000000 0.000000 3.359750 
# 
# 
# High freq. dielectric constant tensor:
#      x y z
#    x 1.696910 0.000000 0.000000 
#    y 0.000000 1.695250 0.000000 
#    z 0.000000 0.000000 1.714680 
# 
# From -- ./inp_files/11278.got.cif
#   From: 2010.03.12/outbox.cif.g09.slc.cpg/sg59_6_cif.got.tgz:11278.got - 2010.04.16 16:29:54.
