data_PCOD8244526
_publ_section_title
;
Structure prediction by ZEFSAII (Michael W. Deem and Ramdas Pophale) SiO2 
 PCOD8244526
Probable space group: P M M N
;
_chemical_formula_sum "Si O2"
_cell_formula_units_Z 48
_cell_length_a 14.686039
_cell_length_b 8.715253
_cell_length_c 19.698069
_cell_angle_alpha 90.000000
_cell_angle_beta 90.000000
_cell_angle_gamma 90.000000
_cell_volume 2521.205992
_symmetry_space_group_name_H-M "P M M N"
_symmetry_group_IT_number 59
_space_group.IT_coordinate_system_code '2'
_symmetry_cell_setting 'orthorhombic'
loop_
_space_group_symop_operation_xyz
x,y,z
1/2-x,1/2-y,z
1/2+x,-y,-z
-x,1/2+y,-z
-x,-y,-z
1/2+x,1/2+y,-z
1/2-x,y,z
x,1/2-y,z
loop_
_atom_site_type_symbol
_atom_site_label
_atom_site_fract_x
_atom_site_fract_y
_atom_site_fract_z
Si Si1 0.515565 0.429741 0.827165
Si Si2 0.055241 0.931307 0.561671
Si Si3 0.356817 0.423871 0.068245
Si Si4 0.250000 0.567916 0.519089
Si Si5 0.250000 0.568398 0.365210
Si Si6 0.565608 0.569649 0.686433
Si Si7 0.649846 0.567745 0.083005
O O1 0.512514 0.250000 0.810364
O O2 0.597830 0.462177 0.878264
O O3 0.526640 0.525258 0.759051
O O4 0.422317 0.489880 0.861712
O O5 0.052736 0.750000 0.554246
O O6 0.159865 0.991278 0.558428
O O7 0.009104 0.985874 0.631509
O O8 0.000000 0.000000 0.500000
O O9 0.250000 0.427586 0.081723
O O10 0.393476 0.250000 0.078140
O O11 0.378783 0.486756 0.992552
O O12 0.250000 0.750000 0.515969
O O13 0.250000 0.503100 0.442074
O O14 0.250000 0.750000 0.364862
O O15 0.161415 0.511801 0.325693
O O16 0.581868 0.750000 0.682223
O O17 0.750000 0.502709 0.102269
O O18 0.653560 0.750000 0.080960
#
# Coordination Sequence:
#
# PCOD8244526 Si02
#       7
#     8   8   8   4   4   8   8
#     4  11  22  35  55  81 112 148 187 230 276 330
#     4  10  20  37  60  84 111 144 184 228 275 328
#     4   9  18  34  57  82 109 142 182 229 283 336
#     4   9  18  35  61  87 109 138 177 228 281 323
#     4  11  21  37  63  87 111 144 183 228 277 329
#     4  11  24  39  56  82 118 152 183 223 277 339
#     4   8  16  34  58  81 106 142 186 233 284 333
#
# _framework density 19.038508
#
# number of rings (size 3 to 8) (size 9 to 14) (size 15 to 20)
#    0.000    2.167    1.667    2.750    1.167    1.000 
#    1.500    1.250    0.000    3.500    0.000    0.000 
#    0.000    0.000    0.000    0.000    0.000    0.000 
#
# Total GULP energy -595196.201662 kJ/mol
# GULP energy per Si atom -12399.920868 kJ/mol
# Density = 1.899518 g / cm^3
# Si number density = 19.038508 Si / 1000 Ang^3
#
#
#
# Elastic Constant Matrix: (Units=GPa)
#
#
# Indices 1 2 3 4 5 6 
#
# 1 139.3113 24.3893 83.0736 0.0000 0.0000 0.0000
# 2 24.3893 34.7375 22.4588 0.0000 0.0000 0.0000
# 3 83.0736 22.4588 143.4154 0.0000 0.0000 0.0000
# 4 0.0000 0.0000 0.0000 23.7283 0.0000 0.0000
# 5 0.0000 0.0000 0.0000 0.0000 10.7724 0.0000
# 6 0.0000 0.0000 0.0000 0.0000 0.0000 19.2865
#
#
#
# Elastic Compliance Matrix: (Units=1/GPa)
#
#
# Indices 1 2 3 4 5 6 
#
# 1 0.011489 -0.004188 -0.005999 0.000000 0.000000 0.000000
# 2 -0.004188 0.033557 -0.002829 0.000000 0.000000 0.000000
# 3 -0.005999 -0.002829 0.010891 0.000000 0.000000 0.000000
# 4 0.000000 0.000000 0.000000 0.042144 0.000000 0.000000
# 5 0.000000 0.000000 0.000000 0.000000 0.092830 0.000000
# 6 0.000000 0.000000 0.000000 0.000000 0.000000 0.051850
#
#
# Mechanical properties :
#
#
# Convention : Reuss Voigt Hill
#
# Bulk Modulus (GPa) = 33.44016 64.14532 48.79274
# Shear Modulus (GPa) = 17.93664 23.26028 20.59846
#
# Velocity S-wave (km/s) = 3.07273 3.49914 3.29285
# Velocity P-wave (km/s) = 5.49468 7.07749 6.33571
#
# Compressibility (1/GPa) = 0.02990416
#
# Stress axis : x y z
#
# Youngs Moduli (GPa) = 87.04279 29.80034 91.82110
#
# Poissons Ratio (x) = 0.12479 0.55083
# Poissons Ratio (y) = 0.36450 0.25979
# Poissons Ratio (z) = 0.52217 0.08431
#
# Static dielectric constant tensor:
#      x y z
#    x 3.861440 0.000000 0.000000 
#    y 0.000000 3.274000 0.000000 
#    z 0.000000 0.000000 3.543970 
# 
# 
# High freq. dielectric constant tensor:
#      x y z
#    x 1.752540 0.000000 0.000000 
#    y 0.000000 1.717890 0.000000 
#    z 0.000000 0.000000 1.739420 
# 
# From -- ./inp_files/25567.got.cif
#   From: 2010.03.12/outbox.cif.g09.slc.cpg/sg59_13_cif.got.tgz:25567.got - 2010.04.16 16:29:54.
