data_PCOD8244344
_publ_section_title
;
Structure prediction by ZEFSAII (Michael W. Deem and Ramdas Pophale) SiO2 
 PCOD8244344
Probable space group: P M M N
;
_chemical_formula_sum "Si O2"
_cell_formula_units_Z 56
_cell_length_a 15.650969
_cell_length_b 8.696158
_cell_length_c 20.267065
_cell_angle_alpha 90.000000
_cell_angle_beta 90.000000
_cell_angle_gamma 90.000000
_cell_volume 2758.414413
_symmetry_space_group_name_H-M "P M M N"
_symmetry_group_IT_number 59
_space_group.IT_coordinate_system_code '2'
_symmetry_cell_setting 'orthorhombic'
loop_
_space_group_symop_operation_xyz
x,y,z
1/2-x,1/2-y,z
1/2+x,-y,-z
-x,1/2+y,-z
-x,-y,-z
1/2+x,1/2+y,-z
1/2-x,y,z
x,1/2-y,z
loop_
_atom_site_type_symbol
_atom_site_label
_atom_site_fract_x
_atom_site_fract_y
_atom_site_fract_z
Si Si1 0.658286 0.574478 0.646447
Si Si2 0.508399 0.068476 0.428191
Si Si3 0.653222 0.066714 0.327033
Si Si4 0.060253 0.572012 0.801442
Si Si5 0.071584 0.566688 0.950061
Si Si6 0.250000 0.578825 0.122100
Si Si7 0.890600 0.423179 0.771609
Si Si8 0.250000 0.072300 0.992160
O O1 0.750000 0.561056 0.608592
O O2 0.641379 0.750000 0.668070
O O3 0.580234 0.513261 0.603575
O O4 0.667822 0.467023 0.710079
O O5 0.515540 0.250000 0.433979
O O6 0.588545 0.004899 0.384356
O O7 0.500000 0.000000 0.500000
O O8 0.750000 0.010420 0.342351
O O9 0.647684 0.250000 0.326313
O O10 0.626581 0.004957 0.253604
O O11 0.079577 0.750000 0.809416
O O12 0.062391 0.499739 0.875193
O O13 0.967341 0.543747 0.771909
O O14 0.062935 0.750000 0.952852
O O15 0.166128 0.515266 0.968460
O O16 0.000000 0.500000 0.000000
O O17 0.250000 0.750000 0.089460
O O18 0.335672 0.559123 0.163100
O O19 0.250000 0.440065 0.070822
O O20 0.925881 0.250000 0.765044
O O21 0.250000 0.250000 0.970088
#
# Coordination Sequence:
#
# PCOD8244344 Si02
#       8
#     8   8   8   8   8   4   8   4
#     4  10  20  36  58  84 116 154 194 237 282 346
#     4  10  21  38  59  86 119 155 194 237 288 348
#     4   9  18  35  61  88 113 145 195 248 288 339
#     4  10  21  38  62  87 113 153 204 248 298 362
#     4  11  24  42  65  92 124 164 211 262 318 379
#     4  10  22  38  56  84 120 157 198 249 306 365
#     4  11  21  34  56  87 121 152 188 244 305 350
#     4  12  26  42  62  88 124 167 210 257 312 377
#
# _framework density 20.301518999999999
#
# number of rings (size 3 to 8) (size 9 to 14) (size 15 to 20)
#    0.000    1.714    2.143    2.357    1.000    5.714 
#    0.000    0.000    0.000    0.857    0.000    0.000 
#    0.000    0.000    0.000    0.000    0.000    0.000 
#
# Total GULP energy -693945.386639 kJ/mol
# GULP energy per Si atom -12391.881904 kJ/mol
# Density = 2.025531 g / cm^3
# Si number density = 20.301519 Si / 1000 Ang^3
#
#
#
# Elastic Constant Matrix: (Units=GPa)
#
#
# Indices 1 2 3 4 5 6 
#
# 1 173.3124 20.7820 73.9504 0.0000 0.0000 0.0000
# 2 20.7820 32.7401 27.6444 0.0000 0.0000 0.0000
# 3 73.9504 27.6444 149.6215 0.0000 0.0000 0.0000
# 4 0.0000 0.0000 0.0000 30.5720 0.0000 0.0000
# 5 0.0000 0.0000 0.0000 0.0000 19.3175 0.0000
# 6 0.0000 0.0000 0.0000 0.0000 0.0000 12.1631
#
#
#
# Elastic Compliance Matrix: (Units=1/GPa)
#
#
# Indices 1 2 3 4 5 6 
#
# 1 0.007411 -0.001909 -0.003310 0.000000 0.000000 0.000000
# 2 -0.001909 0.036681 -0.005834 0.000000 0.000000 0.000000
# 3 -0.003310 -0.005834 0.009397 0.000000 0.000000 0.000000
# 4 0.000000 0.000000 0.000000 0.032710 0.000000 0.000000
# 5 0.000000 0.000000 0.000000 0.000000 0.051766 0.000000
# 6 0.000000 0.000000 0.000000 0.000000 0.000000 0.082216
#
#
# Mechanical properties :
#
#
# Convention : Reuss Voigt Hill
#
# Bulk Modulus (GPa) = 31.86380 66.71417 49.28899
# Shear Modulus (GPa) = 19.78241 27.96367 23.87304
#
# Velocity S-wave (km/s) = 3.12497 3.71538 3.43289
# Velocity P-wave (km/s) = 5.36190 7.16509 6.32805
#
# Compressibility (1/GPa) = 0.03138358
#
# Stress axis : x y z
#
# Youngs Moduli (GPa) = 134.92846 27.26188 106.41163
#
# Poissons Ratio (x) = 0.05205 0.35225
# Poissons Ratio (y) = 0.25762 0.62077
# Poissons Ratio (z) = 0.44665 0.15904
#
# Static dielectric constant tensor:
#      x y z
#    x 3.939420 0.000000 0.000000 
#    y 0.000000 3.443420 0.000000 
#    z 0.000000 0.000000 3.922310 
# 
# 
# High freq. dielectric constant tensor:
#      x y z
#    x 1.808380 0.000000 0.000000 
#    y 0.000000 1.766020 0.000000 
#    z 0.000000 0.000000 1.794520 
# 
# From -- ./inp_files/30495.got.cif
#   From: 2010.03.12/outbox.cif.g09.slc.cpg/sg59_16_cif.got.tgz:30495.got - 2010.04.16 16:29:54.
