data_PCOD8244847
_publ_section_title
;
Structure prediction by ZEFSAII (Michael W. Deem and Ramdas Pophale) SiO2 
 PCOD8244847
Probable space group: P M M N
;
_chemical_formula_sum "Si O2"
_cell_formula_units_Z 64
_cell_length_a 13.548605
_cell_length_b 18.415306
_cell_length_c 12.635419
_cell_angle_alpha 90.000000
_cell_angle_beta 90.000000
_cell_angle_gamma 90.000000
_cell_volume 3152.558609
_symmetry_space_group_name_H-M "P M M N"
_symmetry_group_IT_number 59
_space_group.IT_coordinate_system_code '2'
_symmetry_cell_setting 'orthorhombic'
loop_
_space_group_symop_operation_xyz
x,y,z
1/2-x,1/2-y,z
1/2+x,-y,-z
-x,1/2+y,-z
-x,-y,-z
1/2+x,1/2+y,-z
1/2-x,y,z
x,1/2-y,z
loop_
_atom_site_type_symbol
_atom_site_label
_atom_site_fract_x
_atom_site_fract_y
_atom_site_fract_z
Si Si1 0.632518 0.110495 0.144813
Si Si2 0.989150 0.332383 0.959965
Si Si3 0.860266 0.947372 0.111728
Si Si4 0.363070 0.918679 0.450419
Si Si5 0.432138 0.827388 0.266081
Si Si6 0.141916 0.135722 0.680099
Si Si7 0.035496 0.837215 0.640366
Si Si8 0.637747 0.581280 0.556838
O O1 0.750000 0.121852 0.144109
O O2 0.593443 0.129254 0.261253
O O3 0.601576 0.029982 0.106579
O O4 0.579533 0.163990 0.062851
O O5 0.032661 0.250000 0.954103
O O6 0.921848 0.348703 0.857018
O O7 0.076584 0.391941 0.960354
O O8 0.750000 0.941799 0.065688
O O9 0.861951 0.930320 0.236792
O O10 0.250000 0.921454 0.484689
O O11 0.376860 0.887929 0.332799
O O12 0.417551 0.866406 0.532047
O O13 0.406179 0.999841 0.444343
O O14 0.380223 0.750000 0.287561
O O15 0.548508 0.814480 0.293749
O O16 0.250000 0.175178 0.690304
O O17 0.128445 0.107211 0.562665
O O18 0.037737 0.750000 0.643103
O O19 0.923093 0.866905 0.637098
O O20 0.750000 0.583064 0.598053
#
# Coordination Sequence:
#
# PCOD8244847 Si02
#       8
#     8   8   8   8   8   8   8   8
#     4  11  24  42  64  88 119 163 212 252 296 359
#     4  10  22  39  61  88 121 159 198 248 308 363
#     4   9  19  37  63  95 121 153 202 255 305 357
#     4  11  23  38  58  86 120 158 199 244 298 356
#     4  10  21  35  55  86 117 151 190 240 303 357
#     4   9  17  32  57  86 120 153 191 240 297 359
#     4  12  25  39  62  92 123 161 203 254 304 351
#     4  10  22  39  60  87 119 163 204 242 300 362
#
# _framework density 20.30097
#
# number of rings (size 3 to 8) (size 9 to 14) (size 15 to 20)
#    0.000    1.750    1.250    2.625    3.500    5.750 
#    0.000    5.625    0.000    1.500    0.000    0.000 
#    0.000    0.000    0.000    0.000    0.000    0.000 
#
# Total GULP energy -793253.694785 kJ/mol
# GULP energy per Si atom -12394.588981 kJ/mol
# Density = 2.025476 g / cm^3
# Si number density = 20.300970 Si / 1000 Ang^3
#
#
#
# Elastic Constant Matrix: (Units=GPa)
#
#
# Indices 1 2 3 4 5 6 
#
# 1 85.1240 41.8745 28.2757 0.0000 0.0000 0.0000
# 2 41.8745 117.3987 20.9854 0.0000 0.0000 0.0000
# 3 28.2757 20.9854 74.7567 0.0000 0.0000 0.0000
# 4 0.0000 0.0000 0.0000 5.8964 0.0000 0.0000
# 5 0.0000 0.0000 0.0000 0.0000 27.3988 0.0000
# 6 0.0000 0.0000 0.0000 0.0000 0.0000 -5.1020
#
#
#
# Elastic Compliance Matrix: (Units=1/GPa)
#
#
# Indices 1 2 3 4 5 6 
#
# 1 0.015601 -0.004748 -0.004568 0.000000 0.000000 0.000000
# 2 -0.004748 0.010413 -0.001127 0.000000 0.000000 0.000000
# 3 -0.004568 -0.001127 0.015421 0.000000 0.000000 0.000000
# 4 0.000000 0.000000 0.000000 0.169595 0.000000 0.000000
# 5 0.000000 0.000000 0.000000 0.000000 0.036498 0.000000
# 6 0.000000 0.000000 0.000000 0.000000 0.000000 -0.196002
#
#
# Mechanical properties :
#
#
# Convention : Reuss Voigt Hill
#
# Bulk Modulus (GPa) = 48.66586 51.06119 49.86353
# Shear Modulus (GPa) = 63.08284 18.04822 40.56553
#
# Velocity S-wave (km/s) = 5.58044 2.98490 4.47498
# Velocity P-wave (km/s) = 8.09604 6.08984 7.16352
#
# Compressibility (1/GPa) = 0.02054828
#
# Stress axis : x y z
#
# Youngs Moduli (GPa) = 64.10046 96.03362 64.84705
#
# Poissons Ratio (x) = 0.45597 0.29621
# Poissons Ratio (y) = 0.30435 0.07310
# Poissons Ratio (z) = 0.29280 0.10825
#
# Static dielectric constant tensor:
#      x y z
#    x 3.850600 0.000000 0.000000 
#    y 0.000000 3.708240 0.000000 
#    z 0.000000 0.000000 3.555440 
# 
# 
# High freq. dielectric constant tensor:
#      x y z
#    x 1.792270 0.000000 0.000000 
#    y 0.000000 1.799110 0.000000 
#    z 0.000000 0.000000 1.782490 
# 
# From -- ./inp_files/17260.got.cif
#   From: 2010.03.12/outbox.cif.g09.slc.cpg/sg59_9_cif.got.tgz:17260.got - 2010.04.16 16:29:54.
