data_PCOD8244768
_publ_section_title
;
Structure prediction by ZEFSAII (Michael W. Deem and Ramdas Pophale) SiO2 
 PCOD8244768
Probable space group: P M M N
;
_chemical_formula_sum "Si O2"
_cell_formula_units_Z 64
_cell_length_a 9.284668
_cell_length_b 14.464018
_cell_length_c 24.243756
_cell_angle_alpha 90.000000
_cell_angle_beta 90.000000
_cell_angle_gamma 90.000000
_cell_volume 3255.781394
_symmetry_space_group_name_H-M "P M M N"
_symmetry_group_IT_number 59
_space_group.IT_coordinate_system_code '2'
_symmetry_cell_setting 'orthorhombic'
loop_
_space_group_symop_operation_xyz
x,y,z
1/2-x,1/2-y,z
1/2+x,-y,-z
-x,1/2+y,-z
-x,-y,-z
1/2+x,1/2+y,-z
1/2-x,y,z
x,1/2-y,z
loop_
_atom_site_type_symbol
_atom_site_label
_atom_site_fract_x
_atom_site_fract_y
_atom_site_fract_z
Si Si1 0.579191 0.467549 0.742583
Si Si2 0.083896 0.853501 0.578992
Si Si3 0.419210 0.506268 0.057416
Si Si4 0.907821 0.352033 0.109442
Si Si5 0.583797 0.643070 0.470943
Si Si6 0.917012 0.963985 0.363523
Si Si7 0.579165 0.354515 0.849348
Si Si8 0.089573 0.852170 0.760577
O O1 0.750000 0.463282 0.738517
O O2 0.508758 0.424103 0.687677
O O3 0.521736 0.411109 0.796044
O O4 0.529079 0.573742 0.743461
O O5 0.250000 0.854021 0.562103
O O6 0.034247 0.750000 0.597067
O O7 0.000132 0.888966 0.525252
O O8 0.056700 0.925188 0.629075
O O9 0.250000 0.508130 0.046823
O O10 0.460505 0.415266 0.091031
O O11 0.468803 0.594888 0.093927
O O12 0.500000 0.500000 0.000000
O O13 0.750000 0.388644 0.088956
O O14 0.933714 0.250000 0.084355
O O15 0.906693 0.346296 0.174334
O O16 0.750000 0.621164 0.481855
O O17 0.555527 0.750000 0.458418
O O18 0.526963 0.586612 0.418356
O O19 0.750000 0.941128 0.352715
O O20 0.750000 0.352030 0.846262
O O21 0.516310 0.250000 0.849071
O O22 0.250000 0.880955 0.738887
O O23 0.049848 0.750000 0.737037
#
# Coordination Sequence:
#
# PCOD8244768 Si02
#       8
#     8   8   8   8   8   8   8   8
#     4  11  22  36  56  83 110 142 190 241 280 322
#     4   9  18  33  53  76 103 138 179 220 267 329
#     4  11  22  37  59  87 117 150 188 235 285 334
#     4   9  18  34  57  83 111 144 179 218 272 336
#     4   9  18  33  53  76 104 138 178 227 281 332
#     4  10  21  35  51  75 109 146 180 221 277 337
#     4   9  20  40  61  80 109 151 192 230 279 333
#     4   9  18  34  57  81 107 142 178 215 270 339
#
# _framework density 19.657339
#
# number of rings (size 3 to 8) (size 9 to 14) (size 15 to 20)
#    0.000    2.375    1.250    1.875    0.000    3.000 
#    0.000    3.750    0.000    5.250    0.000    0.000 
#    0.000    0.000    0.000    0.000    0.000    0.000 
#
# Total GULP energy -793361.957184 kJ/mol
# GULP energy per Si atom -12396.280581 kJ/mol
# Density = 1.961260 g / cm^3
# Si number density = 19.657339 Si / 1000 Ang^3
#
#
#
# Elastic Constant Matrix: (Units=GPa)
#
#
# Indices 1 2 3 4 5 6 
#
# 1 63.0112 29.4982 42.0402 0.0000 0.0000 0.0000
# 2 29.4982 84.7011 37.0265 0.0000 0.0000 0.0000
# 3 42.0402 37.0265 102.3040 0.0000 0.0000 0.0000
# 4 0.0000 0.0000 0.0000 17.0296 0.0000 0.0000
# 5 0.0000 0.0000 0.0000 0.0000 35.3679 0.0000
# 6 0.0000 0.0000 0.0000 0.0000 0.0000 26.7676
#
#
#
# Elastic Compliance Matrix: (Units=1/GPa)
#
#
# Indices 1 2 3 4 5 6 
#
# 1 0.023324 -0.004672 -0.007894 0.000000 0.000000 0.000000
# 2 -0.004672 0.014961 -0.003495 0.000000 0.000000 0.000000
# 3 -0.007894 -0.003495 0.014283 0.000000 0.000000 0.000000
# 4 0.000000 0.000000 0.000000 0.058721 0.000000 0.000000
# 5 0.000000 0.000000 0.000000 0.000000 0.028274 0.000000
# 6 0.000000 0.000000 0.000000 0.000000 0.000000 0.037359
#
#
# Mechanical properties :
#
#
# Convention : Reuss Voigt Hill
#
# Bulk Modulus (GPa) = 48.90660 51.90513 50.40587
# Shear Modulus (GPa) = 23.16320 25.26311 24.21316
#
# Velocity S-wave (km/s) = 3.43643 3.58882 3.51345
# Velocity P-wave (km/s) = 6.37801 6.60569 6.49285
#
# Compressibility (1/GPa) = 0.02044714
#
# Stress axis : x y z
#
# Youngs Moduli (GPa) = 42.87434 66.83991 70.01122
#
# Poissons Ratio (x) = 0.31229 0.55264
# Poissons Ratio (y) = 0.20032 0.24468
# Poissons Ratio (z) = 0.33843 0.23359
#
# Static dielectric constant tensor:
#      x y z
#    x 3.033050 0.000000 0.000000 
#    y 0.000000 6.911900 0.000000 
#    z 0.000000 0.000000 3.734180 
# 
# 
# High freq. dielectric constant tensor:
#      x y z
#    x 1.744420 0.000000 0.000000 
#    y 0.000000 1.768080 0.000000 
#    z 0.000000 0.000000 1.768270 
# 
# From -- ./inp_files/31676.got.cif
#   From: 2010.03.12/outbox.cif.g09.slc.cpg/sg59_16_cif.got.tgz:31676.got - 2010.04.16 16:29:54.
