data_PCOD8244620
_publ_section_title
;
Structure prediction by ZEFSAII (Michael W. Deem and Ramdas Pophale) SiO2 
 PCOD8244620
Probable space group: P M M N
;
_chemical_formula_sum "Si O2"
_cell_formula_units_Z 40
_cell_length_a 16.031909
_cell_length_b 9.405654
_cell_length_c 13.843967
_cell_angle_alpha 90.000000
_cell_angle_beta 90.000000
_cell_angle_gamma 90.000000
_cell_volume 2087.539938
_symmetry_space_group_name_H-M "P M M N"
_symmetry_group_IT_number 59
_space_group.IT_coordinate_system_code '2'
_symmetry_cell_setting 'orthorhombic'
loop_
_space_group_symop_operation_xyz
x,y,z
1/2-x,1/2-y,z
1/2+x,-y,-z
-x,1/2+y,-z
-x,-y,-z
1/2+x,1/2+y,-z
1/2-x,y,z
x,1/2-y,z
loop_
_atom_site_type_symbol
_atom_site_label
_atom_site_fract_x
_atom_site_fract_y
_atom_site_fract_z
Si Si1 0.250000 0.582504 0.959996
Si Si2 0.250000 0.919036 0.738769
Si Si3 0.924088 0.419394 0.948908
Si Si4 0.071298 0.586467 0.272492
Si Si5 0.345574 0.409000 0.428161
Si Si6 0.893796 0.914803 0.363918
O O1 0.250000 0.750000 0.969660
O O2 0.250000 0.532245 0.849771
O O3 0.335034 0.525851 0.009809
O O4 0.250000 0.750000 0.727559
O O5 0.331315 0.981512 0.689652
O O6 0.935989 0.250000 0.962659
O O7 0.926069 0.465668 0.837374
O O8 0.000000 0.500000 0.000000
O O9 0.095388 0.750000 0.278120
O O10 0.139759 0.506638 0.335820
O O11 0.982035 0.553268 0.317115
O O12 0.250000 0.420199 0.460171
O O13 0.369945 0.250000 0.397003
O O14 0.398316 0.454813 0.522642
O O15 0.866573 0.750000 0.350969
#
# Coordination Sequence:
#
# PCOD8244620 Si02
#       6
#     4   4   8   8   8   8
#     4   9  20  37  56  79 116 154 183 231 298 347
#     4  11  21  33  56  85 106 144 197 233 278 337
#     4  10  21  39  60  85 116 152 193 239 291 341
#     4  10  22  36  59  87 111 148 193 234 282 333
#     4  10  21  37  56  79 114 155 184 222 286 342
#     4  10  20  38  57  80 116 150 182 231 289 336
#
# _framework density 19.16131
#
# number of rings (size 3 to 8) (size 9 to 14) (size 15 to 20)
#    0.000    2.000    1.000    2.100    1.400    2.800 
#    0.000    1.500    0.000    0.000    0.000    0.000 
#    0.000    0.000    0.000    0.000    0.000    0.000 
#
# Total GULP energy -496052.787630 kJ/mol
# GULP energy per Si atom -12401.319691 kJ/mol
# Density = 1.911770 g / cm^3
# Si number density = 19.161310 Si / 1000 Ang^3
#
#
#
# Elastic Constant Matrix: (Units=GPa)
#
#
# Indices 1 2 3 4 5 6 
#
# 1 96.7602 34.8771 61.8921 0.0000 0.0000 0.0000
# 2 34.8771 50.9439 52.9345 0.0000 0.0000 0.0000
# 3 61.8921 52.9345 154.9159 0.0000 0.0000 0.0000
# 4 0.0000 0.0000 0.0000 30.5696 0.0000 0.0000
# 5 0.0000 0.0000 0.0000 0.0000 48.1331 0.0000
# 6 0.0000 0.0000 0.0000 0.0000 0.0000 42.3940
#
#
#
# Elastic Compliance Matrix: (Units=1/GPa)
#
#
# Indices 1 2 3 4 5 6 
#
# 1 0.015084 -0.006303 -0.003873 0.000000 0.000000 0.000000
# 2 -0.006303 0.033069 -0.008782 0.000000 0.000000 0.000000
# 3 -0.003873 -0.008782 0.011003 0.000000 0.000000 0.000000
# 4 0.000000 0.000000 0.000000 0.032712 0.000000 0.000000
# 5 0.000000 0.000000 0.000000 0.000000 0.020776 0.000000
# 6 0.000000 0.000000 0.000000 0.000000 0.000000 0.023588
#
#
# Mechanical properties :
#
#
# Convention : Reuss Voigt Hill
#
# Bulk Modulus (GPa) = 47.07655 66.89194 56.98425
# Shear Modulus (GPa) = 27.58978 34.41376 31.00177
#
# Velocity S-wave (km/s) = 3.79868 4.24252 4.02672
# Velocity P-wave (km/s) = 6.62283 7.68013 7.17099
#
# Compressibility (1/GPa) = 0.02124200
#
# Stress axis : x y z
#
# Youngs Moduli (GPa) = 66.29663 30.23970 90.88429
#
# Poissons Ratio (x) = 0.19059 0.35196
# Poissons Ratio (y) = 0.41784 0.79811
# Poissons Ratio (z) = 0.25675 0.26555
#
# Static dielectric constant tensor:
#      x y z
#    x 3.182760 0.000000 0.000000 
#    y 0.000000 3.362880 0.000000 
#    z 0.000000 0.000000 3.681770 
# 
# 
# High freq. dielectric constant tensor:
#      x y z
#    x 1.753190 0.000000 0.000000 
#    y 0.000000 1.729420 0.000000 
#    z 0.000000 0.000000 1.760430 
# 
# From -- ./inp_files/19957.got.cif
#   From: 2010.03.12/outbox.cif.g09.slc.cpg/sg59_10_cif.got.tgz:19957.got - 2010.04.16 16:29:54.
