data_PCOD8244803
_publ_section_title
;
Structure prediction by ZEFSAII (Michael W. Deem and Ramdas Pophale) SiO2 
 PCOD8244803
Probable space group: P M M N
;
_chemical_formula_sum "Si O2"
_cell_formula_units_Z 56
_cell_length_a 14.540360
_cell_length_b 14.344571
_cell_length_c 12.665788
_cell_angle_alpha 90.000000
_cell_angle_beta 90.000000
_cell_angle_gamma 90.000000
_cell_volume 2641.769599
_symmetry_space_group_name_H-M "P M M N"
_symmetry_group_IT_number 59
_space_group.IT_coordinate_system_code '2'
_symmetry_cell_setting 'orthorhombic'
loop_
_space_group_symop_operation_xyz
x,y,z
1/2-x,1/2-y,z
1/2+x,-y,-z
-x,1/2+y,-z
-x,-y,-z
1/2+x,1/2+y,-z
1/2-x,y,z
x,1/2-y,z
loop_
_atom_site_type_symbol
_atom_site_label
_atom_site_fract_x
_atom_site_fract_y
_atom_site_fract_z
Si Si1 0.357683 0.642608 0.265449
Si Si2 0.149958 0.859988 0.504962
Si Si3 0.643025 0.854721 0.412849
Si Si4 0.646287 0.854677 0.984677
Si Si5 0.541696 0.970022 0.818017
Si Si6 0.968139 0.639063 0.612032
Si Si7 0.646989 0.954851 0.197103
O O1 0.250000 0.627875 0.241294
O O2 0.385450 0.750000 0.242587
O O3 0.379807 0.613862 0.386159
O O4 0.418188 0.574849 0.191787
O O5 0.250000 0.905124 0.533975
O O6 0.160455 0.750000 0.508905
O O7 0.073710 0.892685 0.589276
O O8 0.750000 0.855685 0.437802
O O9 0.606539 0.750000 0.394954
O O10 0.592294 0.898678 0.514100
O O11 0.618443 0.911745 0.308958
O O12 0.750000 0.866645 0.941554
O O13 0.610967 0.750000 0.965672
O O14 0.580756 0.925656 0.924035
O O15 0.643805 0.874247 0.109396
O O16 0.570298 0.907827 0.717592
O O17 0.430721 0.968863 0.829559
O O18 0.958866 0.750000 0.624228
O O19 0.750000 0.999460 0.200352
#
# Coordination Sequence:
#
# PCOD8244803 Si02
#       7
#     8   8   8   8   8   8   8
#     4   9  19  35  54  79 112 149 189 232 280 337
#     4   8  15  30  50  71 103 151 198 231 264 322
#     4   9  18  34  56  82 114 152 195 243 290 335
#     4  10  22  42  66  88 112 146 191 243 297 352
#     4  12  23  36  58  89 120 152 188 234 291 356
#     4  10  21  35  52  81 120 154 186 228 283 345
#     4  10  22  39  59  84 114 152 200 248 287 330
#
# _framework density 21.197911999999999
#
# number of rings (size 3 to 8) (size 9 to 14) (size 15 to 20)
#    0.000    2.286    0.000    3.429    0.000    8.000 
#    0.000    4.286    0.000    1.286    0.000    2.000 
#    0.000    0.000    0.000    0.143    0.000    0.000 
#
# Total GULP energy -694387.191848 kJ/mol
# GULP energy per Si atom -12399.771283 kJ/mol
# Density = 2.114966 g / cm^3
# Si number density = 21.197912 Si / 1000 Ang^3
#
#
#
# Elastic Constant Matrix: (Units=GPa)
#
#
# Indices 1 2 3 4 5 6 
#
# 1 78.3253 29.2721 30.4508 0.0000 0.0000 0.0000
# 2 29.2721 71.7733 32.1767 0.0000 0.0000 0.0000
# 3 30.4508 32.1767 81.2480 0.0000 0.0000 0.0000
# 4 0.0000 0.0000 0.0000 28.9349 0.0000 0.0000
# 5 0.0000 0.0000 0.0000 0.0000 23.8571 0.0000
# 6 0.0000 0.0000 0.0000 0.0000 0.0000 24.7249
#
#
#
# Elastic Compliance Matrix: (Units=1/GPa)
#
#
# Indices 1 2 3 4 5 6 
#
# 1 0.016157 -0.004711 -0.004190 0.000000 0.000000 0.000000
# 2 -0.004711 0.018314 -0.005487 0.000000 0.000000 0.000000
# 3 -0.004190 -0.005487 0.016051 0.000000 0.000000 0.000000
# 4 0.000000 0.000000 0.000000 0.034560 0.000000 0.000000
# 5 0.000000 0.000000 0.000000 0.000000 0.041916 0.000000
# 6 0.000000 0.000000 0.000000 0.000000 0.000000 0.040445
#
#
# Mechanical properties :
#
#
# Convention : Reuss Voigt Hill
#
# Bulk Modulus (GPa) = 45.98508 46.12731 46.05620
# Shear Modulus (GPa) = 24.57383 24.79987 24.68685
#
# Velocity S-wave (km/s) = 3.40848 3.42412 3.41631
# Velocity P-wave (km/s) = 6.10169 6.11885 6.11028
#
# Compressibility (1/GPa) = 0.02174618
#
# Stress axis : x y z
#
# Youngs Moduli (GPa) = 61.89370 54.60260 62.30012
#
# Poissons Ratio (x) = 0.25724 0.26101
# Poissons Ratio (y) = 0.29159 0.34186
# Poissons Ratio (z) = 0.25931 0.29962
#
# Static dielectric constant tensor:
#      x y z
#    x 4.171610 0.000000 0.000000 
#    y 0.000000 3.588120 0.000000 
#    z 0.000000 0.000000 3.624540 
# 
# 
# High freq. dielectric constant tensor:
#      x y z
#    x 1.842160 0.000000 0.000000 
#    y 0.000000 1.816530 0.000000 
#    z 0.000000 0.000000 1.816070 
# 
# From -- ./inp_files/16912.got.cif
#   From: 2010.03.12/outbox.cif.g09.slc.cpg/sg59_9_cif.got.tgz:16912.got - 2010.04.16 16:29:54.
