data_PCOD8244437
_publ_section_title
;
Structure prediction by ZEFSAII (Michael W. Deem and Ramdas Pophale) SiO2 
 PCOD8244437
Probable space group: P M M N
;
_chemical_formula_sum "Si O2"
_cell_formula_units_Z 48
_cell_length_a 8.823785
_cell_length_b 28.093753
_cell_length_c 9.991513
_cell_angle_alpha 90.000000
_cell_angle_beta 90.000000
_cell_angle_gamma 90.000000
_cell_volume 2476.828493
_symmetry_space_group_name_H-M "P M M N"
_symmetry_group_IT_number 59
_space_group.IT_coordinate_system_code '2'
_symmetry_cell_setting 'orthorhombic'
loop_
_space_group_symop_operation_xyz
x,y,z
1/2-x,1/2-y,z
1/2+x,-y,-z
-x,1/2+y,-z
-x,-y,-z
1/2+x,1/2+y,-z
1/2-x,y,z
x,1/2-y,z
loop_
_atom_site_type_symbol
_atom_site_label
_atom_site_fract_x
_atom_site_fract_y
_atom_site_fract_z
Si Si1 0.929096 0.462437 0.898439
Si Si2 0.429925 0.038112 0.600472
Si Si3 0.928725 0.197152 0.748565
Si Si4 0.929295 0.804528 0.753278
Si Si5 0.573344 0.141533 0.004734
Si Si6 0.427685 0.357505 0.509475
O O1 0.750000 0.470800 0.882343
O O2 0.965339 0.412756 0.970664
O O3 0.001253 0.465483 0.750083
O O4 0.000000 0.500000 0.000000
O O5 0.250000 0.030975 0.612450
O O6 0.473590 0.087623 0.528728
O O7 0.500000 0.000000 0.500000
O O8 0.750000 0.195161 0.736587
O O9 0.992908 0.250000 0.753562
O O10 0.985480 0.171735 0.880813
O O11 0.997831 0.171763 0.624475
O O12 0.750000 0.801389 0.751799
O O13 0.995072 0.750000 0.758665
O O14 0.991080 0.833755 0.625738
O O15 0.979713 0.838048 0.873132
O O16 0.750000 0.148797 0.034579
O O17 0.250000 0.351295 0.517900
#
# Coordination Sequence:
#
# PCOD8244437 Si02
#       6
#     8   8   8   8   8   8
#     4  11  24  43  66  93 124 161 204 257 314 373
#     4  11  24  42  65  94 125 163 206 255 312 371
#     4  10  20  36  60  88 118 154 197 247 301 358
#     4  10  22  39  59  87 123 162 204 250 300 356
#     4  10  22  40  61  87 121 159 199 248 304 361
#     4  10  22  40  61  87 121 159 200 249 303 359
#
# _framework density 19.379621
#
# number of rings (size 3 to 8) (size 9 to 14) (size 15 to 20)
#    0.000    1.667    1.667    2.000    2.333    5.333 
#    0.000    0.000    0.000    0.000    0.000    0.000 
#    0.000    0.000    0.000    0.000    0.000    0.000 
#
# Total GULP energy -595056.013347 kJ/mol
# GULP energy per Si atom -12397.000278 kJ/mol
# Density = 1.933551 g / cm^3
# Si number density = 19.379621 Si / 1000 Ang^3
#
#
#
# Elastic Constant Matrix: (Units=GPa)
#
#
# Indices 1 2 3 4 5 6 
#
# 1 49.1114 54.4342 50.2060 0.0000 0.0000 0.0000
# 2 54.4342 180.7194 101.9361 0.0000 0.0000 0.0000
# 3 50.2060 101.9361 186.5043 0.0000 0.0000 0.0000
# 4 0.0000 0.0000 0.0000 45.8889 0.0000 0.0000
# 5 0.0000 0.0000 0.0000 0.0000 27.7822 0.0000
# 6 0.0000 0.0000 0.0000 0.0000 0.0000 28.8467
#
#
#
# Elastic Compliance Matrix: (Units=1/GPa)
#
#
# Indices 1 2 3 4 5 6 
#
# 1 0.033594 -0.007254 -0.005078 0.000000 0.000000 0.000000
# 2 -0.007254 0.009566 -0.003276 0.000000 0.000000 0.000000
# 3 -0.005078 -0.003276 0.008519 0.000000 0.000000 0.000000
# 4 0.000000 0.000000 0.000000 0.021792 0.000000 0.000000
# 5 0.000000 0.000000 0.000000 0.000000 0.035994 0.000000
# 6 0.000000 0.000000 0.000000 0.000000 0.000000 0.034666
#
#
# Mechanical properties :
#
#
# Convention : Reuss Voigt Hill
#
# Bulk Modulus (GPa) = 48.86952 92.16529 70.51741
# Shear Modulus (GPa) = 27.44703 34.48748 30.96726
#
# Velocity S-wave (km/s) = 3.76744 4.22308 4.00175
# Velocity P-wave (km/s) = 6.64804 8.45223 7.60384
#
# Compressibility (1/GPa) = 0.02046265
#
# Stress axis : x y z
#
# Youngs Moduli (GPa) = 29.76723 104.53507 117.38114
#
# Poissons Ratio (x) = 0.75833 0.59611
# Poissons Ratio (y) = 0.21594 0.38450
# Poissons Ratio (z) = 0.15117 0.34242
#
# Static dielectric constant tensor:
#      x y z
#    x 3.484810 0.000000 0.000000 
#    y 0.000000 3.954020 0.000000 
#    z 0.000000 0.000000 3.716770 
# 
# 
# High freq. dielectric constant tensor:
#      x y z
#    x 1.748980 0.000000 0.000000 
#    y 0.000000 1.776140 0.000000 
#    z 0.000000 0.000000 1.771610 
# 
# From -- ./inp_files/6288.got.cif
#   From: 2010.03.12/outbox.cif.g09.slc.cpg/sg59_4_cif.got.tgz:6288.got - 2010.04.16 16:29:54.
