data_PCOD8244639
_publ_section_title
;
Structure prediction by ZEFSAII (Michael W. Deem and Ramdas Pophale) SiO2 
 PCOD8244639
Probable space group: P M M N
;
_chemical_formula_sum "Si O2"
_cell_formula_units_Z 48
_cell_length_a 9.083447
_cell_length_b 9.720566
_cell_length_c 28.686656
_cell_angle_alpha 90.000000
_cell_angle_beta 90.000000
_cell_angle_gamma 90.000000
_cell_volume 2532.924037
_symmetry_space_group_name_H-M "P M M N"
_symmetry_group_IT_number 59
_space_group.IT_coordinate_system_code '2'
_symmetry_cell_setting 'orthorhombic'
loop_
_space_group_symop_operation_xyz
x,y,z
1/2-x,1/2-y,z
1/2+x,-y,-z
-x,1/2+y,-z
-x,-y,-z
1/2+x,1/2+y,-z
1/2-x,y,z
x,1/2-y,z
loop_
_atom_site_type_symbol
_atom_site_label
_atom_site_fract_x
_atom_site_fract_y
_atom_site_fract_z
Si Si1 0.925159 0.750000 0.038513
Si Si2 0.577811 0.750000 0.934080
Si Si3 0.421385 0.908702 0.357555
Si Si4 0.422705 0.537520 0.102523
Si Si5 0.921463 0.403708 0.536260
Si Si6 0.579132 0.405601 0.792437
Si Si7 0.575699 0.409539 0.281672
O O1 0.750000 0.750000 0.040166
O O2 0.985251 0.883908 0.063916
O O3 0.990500 0.750000 0.985988
O O4 0.750000 0.750000 0.942062
O O5 0.529974 0.620201 0.903399
O O6 0.250000 0.926674 0.345174
O O7 0.467616 0.750000 0.348394
O O8 0.453109 0.950433 0.410892
O O9 0.515175 0.013173 0.326966
O O10 0.250000 0.563736 0.093892
O O11 0.468360 0.586576 0.153786
O O12 0.750000 0.408889 0.525837
O O13 0.982077 0.250000 0.528931
O O14 0.000000 0.500000 0.500000
O O15 0.750000 0.444377 0.786486
O O16 0.549634 0.250000 0.774322
O O17 0.484738 0.515492 0.764159
O O18 0.750000 0.420806 0.281718
O O19 0.524900 0.250000 0.282026
#
# Coordination Sequence:
#
# PCOD8244639 Si02
#       7
#     4   4   8   8   8   8   8
#     4  11  21  35  55  85 117 147 183 223 272 329
#     4   9  20  35  57  85 113 145 185 229 272 321
#     4   9  19  38  61  83 110 148 195 238 275 326
#     4  10  20  38  60  82 109 145 187 229 270 322
#     4   9  19  35  55  82 116 152 191 237 283 327
#     4  10  21  38  61  85 105 137 187 231 270 325
#     4  11  25  40  55  82 117 147 177 223 284 341
#
# _framework density 18.950430999999998
#
# number of rings (size 3 to 8) (size 9 to 14) (size 15 to 20)
#    0.000    2.167    0.833    2.750    1.167    6.333 
#    0.000    6.250    0.000    0.000    0.000    0.000 
#    0.000    0.000    0.000    0.000    0.000    0.000 
#
# Total GULP energy -595201.521615 kJ/mol
# GULP energy per Si atom -12400.031700 kJ/mol
# Density = 1.890730 g / cm^3
# Si number density = 18.950431 Si / 1000 Ang^3
#
#
#
# Elastic Constant Matrix: (Units=GPa)
#
#
# Indices 1 2 3 4 5 6 
#
# 1 58.2799 46.1981 40.3128 0.0000 0.0000 0.0000
# 2 46.1981 133.3256 53.5490 0.0000 0.0000 0.0000
# 3 40.3128 53.5490 101.8231 0.0000 0.0000 0.0000
# 4 0.0000 0.0000 0.0000 38.6739 0.0000 0.0000
# 5 0.0000 0.0000 0.0000 0.0000 33.2424 0.0000
# 6 0.0000 0.0000 0.0000 0.0000 0.0000 33.9331
#
#
#
# Elastic Compliance Matrix: (Units=1/GPa)
#
#
# Indices 1 2 3 4 5 6 
#
# 1 0.027489 -0.006534 -0.007447 0.000000 0.000000 0.000000
# 2 -0.006534 0.011062 -0.003231 0.000000 0.000000 0.000000
# 3 -0.007447 -0.003231 0.014468 0.000000 0.000000 0.000000
# 4 0.000000 0.000000 0.000000 0.025857 0.000000 0.000000
# 5 0.000000 0.000000 0.000000 0.000000 0.030082 0.000000
# 6 0.000000 0.000000 0.000000 0.000000 0.000000 0.029470
#
#
# Mechanical properties :
#
#
# Convention : Reuss Voigt Hill
#
# Bulk Modulus (GPa) = 53.77461 63.72759 58.75110
# Shear Modulus (GPa) = 27.92501 31.39447 29.65974
#
# Velocity S-wave (km/s) = 3.84289 4.07463 3.96045
# Velocity P-wave (km/s) = 6.93747 7.47251 7.20995
#
# Compressibility (1/GPa) = 0.01859614
#
# Stress axis : x y z
#
# Youngs Moduli (GPa) = 36.37781 90.39855 69.11671
#
# Poissons Ratio (x) = 0.59068 0.51471
# Poissons Ratio (y) = 0.23770 0.22329
# Poissons Ratio (z) = 0.27090 0.29205
#
# Static dielectric constant tensor:
#      x y z
#    x 3.273680 0.000000 0.000000 
#    y 0.000000 3.509590 0.000000 
#    z 0.000000 0.000000 3.482080 
# 
# 
# High freq. dielectric constant tensor:
#      x y z
#    x 1.718680 0.000000 0.000000 
#    y 0.000000 1.746650 0.000000 
#    z 0.000000 0.000000 1.748230 
# 
# From -- ./inp_files/32997.got.cif
#   From: 2010.03.12/outbox.cif.g09.slc.cpg/sg59_17_cif.got.tgz:32997.got - 2010.04.16 16:29:54.
