data_PCOD8244868
_publ_section_title
;
Structure prediction by ZEFSAII (Michael W. Deem and Ramdas Pophale) SiO2 
 PCOD8244868
Probable space group: P M M N
;
_chemical_formula_sum "Si O2"
_cell_formula_units_Z 48
_cell_length_a 13.810560
_cell_length_b 9.274726
_cell_length_c 20.575748
_cell_angle_alpha 90.000000
_cell_angle_beta 90.000000
_cell_angle_gamma 90.000000
_cell_volume 2635.530276
_symmetry_space_group_name_H-M "P M M N"
_symmetry_group_IT_number 59
_space_group.IT_coordinate_system_code '2'
_symmetry_cell_setting 'orthorhombic'
loop_
_space_group_symop_operation_xyz
x,y,z
1/2-x,1/2-y,z
1/2+x,-y,-z
-x,1/2+y,-z
-x,-y,-z
1/2+x,1/2+y,-z
1/2-x,y,z
x,1/2-y,z
loop_
_atom_site_type_symbol
_atom_site_label
_atom_site_fract_x
_atom_site_fract_y
_atom_site_fract_z
Si Si1 0.468206 0.921043 0.659162
Si Si2 0.949807 0.581957 0.092056
Si Si3 0.356246 0.920882 0.533473
Si Si4 0.858167 0.417437 0.976729
Si Si5 0.637008 0.583288 0.228215
Si Si6 0.362231 0.917309 0.388480
O O1 0.473241 0.750000 0.666291
O O2 0.427985 0.974168 0.589368
O O3 0.398264 0.982213 0.714010
O O4 0.575470 0.989608 0.662963
O O5 0.930203 0.750000 0.081874
O O6 0.923423 0.535638 0.164875
O O7 0.062475 0.541262 0.078229
O O8 0.878868 0.501307 0.042936
O O9 0.250000 0.984073 0.549550
O O10 0.350220 0.750000 0.532486
O O11 0.387674 0.972459 0.461560
O O12 0.750000 0.456678 0.951396
O O13 0.865938 0.250000 0.993876
O O14 0.750000 0.555541 0.215370
O O15 0.617315 0.750000 0.245740
O O16 0.250000 0.944277 0.372808
O O17 0.388638 0.750000 0.379792
#
# Coordination Sequence:
#
# PCOD8244868 Si02
#       6
#     8   8   8   8   8   8
#     4  11  21  32  50  75 103 132 163 206 255 300
#     4   9  18  33  52  74 102 136 171 205 242 286
#     4   8  15  29  49  73  99 127 161 202 250 302
#     4   9  17  30  51  79 106 129 159 204 253 297
#     4  10  21  36  52  71  99 135 172 206 241 292
#     4   9  18  34  54  72  94 128 168 208 251 302
#
# _framework density 18.212653
#
# number of rings (size 3 to 8) (size 9 to 14) (size 15 to 20)
#    0.000    2.667    0.000    3.000    0.000    3.000 
#    0.000    1.667    0.000    5.000    0.000    0.000 
#    0.000    0.000    0.000    0.000    0.000    0.000 
#
# Total GULP energy -595062.416371 kJ/mol
# GULP energy per Si atom -12397.133674 kJ/mol
# Density = 1.817120 g / cm^3
# Si number density = 18.212653 Si / 1000 Ang^3
#
#
#
# Elastic Constant Matrix: (Units=GPa)
#
#
# Indices 1 2 3 4 5 6 
#
# 1 119.0039 44.2583 51.9274 0.0000 0.0000 0.0000
# 2 44.2583 54.6709 34.0427 0.0000 0.0000 0.0000
# 3 51.9274 34.0427 65.0980 0.0000 0.0000 0.0000
# 4 0.0000 0.0000 0.0000 28.6083 0.0000 0.0000
# 5 0.0000 0.0000 0.0000 0.0000 26.1476 0.0000
# 6 0.0000 0.0000 0.0000 0.0000 0.0000 26.0450
#
#
#
# Elastic Compliance Matrix: (Units=1/GPa)
#
#
# Indices 1 2 3 4 5 6 
#
# 1 0.014358 -0.006661 -0.007970 0.000000 0.000000 0.000000
# 2 -0.006661 0.030213 -0.010487 0.000000 0.000000 0.000000
# 3 -0.007970 -0.010487 0.027203 0.000000 0.000000 0.000000
# 4 0.000000 0.000000 0.000000 0.034955 0.000000 0.000000
# 5 0.000000 0.000000 0.000000 0.000000 0.038244 0.000000
# 6 0.000000 0.000000 0.000000 0.000000 0.000000 0.038395
#
#
# Mechanical properties :
#
#
# Convention : Reuss Voigt Hill
#
# Bulk Modulus (GPa) = 46.42652 55.46997 50.94824
# Shear Modulus (GPa) = 20.76560 23.39647 22.08103
#
# Velocity S-wave (km/s) = 3.38031 3.58806 3.48573
# Velocity P-wave (km/s) = 6.38608 6.90569 6.65096
#
# Compressibility (1/GPa) = 0.02153941
#
# Stress axis : x y z
#
# Youngs Moduli (GPa) = 69.64829 33.09808 36.76070
#
# Poissons Ratio (x) = 0.22045 0.29298
# Poissons Ratio (y) = 0.46389 0.38551
# Poissons Ratio (z) = 0.55509 0.34710
#
# Static dielectric constant tensor:
#      x y z
#    x 3.586420 0.000000 0.000000 
#    y 0.000000 3.142310 0.000000 
#    z 0.000000 0.000000 3.276920 
# 
# 
# High freq. dielectric constant tensor:
#      x y z
#    x 1.718850 0.000000 0.000000 
#    y 0.000000 1.689180 0.000000 
#    z 0.000000 0.000000 1.686900 
# 
# From -- ./inp_files/27377.got.cif
#   From: 2010.03.12/outbox.cif.g09.slc.cpg/sg59_14_cif.got.tgz:27377.got - 2010.04.16 16:29:54.
