data_PCOD8244268
_publ_section_title
;
Structure prediction by ZEFSAII (Michael W. Deem and Ramdas Pophale) SiO2 
 PCOD8244268
Probable space group: P M M N
;
_chemical_formula_sum "Si O2"
_cell_formula_units_Z 64
_cell_length_a 14.504913
_cell_length_b 22.738915
_cell_length_c 10.036266
_cell_angle_alpha 90.000000
_cell_angle_beta 90.000000
_cell_angle_gamma 90.000000
_cell_volume 3310.221307
_symmetry_space_group_name_H-M "P M M N"
_symmetry_group_IT_number 59
_space_group.IT_coordinate_system_code '2'
_symmetry_cell_setting 'orthorhombic'
loop_
_space_group_symop_operation_xyz
x,y,z
1/2-x,1/2-y,z
1/2+x,-y,-z
-x,1/2+y,-z
-x,-y,-z
1/2+x,1/2+y,-z
1/2-x,y,z
x,1/2-y,z
loop_
_atom_site_type_symbol
_atom_site_label
_atom_site_fract_x
_atom_site_fract_y
_atom_site_fract_z
Si Si1 0.498108 0.182317 0.672413
Si Si2 0.145156 0.444576 0.325324
Si Si3 0.147753 0.819478 0.117628
Si Si4 0.356914 0.083553 0.748087
Si Si5 0.985447 0.318106 0.110072
Si Si6 0.854890 0.904893 0.953842
Si Si7 0.643040 0.477231 0.439323
Si Si8 0.482248 0.866225 0.607947
O O1 0.473186 0.250000 0.704807
O O2 0.587441 0.161115 0.755258
O O3 0.411445 0.142537 0.711723
O O4 0.524159 0.176595 0.517686
O O5 0.250000 0.426734 0.357284
O O6 0.128687 0.452709 0.165747
O O7 0.121265 0.503956 0.407252
O O8 0.085827 0.390416 0.380291
O O9 0.250000 0.848357 0.126785
O O10 0.158272 0.750000 0.114380
O O11 0.097453 0.841578 0.983201
O O12 0.250000 0.096826 0.720269
O O13 0.391374 0.029496 0.657864
O O14 0.374337 0.065681 0.902769
O O15 0.003649 0.250000 0.084508
O O16 0.955484 0.329332 0.261711
O O17 0.079874 0.349492 0.069466
O O18 0.750000 0.881403 0.947627
O O19 0.750000 0.463752 0.416334
O O20 0.588013 0.419567 0.404703
#
# Coordination Sequence:
#
# PCOD8244268 Si02
#       8
#     8   8   8   8   8   8   8   8
#     4  11  22  36  57  85 117 150 192 238 286 343
#     4   9  18  34  55  80 112 148 184 228 281 336
#     4   9  19  37  57  75 105 148 188 233 287 335
#     4  10  20  36  58  86 120 151 185 234 292 349
#     4  10  20  36  56  84 115 151 193 236 287 343
#     4   9  18  33  56  86 117 149 185 230 284 345
#     4  10  21  38  59  81 111 153 196 239 289 345
#     4  11  22  36  58  83 115 152 195 238 284 337
#
# _framework density 19.334056
#
# number of rings (size 3 to 8) (size 9 to 14) (size 15 to 20)
#    0.000    2.125    2.500    0.750    0.000    1.500 
#    0.000    5.000    0.000    7.500    0.000    0.000 
#    0.000    0.000    0.000    0.000    0.000    0.000 
#
# Total GULP energy -793479.491611 kJ/mol
# GULP energy per Si atom -12398.117056 kJ/mol
# Density = 1.929005 g / cm^3
# Si number density = 19.334056 Si / 1000 Ang^3
#
#
#
# Elastic Constant Matrix: (Units=GPa)
#
#
# Indices 1 2 3 4 5 6 
#
# 1 77.9473 19.9015 35.1338 0.0000 0.0000 0.0000
# 2 19.9015 52.3007 18.9339 0.0000 0.0000 0.0000
# 3 35.1338 18.9339 136.2184 0.0000 0.0000 0.0000
# 4 0.0000 0.0000 0.0000 12.2784 0.0000 0.0000
# 5 0.0000 0.0000 0.0000 0.0000 24.4206 0.0000
# 6 0.0000 0.0000 0.0000 0.0000 0.0000 21.7703
#
#
#
# Elastic Compliance Matrix: (Units=1/GPa)
#
#
# Indices 1 2 3 4 5 6 
#
# 1 0.015541 -0.004699 -0.003355 0.000000 0.000000 0.000000
# 2 -0.004699 0.021554 -0.001784 0.000000 0.000000 0.000000
# 3 -0.003355 -0.001784 0.008455 0.000000 0.000000 0.000000
# 4 0.000000 0.000000 0.000000 0.081444 0.000000 0.000000
# 5 0.000000 0.000000 0.000000 0.000000 0.040949 0.000000
# 6 0.000000 0.000000 0.000000 0.000000 0.000000 0.045934
#
#
# Mechanical properties :
#
#
# Convention : Reuss Voigt Hill
#
# Bulk Modulus (GPa) = 38.64992 46.04497 42.34745
# Shear Modulus (GPa) = 20.64597 24.52701 22.58649
#
# Velocity S-wave (km/s) = 3.27135 3.56559 3.42164
# Velocity P-wave (km/s) = 5.85687 6.38893 6.12868
#
# Compressibility (1/GPa) = 0.02587328
#
# Stress axis : x y z
#
# Youngs Moduli (GPa) = 64.34466 46.39476 118.27997
#
# Poissons Ratio (x) = 0.21801 0.39686
# Poissons Ratio (y) = 0.30236 0.21101
# Poissons Ratio (z) = 0.21589 0.08277
#
# Static dielectric constant tensor:
#      x y z
#    x 3.678940 0.000000 0.000000 
#    y 0.000000 3.160930 0.000000 
#    z 0.000000 0.000000 4.064130 
# 
# 
# High freq. dielectric constant tensor:
#      x y z
#    x 1.758330 0.000000 0.000000 
#    y 0.000000 1.716710 0.000000 
#    z 0.000000 0.000000 1.775740 
# 
# From -- ./inp_files/9581.got.cif
#   From: 2010.03.12/outbox.cif.g09.slc.cpg/sg59_5_cif.got.tgz:9581.got - 2010.04.16 16:29:54.
