data_PCOD8244794
_publ_section_title
;
Structure prediction by ZEFSAII (Michael W. Deem and Ramdas Pophale) SiO2 
 PCOD8244794
Probable space group: P M M N
;
_chemical_formula_sum "Si O2"
_cell_formula_units_Z 40
_cell_length_a 9.081219
_cell_length_b 7.547060
_cell_length_c 29.089165
_cell_angle_alpha 90.000000
_cell_angle_beta 90.000000
_cell_angle_gamma 90.000000
_cell_volume 1993.669693
_symmetry_space_group_name_H-M "P M M N"
_symmetry_group_IT_number 59
_space_group.IT_coordinate_system_code '2'
_symmetry_cell_setting 'orthorhombic'
loop_
_space_group_symop_operation_xyz
x,y,z
1/2-x,1/2-y,z
1/2+x,-y,-z
-x,1/2+y,-z
-x,-y,-z
1/2+x,1/2+y,-z
1/2-x,y,z
x,1/2-y,z
loop_
_atom_site_type_symbol
_atom_site_label
_atom_site_fract_x
_atom_site_fract_y
_atom_site_fract_z
Si Si1 0.420270 0.049242 0.267148
Si Si2 0.412332 0.457753 0.545613
Si Si3 0.421173 0.250000 0.895345
Si Si4 0.581282 0.750000 0.213066
Si Si5 0.415427 0.539605 0.367282
Si Si6 0.577419 0.544433 0.952358
O O1 0.250000 0.990320 0.266553
O O2 0.440848 0.250000 0.250181
O O3 0.508225 0.926666 0.232480
O O4 0.481673 0.029385 0.319090
O O5 0.500000 0.500000 0.500000
O O6 0.250000 0.542165 0.541429
O O7 0.401566 0.250000 0.552440
O O8 0.491121 0.540205 0.590446
O O9 0.250000 0.250000 0.910901
O O10 0.437900 0.250000 0.841127
O O11 0.501049 0.426299 0.913441
O O12 0.750000 0.750000 0.228164
O O13 0.250000 0.467692 0.373556
O O14 0.418717 0.750000 0.367123
O O15 0.750000 0.497767 0.955846
O O16 0.554018 0.750000 0.939624
O O17 0.500000 0.500000 0.000000
#
# Coordination Sequence:
#
# PCOD8244794 Si02
#       6
#     8   8   4   4   8   8
#     4  10  21  39  65  93 120 156 204 255 309 372
#     4  10  21  35  52  77 110 147 187 233 286 346
#     4  11  25  43  63  91 127 173 217 259 314 369
#     4  11  25  43  63  89 129 169 207 261 316 367
#     4   9  17  33  56  81 111 148 190 238 297 359
#     4  11  23  39  64  96 129 167 212 262 315 371
#
# _framework density 20.063503999999998
#
# number of rings (size 3 to 8) (size 9 to 14) (size 15 to 20)
#    0.000    1.800    2.000    1.800    0.000    6.800 
#    0.000    6.000    0.000    0.000    0.000    0.000 
#    0.000    0.000    0.000    0.000    0.000    0.000 
#
# Total GULP energy -496060.384603 kJ/mol
# GULP energy per Si atom -12401.509615 kJ/mol
# Density = 2.001784 g / cm^3
# Si number density = 20.063504 Si / 1000 Ang^3
#
#
#
# Elastic Constant Matrix: (Units=GPa)
#
#
# Indices 1 2 3 4 5 6 
#
# 1 147.4635 56.0967 76.7458 0.0000 0.0000 0.0000
# 2 56.0967 97.9335 49.9676 0.0000 0.0000 0.0000
# 3 76.7458 49.9676 119.4861 0.0000 0.0000 0.0000
# 4 0.0000 0.0000 0.0000 25.4209 0.0000 0.0000
# 5 0.0000 0.0000 0.0000 0.0000 39.5480 0.0000
# 6 0.0000 0.0000 0.0000 0.0000 0.0000 23.0016
#
#
#
# Elastic Compliance Matrix: (Units=1/GPa)
#
#
# Indices 1 2 3 4 5 6 
#
# 1 0.011026 -0.003435 -0.005646 0.000000 0.000000 0.000000
# 2 -0.003435 0.014051 -0.003669 0.000000 0.000000 0.000000
# 3 -0.005646 -0.003669 0.013530 0.000000 0.000000 0.000000
# 4 0.000000 0.000000 0.000000 0.039338 0.000000 0.000000
# 5 0.000000 0.000000 0.000000 0.000000 0.025286 0.000000
# 6 0.000000 0.000000 0.000000 0.000000 0.000000 0.043475
#
#
# Mechanical properties :
#
#
# Convention : Reuss Voigt Hill
#
# Bulk Modulus (GPa) = 76.29854 81.16704 78.73279
# Shear Modulus (GPa) = 28.31648 29.73230 29.02439
#
# Velocity S-wave (km/s) = 3.76086 3.85373 3.80758
# Velocity P-wave (km/s) = 7.54784 7.76818 7.65880
#
# Compressibility (1/GPa) = 0.01310641
#
# Stress axis : x y z
#
# Youngs Moduli (GPa) = 90.69121 71.16902 73.91081
#
# Poissons Ratio (x) = 0.24450 0.41727
# Poissons Ratio (y) = 0.31157 0.27121
# Poissons Ratio (z) = 0.51201 0.26115
#
# Static dielectric constant tensor:
#      x y z
#    x 3.631470 0.000000 0.000000 
#    y 0.000000 4.372620 0.000000 
#    z 0.000000 0.000000 3.715270 
# 
# 
# High freq. dielectric constant tensor:
#      x y z
#    x 1.786610 0.000000 0.000000 
#    y 0.000000 1.787040 0.000000 
#    z 0.000000 0.000000 1.783820 
# 
# From -- ./inp_files/32408.got.cif
#   From: 2010.03.12/outbox.cif.g09.slc.cpg/sg59_17_cif.got.tgz:32408.got - 2010.04.16 16:29:54.
