data_PCOD8244402
_publ_section_title
;
Structure prediction by ZEFSAII (Michael W. Deem and Ramdas Pophale) SiO2 
 PCOD8244402
Probable space group: P M M N
;
_chemical_formula_sum "Si O2"
_cell_formula_units_Z 64
_cell_length_a 23.813768
_cell_length_b 8.947061
_cell_length_c 15.052780
_cell_angle_alpha 90.000000
_cell_angle_beta 90.000000
_cell_angle_gamma 90.000000
_cell_volume 3207.194002
_symmetry_space_group_name_H-M "P M M N"
_symmetry_group_IT_number 59
_space_group.IT_coordinate_system_code '2'
_symmetry_cell_setting 'orthorhombic'
loop_
_space_group_symop_operation_xyz
x,y,z
1/2-x,1/2-y,z
1/2+x,-y,-z
-x,1/2+y,-z
-x,-y,-z
1/2+x,1/2+y,-z
1/2-x,y,z
x,1/2-y,z
loop_
_atom_site_type_symbol
_atom_site_label
_atom_site_fract_x
_atom_site_fract_y
_atom_site_fract_z
Si Si1 0.314791 0.578559 0.466809
Si Si2 0.602558 0.077079 0.691059
Si Si3 0.524521 0.082009 0.128502
Si Si4 0.601607 0.923011 0.870494
Si Si5 0.012752 0.919039 0.665102
Si Si6 0.685102 0.422308 0.218531
Si Si7 0.621672 0.926132 0.376992
Si Si8 0.130411 0.422747 0.937680
O O1 0.250000 0.539700 0.450973
O O2 0.322752 0.750000 0.497650
O O3 0.346205 0.546876 0.374904
O O4 0.338205 0.472293 0.542949
O O5 0.587315 0.250000 0.699560
O O6 0.623034 0.018202 0.787088
O O7 0.547872 0.993905 0.653546
O O8 0.536844 0.250000 0.093838
O O9 0.461841 0.029865 0.103898
O O10 0.532836 0.076039 0.233814
O O11 0.566507 0.965160 0.084506
O O12 0.601335 0.750000 0.841094
O O13 0.640541 0.950855 0.956862
O O14 0.008294 0.750000 0.629645
O O15 0.059756 0.004853 0.607472
O O16 0.750000 0.443580 0.242296
O O17 0.666921 0.250000 0.226126
O O18 0.648071 0.518619 0.284971
O O19 0.673981 0.477732 0.118047
O O20 0.615937 0.750000 0.373064
O O21 0.139905 0.250000 0.914158
#
# Coordination Sequence:
#
# PCOD8244402 Si02
#       8
#     8   8   8   8   8   8   8   8
#     4  10  23  44  66  87 115 153 196 243 297 353
#     4  10  21  38  62  90 118 153 200 250 293 344
#     4   9  17  31  52  79 114 155 193 229 280 347
#     4   9  20  36  54  81 118 157 192 235 294 349
#     4  10  20  36  59  87 124 163 192 231 294 359
#     4  11  24  41  59  80 114 160 201 241 296 356
#     4  12  24  38  62  93 120 149 192 242 293 354
#     4  11  21  33  54  83 115 152 197 244 288 338
#
# _framework density 19.95514
#
# number of rings (size 3 to 8) (size 9 to 14) (size 15 to 20)
#    0.000    1.750    1.250    4.125    0.000    7.250 
#    0.000    0.625    0.000    2.250    0.000    0.000 
#    0.000    0.000    0.000    0.000    0.000    0.000 
#
# Total GULP energy -793801.855727 kJ/mol
# GULP energy per Si atom -12403.153996 kJ/mol
# Density = 1.990972 g / cm^3
# Si number density = 19.955140 Si / 1000 Ang^3
#
#
#
# Elastic Constant Matrix: (Units=GPa)
#
#
# Indices 1 2 3 4 5 6 
#
# 1 74.2593 54.7165 48.4125 0.0000 0.0000 0.0000
# 2 54.7165 131.2770 49.3900 0.0000 0.0000 0.0000
# 3 48.4125 49.3900 73.6327 0.0000 0.0000 0.0000
# 4 0.0000 0.0000 0.0000 33.5886 0.0000 0.0000
# 5 0.0000 0.0000 0.0000 0.0000 27.6837 0.0000
# 6 0.0000 0.0000 0.0000 0.0000 0.0000 26.6457
#
#
#
# Elastic Compliance Matrix: (Units=1/GPa)
#
#
# Indices 1 2 3 4 5 6 
#
# 1 0.026747 -0.006062 -0.013520 0.000000 0.000000 0.000000
# 2 -0.006062 0.011562 -0.003770 0.000000 0.000000 0.000000
# 3 -0.013520 -0.003770 0.024999 0.000000 0.000000 0.000000
# 4 0.000000 0.000000 0.000000 0.029772 0.000000 0.000000
# 5 0.000000 0.000000 0.000000 0.000000 0.036122 0.000000
# 6 0.000000 0.000000 0.000000 0.000000 0.000000 0.037530
#
#
# Mechanical properties :
#
#
# Convention : Reuss Voigt Hill
#
# Bulk Modulus (GPa) = 60.22300 64.91191 62.56746
# Shear Modulus (GPa) = 22.83417 26.02693 24.43055
#
# Velocity S-wave (km/s) = 3.38638 3.61539 3.50276
# Velocity P-wave (km/s) = 6.74795 7.07302 6.91240
#
# Compressibility (1/GPa) = 0.01660495
#
# Stress axis : x y z
#
# Youngs Moduli (GPa) = 37.38774 86.48707 40.00175
#
# Poissons Ratio (x) = 0.52425 0.54081
# Poissons Ratio (y) = 0.22663 0.15082
# Poissons Ratio (z) = 0.50547 0.32607
#
# Static dielectric constant tensor:
#      x y z
#    x 3.540430 0.000000 0.000000 
#    y 0.000000 3.653860 0.000000 
#    z 0.000000 0.000000 3.613470 
# 
# 
# High freq. dielectric constant tensor:
#      x y z
#    x 1.766080 0.000000 0.000000 
#    y 0.000000 1.783630 0.000000 
#    z 0.000000 0.000000 1.776390 
# 
# From -- ./inp_files/24797.got.cif
#   From: 2010.03.12/outbox.cif.g09.slc.cpg/sg59_13_cif.got.tgz:24797.got - 2010.04.16 16:29:54.
