data_PCOD8244040
_publ_section_title
;
Structure prediction by ZEFSAII (Michael W. Deem and Ramdas Pophale) SiO2 
 PCOD8244040
Probable space group: P M M N
;
_chemical_formula_sum "Si O2"
_cell_formula_units_Z 40
_cell_length_a 7.698615
_cell_length_b 9.285357
_cell_length_c 29.285039
_cell_angle_alpha 90.000000
_cell_angle_beta 90.000000
_cell_angle_gamma 90.000000
_cell_volume 2093.423110
_symmetry_space_group_name_H-M "P M M N"
_symmetry_group_IT_number 59
_space_group.IT_coordinate_system_code '2'
_symmetry_cell_setting 'orthorhombic'
loop_
_space_group_symop_operation_xyz
x,y,z
1/2-x,1/2-y,z
1/2+x,-y,-z
-x,1/2+y,-z
-x,-y,-z
1/2+x,1/2+y,-z
1/2-x,y,z
x,1/2-y,z
loop_
_atom_site_type_symbol
_atom_site_label
_atom_site_fract_x
_atom_site_fract_y
_atom_site_fract_z
Si Si1 0.250000 0.581643 0.113390
Si Si2 0.942915 0.079762 0.271696
Si Si3 0.750000 0.921723 0.791822
Si Si4 0.454247 0.589421 0.455589
Si Si5 0.456263 0.087455 0.370137
Si Si6 0.447547 0.082694 0.954848
O O1 0.250000 0.750000 0.125460
O O2 0.250000 0.489401 0.158711
O O3 0.422849 0.537675 0.085630
O O4 0.750000 0.035010 0.255438
O O5 0.966262 0.250000 0.274690
O O6 0.080874 0.019961 0.235215
O O7 0.977764 0.018910 0.322481
O O8 0.750000 0.750000 0.796576
O O9 0.500000 0.500000 0.500000
O O10 0.250000 0.599849 0.450192
O O11 0.534922 0.750000 0.459187
O O12 0.532167 0.509332 0.411192
O O13 0.250000 0.088368 0.369786
O O14 0.527201 0.250000 0.376846
O O15 0.250000 0.044958 0.940215
O O16 0.468803 0.250000 0.966133
O O17 0.500000 0.000000 0.000000
#
# Coordination Sequence:
#
# PCOD8244040 Si02
#       6
#     4   8   4   8   8   8
#     4  10  22  38  54  80 116 152 182 224 285 332
#     4   9  17  31  54  81 106 135 177 227 274 320
#     4  10  20  36  56  80 110 144 186 232 271 320
#     4  10  21  35  51  74 105 140 176 216 265 322
#     4   9  16  30  52  74  98 133 173 216 270 325
#     4  10  20  35  57  83 112 147 189 233 277 331
#
# _framework density 19.10746
#
# number of rings (size 3 to 8) (size 9 to 14) (size 15 to 20)
#    0.000    2.400    2.000    0.600    0.000    3.600 
#    0.000    3.000    0.000    1.200    0.000    0.000 
#    0.000    0.000    0.000    0.000    0.000    0.000 
#
# Total GULP energy -495947.221337 kJ/mol
# GULP energy per Si atom -12398.680533 kJ/mol
# Density = 1.906397 g / cm^3
# Si number density = 19.107460 Si / 1000 Ang^3
#
#
#
# Elastic Constant Matrix: (Units=GPa)
#
#
# Indices 1 2 3 4 5 6 
#
# 1 120.6752 34.6625 77.2155 0.0000 0.0000 0.0000
# 2 34.6625 76.0811 65.7993 0.0000 0.0000 0.0000
# 3 77.2155 65.7993 182.1587 0.0000 0.0000 0.0000
# 4 0.0000 0.0000 0.0000 35.9759 0.0000 0.0000
# 5 0.0000 0.0000 0.0000 0.0000 26.8762 0.0000
# 6 0.0000 0.0000 0.0000 0.0000 0.0000 15.7456
#
#
#
# Elastic Compliance Matrix: (Units=1/GPa)
#
#
# Indices 1 2 3 4 5 6 
#
# 1 0.011485 -0.001487 -0.004332 0.000000 0.000000 0.000000
# 2 -0.001487 0.019308 -0.006344 0.000000 0.000000 0.000000
# 3 -0.004332 -0.006344 0.009618 0.000000 0.000000 0.000000
# 4 0.000000 0.000000 0.000000 0.027796 0.000000 0.000000
# 5 0.000000 0.000000 0.000000 0.000000 0.037208 0.000000
# 6 0.000000 0.000000 0.000000 0.000000 0.000000 0.063510
#
#
# Mechanical properties :
#
#
# Convention : Reuss Voigt Hill
#
# Bulk Modulus (GPa) = 62.16559 81.58551 71.87555
# Shear Modulus (GPa) = 25.17477 29.13540 27.15508
#
# Velocity S-wave (km/s) = 3.63373 3.90913 3.77394
# Velocity P-wave (km/s) = 7.08595 7.94770 7.52916
#
# Compressibility (1/GPa) = 0.01608607
#
# Stress axis : x y z
#
# Youngs Moduli (GPa) = 87.06797 51.79190 103.97696
#
# Poissons Ratio (x) = 0.07699 0.45038
# Poissons Ratio (y) = 0.12943 0.65966
# Poissons Ratio (z) = 0.37714 0.32858
#
# Static dielectric constant tensor:
#      x y z
#    x 4.091090 0.000000 0.000000 
#    y 0.000000 3.394370 0.000000 
#    z 0.000000 0.000000 3.527440 
# 
# 
# High freq. dielectric constant tensor:
#      x y z
#    x 1.750460 0.000000 0.000000 
#    y 0.000000 1.714800 0.000000 
#    z 0.000000 0.000000 1.742850 
# 
# From -- ./inp_files/32389.got.cif
#   From: 2010.03.12/outbox.cif.g09.slc.cpg/sg59_17_cif.got.tgz:32389.got - 2010.04.16 16:29:54.
