data_PCOD8244804
_publ_section_title
;
Structure prediction by ZEFSAII (Michael W. Deem and Ramdas Pophale) SiO2 
 PCOD8244804
Probable space group: P M M N
;
_chemical_formula_sum "Si O2"
_cell_formula_units_Z 64
_cell_length_a 9.018618
_cell_length_b 31.368891
_cell_length_c 12.027247
_cell_angle_alpha 90.000000
_cell_angle_beta 90.000000
_cell_angle_gamma 90.000000
_cell_volume 3402.556827
_symmetry_space_group_name_H-M "P M M N"
_symmetry_group_IT_number 59
_space_group.IT_coordinate_system_code '2'
_symmetry_cell_setting 'orthorhombic'
loop_
_space_group_symop_operation_xyz
x,y,z
1/2-x,1/2-y,z
1/2+x,-y,-z
-x,1/2+y,-z
-x,-y,-z
1/2+x,1/2+y,-z
1/2-x,y,z
x,1/2-y,z
loop_
_atom_site_type_symbol
_atom_site_label
_atom_site_fract_x
_atom_site_fract_y
_atom_site_fract_z
Si Si1 0.917568 0.980672 0.104281
Si Si2 0.083761 0.563032 0.763445
Si Si3 0.579817 0.373370 0.621028
Si Si4 0.575256 0.045724 0.483378
Si Si5 0.074220 0.129340 0.088064
Si Si6 0.421039 0.894663 0.130538
Si Si7 0.926166 0.703132 0.754953
Si Si8 0.074891 0.298306 0.494148
O O1 0.750000 0.967965 0.069841
O O2 0.005173 0.940178 0.147249
O O3 0.917162 0.013417 0.205711
O O4 0.000000 0.000000 0.000000
O O5 0.250000 0.581842 0.778225
O O6 0.030994 0.565811 0.636069
O O7 0.971738 0.587019 0.845541
O O8 0.750000 0.369112 0.585018
O O9 0.520566 0.418876 0.573197
O O10 0.560378 0.370284 0.753474
O O11 0.494401 0.332623 0.575722
O O12 0.750000 0.037684 0.491694
O O13 0.500000 0.000000 0.500000
O O14 0.250000 0.130245 0.075138
O O15 0.011000 0.169454 0.156937
O O16 0.001735 0.131607 0.966600
O O17 0.250000 0.900914 0.097645
O O18 0.750000 0.702266 0.754923
O O19 0.983578 0.750000 0.789666
O O20 0.981864 0.691857 0.630969
O O21 0.250000 0.302859 0.501031
O O22 0.027828 0.250000 0.527855
#
# Coordination Sequence:
#
# PCOD8244804 Si02
#       8
#     8   8   8   8   8   8   8   8
#     4  11  21  34  53  77 105 143 183 223 270 319
#     4  10  21  35  53  77 108 138 169 220 276 318
#     4  10  22  38  56  79 111 151 189 228 278 331
#     4  10  21  37  55  79 109 144 184 227 276 330
#     4  11  21  33  55  82 104 136 180 220 265 322
#     4  11  23  38  53  73 108 149 185 228 270 312
#     4   8  16  33  56  83 112 136 164 212 272 327
#     4   9  18  35  61  89 113 139 176 224 277 335
#
# _framework density 18.809384999999999
#
# number of rings (size 3 to 8) (size 9 to 14) (size 15 to 20)
#    0.000    2.000    1.250    3.375    0.000    2.750 
#    0.000    1.250    0.000    5.250    0.000    0.000 
#    0.000    0.000    0.000    0.000    0.000    0.000 
#
# Total GULP energy -793561.625733 kJ/mol
# GULP energy per Si atom -12399.400402 kJ/mol
# Density = 1.876657 g / cm^3
# Si number density = 18.809385 Si / 1000 Ang^3
#
#
#
# Elastic Constant Matrix: (Units=GPa)
#
#
# Indices 1 2 3 4 5 6 
#
# 1 79.0662 46.1395 45.8260 0.0000 0.0000 0.0000
# 2 46.1395 126.3712 56.6638 0.0000 0.0000 0.0000
# 3 45.8260 56.6638 113.5821 0.0000 0.0000 0.0000
# 4 0.0000 0.0000 0.0000 33.7657 0.0000 0.0000
# 5 0.0000 0.0000 0.0000 0.0000 26.9297 0.0000
# 6 0.0000 0.0000 0.0000 0.0000 0.0000 28.1050
#
#
#
# Elastic Compliance Matrix: (Units=1/GPa)
#
#
# Indices 1 2 3 4 5 6 
#
# 1 0.018164 -0.004310 -0.005178 0.000000 0.000000 0.000000
# 2 -0.004310 0.011216 -0.003857 0.000000 0.000000 0.000000
# 3 -0.005178 -0.003857 0.012817 0.000000 0.000000 0.000000
# 4 0.000000 0.000000 0.000000 0.029616 0.000000 0.000000
# 5 0.000000 0.000000 0.000000 0.000000 0.037134 0.000000
# 6 0.000000 0.000000 0.000000 0.000000 0.000000 0.035581
#
#
# Mechanical properties :
#
#
# Convention : Reuss Voigt Hill
#
# Bulk Modulus (GPa) = 64.48366 68.47534 66.47950
# Shear Modulus (GPa) = 28.34678 29.11944 28.73311
#
# Velocity S-wave (km/s) = 3.88629 3.93890 3.91269
# Velocity P-wave (km/s) = 7.38206 7.56112 7.47213
#
# Compressibility (1/GPa) = 0.01550780
#
# Stress axis : x y z
#
# Youngs Moduli (GPa) = 55.05383 89.15791 78.01881
#
# Poissons Ratio (x) = 0.38427 0.40401
# Poissons Ratio (y) = 0.23728 0.30088
# Poissons Ratio (z) = 0.28509 0.34384
#
# Static dielectric constant tensor:
#      x y z
#    x 4.254000 0.000000 0.000000 
#    y 0.000000 3.545970 0.000000 
#    z 0.000000 0.000000 3.506200 
# 
# 
# High freq. dielectric constant tensor:
#      x y z
#    x 1.720510 0.000000 0.000000 
#    y 0.000000 1.726440 0.000000 
#    z 0.000000 0.000000 1.736490 
# 
# From -- ./inp_files/14981.got.cif
#   From: 2010.03.12/outbox.cif.g09.slc.cpg/sg59_8_cif.got.tgz:14981.got - 2010.04.16 16:29:54.
