data_PCOD8244770
_publ_section_title
;
Structure prediction by ZEFSAII (Michael W. Deem and Ramdas Pophale) SiO2 
 PCOD8244770
Probable space group: P M M N
;
_chemical_formula_sum "Si O2"
_cell_formula_units_Z 64
_cell_length_a 9.071367
_cell_length_b 23.188233
_cell_length_c 15.317841
_cell_angle_alpha 90.000000
_cell_angle_beta 90.000000
_cell_angle_gamma 90.000000
_cell_volume 3222.092102
_symmetry_space_group_name_H-M "P M M N"
_symmetry_group_IT_number 59
_space_group.IT_coordinate_system_code '2'
_symmetry_cell_setting 'orthorhombic'
loop_
_space_group_symop_operation_xyz
x,y,z
1/2-x,1/2-y,z
1/2+x,-y,-z
-x,1/2+y,-z
-x,-y,-z
1/2+x,1/2+y,-z
1/2-x,y,z
x,1/2-y,z
loop_
_atom_site_type_symbol
_atom_site_label
_atom_site_fract_x
_atom_site_fract_y
_atom_site_fract_z
Si Si1 0.423186 0.123462 0.347866
Si Si2 0.410337 0.684513 0.985887
Si Si3 0.077757 0.005895 0.265123
Si Si4 0.075580 0.182471 0.522868
Si Si5 0.417676 0.356039 0.856663
Si Si6 0.075817 0.621830 0.315147
Si Si7 0.083604 0.318459 0.176211
Si Si8 0.081378 0.487613 0.909408
O O1 0.250000 0.133938 0.351023
O O2 0.487805 0.149968 0.436971
O O3 0.488321 0.158711 0.265781
O O4 0.462309 0.055883 0.335048
O O5 0.250000 0.654697 0.001651
O O6 0.384838 0.750000 0.958894
O O7 0.492163 0.654292 0.904344
O O8 0.510605 0.684578 0.071275
O O9 0.250000 0.005834 0.242270
O O10 0.031147 0.945775 0.310413
O O11 0.994565 0.018407 0.173835
O O12 0.250000 0.174237 0.533950
O O13 0.034031 0.250000 0.518402
O O14 0.994697 0.151417 0.601643
O O15 0.250000 0.337085 0.839228
O O16 0.509913 0.346400 0.768951
O O17 0.428850 0.420054 0.892988
O O18 0.250000 0.630534 0.317225
O O19 0.250000 0.341954 0.165889
O O20 0.082187 0.250000 0.176724
O O21 0.250000 0.508747 0.916120
O O22 0.000000 0.500000 0.000000
#
# Coordination Sequence:
#
# PCOD8244770 Si02
#       8
#     8   8   8   8   8   8   8   8
#     4   9  18  34  58  84 111 144 186 234 279 330
#     4  10  21  35  51  76 111 147 182 225 281 338
#     4   9  19  36  56  81 113 149 189 231 280 335
#     4  10  21  38  61  87 112 144 188 234 282 338
#     4  10  21  37  57  79 105 142 187 232 274 324
#     4  10  21  38  58  81 113 148 183 230 288 341
#     4   9  17  31  52  77 107 144 185 229 275 330
#     4  10  21  35  53  79 111 147 187 231 275 324
#
# _framework density 19.862871999999999
#
# number of rings (size 3 to 8) (size 9 to 14) (size 15 to 20)
#    0.000    2.375    0.000    1.875    1.750    5.500 
#    0.000    1.250    0.000    1.500    0.000    0.000 
#    0.000    0.000    0.000    0.000    0.000    0.000 
#
# Total GULP energy -793474.508951 kJ/mol
# GULP energy per Si atom -12398.039202 kJ/mol
# Density = 1.981766 g / cm^3
# Si number density = 19.862872 Si / 1000 Ang^3
#
#
#
# Elastic Constant Matrix: (Units=GPa)
#
#
# Indices 1 2 3 4 5 6 
#
# 1 90.0387 42.1849 69.5534 0.0000 0.0000 0.0000
# 2 42.1849 62.1879 65.8682 0.0000 0.0000 0.0000
# 3 69.5534 65.8682 194.9420 0.0000 0.0000 0.0000
# 4 0.0000 0.0000 0.0000 35.0482 0.0000 0.0000
# 5 0.0000 0.0000 0.0000 0.0000 20.2058 0.0000
# 6 0.0000 0.0000 0.0000 0.0000 0.0000 19.7285
#
#
#
# Elastic Compliance Matrix: (Units=1/GPa)
#
#
# Indices 1 2 3 4 5 6 
#
# 1 0.017705 -0.008284 -0.003518 0.000000 0.000000 0.000000
# 2 -0.008284 0.028919 -0.006816 0.000000 0.000000 0.000000
# 3 -0.003518 -0.006816 0.008688 0.000000 0.000000 0.000000
# 4 0.000000 0.000000 0.000000 0.028532 0.000000 0.000000
# 5 0.000000 0.000000 0.000000 0.000000 0.049491 0.000000
# 6 0.000000 0.000000 0.000000 0.000000 0.000000 0.050688
#
#
# Mechanical properties :
#
#
# Convention : Reuss Voigt Hill
#
# Bulk Modulus (GPa) = 55.32057 78.04241 66.68149
# Shear Modulus (GPa) = 21.99900 26.30064 24.14982
#
# Velocity S-wave (km/s) = 3.33159 3.64278 3.49065
# Velocity P-wave (km/s) = 6.53537 7.55440 7.06329
#
# Compressibility (1/GPa) = 0.01807646
#
# Stress axis : x y z
#
# Youngs Moduli (GPa) = 56.48083 34.57982 115.10423
#
# Poissons Ratio (x) = 0.28646 0.40493
# Poissons Ratio (y) = 0.46789 0.78450
# Poissons Ratio (z) = 0.19870 0.23568
#
# Static dielectric constant tensor:
#      x y z
#    x 3.709660 0.000000 0.000000 
#    y 0.000000 3.568390 0.000000 
#    z 0.000000 0.000000 3.748240 
# 
# 
# High freq. dielectric constant tensor:
#      x y z
#    x 1.763300 0.000000 0.000000 
#    y 0.000000 1.770760 0.000000 
#    z 0.000000 0.000000 1.779560 
# 
# From -- ./inp_files/21590.got.cif
#   From: 2010.03.12/outbox.cif.g09.slc.cpg/sg59_11_cif.got.tgz:21590.got - 2010.04.16 16:29:54.
