data_PCOD8244641
_publ_section_title
;
Structure prediction by ZEFSAII (Michael W. Deem and Ramdas Pophale) SiO2 
 PCOD8244641
Probable space group: P M M N
;
_chemical_formula_sum "Si O2"
_cell_formula_units_Z 48
_cell_length_a 8.719244
_cell_length_b 16.887550
_cell_length_c 16.480121
_cell_angle_alpha 90.000000
_cell_angle_beta 90.000000
_cell_angle_gamma 90.000000
_cell_volume 2426.642922
_symmetry_space_group_name_H-M "P M M N"
_symmetry_group_IT_number 59
_space_group.IT_coordinate_system_code '2'
_symmetry_cell_setting 'orthorhombic'
loop_
_space_group_symop_operation_xyz
x,y,z
1/2-x,1/2-y,z
1/2+x,-y,-z
-x,1/2+y,-z
-x,-y,-z
1/2+x,1/2+y,-z
1/2-x,y,z
x,1/2-y,z
loop_
_atom_site_type_symbol
_atom_site_label
_atom_site_fract_x
_atom_site_fract_y
_atom_site_fract_z
Si Si1 0.931969 0.250000 0.481378
Si Si2 0.931186 0.556779 0.278989
Si Si3 0.931222 0.422791 0.546538
Si Si4 0.431535 0.605518 0.802227
Si Si5 0.579507 0.841168 0.129777
Si Si6 0.933400 0.250000 0.298975
Si Si7 0.069751 0.583889 0.981385
O O1 0.750000 0.250000 0.486678
O O2 0.991503 0.334457 0.519031
O O3 0.995388 0.250000 0.390041
O O4 0.750000 0.561030 0.298279
O O5 0.983134 0.474003 0.241488
O O6 0.984683 0.619809 0.211620
O O7 0.026665 0.571481 0.359594
O O8 0.750000 0.427233 0.532999
O O9 0.000000 0.500000 0.500000
O O10 0.250000 0.612032 0.804930
O O11 0.501814 0.675059 0.748218
O O12 0.495236 0.612114 0.894136
O O13 0.750000 0.875546 0.111697
O O14 0.585464 0.750000 0.149245
O O15 0.474558 0.854875 0.051500
O O16 0.750000 0.250000 0.299558
O O17 0.250000 0.575651 0.977360
O O18 0.000000 0.500000 0.000000
#
# Coordination Sequence:
#
# PCOD8244641 Si02
#       7
#     4   8   8   8   8   4   8
#     4   9  20  38  61  86 117 152 192 241 295 353
#     4  10  20  38  60  83 114 156 198 240 294 356
#     4  11  23  40  62  91 121 155 197 246 302 363
#     4   9  18  32  54  82 112 146 191 236 284 346
#     4  10  22  39  58  83 118 159 201 244 295 352
#     4   9  16  30  54  80 105 140 184 233 281 335
#     4  11  21  36  57  83 115 154 198 246 295 349
#
# _framework density 19.780412999999999
#
# number of rings (size 3 to 8) (size 9 to 14) (size 15 to 20)
#    0.000    2.000    1.667    2.000    2.333    3.667 
#    0.000    1.250    0.000    0.000    0.000    0.000 
#    0.000    0.000    0.000    0.000    0.000    0.000 
#
# Total GULP energy -594939.186528 kJ/mol
# GULP energy per Si atom -12394.566386 kJ/mol
# Density = 1.973539 g / cm^3
# Si number density = 19.780413 Si / 1000 Ang^3
#
#
#
# Elastic Constant Matrix: (Units=GPa)
#
#
# Indices 1 2 3 4 5 6 
#
# 1 38.2348 25.9758 29.3937 0.0000 0.0000 0.0000
# 2 25.9758 147.8621 81.8148 0.0000 0.0000 0.0000
# 3 29.3937 81.8148 188.2279 0.0000 0.0000 0.0000
# 4 0.0000 0.0000 0.0000 1.0301 0.0000 0.0000
# 5 0.0000 0.0000 0.0000 0.0000 32.2116 0.0000
# 6 0.0000 0.0000 0.0000 0.0000 0.0000 17.5196
#
#
#
# Elastic Compliance Matrix: (Units=1/GPa)
#
#
# Indices 1 2 3 4 5 6 
#
# 1 0.031159 -0.003662 -0.003274 0.000000 0.000000 0.000000
# 2 -0.003662 0.009335 -0.003486 0.000000 0.000000 0.000000
# 3 -0.003274 -0.003486 0.007339 0.000000 0.000000 0.000000
# 4 0.000000 0.000000 0.000000 0.970737 0.000000 0.000000
# 5 0.000000 0.000000 0.000000 0.000000 0.031045 0.000000
# 6 0.000000 0.000000 0.000000 0.000000 0.000000 0.057079
#
#
# Mechanical properties :
#
#
# Convention : Reuss Voigt Hill
#
# Bulk Modulus (GPa) = 37.05157 72.07704 54.56430
# Shear Modulus (GPa) = 4.39934 25.96164 15.18049
#
# Velocity S-wave (km/s) = 1.49296 3.62676 2.77330
# Velocity P-wave (km/s) = 4.66305 7.35225 6.15628
#
# Compressibility (1/GPa) = 0.02698941
#
# Stress axis : x y z
#
# Youngs Moduli (GPa) = 32.09322 107.12213 136.25754
#
# Poissons Ratio (x) = 0.39232 0.44610
# Poissons Ratio (y) = 0.11754 0.47495
# Poissons Ratio (z) = 0.10507 0.37339
#
# Static dielectric constant tensor:
#      x y z
#    x 1.348090 0.000000 0.000000 
#    y 0.000000 5.117090 0.000000 
#    z 0.000000 0.000000 4.007180 
# 
# 
# High freq. dielectric constant tensor:
#      x y z
#    x 1.729920 0.000000 0.000000 
#    y 0.000000 1.787750 0.000000 
#    z 0.000000 0.000000 1.789310 
# 
# From -- ./inp_files/20543.got.cif
#   From: 2010.03.12/outbox.cif.g09.slc.cpg/sg59_11_cif.got.tgz:20543.got - 2010.04.16 16:29:54.
