data_PCOD8244710
_publ_section_title
;
Structure prediction by ZEFSAII (Michael W. Deem and Ramdas Pophale) SiO2 
 PCOD8244710
Probable space group: P M M N
;
_chemical_formula_sum "Si O2"
_cell_formula_units_Z 64
_cell_length_a 9.065239
_cell_length_b 19.253414
_cell_length_c 21.300804
_cell_angle_alpha 90.000000
_cell_angle_beta 90.000000
_cell_angle_gamma 90.000000
_cell_volume 3717.774156
_symmetry_space_group_name_H-M "P M M N"
_symmetry_group_IT_number 59
_space_group.IT_coordinate_system_code '2'
_symmetry_cell_setting 'orthorhombic'
loop_
_space_group_symop_operation_xyz
x,y,z
1/2-x,1/2-y,z
1/2+x,-y,-z
-x,1/2+y,-z
-x,-y,-z
1/2+x,1/2+y,-z
1/2-x,y,z
x,1/2-y,z
loop_
_atom_site_type_symbol
_atom_site_label
_atom_site_fract_x
_atom_site_fract_y
_atom_site_fract_z
Si Si1 0.087273 0.396045 0.989036
Si Si2 0.082485 0.171309 0.623808
Si Si3 0.586870 0.464055 0.089330
Si Si4 0.424852 0.538572 0.558136
Si Si5 0.418738 0.542728 0.334907
Si Si6 0.924152 0.671457 0.134949
Si Si7 0.418373 0.328618 0.476359
Si Si8 0.580713 0.043558 0.808763
O O1 0.250000 0.373644 0.011823
O O2 0.984178 0.399951 0.050502
O O3 0.095256 0.470193 0.955690
O O4 0.025786 0.341473 0.937450
O O5 0.250000 0.155101 0.644897
O O6 0.040928 0.250000 0.641046
O O7 0.066696 0.158007 0.550078
O O8 0.968838 0.122672 0.660200
O O9 0.750000 0.441413 0.111027
O O10 0.491680 0.482343 0.150522
O O11 0.500000 0.500000 0.500000
O O12 0.250000 0.532058 0.551657
O O13 0.475673 0.504838 0.623220
O O14 0.473140 0.619110 0.559637
O O15 0.250000 0.536100 0.358010
O O16 0.434880 0.519694 0.263019
O O17 0.750000 0.657243 0.140320
O O18 0.965215 0.750000 0.154308
O O19 0.004340 0.618376 0.181559
O O20 0.250000 0.342135 0.455204
O O21 0.465349 0.250000 0.459490
O O22 0.750000 0.051287 0.829171
#
# Coordination Sequence:
#
# PCOD8244710 Si02
#       8
#     8   8   8   8   8   8   8   8
#     4   8  14  25  43  67  93 120 152 193 237 276
#     4   9  18  32  50  71  96 129 166 204 249 301
#     4   9  16  27  45  67  90 118 154 195 240 284
#     4  12  23  35  54  78 104 132 166 212 265 314
#     4  11  23  36  50  71  99 134 175 215 259 310
#     4   9  18  32  49  70  98 134 172 204 237 284
#     4   9  18  34  55  78 103 129 159 198 249 308
#     4  10  21  34  47  66  95 130 168 207 246 292
#
# _framework density 17.214600999999998
#
# number of rings (size 3 to 8) (size 9 to 14) (size 15 to 20)
#    0.000    2.375    1.250    3.750    0.000    6.250 
#    0.000    3.750    0.000    0.000    0.000    0.875 
#    0.000    3.000    0.000    0.000    0.000    0.000 
#
# Total GULP energy -793503.843365 kJ/mol
# GULP energy per Si atom -12398.497553 kJ/mol
# Density = 1.717542 g / cm^3
# Si number density = 17.214601 Si / 1000 Ang^3
#
#
#
# Elastic Constant Matrix: (Units=GPa)
#
#
# Indices 1 2 3 4 5 6 
#
# 1 112.9304 36.7366 48.3695 0.0000 0.0000 0.0000
# 2 36.7366 53.1641 29.3915 0.0000 0.0000 0.0000
# 3 48.3695 29.3915 73.5561 0.0000 0.0000 0.0000
# 4 0.0000 0.0000 0.0000 18.3134 0.0000 0.0000
# 5 0.0000 0.0000 0.0000 0.0000 26.5684 0.0000
# 6 0.0000 0.0000 0.0000 0.0000 0.0000 26.7336
#
#
#
# Elastic Compliance Matrix: (Units=1/GPa)
#
#
# Indices 1 2 3 4 5 6 
#
# 1 0.013549 -0.005695 -0.006634 0.000000 0.000000 0.000000
# 2 -0.005695 0.026537 -0.006859 0.000000 0.000000 0.000000
# 3 -0.006634 -0.006859 0.020698 0.000000 0.000000 0.000000
# 4 0.000000 0.000000 0.000000 0.054605 0.000000 0.000000
# 5 0.000000 0.000000 0.000000 0.000000 0.037639 0.000000
# 6 0.000000 0.000000 0.000000 0.000000 0.000000 0.037406
#
#
# Mechanical properties :
#
#
# Convention : Reuss Voigt Hill
#
# Bulk Modulus (GPa) = 44.62567 52.07173 48.34870
# Shear Modulus (GPa) = 21.16151 22.66662 21.91406
#
# Velocity S-wave (km/s) = 3.50991 3.63258 3.57177
# Velocity P-wave (km/s) = 6.51194 6.92160 6.71989
#
# Compressibility (1/GPa) = 0.02240863
#
# Stress axis : x y z
#
# Youngs Moduli (GPa) = 73.80606 37.68383 48.31352
#
# Poissons Ratio (x) = 0.21460 0.32052
# Poissons Ratio (y) = 0.42031 0.33137
# Poissons Ratio (z) = 0.48964 0.25846
#
# Static dielectric constant tensor:
#      x y z
#    x 3.360420 0.000000 0.000000 
#    y 0.000000 3.159130 0.000000 
#    z 0.000000 0.000000 3.042290 
# 
# 
# High freq. dielectric constant tensor:
#      x y z
#    x 1.671320 0.000000 0.000000 
#    y 0.000000 1.639620 0.000000 
#    z 0.000000 0.000000 1.643280 
# 
# From -- ./inp_files/29703.got.cif
#   From: 2010.03.12/outbox.cif.g09.slc.cpg/sg59_15_cif.got.tgz:29703.got - 2010.04.16 16:29:54.
