data_PCOD8244622
_publ_section_title
;
Structure prediction by ZEFSAII (Michael W. Deem and Ramdas Pophale) SiO2 
 PCOD8244622
Probable space group: P M M N
;
_chemical_formula_sum "Si O2"
_cell_formula_units_Z 40
_cell_length_a 9.224919
_cell_length_b 10.061330
_cell_length_c 23.740036
_cell_angle_alpha 90.000000
_cell_angle_beta 90.000000
_cell_angle_gamma 90.000000
_cell_volume 2203.430356
_symmetry_space_group_name_H-M "P M M N"
_symmetry_group_IT_number 59
_space_group.IT_coordinate_system_code '2'
_symmetry_cell_setting 'orthorhombic'
loop_
_space_group_symop_operation_xyz
x,y,z
1/2-x,1/2-y,z
1/2+x,-y,-z
-x,1/2+y,-z
-x,-y,-z
1/2+x,1/2+y,-z
1/2-x,y,z
x,1/2-y,z
loop_
_atom_site_type_symbol
_atom_site_label
_atom_site_fract_x
_atom_site_fract_y
_atom_site_fract_z
Si Si1 0.921431 0.529286 0.622271
Si Si2 0.920165 0.599535 0.169058
Si Si3 0.419154 0.098115 0.251270
Si Si4 0.579580 0.250000 0.575741
Si Si5 0.580350 0.599391 0.040756
Si Si6 0.423482 0.750000 0.551856
O O1 0.750000 0.552595 0.612591
O O2 0.967255 0.564549 0.685488
O O3 0.971725 0.379005 0.610110
O O4 0.011965 0.619613 0.580247
O O5 0.750000 0.581215 0.176799
O O6 0.965671 0.750000 0.185113
O O7 0.965673 0.569332 0.104881
O O8 0.999391 0.496468 0.208638
O O9 0.250000 0.072399 0.243720
O O10 0.460445 0.250000 0.237668
O O11 0.750000 0.250000 0.571419
O O12 0.519196 0.250000 0.512308
O O13 0.750000 0.577969 0.033117
O O14 0.537237 0.750000 0.024842
O O15 0.500000 0.500000 0.000000
O O16 0.250000 0.750000 0.556886
#
# Coordination Sequence:
#
# PCOD8244622 Si02
#       6
#     8   8   8   4   8   4
#     4  10  20  38  58  77 106 144 179 219 272 324
#     4   9  20  38  57  79 110 146 180 219 271 321
#     4  10  21  36  55  80 106 138 183 225 265 320
#     4   9  20  35  57  83 105 137 182 223 266 323
#     4   9  19  36  56  80 112 147 182 221 265 314
#     4  11  21  35  55  83 111 137 176 223 268 323
#
# _framework density 18.153511999999999
#
# number of rings (size 3 to 8) (size 9 to 14) (size 15 to 20)
#    0.000    2.400    1.000    2.100    1.400    3.600 
#    0.000    7.500    0.000    0.000    0.000    0.000 
#    0.000    0.000    0.000    0.000    0.000    0.000 
#
# Total GULP energy -496014.009237 kJ/mol
# GULP energy per Si atom -12400.350231 kJ/mol
# Density = 1.811219 g / cm^3
# Si number density = 18.153512 Si / 1000 Ang^3
#
#
#
# Elastic Constant Matrix: (Units=GPa)
#
#
# Indices 1 2 3 4 5 6 
#
# 1 43.4937 41.2050 41.1145 0.0000 0.0000 0.0000
# 2 41.2050 122.5326 63.0106 0.0000 0.0000 0.0000
# 3 41.1145 63.0106 106.2796 0.0000 0.0000 0.0000
# 4 0.0000 0.0000 0.0000 44.7258 0.0000 0.0000
# 5 0.0000 0.0000 0.0000 0.0000 32.5311 0.0000
# 6 0.0000 0.0000 0.0000 0.0000 0.0000 35.6353
#
#
#
# Elastic Compliance Matrix: (Units=1/GPa)
#
#
# Indices 1 2 3 4 5 6 
#
# 1 0.041215 -0.008143 -0.011116 0.000000 0.000000 0.000000
# 2 -0.008143 0.013350 -0.004764 0.000000 0.000000 0.000000
# 3 -0.011116 -0.004764 0.016534 0.000000 0.000000 0.000000
# 4 0.000000 0.000000 0.000000 0.022358 0.000000 0.000000
# 5 0.000000 0.000000 0.000000 0.000000 0.030740 0.000000
# 6 0.000000 0.000000 0.000000 0.000000 0.000000 0.028062
#
#
# Mechanical properties :
#
#
# Convention : Reuss Voigt Hill
#
# Bulk Modulus (GPa) = 43.38235 62.55181 52.96708
# Shear Modulus (GPa) = 24.03968 31.04349 27.54159
#
# Velocity S-wave (km/s) = 3.64296 4.13977 3.89929
# Velocity P-wave (km/s) = 6.45324 7.57510 7.03656
#
# Compressibility (1/GPa) = 0.02305085
#
# Stress axis : x y z
#
# Youngs Moduli (GPa) = 24.26324 74.90916 60.48119
#
# Poissons Ratio (x) = 0.61001 0.67231
# Poissons Ratio (y) = 0.19758 0.28815
# Poissons Ratio (z) = 0.26971 0.35689
#
# Static dielectric constant tensor:
#      x y z
#    x 3.155350 0.000000 0.000000 
#    y 0.000000 3.334140 0.000000 
#    z 0.000000 0.000000 3.715010 
# 
# 
# High freq. dielectric constant tensor:
#      x y z
#    x 1.687430 0.000000 0.000000 
#    y 0.000000 1.718540 0.000000 
#    z 0.000000 0.000000 1.711140 
# 
# From -- ./inp_files/32410.got.cif
#   From: 2010.03.12/outbox.cif.g09.slc.cpg/sg59_17_cif.got.tgz:32410.got - 2010.04.16 16:29:54.
