data_PCOD8244884
_publ_section_title
;
Structure prediction by ZEFSAII (Michael W. Deem and Ramdas Pophale) SiO2 
 PCOD8244884
Probable space group: P M M N
;
_chemical_formula_sum "Si O2"
_cell_formula_units_Z 64
_cell_length_a 9.416488
_cell_length_b 14.787984
_cell_length_c 24.472622
_cell_angle_alpha 90.000000
_cell_angle_beta 90.000000
_cell_angle_gamma 90.000000
_cell_volume 3407.834000
_symmetry_space_group_name_H-M "P M M N"
_symmetry_group_IT_number 59
_space_group.IT_coordinate_system_code '2'
_symmetry_cell_setting 'orthorhombic'
loop_
_space_group_symop_operation_xyz
x,y,z
1/2-x,1/2-y,z
1/2+x,-y,-z
-x,1/2+y,-z
-x,-y,-z
1/2+x,1/2+y,-z
1/2-x,y,z
x,1/2-y,z
loop_
_atom_site_type_symbol
_atom_site_label
_atom_site_fract_x
_atom_site_fract_y
_atom_site_fract_z
Si Si1 0.908897 0.857395 0.435161
Si Si2 0.915188 0.646807 0.054813
Si Si3 0.084955 0.852915 0.656898
Si Si4 0.417810 0.491718 0.739897
Si Si5 0.084082 0.853601 0.948219
Si Si6 0.582672 0.003102 0.137679
Si Si7 0.085081 0.856791 0.332468
Si Si8 0.590184 0.857208 0.555421
O O1 0.750000 0.892901 0.420747
O O2 0.905760 0.750000 0.436468
O O3 0.956335 0.893179 0.495265
O O4 0.020482 0.891423 0.390106
O O5 0.750000 0.631892 0.041495
O O6 0.950131 0.750000 0.069572
O O7 0.963699 0.588577 0.106950
O O8 0.002051 0.614268 0.002144
O O9 0.250000 0.854708 0.643872
O O10 0.034579 0.750000 0.669879
O O11 0.046313 0.915554 0.708272
O O12 0.010166 0.895312 0.603205
O O13 0.250000 0.470161 0.738273
O O14 0.478649 0.504462 0.801144
O O15 0.501453 0.406625 0.715626
O O16 0.250000 0.870757 0.958962
O O17 0.050639 0.750000 0.934386
O O18 0.026945 0.911153 0.896898
O O19 0.750000 0.009699 0.142487
O O20 0.250000 0.883176 0.331257
O O21 0.062433 0.750000 0.324512
O O22 0.750000 0.888644 0.568055
O O23 0.578613 0.750000 0.555618
#
# Coordination Sequence:
#
# PCOD8244884 Si02
#       8
#     8   8   8   8   8   8   8   8
#     4   8  14  27  49  75  99 125 161 203 248 302
#     4   9  17  30  49  73 100 128 159 197 240 286
#     4   9  18  32  50  73 101 131 164 207 256 299
#     4  10  21  36  53  73  98 133 177 214 244 290
#     4   9  17  30  50  76 103 129 158 195 241 290
#     4   9  18  32  50  72  97 128 167 205 238 278
#     4  10  21  36  53  74 101 131 163 206 259 305
#     4   8  14  26  47  74 100 127 161 201 248 303
#
# _framework density 18.780258
#
# number of rings (size 3 to 8) (size 9 to 14) (size 15 to 20)
#    0.000    3.000    0.000    1.500    0.000    2.750 
#    0.000    8.125    0.000    1.500    0.000    3.500 
#    0.000    0.000    0.000    0.000    0.000    0.000 
#
# Total GULP energy -793400.682620 kJ/mol
# GULP energy per Si atom -12396.885666 kJ/mol
# Density = 1.873751 g / cm^3
# Si number density = 18.780258 Si / 1000 Ang^3
#
#
#
# Elastic Constant Matrix: (Units=GPa)
#
#
# Indices 1 2 3 4 5 6 
#
# 1 60.7803 33.6389 60.2128 0.0000 0.0000 0.0000
# 2 33.6389 70.7324 63.7263 0.0000 0.0000 0.0000
# 3 60.2128 63.7263 186.1528 0.0000 0.0000 0.0000
# 4 0.0000 0.0000 0.0000 19.3897 0.0000 0.0000
# 5 0.0000 0.0000 0.0000 0.0000 26.4980 0.0000
# 6 0.0000 0.0000 0.0000 0.0000 0.0000 18.8132
#
#
#
# Elastic Compliance Matrix: (Units=1/GPa)
#
#
# Indices 1 2 3 4 5 6 
#
# 1 0.026430 -0.007038 -0.006140 0.000000 0.000000 0.000000
# 2 -0.007038 0.022317 -0.005363 0.000000 0.000000 0.000000
# 3 -0.006140 -0.005363 0.009194 0.000000 0.000000 0.000000
# 4 0.000000 0.000000 0.000000 0.051574 0.000000 0.000000
# 5 0.000000 0.000000 0.000000 0.000000 0.037739 0.000000
# 6 0.000000 0.000000 0.000000 0.000000 0.000000 0.053154
#
#
# Mechanical properties :
#
#
# Convention : Reuss Voigt Hill
#
# Bulk Modulus (GPa) = 47.94110 70.31352 59.12731
# Shear Modulus (GPa) = 20.45465 23.61271 22.03368
#
# Velocity S-wave (km/s) = 3.30382 3.54971 3.42897
# Velocity P-wave (km/s) = 6.33533 7.37035 6.87235
#
# Compressibility (1/GPa) = 0.02085893
#
# Stress axis : x y z
#
# Youngs Moduli (GPa) = 37.83522 44.80876 108.76745
#
# Poissons Ratio (x) = 0.31537 0.66780
# Poissons Ratio (y) = 0.26629 0.58335
# Poissons Ratio (z) = 0.23230 0.24032
#
# Static dielectric constant tensor:
#      x y z
#    x 3.327120 0.000000 0.000000 
#    y 0.000000 3.374490 0.000000 
#    z 0.000000 0.000000 3.775710 
# 
# 
# High freq. dielectric constant tensor:
#      x y z
#    x 1.707860 0.000000 0.000000 
#    y 0.000000 1.725000 0.000000 
#    z 0.000000 0.000000 1.728860 
# 
# From -- ./inp_files/31609.got.cif
#   From: 2010.03.12/outbox.cif.g09.slc.cpg/sg59_16_cif.got.tgz:31609.got - 2010.04.16 16:29:54.
