data_PCOD8244969
_publ_section_title
;
Structure prediction by ZEFSAII (Michael W. Deem and Ramdas Pophale) SiO2 
 PCOD8244969
Probable space group: P M M N
;
_chemical_formula_sum "Si O2"
_cell_formula_units_Z 64
_cell_length_a 18.902298
_cell_length_b 9.013563
_cell_length_c 20.469176
_cell_angle_alpha 90.000000
_cell_angle_beta 90.000000
_cell_angle_gamma 90.000000
_cell_volume 3487.477902
_symmetry_space_group_name_H-M "P M M N"
_symmetry_group_IT_number 59
_space_group.IT_coordinate_system_code '2'
_symmetry_cell_setting 'orthorhombic'
loop_
_space_group_symop_operation_xyz
x,y,z
1/2-x,1/2-y,z
1/2+x,-y,-z
-x,1/2+y,-z
-x,-y,-z
1/2+x,1/2+y,-z
1/2-x,y,z
x,1/2-y,z
loop_
_atom_site_type_symbol
_atom_site_label
_atom_site_fract_x
_atom_site_fract_y
_atom_site_fract_z
Si Si1 0.166153 0.419628 0.273785
Si Si2 0.671411 0.924980 0.080539
Si Si3 0.333838 0.582325 0.544150
Si Si4 0.928996 0.074238 0.829350
Si Si5 0.567310 0.925309 0.967490
Si Si6 0.169169 0.425195 0.671582
Si Si7 0.165907 0.583311 0.401129
Si Si8 0.414190 0.073955 0.796406
O O1 0.250000 0.437704 0.268087
O O2 0.142579 0.250000 0.263956
O O3 0.132360 0.523027 0.218986
O O4 0.138468 0.473349 0.344828
O O5 0.750000 0.994787 0.080610
O O6 0.676016 0.750000 0.090046
O O7 0.626562 0.992742 0.140724
O O8 0.634678 0.963672 0.012190
O O9 0.250000 0.570279 0.544421
O O10 0.358725 0.750000 0.556186
O O11 0.363854 0.483157 0.603276
O O12 0.361589 0.528507 0.472640
O O13 0.925378 0.250000 0.840129
O O14 0.004292 0.024357 0.799456
O O15 0.916348 0.993621 0.897564
O O16 0.554305 0.750000 0.962087
O O17 0.500000 0.000000 0.000000
O O18 0.250000 0.479620 0.681841
O O19 0.165762 0.250000 0.669677
O O20 0.121905 0.489581 0.730725
O O21 0.250000 0.585620 0.401981
O O22 0.137910 0.750000 0.386974
O O23 0.408384 0.250000 0.797090
#
# Coordination Sequence:
#
# PCOD8244969 Si02
#       8
#     8   8   8   8   8   8   8   8
#     4  10  21  36  54  79 108 135 169 217 268 317
#     4   9  17  31  54  81 105 132 171 217 261 307
#     4   8  14  25  42  67 101 137 170 206 255 313
#     4  11  22  37  57  79 104 139 178 216 261 316
#     4  11  21  36  57  81 107 140 179 219 266 318
#     4   9  16  26  45  73 102 132 170 216 258 299
#     4   8  14  27  48  72  99 134 172 210 257 312
#     4   9  17  31  50  75 103 134 174 214 256 308
#
# _framework density 18.351372000000001
#
# number of rings (size 3 to 8) (size 9 to 14) (size 15 to 20)
#    0.000    2.625    1.250    2.250    0.000    3.250 
#    0.000    5.000    0.000    1.875    0.000    0.000 
#    0.000    0.000    0.000    0.000    0.000    0.000 
#
# Total GULP energy -793351.765588 kJ/mol
# GULP energy per Si atom -12396.121337 kJ/mol
# Density = 1.830960 g / cm^3
# Si number density = 18.351372 Si / 1000 Ang^3
#
#
#
# Elastic Constant Matrix: (Units=GPa)
#
#
# Indices 1 2 3 4 5 6 
#
# 1 62.3189 27.5937 45.9592 0.0000 0.0000 0.0000
# 2 27.5937 56.1212 47.1514 0.0000 0.0000 0.0000
# 3 45.9592 47.1514 166.8295 0.0000 0.0000 0.0000
# 4 0.0000 0.0000 0.0000 34.6399 0.0000 0.0000
# 5 0.0000 0.0000 0.0000 0.0000 21.0673 0.0000
# 6 0.0000 0.0000 0.0000 0.0000 0.0000 17.4964
#
#
#
# Elastic Compliance Matrix: (Units=1/GPa)
#
#
# Indices 1 2 3 4 5 6 
#
# 1 0.022384 -0.007639 -0.004008 0.000000 0.000000 0.000000
# 2 -0.007639 0.025974 -0.005237 0.000000 0.000000 0.000000
# 3 -0.004008 -0.005237 0.008578 0.000000 0.000000 0.000000
# 4 0.000000 0.000000 0.000000 0.028868 0.000000 0.000000
# 5 0.000000 0.000000 0.000000 0.000000 0.047467 0.000000
# 6 0.000000 0.000000 0.000000 0.000000 0.000000 0.057155
#
#
# Mechanical properties :
#
#
# Convention : Reuss Voigt Hill
#
# Bulk Modulus (GPa) = 43.15850 58.51981 50.83916
# Shear Modulus (GPa) = 21.55943 25.61173 23.58558
#
# Velocity S-wave (km/s) = 3.43127 3.73987 3.58889
# Velocity P-wave (km/s) = 6.26635 7.11383 6.70349
#
# Compressibility (1/GPa) = 0.02317041
#
# Stress axis : x y z
#
# Youngs Moduli (GPa) = 44.67401 38.49965 116.57382
#
# Poissons Ratio (x) = 0.29410 0.46718
# Poissons Ratio (y) = 0.34126 0.61047
# Poissons Ratio (z) = 0.17903 0.20161
#
# Static dielectric constant tensor:
#      x y z
#    x 3.261930 0.000000 0.000000 
#    y 0.000000 3.252560 0.000000 
#    z 0.000000 0.000000 4.074140 
# 
# 
# High freq. dielectric constant tensor:
#      x y z
#    x 1.681450 0.000000 0.000000 
#    y 0.000000 1.686910 0.000000 
#    z 0.000000 0.000000 1.731510 
# 
# From -- ./inp_files/30723.got.cif
#   From: 2010.03.12/outbox.cif.g09.slc.cpg/sg59_16_cif.got.tgz:30723.got - 2010.04.16 16:29:54.
