data_PCOD8244636
_publ_section_title
;
Structure prediction by ZEFSAII (Michael W. Deem and Ramdas Pophale) SiO2 
 PCOD8244636
Probable space group: P M M N
;
_chemical_formula_sum "Si O2"
_cell_formula_units_Z 48
_cell_length_a 9.310610
_cell_length_b 9.584701
_cell_length_c 28.397269
_cell_angle_alpha 90.000000
_cell_angle_beta 90.000000
_cell_angle_gamma 90.000000
_cell_volume 2534.155616
_symmetry_space_group_name_H-M "P M M N"
_symmetry_group_IT_number 59
_space_group.IT_coordinate_system_code '2'
_symmetry_cell_setting 'orthorhombic'
loop_
_space_group_symop_operation_xyz
x,y,z
1/2-x,1/2-y,z
1/2+x,-y,-z
-x,1/2+y,-z
-x,-y,-z
1/2+x,1/2+y,-z
1/2-x,y,z
x,1/2-y,z
loop_
_atom_site_type_symbol
_atom_site_label
_atom_site_fract_x
_atom_site_fract_y
_atom_site_fract_z
Si Si1 0.916724 0.090435 0.870311
Si Si2 0.920701 0.750000 0.426382
Si Si3 0.584052 0.588093 0.222586
Si Si4 0.079942 0.250000 0.466992
Si Si5 0.588465 0.907580 0.707146
Si Si6 0.418624 0.412332 0.039207
Si Si7 0.084085 0.012812 0.398259
O O1 0.750000 0.078749 0.857590
O O2 0.955873 0.250000 0.885029
O O3 0.004630 0.041452 0.824913
O O4 0.959126 0.983619 0.911393
O O5 0.750000 0.750000 0.424531
O O6 0.979978 0.750000 0.480003
O O7 0.981416 0.619284 0.398410
O O8 0.750000 0.551713 0.216286
O O9 0.557706 0.750000 0.232703
O O10 0.523882 0.506247 0.267159
O O11 0.250000 0.250000 0.466143
O O12 0.026086 0.113195 0.439622
O O13 0.750000 0.957352 0.719447
O O14 0.564053 0.750000 0.724549
O O15 0.564258 0.910988 0.651337
O O16 0.250000 0.424252 0.029160
O O17 0.467578 0.250000 0.039419
O O18 0.500000 0.500000 0.000000
O O19 0.250000 0.969583 0.406413
#
# Coordination Sequence:
#
# PCOD8244636 Si02
#       7
#     8   4   8   4   8   8   8
#     4   9  18  35  57  80 110 150 194 236 275 324
#     4  11  23  35  53  85 117 145 175 221 278 329
#     4  10  22  38  57  84 117 149 179 222 281 340
#     4   9  18  37  61  81 109 143 183 229 272 321
#     4  10  21  38  60  82 104 139 187 233 275 323
#     4  10  21  36  56  84 117 153 193 238 285 331
#     4  10  20  38  60  81 106 143 187 228 269 324
#
# _framework density 18.941220999999999
#
# number of rings (size 3 to 8) (size 9 to 14) (size 15 to 20)
#    0.000    2.167    0.833    1.750    1.167    4.333 
#    0.000    4.583    0.000    0.000    0.000    0.000 
#    0.000    0.000    0.000    0.000    0.000    0.000 
#
# Total GULP energy -595311.956785 kJ/mol
# GULP energy per Si atom -12402.332433 kJ/mol
# Density = 1.889811 g / cm^3
# Si number density = 18.941221 Si / 1000 Ang^3
#
#
#
# Elastic Constant Matrix: (Units=GPa)
#
#
# Indices 1 2 3 4 5 6 
#
# 1 70.8690 40.8440 44.5951 0.0000 0.0000 0.0000
# 2 40.8440 100.5205 37.8833 0.0000 0.0000 0.0000
# 3 44.5951 37.8833 87.3919 0.0000 0.0000 0.0000
# 4 0.0000 0.0000 0.0000 38.1264 0.0000 0.0000
# 5 0.0000 0.0000 0.0000 0.0000 31.9332 0.0000
# 6 0.0000 0.0000 0.0000 0.0000 0.0000 16.5601
#
#
#
# Elastic Compliance Matrix: (Units=1/GPa)
#
#
# Indices 1 2 3 4 5 6 
#
# 1 0.023469 -0.006003 -0.009374 0.000000 0.000000 0.000000
# 2 -0.006003 0.013427 -0.002757 0.000000 0.000000 0.000000
# 3 -0.009374 -0.002757 0.017421 0.000000 0.000000 0.000000
# 4 0.000000 0.000000 0.000000 0.026229 0.000000 0.000000
# 5 0.000000 0.000000 0.000000 0.000000 0.031315 0.000000
# 6 0.000000 0.000000 0.000000 0.000000 0.000000 0.060386
#
#
# Mechanical properties :
#
#
# Convention : Reuss Voigt Hill
#
# Bulk Modulus (GPa) = 55.40480 56.15849 55.78164
# Shear Modulus (GPa) = 23.30674 26.35451 24.83063
#
# Velocity S-wave (km/s) = 3.51162 3.73417 3.62461
# Velocity P-wave (km/s) = 6.76435 6.95020 6.85790
#
# Compressibility (1/GPa) = 0.01804898
#
# Stress axis : x y z
#
# Youngs Moduli (GPa) = 42.60961 74.47957 57.40217
#
# Poissons Ratio (x) = 0.44713 0.53806
# Poissons Ratio (y) = 0.25580 0.15824
# Poissons Ratio (z) = 0.39940 0.20532
#
# Static dielectric constant tensor:
#      x y z
#    x 3.350890 0.000000 0.000000 
#    y 0.000000 3.533550 0.000000 
#    z 0.000000 0.000000 3.489890 
# 
# 
# High freq. dielectric constant tensor:
#      x y z
#    x 1.724090 0.000000 0.000000 
#    y 0.000000 1.742140 0.000000 
#    z 0.000000 0.000000 1.740520 
# 
# From -- ./inp_files/33007.got.cif
#   From: 2010.03.12/outbox.cif.g09.slc.cpg/sg59_17_cif.got.tgz:33007.got - 2010.04.16 16:29:54.
