data_PCOD8244446
_publ_section_title
;
Structure prediction by ZEFSAII (Michael W. Deem and Ramdas Pophale) SiO2 
 PCOD8244446
Probable space group: P M M N
;
_chemical_formula_sum "Si O2"
_cell_formula_units_Z 40
_cell_length_a 20.825074
_cell_length_b 17.512932
_cell_length_c 5.216168
_cell_angle_alpha 90.000000
_cell_angle_beta 90.000000
_cell_angle_gamma 90.000000
_cell_volume 1902.378746
_symmetry_space_group_name_H-M "P M M N"
_symmetry_group_IT_number 59
_space_group.IT_coordinate_system_code '2'
_symmetry_cell_setting 'orthorhombic'
loop_
_space_group_symop_operation_xyz
x,y,z
1/2-x,1/2-y,z
1/2+x,-y,-z
-x,1/2+y,-z
-x,-y,-z
1/2+x,1/2+y,-z
1/2-x,y,z
x,1/2-y,z
loop_
_atom_site_type_symbol
_atom_site_label
_atom_site_fract_x
_atom_site_fract_y
_atom_site_fract_z
Si Si1 0.869766 0.416104 0.591520
Si Si2 0.324235 0.082789 0.370120
Si Si3 0.873999 0.839528 0.133950
Si Si4 0.518285 0.164196 0.805157
Si Si5 0.859463 0.164209 0.086432
O O1 0.866146 0.506967 0.592803
O O2 0.837752 0.382915 0.334512
O O3 0.945173 0.390768 0.601413
O O4 0.831777 0.379139 0.834159
O O5 0.250000 0.061093 0.392238
O O6 0.342771 0.142250 0.591864
O O7 0.336861 0.117960 0.091885
O O8 0.868587 0.750000 0.082546
O O9 0.947928 0.867572 0.130443
O O10 0.513098 0.250000 0.688168
O O11 0.562397 0.166284 0.062237
O O12 0.831432 0.250000 0.101270
#
# Coordination Sequence:
#
# PCOD8244446 Si02
#       5
#     8   8   8   8   8
#     4  10  20  36  60  90 125 161 192 242 302 360
#     4  12  27  44  61  85 121 165 208 251 295 345
#     4  11  25  43  66  90 115 153 205 257 307 362
#     4   8  19  36  62  95 125 152 189 243 306 364
#     4   9  17  33  59  91 125 158 187 228 293 363
#
# _framework density 21.026306000000002
#
# number of rings (size 3 to 8) (size 9 to 14) (size 15 to 20)
#    1.200    0.800    0.000    3.600    2.800    4.000 
#    0.000    0.000    0.000    6.600    0.000    0.000 
#    0.000    0.000    0.000    0.000    0.000    0.000 
#
# Total GULP energy -495747.294258 kJ/mol
# GULP energy per Si atom -12393.682356 kJ/mol
# Density = 2.097845 g / cm^3
# Si number density = 21.026306 Si / 1000 Ang^3
#
#
#
# Elastic Constant Matrix: (Units=GPa)
#
#
# Indices 1 2 3 4 5 6 
#
# 1 76.0848 21.1481 7.4290 0.0000 0.0000 0.0000
# 2 21.1481 95.1566 28.6187 0.0000 0.0000 0.0000
# 3 7.4290 28.6187 127.4834 0.0000 0.0000 0.0000
# 4 0.0000 0.0000 0.0000 35.7688 0.0000 0.0000
# 5 0.0000 0.0000 0.0000 0.0000 4.4615 0.0000
# 6 0.0000 0.0000 0.0000 0.0000 0.0000 -14.6340
#
#
#
# Elastic Compliance Matrix: (Units=1/GPa)
#
#
# Indices 1 2 3 4 5 6 
#
# 1 0.014010 -0.003076 -0.000126 0.000000 0.000000 0.000000
# 2 -0.003076 0.011945 -0.002502 0.000000 0.000000 0.000000
# 3 -0.000126 -0.002502 0.008413 0.000000 0.000000 0.000000
# 4 0.000000 0.000000 0.000000 0.027957 0.000000 0.000000
# 5 0.000000 0.000000 0.000000 0.000000 0.224138 0.000000
# 6 0.000000 0.000000 0.000000 0.000000 0.000000 -0.068334
#
#
# Mechanical properties :
#
#
# Convention : Reuss Voigt Hill
#
# Bulk Modulus (GPa) = 43.55288 45.90182 44.72735
# Shear Modulus (GPa) = 21.07992 21.22120 21.15056
#
# Velocity S-wave (km/s) = 3.16974 3.18035 3.17505
# Velocity P-wave (km/s) = 5.84421 5.94678 5.89572
#
# Compressibility (1/GPa) = 0.02296060
#
# Stress axis : x y z
#
# Youngs Moduli (GPa) = 71.37515 83.71584 118.86017
#
# Poissons Ratio (x) = 0.25750 0.01497
# Poissons Ratio (y) = 0.21954 0.29743
# Poissons Ratio (z) = 0.00899 0.20948
#
# Static dielectric constant tensor:
#      x y z
#    x 3.512720 0.000000 0.000000 
#    y 0.000000 3.665890 0.000000 
#    z 0.000000 0.000000 3.660900 
# 
# 
# High freq. dielectric constant tensor:
#      x y z
#    x 1.799360 0.000000 0.000000 
#    y 0.000000 1.824840 0.000000 
#    z 0.000000 0.000000 1.823200 
# 
# From -- ./inp_files/3257.got.cif
#   From: 2010.03.12/outbox.cif.g09.slc.cpg/sg59_2_cif.got.tgz:3257.got - 2010.04.16 16:29:54.
