data_PCOD8244911
_publ_section_title
;
Structure prediction by ZEFSAII (Michael W. Deem and Ramdas Pophale) SiO2 
 PCOD8244911
Probable space group: P M M N
;
_chemical_formula_sum "Si O2"
_cell_formula_units_Z 64
_cell_length_a 9.268495
_cell_length_b 19.920944
_cell_length_c 18.566632
_cell_angle_alpha 90.000000
_cell_angle_beta 90.000000
_cell_angle_gamma 90.000000
_cell_volume 3428.090386
_symmetry_space_group_name_H-M "P M M N"
_symmetry_group_IT_number 59
_space_group.IT_coordinate_system_code '2'
_symmetry_cell_setting 'orthorhombic'
loop_
_space_group_symop_operation_xyz
x,y,z
1/2-x,1/2-y,z
1/2+x,-y,-z
-x,1/2+y,-z
-x,-y,-z
1/2+x,1/2+y,-z
1/2-x,y,z
x,1/2-y,z
loop_
_atom_site_type_symbol
_atom_site_label
_atom_site_fract_x
_atom_site_fract_y
_atom_site_fract_z
Si Si1 0.082006 0.055488 0.455223
Si Si2 0.582426 0.930676 0.707976
Si Si3 0.084459 0.173757 0.055876
Si Si4 0.918689 0.554483 0.046923
Si Si5 0.582817 0.825509 0.443570
Si Si6 0.081945 0.671785 0.802056
Si Si7 0.082470 0.826430 0.302716
Si Si8 0.416683 0.559189 0.194362
O O1 0.250000 0.038429 0.460069
O O2 0.029143 0.055086 0.372956
O O3 0.046122 0.128358 0.488265
O O4 0.000000 0.000000 0.500000
O O5 0.750000 0.910096 0.709163
O O6 0.490707 0.868722 0.737576
O O7 0.552579 0.996777 0.754040
O O8 0.250000 0.166868 0.081026
O O9 0.046743 0.250000 0.033555
O O10 0.987236 0.149144 0.122237
O O11 0.052675 0.127729 0.986993
O O12 0.750000 0.536938 0.048741
O O13 0.979900 0.553408 0.126726
O O14 0.000000 0.500000 0.000000
O O15 0.750000 0.828347 0.423688
O O16 0.533699 0.750000 0.463470
O O17 0.499576 0.852048 0.373424
O O18 0.250000 0.654735 0.805372
O O19 0.052565 0.750000 0.787843
O O20 0.250000 0.833879 0.320562
O O21 0.039808 0.750000 0.283175
O O22 0.040274 0.872671 0.235429
O O23 0.250000 0.560358 0.169347
#
# Coordination Sequence:
#
# PCOD8244911 Si02
#       8
#     8   8   8   8   8   8   8   8
#     4  10  21  36  55  79 106 138 177 220 265 312
#     4  10  21  36  54  76 104 142 182 216 256 312
#     4   9  19  37  58  78 103 137 174 210 253 310
#     4  11  23  37  55  79 106 137 174 216 262 311
#     4   9  18  33  53  78 107 137 172 216 262 308
#     4  10  21  36  55  81 109 135 169 216 265 310
#     4   9  18  34  56  80 107 141 177 212 256 310
#     4  10  21  36  53  76 107 139 175 218 259 305
#
# _framework density 18.669286
#
# number of rings (size 3 to 8) (size 9 to 14) (size 15 to 20)
#    0.000    2.250    0.000    2.250    0.000    8.750 
#    0.000    1.250    0.000    1.500    0.000    0.000 
#    0.000    0.000    0.000    0.000    0.000    0.000 
#
# Total GULP energy -793842.727775 kJ/mol
# GULP energy per Si atom -12403.792621 kJ/mol
# Density = 1.862679 g / cm^3
# Si number density = 18.669286 Si / 1000 Ang^3
#
#
#
# Elastic Constant Matrix: (Units=GPa)
#
#
# Indices 1 2 3 4 5 6 
#
# 1 82.0623 54.3747 74.0815 0.0000 0.0000 0.0000
# 2 54.3747 95.3881 73.9528 0.0000 0.0000 0.0000
# 3 74.0815 73.9528 161.6884 0.0000 0.0000 0.0000
# 4 0.0000 0.0000 0.0000 34.0956 0.0000 0.0000
# 5 0.0000 0.0000 0.0000 0.0000 34.9396 0.0000
# 6 0.0000 0.0000 0.0000 0.0000 0.0000 29.2418
#
#
#
# Elastic Compliance Matrix: (Units=1/GPa)
#
#
# Indices 1 2 3 4 5 6 
#
# 1 0.024213 -0.008059 -0.007408 0.000000 0.000000 0.000000
# 2 -0.008059 0.018926 -0.004964 0.000000 0.000000 0.000000
# 3 -0.007408 -0.004964 0.011849 0.000000 0.000000 0.000000
# 4 0.000000 0.000000 0.000000 0.029329 0.000000 0.000000
# 5 0.000000 0.000000 0.000000 0.000000 0.028621 0.000000
# 6 0.000000 0.000000 0.000000 0.000000 0.000000 0.034198
#
#
# Mechanical properties :
#
#
# Convention : Reuss Voigt Hill
#
# Bulk Modulus (GPa) = 70.78814 82.66186 76.72500
# Shear Modulus (GPa) = 25.94617 28.77071 27.35844
#
# Velocity S-wave (km/s) = 3.73202 3.92991 3.83224
# Velocity P-wave (km/s) = 7.52129 8.06010 7.79535
#
# Compressibility (1/GPa) = 0.01412666
#
# Stress axis : x y z
#
# Youngs Moduli (GPa) = 41.29948 52.83760 84.39474
#
# Poissons Ratio (x) = 0.42584 0.62518
# Poissons Ratio (y) = 0.33285 0.41891
# Poissons Ratio (z) = 0.30594 0.26227
#
# Static dielectric constant tensor:
#      x y z
#    x 3.436390 0.000000 0.000000 
#    y 0.000000 3.903750 0.000000 
#    z 0.000000 0.000000 3.438530 
# 
# 
# High freq. dielectric constant tensor:
#      x y z
#    x 1.722610 0.000000 0.000000 
#    y 0.000000 1.736460 0.000000 
#    z 0.000000 0.000000 1.723430 
# 
# From -- ./inp_files/26186.got.cif
#   From: 2010.03.12/outbox.cif.g09.slc.cpg/sg59_14_cif.got.tgz:26186.got - 2010.04.16 16:29:54.
