data_PCOD8244224
_publ_section_title
;
Structure prediction by ZEFSAII (Michael W. Deem and Ramdas Pophale) SiO2 
 PCOD8244224
Probable space group: P M M N
;
_chemical_formula_sum "Si O2"
_cell_formula_units_Z 48
_cell_length_a 8.942264
_cell_length_b 14.943893
_cell_length_c 18.896266
_cell_angle_alpha 90.000000
_cell_angle_beta 90.000000
_cell_angle_gamma 90.000000
_cell_volume 2525.150285
_symmetry_space_group_name_H-M "P M M N"
_symmetry_group_IT_number 59
_space_group.IT_coordinate_system_code '2'
_symmetry_cell_setting 'orthorhombic'
loop_
_space_group_symop_operation_xyz
x,y,z
1/2-x,1/2-y,z
1/2+x,-y,-z
-x,1/2+y,-z
-x,-y,-z
1/2+x,1/2+y,-z
1/2-x,y,z
x,1/2-y,z
loop_
_atom_site_type_symbol
_atom_site_label
_atom_site_fract_x
_atom_site_fract_y
_atom_site_fract_z
Si Si1 0.072993 0.904708 0.004821
Si Si2 0.572523 0.988658 0.752693
Si Si3 0.425779 0.996604 0.603964
Si Si4 0.425946 0.854498 0.485137
Si Si5 0.073000 0.652723 0.157403
Si Si6 0.582458 0.849121 0.868703
O O1 0.250000 0.911802 0.003792
O O2 0.020350 0.847279 0.938007
O O3 0.013369 0.861751 0.077761
O O4 0.000000 0.000000 0.000000
O O5 0.750000 0.987359 0.739556
O O6 0.519913 0.912807 0.807508
O O7 0.488457 0.971286 0.680114
O O8 0.512947 0.081345 0.786230
O O9 0.250000 0.011340 0.606629
O O10 0.497013 0.090946 0.578748
O O11 0.467594 0.910524 0.555654
O O12 0.250000 0.855407 0.471033
O O13 0.481358 0.750000 0.489882
O O14 0.250000 0.645053 0.154623
O O15 0.019609 0.750000 0.183801
O O16 0.750000 0.880824 0.890022
O O17 0.584315 0.750000 0.836471
#
# Coordination Sequence:
#
# PCOD8244224 Si02
#       6
#     8   8   8   8   8   8
#     4  11  20  34  56  79 105 139 185 237 286 333
#     4  10  20  36  54  76 110 150 185 218 267 332
#     4  10  21  36  56  86 117 142 177 229 272 312
#     4   9  19  38  62  84 109 146 184 216 262 326
#     4   9  18  33  53  75 100 136 183 228 270 324
#     4  10  21  37  55  78 109 145 187 234 280 327
#
# _framework density 19.008769000000001
#
# number of rings (size 3 to 8) (size 9 to 14) (size 15 to 20)
#    0.000    2.167    1.667    1.500    0.000    4.000 
#    0.000    1.667    0.000    2.000    0.000    0.000 
#    0.000    0.000    0.000    0.000    0.000    0.000 
#
# Total GULP energy -595048.582094 kJ/mol
# GULP energy per Si atom -12396.845460 kJ/mol
# Density = 1.896550 g / cm^3
# Si number density = 19.008769 Si / 1000 Ang^3
#
#
#
# Elastic Constant Matrix: (Units=GPa)
#
#
# Indices 1 2 3 4 5 6 
#
# 1 38.1067 17.9431 20.9888 0.0000 0.0000 0.0000
# 2 17.9431 122.6508 24.3867 0.0000 0.0000 0.0000
# 3 20.9888 24.3867 95.1381 0.0000 0.0000 0.0000
# 4 0.0000 0.0000 0.0000 9.8628 0.0000 0.0000
# 5 0.0000 0.0000 0.0000 0.0000 34.1409 0.0000
# 6 0.0000 0.0000 0.0000 0.0000 0.0000 20.7325
#
#
#
# Elastic Compliance Matrix: (Units=1/GPa)
#
#
# Indices 1 2 3 4 5 6 
#
# 1 0.031133 -0.003360 -0.006007 0.000000 0.000000 0.000000
# 2 -0.003360 0.008954 -0.001554 0.000000 0.000000 0.000000
# 3 -0.006007 -0.001554 0.012235 0.000000 0.000000 0.000000
# 4 0.000000 0.000000 0.000000 0.101391 0.000000 0.000000
# 5 0.000000 0.000000 0.000000 0.000000 0.029290 0.000000
# 6 0.000000 0.000000 0.000000 0.000000 0.000000 0.048233
#
#
# Mechanical properties :
#
#
# Convention : Reuss Voigt Hill
#
# Bulk Modulus (GPa) = 32.80928 42.50364 37.65646
# Shear Modulus (GPa) = 18.99423 25.78572 22.38997
#
# Velocity S-wave (km/s) = 3.16450 3.68709 3.43574
# Velocity P-wave (km/s) = 5.53621 6.36669 5.96592
#
# Compressibility (1/GPa) = 0.03047918
#
# Stress axis : x y z
#
# Youngs Moduli (GPa) = 32.12031 111.68507 81.73565
#
# Poissons Ratio (x) = 0.37528 0.49099
# Poissons Ratio (y) = 0.10793 0.12700
# Poissons Ratio (z) = 0.19295 0.17354
#
# Static dielectric constant tensor:
#      x y z
#    x 3.424250 0.000000 0.000000 
#    y 0.000000 3.662030 0.000000 
#    z 0.000000 0.000000 3.724440 
# 
# 
# High freq. dielectric constant tensor:
#      x y z
#    x 1.716460 0.000000 0.000000 
#    y 0.000000 1.753240 0.000000 
#    z 0.000000 0.000000 1.736070 
# 
# From -- ./inp_files/25420.got.cif
#   From: 2010.03.12/outbox.cif.g09.slc.cpg/sg59_13_cif.got.tgz:25420.got - 2010.04.16 16:29:54.
