data_PCOD8244413
_publ_section_title
;
Structure prediction by ZEFSAII (Michael W. Deem and Ramdas Pophale) SiO2 
 PCOD8244413
Probable space group: P M M N
;
_chemical_formula_sum "Si O2"
_cell_formula_units_Z 56
_cell_length_a 15.580231
_cell_length_b 21.252634
_cell_length_c 7.535863
_cell_angle_alpha 90.000000
_cell_angle_beta 90.000000
_cell_angle_gamma 90.000000
_cell_volume 2495.282094
_symmetry_space_group_name_H-M "P M M N"
_symmetry_group_IT_number 59
_space_group.IT_coordinate_system_code '2'
_symmetry_cell_setting 'orthorhombic'
loop_
_space_group_symop_operation_xyz
x,y,z
1/2-x,1/2-y,z
1/2+x,-y,-z
-x,1/2+y,-z
-x,-y,-z
1/2+x,1/2+y,-z
1/2-x,y,z
x,1/2-y,z
loop_
_atom_site_type_symbol
_atom_site_label
_atom_site_fract_x
_atom_site_fract_y
_atom_site_fract_z
Si Si1 0.072470 0.378256 0.453516
Si Si2 0.842731 0.505828 0.689006
Si Si3 0.978823 0.644251 0.937364
Si Si4 0.844879 0.750000 0.518220
Si Si5 0.155668 0.680132 0.859599
Si Si6 0.346689 0.250000 0.062933
Si Si7 0.016520 0.042353 0.782068
Si Si8 0.657057 0.053446 0.323288
O O1 0.150274 0.423446 0.391188
O O2 0.017128 0.364720 0.276505
O O3 0.106021 0.313420 0.542168
O O4 0.017849 0.415776 0.601810
O O5 0.750000 0.501527 0.787820
O O6 0.846736 0.455337 0.532579
O O7 0.922419 0.488010 0.814438
O O8 0.901091 0.689495 0.997088
O O9 0.073850 0.670527 0.992301
O O10 0.959916 0.580732 0.042810
O O11 0.750000 0.750000 0.432113
O O12 0.837506 0.750000 0.727895
O O13 0.250000 0.673729 0.955766
O O14 0.148084 0.750000 0.774778
O O15 0.147836 0.627990 0.706970
O O16 0.250000 0.250000 0.978855
O O17 0.082768 0.984878 0.775621
O O18 0.750000 0.029737 0.251129
#
# Coordination Sequence:
#
# PCOD8244413 Si02
#       8
#     8   8   8   4   8   4   8   8
#     4  10  21  39  60  87 121 158 194 245 297 350
#     4  10  20  37  60  85 122 162 196 245 301 349
#     4  11  22  39  62  88 120 158 197 246 298 354
#     4   9  18  35  61  90 116 154 200 237 290 360
#     4  10  20  36  60  85 114 158 205 248 298 350
#     4   9  20  39  60  86 122 156 195 245 297 356
#     4  11  23  38  60  90 122 156 200 243 297 358
#     4   9  19  37  60  89 123 156 200 251 296 352
#
# _framework density 22.442353000000001
#
# number of rings (size 3 to 8) (size 9 to 14) (size 15 to 20)
#    0.000    2.000    0.714    3.857    0.000    5.143 
#    0.000    2.143    1.571    0.000    0.000    0.000 
#    0.000    0.000    0.000    0.000    0.000    0.000 
#
# Total GULP energy -693781.635164 kJ/mol
# GULP energy per Si atom -12388.957771 kJ/mol
# Density = 2.239127 g / cm^3
# Si number density = 22.442353 Si / 1000 Ang^3
#
#
#
# Elastic Constant Matrix: (Units=GPa)
#
#
# Indices 1 2 3 4 5 6 
#
# 1 202.9158 60.7299 17.5549 0.0000 0.0000 0.0000
# 2 60.7299 151.9452 24.2584 0.0000 0.0000 0.0000
# 3 17.5549 24.2584 47.2318 0.0000 0.0000 0.0000
# 4 0.0000 0.0000 0.0000 21.2262 0.0000 0.0000
# 5 0.0000 0.0000 0.0000 0.0000 7.0367 0.0000
# 6 0.0000 0.0000 0.0000 0.0000 0.0000 24.7610
#
#
#
# Elastic Compliance Matrix: (Units=1/GPa)
#
#
# Indices 1 2 3 4 5 6 
#
# 1 0.005643 -0.002092 -0.001023 0.000000 0.000000 0.000000
# 2 -0.002092 0.007945 -0.003303 0.000000 0.000000 0.000000
# 3 -0.001023 -0.003303 0.023249 0.000000 0.000000 0.000000
# 4 0.000000 0.000000 0.000000 0.047112 0.000000 0.000000
# 5 0.000000 0.000000 0.000000 0.000000 0.142111 0.000000
# 6 0.000000 0.000000 0.000000 0.000000 0.000000 0.040386
#
#
# Mechanical properties :
#
#
# Convention : Reuss Voigt Hill
#
# Bulk Modulus (GPa) = 41.66532 67.46435 54.56484
# Shear Modulus (GPa) = 17.40457 30.57476 23.98967
#
# Velocity S-wave (km/s) = 2.78784 3.69503 3.27302
# Velocity P-wave (km/s) = 5.38224 6.95203 6.21689
#
# Compressibility (1/GPa) = 0.02400078
#
# Stress axis : x y z
#
# Youngs Moduli (GPa) = 177.21848 125.86879 43.01314
#
# Poissons Ratio (x) = 0.26332 0.04399
# Poissons Ratio (y) = 0.37074 0.14207
# Poissons Ratio (z) = 0.18126 0.41573
#
# Static dielectric constant tensor:
#      x y z
#    x 4.632280 0.000000 0.000000 
#    y 0.000000 4.273740 0.000000 
#    z 0.000000 0.000000 3.468190 
# 
# 
# High freq. dielectric constant tensor:
#      x y z
#    x 1.908190 0.000000 0.000000 
#    y 0.000000 1.897320 0.000000 
#    z 0.000000 0.000000 1.828020 
# 
# From -- ./inp_files/9413.got.cif
#   From: 2010.03.12/outbox.cif.g09.slc.cpg/sg59_5_cif.got.tgz:9413.got - 2010.04.16 16:29:54.
