data_PCOD8244594
_publ_section_title
;
Structure prediction by ZEFSAII (Michael W. Deem and Ramdas Pophale) SiO2 
 PCOD8244594
Probable space group: P M M N
;
_chemical_formula_sum "Si O2"
_cell_formula_units_Z 64
_cell_length_a 25.254761
_cell_length_b 8.740186
_cell_length_c 14.378239
_cell_angle_alpha 90.000000
_cell_angle_beta 90.000000
_cell_angle_gamma 90.000000
_cell_volume 3173.727509
_symmetry_space_group_name_H-M "P M M N"
_symmetry_group_IT_number 59
_space_group.IT_coordinate_system_code '2'
_symmetry_cell_setting 'orthorhombic'
loop_
_space_group_symop_operation_xyz
x,y,z
1/2-x,1/2-y,z
1/2+x,-y,-z
-x,1/2+y,-z
-x,-y,-z
1/2+x,1/2+y,-z
1/2-x,y,z
x,1/2-y,z
loop_
_atom_site_type_symbol
_atom_site_label
_atom_site_fract_x
_atom_site_fract_y
_atom_site_fract_z
Si Si1 0.900297 0.069757 0.097354
Si Si2 0.689145 0.426918 0.402523
Si Si3 0.506705 0.568968 0.216536
Si Si4 0.811468 0.927063 0.209802
Si Si5 0.189921 0.927941 0.244946
Si Si6 0.519699 0.572435 0.594798
Si Si7 0.902553 0.068671 0.887115
Si Si8 0.358392 0.426897 0.420779
O O1 0.910622 0.250000 0.102879
O O2 0.943171 0.981520 0.157683
O O3 0.842347 0.029588 0.135427
O O4 0.903585 0.006584 0.992149
O O5 0.750000 0.459388 0.429186
O O6 0.679589 0.250000 0.379062
O O7 0.671809 0.525145 0.313569
O O8 0.652561 0.475277 0.487620
O O9 0.505335 0.750000 0.223792
O O10 0.511850 0.501806 0.319778
O O11 0.453739 0.504545 0.167054
O O12 0.750000 0.961180 0.193015
O O13 0.825681 0.750000 0.195855
O O14 0.250000 0.955633 0.211191
O O15 0.179308 0.750000 0.266719
O O16 0.150763 0.988635 0.164289
O O17 0.180406 0.021296 0.338924
O O18 0.500000 0.500000 0.500000
O O19 0.506224 0.750000 0.592063
O O20 0.581698 0.540792 0.609923
O O21 0.903545 0.250000 0.889091
O O22 0.348128 0.250000 0.443426
#
# Coordination Sequence:
#
# PCOD8244594 Si02
#       8
#     8   8   8   8   8   8   8   8
#     4  11  23  39  63  93 122 157 203 251 303 367
#     4  10  21  37  59  86 115 153 199 242 289 350
#     4  11  22  41  66  90 122 161 202 252 305 362
#     4  10  22  41  62  87 122 160 200 249 303 358
#     4  10  20  37  62  90 121 160 207 254 302 360
#     4  11  25  42  61  89 122 161 201 247 303 363
#     4   9  20  39  62  90 121 159 203 250 305 357
#     4  11  23  38  58  86 122 158 197 244 300 363
#
# _framework density 20.165562000000001
#
# number of rings (size 3 to 8) (size 9 to 14) (size 15 to 20)
#    0.000    1.625    1.250    3.000    1.750    5.250 
#    0.000    4.375    0.000    0.000    0.000    0.000 
#    0.000    0.000    0.000    0.000    0.000    0.000 
#
# Total GULP energy -793980.957580 kJ/mol
# GULP energy per Si atom -12405.952462 kJ/mol
# Density = 2.011966 g / cm^3
# Si number density = 20.165562 Si / 1000 Ang^3
#
#
#
# Elastic Constant Matrix: (Units=GPa)
#
#
# Indices 1 2 3 4 5 6 
#
# 1 91.2670 30.0307 52.6377 0.0000 0.0000 0.0000
# 2 30.0307 67.3015 34.2725 0.0000 0.0000 0.0000
# 3 52.6377 34.2725 152.8467 0.0000 0.0000 0.0000
# 4 0.0000 0.0000 0.0000 27.5583 0.0000 0.0000
# 5 0.0000 0.0000 0.0000 0.0000 35.1515 0.0000
# 6 0.0000 0.0000 0.0000 0.0000 0.0000 27.9196
#
#
#
# Elastic Compliance Matrix: (Units=1/GPa)
#
#
# Indices 1 2 3 4 5 6 
#
# 1 0.014800 -0.004525 -0.004082 0.000000 0.000000 0.000000
# 2 -0.004525 0.018157 -0.002513 0.000000 0.000000 0.000000
# 3 -0.004082 -0.002513 0.008512 0.000000 0.000000 0.000000
# 4 0.000000 0.000000 0.000000 0.036287 0.000000 0.000000
# 5 0.000000 0.000000 0.000000 0.000000 0.028448 0.000000
# 6 0.000000 0.000000 0.000000 0.000000 0.000000 0.035817
#
#
# Mechanical properties :
#
#
# Convention : Reuss Voigt Hill
#
# Bulk Modulus (GPa) = 52.00591 60.58856 56.29723
# Shear Modulus (GPa) = 29.29592 31.09083 30.19337
#
# Velocity S-wave (km/s) = 3.81566 3.93081 3.87366
# Velocity P-wave (km/s) = 6.72739 7.12127 6.92713
#
# Compressibility (1/GPa) = 0.01922858
#
# Stress axis : x y z
#
# Youngs Moduli (GPa) = 67.56630 55.07390 117.48330
#
# Poissons Ratio (x) = 0.24922 0.47960
# Poissons Ratio (y) = 0.30575 0.29523
# Poissons Ratio (z) = 0.27582 0.13840
#
# Static dielectric constant tensor:
#      x y z
#    x 3.757280 0.000000 0.000000 
#    y 0.000000 3.563190 0.000000 
#    z 0.000000 0.000000 3.758900 
# 
# 
# High freq. dielectric constant tensor:
#      x y z
#    x 1.794420 0.000000 0.000000 
#    y 0.000000 1.782500 0.000000 
#    z 0.000000 0.000000 1.794410 
# 
# From -- ./inp_files/24719.got.cif
#   From: 2010.03.12/outbox.cif.g09.slc.cpg/sg59_13_cif.got.tgz:24719.got - 2010.04.16 16:29:54.
