data_PCOD8244468
_publ_section_title
;
Structure prediction by ZEFSAII (Michael W. Deem and Ramdas Pophale) SiO2 
 PCOD8244468
Probable space group: P M M N
;
_chemical_formula_sum "Si O2"
_cell_formula_units_Z 64
_cell_length_a 14.551800
_cell_length_b 21.099040
_cell_length_c 9.942642
_cell_angle_alpha 90.000000
_cell_angle_beta 90.000000
_cell_angle_gamma 90.000000
_cell_volume 3052.679533
_symmetry_space_group_name_H-M "P M M N"
_symmetry_group_IT_number 59
_space_group.IT_coordinate_system_code '2'
_symmetry_cell_setting 'orthorhombic'
loop_
_space_group_symop_operation_xyz
x,y,z
1/2-x,1/2-y,z
1/2+x,-y,-z
-x,1/2+y,-z
-x,-y,-z
1/2+x,1/2+y,-z
1/2-x,y,z
x,1/2-y,z
loop_
_atom_site_type_symbol
_atom_site_label
_atom_site_fract_x
_atom_site_fract_y
_atom_site_fract_z
Si Si1 0.357254 0.977047 0.859079
Si Si2 0.846931 0.318443 0.947263
Si Si3 0.045201 0.175176 0.999938
Si Si4 0.475370 0.097763 0.243207
Si Si5 0.355267 0.514071 0.174657
Si Si6 0.357976 0.384127 0.751712
Si Si7 0.149822 0.857219 0.329928
Si Si8 0.973929 0.674813 0.485088
O O1 0.250000 0.960431 0.837626
O O2 0.418896 0.921939 0.790261
O O3 0.381735 0.043169 0.785074
O O4 0.382683 0.983120 0.017057
O O5 0.750000 0.356765 0.982105
O O6 0.841403 0.250000 0.018272
O O7 0.849491 0.304834 0.787200
O O8 0.940331 0.352361 0.990474
O O9 0.046209 0.250000 0.022912
O O10 0.105196 0.160367 0.870430
O O11 0.079841 0.137726 0.129437
O O12 0.416871 0.034312 0.259261
O O13 0.467161 0.142301 0.371378
O O14 0.250000 0.493473 0.189340
O O15 0.376908 0.579935 0.246686
O O16 0.250000 0.373270 0.738013
O O17 0.404523 0.361034 0.614334
O O18 0.250000 0.863744 0.399984
O O19 0.078397 0.837068 0.441875
O O20 0.952133 0.750000 0.492517
#
# Coordination Sequence:
#
# PCOD8244468 Si02
#       8
#     8   8   8   8   8   8   8   8
#     4  10  22  41  68 102 134 163 207 269 331 388
#     4   9  17  31  55  88 121 153 199 259 313 365
#     4  11  22  38  63  93 123 164 220 267 311 376
#     4  12  25  40  64  92 133 173 208 256 329 385
#     4  10  21  39  65  97 128 159 208 273 330 380
#     4  11  24  44  69  94 124 166 220 275 321 370
#     4  10  20  36  62  91 123 165 208 251 313 385
#     4  12  27  45  61  90 134 177 218 262 315 379
#
# _framework density 20.965188000000001
#
# number of rings (size 3 to 8) (size 9 to 14) (size 15 to 20)
#    0.000    1.375    2.500    3.000    0.000    6.250 
#    0.000    2.500    0.000    4.500    0.000    0.000 
#    0.000    0.000    0.000    0.000    0.000    0.000 
#
# Total GULP energy -793006.390675 kJ/mol
# GULP energy per Si atom -12390.724854 kJ/mol
# Density = 2.091747 g / cm^3
# Si number density = 20.965188 Si / 1000 Ang^3
#
#
#
# Elastic Constant Matrix: (Units=GPa)
#
#
# Indices 1 2 3 4 5 6 
#
# 1 76.8224 41.5964 17.2998 0.0000 0.0000 0.0000
# 2 41.5964 100.7153 48.9416 0.0000 0.0000 0.0000
# 3 17.2998 48.9416 70.7576 0.0000 0.0000 0.0000
# 4 0.0000 0.0000 0.0000 37.7088 0.0000 0.0000
# 5 0.0000 0.0000 0.0000 0.0000 7.3443 0.0000
# 6 0.0000 0.0000 0.0000 0.0000 0.0000 20.5839
#
#
#
# Elastic Compliance Matrix: (Units=1/GPa)
#
#
# Indices 1 2 3 4 5 6 
#
# 1 0.016817 -0.007453 0.001043 0.000000 0.000000 0.000000
# 2 -0.007453 0.018259 -0.010807 0.000000 0.000000 0.000000
# 3 0.001043 -0.010807 0.021353 0.000000 0.000000 0.000000
# 4 0.000000 0.000000 0.000000 0.026519 0.000000 0.000000
# 5 0.000000 0.000000 0.000000 0.000000 0.136160 0.000000
# 6 0.000000 0.000000 0.000000 0.000000 0.000000 0.048582
#
#
# Mechanical properties :
#
#
# Convention : Reuss Voigt Hill
#
# Bulk Modulus (GPa) = 45.46348 51.55232 48.50790
# Shear Modulus (GPa) = 16.15746 22.49123 19.32434
#
# Velocity S-wave (km/s) = 2.77912 3.27890 3.03930
# Velocity P-wave (km/s) = 5.65954 6.24322 5.95853
#
# Compressibility (1/GPa) = 0.02199568
#
# Stress axis : x y z
#
# Youngs Moduli (GPa) = 59.46188 54.76890 46.83254
#
# Poissons Ratio (x) = 0.40818 -0.04885
# Poissons Ratio (y) = 0.44315 0.50612
# Poissons Ratio (z) = -0.06202 0.59188
#
# Static dielectric constant tensor:
#      x y z
#    x 4.013920 0.000000 0.000000 
#    y 0.000000 3.893370 0.000000 
#    z 0.000000 0.000000 3.526690 
# 
# 
# High freq. dielectric constant tensor:
#      x y z
#    x 1.830500 0.000000 0.000000 
#    y 0.000000 1.836740 0.000000 
#    z 0.000000 0.000000 1.792100 
# 
# From -- ./inp_files/9553.got.cif
#   From: 2010.03.12/outbox.cif.g09.slc.cpg/sg59_5_cif.got.tgz:9553.got - 2010.04.16 16:29:54.
