data_PCOD8244749
_publ_section_title
;
Structure prediction by ZEFSAII (Michael W. Deem and Ramdas Pophale) SiO2 
 PCOD8244749
Probable space group: P M M N
;
_chemical_formula_sum "Si O2"
_cell_formula_units_Z 64
_cell_length_a 31.284842
_cell_length_b 9.003163
_cell_length_c 11.819246
_cell_angle_alpha 90.000000
_cell_angle_beta 90.000000
_cell_angle_gamma 90.000000
_cell_volume 3329.038754
_symmetry_space_group_name_H-M "P M M N"
_symmetry_group_IT_number 59
_space_group.IT_coordinate_system_code '2'
_symmetry_cell_setting 'orthorhombic'
loop_
_space_group_symop_operation_xyz
x,y,z
1/2-x,1/2-y,z
1/2+x,-y,-z
-x,1/2+y,-z
-x,-y,-z
1/2+x,1/2+y,-z
1/2-x,y,z
x,1/2-y,z
loop_
_atom_site_type_symbol
_atom_site_label
_atom_site_fract_x
_atom_site_fract_y
_atom_site_fract_z
Si Si1 0.701030 0.083306 0.549538
Si Si2 0.379256 0.417960 0.134711
Si Si3 0.580200 0.585250 0.636872
Si Si4 0.453328 0.577675 0.000030
Si Si5 0.797973 0.075038 0.808760
Si Si6 0.574105 0.079694 0.252557
Si Si7 0.132246 0.422328 0.585378
Si Si8 0.000181 0.922796 0.380176
O O1 0.750000 0.081700 0.512726
O O2 0.682218 0.250000 0.540095
O O3 0.696131 0.026491 0.678194
O O4 0.677560 0.977482 0.460453
O O5 0.378388 0.250000 0.086829
O O6 0.382381 0.419518 0.271049
O O7 0.333482 0.496392 0.110896
O O8 0.420858 0.501048 0.086985
O O9 0.559274 0.750000 0.635302
O O10 0.597463 0.546965 0.512465
O O11 0.545543 0.463432 0.675523
O O12 0.460474 0.750000 0.032789
O O13 0.428330 0.564320 0.881784
O O14 0.500000 0.500000 0.000000
O O15 0.750000 0.029801 0.849030
O O16 0.804253 0.250000 0.820791
O O17 0.569734 0.250000 0.291297
O O18 0.618303 0.012626 0.302216
O O19 0.535970 0.982253 0.299458
O O20 0.135758 0.250000 0.616460
O O21 0.993756 0.750000 0.394996
O O22 0.000000 0.000000 0.500000
#
# Coordination Sequence:
#
# PCOD8244749 Si02
#       8
#     8   8   8   8   8   8   8   8
#     4   9  18  33  54  82 119 159 194 230 280 344
#     4  11  22  37  59  85 117 154 192 238 289 344
#     4  10  21  35  50  78 115 148 185 227 276 332
#     4  11  25  44  64  86 113 150 198 249 297 350
#     4   9  18  33  55  85 120 156 194 237 287 345
#     4  11  24  41  59  80 110 147 189 236 283 335
#     4  11  21  34  55  83 116 149 186 231 280 338
#     4  12  23  34  52  77 107 144 183 226 276 328
#
# _framework density 19.224769999999999
#
# number of rings (size 3 to 8) (size 9 to 14) (size 15 to 20)
#    0.000    1.500    2.500    4.125    0.000    7.000 
#    0.000    1.250    0.000    0.750    0.000    5.250 
#    0.000    0.000    0.000    0.000    0.000    0.000 
#
# Total GULP energy -793432.065954 kJ/mol
# GULP energy per Si atom -12397.376031 kJ/mol
# Density = 1.918101 g / cm^3
# Si number density = 19.224770 Si / 1000 Ang^3
#
#
#
# Elastic Constant Matrix: (Units=GPa)
#
#
# Indices 1 2 3 4 5 6 
#
# 1 120.8607 58.8944 25.6061 0.0000 0.0000 0.0000
# 2 58.8944 133.6863 35.5453 0.0000 0.0000 0.0000
# 3 25.6061 35.5453 52.5376 0.0000 0.0000 0.0000
# 4 0.0000 0.0000 0.0000 23.8662 0.0000 0.0000
# 5 0.0000 0.0000 0.0000 0.0000 31.1602 0.0000
# 6 0.0000 0.0000 0.0000 0.0000 0.0000 37.5271
#
#
#
# Elastic Compliance Matrix: (Units=1/GPa)
#
#
# Indices 1 2 3 4 5 6 
#
# 1 0.010797 -0.004094 -0.002493 0.000000 0.000000 0.000000
# 2 -0.004094 0.010673 -0.005226 0.000000 0.000000 0.000000
# 3 -0.002493 -0.005226 0.023785 0.000000 0.000000 0.000000
# 4 0.000000 0.000000 0.000000 0.041900 0.000000 0.000000
# 5 0.000000 0.000000 0.000000 0.000000 0.032092 0.000000
# 6 0.000000 0.000000 0.000000 0.000000 0.000000 0.026647
#
#
# Mechanical properties :
#
#
# Convention : Reuss Voigt Hill
#
# Bulk Modulus (GPa) = 46.23170 60.79734 53.51452
# Shear Modulus (GPa) = 28.29192 30.97996 29.63594
#
# Velocity S-wave (km/s) = 3.84036 4.01866 3.93052
# Velocity P-wave (km/s) = 6.61548 7.29561 6.96386
#
# Compressibility (1/GPa) = 0.02163018
#
# Stress axis : x y z
#
# Youngs Moduli (GPa) = 92.61898 93.69293 42.04417
#
# Poissons Ratio (x) = 0.38356 0.10480
# Poissons Ratio (y) = 0.37916 0.21972
# Poissons Ratio (z) = 0.23086 0.48963
#
# Static dielectric constant tensor:
#      x y z
#    x 3.604750 0.000000 0.000000 
#    y 0.000000 3.881910 0.000000 
#    z 0.000000 0.000000 3.465960 
# 
# 
# High freq. dielectric constant tensor:
#      x y z
#    x 1.747530 0.000000 0.000000 
#    y 0.000000 1.757650 0.000000 
#    z 0.000000 0.000000 1.720280 
# 
# From -- ./inp_files/19343.got.cif
#   From: 2010.03.12/outbox.cif.g09.slc.cpg/sg59_10_cif.got.tgz:19343.got - 2010.04.16 16:29:54.
