data_PCOD8244813
_publ_section_title
;
Structure prediction by ZEFSAII (Michael W. Deem and Ramdas Pophale) SiO2 
 PCOD8244813
Probable space group: P M M N
;
_chemical_formula_sum "Si O2"
_cell_formula_units_Z 64
_cell_length_a 9.260570
_cell_length_b 23.309260
_cell_length_c 15.105636
_cell_angle_alpha 90.000000
_cell_angle_beta 90.000000
_cell_angle_gamma 90.000000
_cell_volume 3260.657782
_symmetry_space_group_name_H-M "P M M N"
_symmetry_group_IT_number 59
_space_group.IT_coordinate_system_code '2'
_symmetry_cell_setting 'orthorhombic'
loop_
_space_group_symop_operation_xyz
x,y,z
1/2-x,1/2-y,z
1/2+x,-y,-z
-x,1/2+y,-z
-x,-y,-z
1/2+x,1/2+y,-z
1/2-x,y,z
x,1/2-y,z
loop_
_atom_site_type_symbol
_atom_site_label
_atom_site_fract_x
_atom_site_fract_y
_atom_site_fract_z
Si Si1 0.420897 0.316593 0.513103
Si Si2 0.417476 0.623093 0.645903
Si Si3 0.585646 0.682675 0.795510
Si Si4 0.581189 0.620614 0.308769
Si Si5 0.411004 0.640030 0.141398
Si Si6 0.405080 0.316104 0.010332
Si Si7 0.082753 0.992546 0.736092
Si Si8 0.585189 0.008371 0.908574
O O1 0.250000 0.320099 0.501148
O O2 0.471593 0.250000 0.512824
O O3 0.492100 0.352628 0.435199
O O4 0.471897 0.348082 0.602519
O O5 0.250000 0.635893 0.628497
O O6 0.466735 0.653926 0.734669
O O7 0.445736 0.555132 0.660540
O O8 0.750000 0.668108 0.765692
O O9 0.558856 0.750000 0.789504
O O10 0.556548 0.656982 0.893976
O O11 0.750000 0.629231 0.295730
O O12 0.504546 0.652943 0.227984
O O13 0.538030 0.553278 0.308355
O O14 0.250000 0.660883 0.161510
O O15 0.417404 0.574800 0.112982
O O16 0.469864 0.676113 0.059776
O O17 0.250000 0.341679 0.976784
O O18 0.383017 0.250000 0.029911
O O19 0.250000 0.993480 0.765061
O O20 0.991423 0.977632 0.824783
O O21 0.750000 0.985717 0.918206
O O22 0.500000 0.000000 0.000000
#
# Coordination Sequence:
#
# PCOD8244813 Si02
#       8
#     8   8   8   8   8   8   8   8
#     4  10  22  40  62  87 111 141 187 236 282 340
#     4  11  23  36  55  84 116 146 182 232 286 342
#     4   9  19  36  55  76 106 145 189 234 277 332
#     4   9  19  39  62  80 108 150 190 231 281 335
#     4  10  21  35  53  81 114 144 179 230 285 332
#     4   9  19  35  54  77 106 145 191 230 271 332
#     4   9  20  38  56  80 114 150 190 231 279 337
#     4  10  21  35  53  79 112 150 191 232 274 326
#
# _framework density 19.627939999999999
#
# number of rings (size 3 to 8) (size 9 to 14) (size 15 to 20)
#    0.000    2.375    0.000    2.250    1.750    6.750 
#    0.000    2.500    0.000    0.000    0.000    0.000 
#    0.000    0.000    0.000    0.000    0.000    0.000 
#
# Total GULP energy -793426.296735 kJ/mol
# GULP energy per Si atom -12397.285886 kJ/mol
# Density = 1.958327 g / cm^3
# Si number density = 19.627940 Si / 1000 Ang^3
#
#
#
# Elastic Constant Matrix: (Units=GPa)
#
#
# Indices 1 2 3 4 5 6 
#
# 1 69.4863 31.2060 56.5792 0.0000 0.0000 0.0000
# 2 31.2060 55.5981 47.8871 0.0000 0.0000 0.0000
# 3 56.5792 47.8871 144.1538 0.0000 0.0000 0.0000
# 4 0.0000 0.0000 0.0000 31.4467 0.0000 0.0000
# 5 0.0000 0.0000 0.0000 0.0000 14.0877 0.0000
# 6 0.0000 0.0000 0.0000 0.0000 0.0000 26.1143
#
#
#
# Elastic Compliance Matrix: (Units=1/GPa)
#
#
# Indices 1 2 3 4 5 6 
#
# 1 0.023042 -0.007205 -0.006650 0.000000 0.000000 0.000000
# 2 -0.007205 0.027448 -0.006290 0.000000 0.000000 0.000000
# 3 -0.006650 -0.006290 0.011637 0.000000 0.000000 0.000000
# 4 0.000000 0.000000 0.000000 0.031800 0.000000 0.000000
# 5 0.000000 0.000000 0.000000 0.000000 0.070984 0.000000
# 6 0.000000 0.000000 0.000000 0.000000 0.000000 0.038293
#
#
# Mechanical properties :
#
#
# Convention : Reuss Voigt Hill
#
# Bulk Modulus (GPa) = 45.79628 60.06474 52.93051
# Shear Modulus (GPa) = 19.93827 23.23412 21.58619
#
# Velocity S-wave (km/s) = 3.19064 3.44427 3.31987
# Velocity P-wave (km/s) = 6.07918 6.81802 6.45917
#
# Compressibility (1/GPa) = 0.02183583
#
# Stress axis : x y z
#
# Youngs Moduli (GPa) = 43.39868 36.43245 85.93414
#
# Poissons Ratio (x) = 0.26250 0.57150
# Poissons Ratio (y) = 0.31269 0.54054
# Poissons Ratio (z) = 0.28862 0.22917
#
# Static dielectric constant tensor:
#      x y z
#    x 3.668320 0.000000 0.000000 
#    y 0.000000 3.553530 0.000000 
#    z 0.000000 0.000000 3.689550 
# 
# 
# High freq. dielectric constant tensor:
#      x y z
#    x 1.763080 0.000000 0.000000 
#    y 0.000000 1.762320 0.000000 
#    z 0.000000 0.000000 1.765520 
# 
# From -- ./inp_files/21538.got.cif
#   From: 2010.03.12/outbox.cif.g09.slc.cpg/sg59_11_cif.got.tgz:21538.got - 2010.04.16 16:29:54.
