data_PCOD8244266
_publ_section_title
;
Structure prediction by ZEFSAII (Michael W. Deem and Ramdas Pophale) SiO2 
 PCOD8244266
Probable space group: P M M N
;
_chemical_formula_sum "Si O2"
_cell_formula_units_Z 56
_cell_length_a 22.587648
_cell_length_b 14.842617
_cell_length_c 8.889113
_cell_angle_alpha 90.000000
_cell_angle_beta 90.000000
_cell_angle_gamma 90.000000
_cell_volume 2980.162319
_symmetry_space_group_name_H-M "P M M N"
_symmetry_group_IT_number 59
_space_group.IT_coordinate_system_code '2'
_symmetry_cell_setting 'orthorhombic'
loop_
_space_group_symop_operation_xyz
x,y,z
1/2-x,1/2-y,z
1/2+x,-y,-z
-x,1/2+y,-z
-x,-y,-z
1/2+x,1/2+y,-z
1/2-x,y,z
x,1/2-y,z
loop_
_atom_site_type_symbol
_atom_site_label
_atom_site_fract_x
_atom_site_fract_y
_atom_site_fract_z
Si Si1 0.319217 0.352010 0.026385
Si Si2 0.683248 0.250000 0.875848
Si Si3 0.181286 0.020722 0.762593
Si Si4 0.316033 0.750000 0.477708
Si Si5 0.979699 0.147706 0.283878
Si Si6 0.890613 0.102022 0.033645
Si Si7 0.593534 0.966106 0.790969
Si Si8 0.114477 0.932787 0.514395
O O1 0.250000 0.359324 0.059243
O O2 0.342337 0.250000 0.029777
O O3 0.349622 0.407616 0.160448
O O4 0.333595 0.389398 0.858567
O O5 0.750000 0.250000 0.944810
O O6 0.688106 0.250000 0.699214
O O7 0.645117 0.335137 0.922195
O O8 0.250000 0.013740 0.724262
O O9 0.145130 0.015128 0.606315
O O10 0.160837 0.936302 0.860880
O O11 0.250000 0.750000 0.547774
O O12 0.348673 0.659700 0.532646
O O13 0.990669 0.250000 0.338066
O O14 0.949938 0.089027 0.416444
O O15 0.041782 0.101830 0.249672
O O16 0.939743 0.151187 0.133835
O O17 0.924590 0.027206 0.933875
O O18 0.609355 0.032905 0.654884
#
# Coordination Sequence:
#
# PCOD8244266 Si02
#       8
#     8   4   8   4   8   8   8   8
#     4   9  19  38  61  84 111 143 187 245 296 342
#     4  11  20  33  57  89 121 153 187 240 295 346
#     4   9  19  34  56  83 112 148 183 227 287 350
#     4  11  22  35  57  87 125 161 187 232 291 350
#     4  11  22  38  58  78 110 153 196 245 289 337
#     4  10  20  36  56  83 114 147 194 242 287 343
#     4  11  22  37  59  83 114 151 198 236 295 346
#     4  11  22  38  55  83 120 153 193 235 283 350
#
# _framework density 18.790921999999998
#
# number of rings (size 3 to 8) (size 9 to 14) (size 15 to 20)
#    0.000    1.714    2.857    2.143    0.000    1.714 
#    0.000    3.571    0.000    1.714    0.000    0.000 
#    0.000    0.000    0.000    0.000    0.000    0.000 
#
# Total GULP energy -694274.257544 kJ/mol
# GULP energy per Si atom -12397.754599 kJ/mol
# Density = 1.874815 g / cm^3
# Si number density = 18.790922 Si / 1000 Ang^3
#
#
#
# Elastic Constant Matrix: (Units=GPa)
#
#
# Indices 1 2 3 4 5 6 
#
# 1 72.9024 33.1460 20.7687 0.0000 0.0000 0.0000
# 2 33.1460 92.4669 28.1909 0.0000 0.0000 0.0000
# 3 20.7687 28.1909 77.1733 0.0000 0.0000 0.0000
# 4 0.0000 0.0000 0.0000 24.9091 0.0000 0.0000
# 5 0.0000 0.0000 0.0000 0.0000 21.3430 0.0000
# 6 0.0000 0.0000 0.0000 0.0000 0.0000 41.6389
#
#
#
# Elastic Compliance Matrix: (Units=1/GPa)
#
#
# Indices 1 2 3 4 5 6 
#
# 1 0.016846 -0.005240 -0.002619 0.000000 0.000000 0.000000
# 2 -0.005240 0.013800 -0.003631 0.000000 0.000000 0.000000
# 3 -0.002619 -0.003631 0.014989 0.000000 0.000000 0.000000
# 4 0.000000 0.000000 0.000000 0.040146 0.000000 0.000000
# 5 0.000000 0.000000 0.000000 0.000000 0.046854 0.000000
# 6 0.000000 0.000000 0.000000 0.000000 0.000000 0.024016
#
#
# Mechanical properties :
#
#
# Convention : Reuss Voigt Hill
#
# Bulk Modulus (GPa) = 44.14165 45.19486 44.66826
# Shear Modulus (GPa) = 26.71197 28.27402 27.49300
#
# Velocity S-wave (km/s) = 3.77442 3.88321 3.82920
# Velocity P-wave (km/s) = 6.52203 6.64901 6.58583
#
# Compressibility (1/GPa) = 0.02265434
#
# Stress axis : x y z
#
# Youngs Moduli (GPa) = 59.36277 72.46392 66.71520
#
# Poissons Ratio (x) = 0.37971 0.17475
# Poissons Ratio (y) = 0.31106 0.24223
# Poissons Ratio (z) = 0.15549 0.26311
#
# Static dielectric constant tensor:
#      x y z
#    x 3.451280 0.000000 0.000000 
#    y 0.000000 3.502980 0.000000 
#    z 0.000000 0.000000 3.494590 
# 
# 
# High freq. dielectric constant tensor:
#      x y z
#    x 1.728530 0.000000 0.000000 
#    y 0.000000 1.731250 0.000000 
#    z 0.000000 0.000000 1.729600 
# 
# From -- ./inp_files/11490.got.cif
#   From: 2010.03.12/outbox.cif.g09.slc.cpg/sg59_6_cif.got.tgz:11490.got - 2010.04.16 16:29:54.
