data_PCOD8244514
_publ_section_title
;
Structure prediction by ZEFSAII (Michael W. Deem and Ramdas Pophale) SiO2 
 PCOD8244514
Probable space group: P M M N
;
_chemical_formula_sum "Si O2"
_cell_formula_units_Z 48
_cell_length_a 34.008378
_cell_length_b 8.544191
_cell_length_c 8.085806
_cell_angle_alpha 90.000000
_cell_angle_beta 90.000000
_cell_angle_gamma 90.000000
_cell_volume 2349.525617
_symmetry_space_group_name_H-M "P M M N"
_symmetry_group_IT_number 59
_space_group.IT_coordinate_system_code '2'
_symmetry_cell_setting 'orthorhombic'
loop_
_space_group_symop_operation_xyz
x,y,z
1/2-x,1/2-y,z
1/2+x,-y,-z
-x,1/2+y,-z
-x,-y,-z
1/2+x,1/2+y,-z
1/2-x,y,z
x,1/2-y,z
loop_
_atom_site_type_symbol
_atom_site_label
_atom_site_fract_x
_atom_site_fract_y
_atom_site_fract_z
Si Si1 0.159723 0.571005 0.188755
Si Si2 0.927505 0.072374 0.862763
Si Si3 0.662030 0.566277 0.176022
Si Si4 0.295620 0.567512 0.509922
Si Si5 0.498441 0.430752 0.323259
Si Si6 0.574570 0.573050 0.194851
O O1 0.172754 0.750000 0.173025
O O2 0.113519 0.554185 0.235858
O O3 0.182762 0.495584 0.346167
O O4 0.170397 0.499296 0.008692
O O5 0.930283 0.250000 0.934122
O O6 0.966140 0.040759 0.758736
O O7 0.926867 0.936323 0.997907
O O8 0.665866 0.750000 0.158106
O O9 0.691928 0.507426 0.315269
O O10 0.618571 0.520439 0.245365
O O11 0.250000 0.532395 0.485037
O O12 0.305280 0.750000 0.523324
O O13 0.500000 0.500000 0.500000
O O14 0.485860 0.250000 0.315710
O O15 0.542270 0.450069 0.254292
O O16 0.564946 0.750000 0.253315
#
# Coordination Sequence:
#
# PCOD8244514 Si02
#       6
#     8   8   8   8   8   8
#     4   9  20  39  63  90 120 160 205 247 297 358
#     4  10  20  37  59  84 113 152 198 244 293 348
#     4  10  22  39  62  92 124 159 199 247 303 360
#     4  10  22  40  63  91 122 158 200 247 300 361
#     4  12  25  38  54  81 116 154 196 245 293 348
#     4  10  21  39  59  83 114 154 197 240 293 351
#
# _framework density 20.429656999999999
#
# number of rings (size 3 to 8) (size 9 to 14) (size 15 to 20)
#    0.000    1.833    0.000    3.500    2.333    4.333 
#    0.000    1.667    0.000    0.000    0.000    0.000 
#    0.000    0.000    0.000    0.000    0.000    0.000 
#
# Total GULP energy -594789.076133 kJ/mol
# GULP energy per Si atom -12391.439086 kJ/mol
# Density = 2.038316 g / cm^3
# Si number density = 20.429657 Si / 1000 Ang^3
#
#
#
# Elastic Constant Matrix: (Units=GPa)
#
#
# Indices 1 2 3 4 5 6 
#
# 1 64.9494 24.0021 15.9139 0.0000 0.0000 0.0000
# 2 24.0021 62.0814 20.2280 0.0000 0.0000 0.0000
# 3 15.9139 20.2280 69.6541 0.0000 0.0000 0.0000
# 4 0.0000 0.0000 0.0000 23.5094 0.0000 0.0000
# 5 0.0000 0.0000 0.0000 0.0000 39.4055 0.0000
# 6 0.0000 0.0000 0.0000 0.0000 0.0000 22.1282
#
#
#
# Elastic Compliance Matrix: (Units=1/GPa)
#
#
# Indices 1 2 3 4 5 6 
#
# 1 0.018305 -0.006312 -0.002349 0.000000 0.000000 0.000000
# 2 -0.006312 0.019968 -0.004357 0.000000 0.000000 0.000000
# 3 -0.002349 -0.004357 0.016159 0.000000 0.000000 0.000000
# 4 0.000000 0.000000 0.000000 0.042536 0.000000 0.000000
# 5 0.000000 0.000000 0.000000 0.000000 0.025377 0.000000
# 6 0.000000 0.000000 0.000000 0.000000 0.000000 0.045191
#
#
# Mechanical properties :
#
#
# Convention : Reuss Voigt Hill
#
# Bulk Modulus (GPa) = 35.21627 35.21923 35.21775
# Shear Modulus (GPa) = 24.62623 26.11136 25.36880
#
# Velocity S-wave (km/s) = 3.47568 3.57895 3.52769
# Velocity P-wave (km/s) = 5.77775 5.86133 5.81969
#
# Compressibility (1/GPa) = 0.02839597
#
# Stress axis : x y z
#
# Youngs Moduli (GPa) = 54.63101 50.08109 61.88656
#
# Poissons Ratio (x) = 0.31609 0.14538
# Poissons Ratio (y) = 0.34481 0.26962
# Poissons Ratio (z) = 0.12834 0.21819
#
# Static dielectric constant tensor:
#      x y z
#    x 3.646140 0.000000 0.000000 
#    y 0.000000 3.830760 0.000000 
#    z 0.000000 0.000000 3.694240 
# 
# 
# High freq. dielectric constant tensor:
#      x y z
#    x 1.804430 0.000000 0.000000 
#    y 0.000000 1.795560 0.000000 
#    z 0.000000 0.000000 1.796560 
# 
# From -- ./inp_files/6289.got.cif
#   From: 2010.03.12/outbox.cif.g09.slc.cpg/sg59_4_cif.got.tgz:6289.got - 2010.04.16 16:29:54.
