data_PCOD8244303
_publ_section_title
;
Structure prediction by ZEFSAII (Michael W. Deem and Ramdas Pophale) SiO2 
 PCOD8244303
Probable space group: P M M N
;
_chemical_formula_sum "Si O2"
_cell_formula_units_Z 64
_cell_length_a 9.274790
_cell_length_b 28.504120
_cell_length_c 12.540025
_cell_angle_alpha 90.000000
_cell_angle_beta 90.000000
_cell_angle_gamma 90.000000
_cell_volume 3315.202988
_symmetry_space_group_name_H-M "P M M N"
_symmetry_group_IT_number 59
_space_group.IT_coordinate_system_code '2'
_symmetry_cell_setting 'orthorhombic'
loop_
_space_group_symop_operation_xyz
x,y,z
1/2-x,1/2-y,z
1/2+x,-y,-z
-x,1/2+y,-z
-x,-y,-z
1/2+x,1/2+y,-z
1/2-x,y,z
x,1/2-y,z
loop_
_atom_site_type_symbol
_atom_site_label
_atom_site_fract_x
_atom_site_fract_y
_atom_site_fract_z
Si Si1 0.919967 0.303536 0.435910
Si Si2 0.581853 0.063989 0.182802
Si Si3 0.083391 0.458418 0.557020
Si Si4 0.416272 0.456702 0.794562
Si Si5 0.583461 0.610133 0.629679
Si Si6 0.915740 0.697705 0.128126
Si Si7 0.407256 0.805163 0.325587
Si Si8 0.418607 0.106033 0.986092
O O1 0.750000 0.312260 0.420653
O O2 0.958820 0.250000 0.405485
O O3 0.967908 0.315372 0.556763
O O4 0.012131 0.338325 0.362157
O O5 0.750000 0.076931 0.192468
O O6 0.501437 0.075900 0.291905
O O7 0.511917 0.093117 0.087752
O O8 0.558705 0.009061 0.162059
O O9 0.250000 0.474240 0.566159
O O10 0.016772 0.449783 0.675691
O O11 0.067489 0.410820 0.489176
O O12 0.000000 0.500000 0.500000
O O13 0.250000 0.443865 0.784308
O O14 0.481974 0.421731 0.883129
O O15 0.750000 0.613712 0.664613
O O16 0.750000 0.700535 0.158706
O O17 0.973120 0.750000 0.096860
O O18 0.988951 0.675700 0.233592
O O19 0.941707 0.661830 0.031118
O O20 0.250000 0.828636 0.311455
O O21 0.392083 0.750000 0.311853
O O22 0.250000 0.093986 0.005748
#
# Coordination Sequence:
#
# PCOD8244303 Si02
#       8
#     8   8   8   8   8   8   8   8
#     4   9  19  36  56  80 114 155 194 232 280 336
#     4  11  22  39  60  79 108 148 192 237 287 346
#     4  10  20  36  57  84 117 150 185 225 281 345
#     4   9  19  36  58  82 112 147 180 229 289 340
#     4  11  23  36  58  87 116 150 190 236 284 340
#     4   9  18  32  52  79 110 145 181 221 275 334
#     4   8  15  29  49  73 105 143 178 218 267 318
#     4  10  21  37  58  81 111 145 186 238 287 335
#
# _framework density 19.305002000000002
#
# number of rings (size 3 to 8) (size 9 to 14) (size 15 to 20)
#    0.000    2.375    1.250    1.875    1.750    1.750 
#    0.000    3.125    0.000    2.250    0.000    0.000 
#    0.000    0.000    0.000    0.000    0.000    0.000 
#
# Total GULP energy -793387.899387 kJ/mol
# GULP energy per Si atom -12396.685928 kJ/mol
# Density = 1.926106 g / cm^3
# Si number density = 19.305002 Si / 1000 Ang^3
#
#
#
# Elastic Constant Matrix: (Units=GPa)
#
#
# Indices 1 2 3 4 5 6 
#
# 1 68.2449 35.0934 26.3729 0.0000 0.0000 0.0000
# 2 35.0934 80.1408 19.5396 0.0000 0.0000 0.0000
# 3 26.3729 19.5396 74.2976 0.0000 0.0000 0.0000
# 4 0.0000 0.0000 0.0000 25.3801 0.0000 0.0000
# 5 0.0000 0.0000 0.0000 0.0000 29.7977 0.0000
# 6 0.0000 0.0000 0.0000 0.0000 0.0000 24.3548
#
#
#
# Elastic Compliance Matrix: (Units=1/GPa)
#
#
# Indices 1 2 3 4 5 6 
#
# 1 0.020699 -0.007771 -0.005304 0.000000 0.000000 0.000000
# 2 -0.007771 0.016250 -0.001515 0.000000 0.000000 0.000000
# 3 -0.005304 -0.001515 0.015740 0.000000 0.000000 0.000000
# 4 0.000000 0.000000 0.000000 0.039401 0.000000 0.000000
# 5 0.000000 0.000000 0.000000 0.000000 0.033560 0.000000
# 6 0.000000 0.000000 0.000000 0.000000 0.000000 0.041060
#
#
# Mechanical properties :
#
#
# Convention : Reuss Voigt Hill
#
# Bulk Modulus (GPa) = 42.53515 42.74392 42.63954
# Shear Modulus (GPa) = 24.54279 25.35166 24.94723
#
# Velocity S-wave (km/s) = 3.56942 3.62777 3.59871
# Velocity P-wave (km/s) = 6.25050 6.30373 6.27717
#
# Compressibility (1/GPa) = 0.02350997
#
# Stress axis : x y z
#
# Youngs Moduli (GPa) = 48.31249 61.53735 63.53044
#
# Poissons Ratio (x) = 0.47819 0.33694
# Poissons Ratio (y) = 0.37542 0.09627
# Poissons Ratio (z) = 0.25623 0.09325
#
# Static dielectric constant tensor:
#      x y z
#    x 3.551930 0.000000 0.000000 
#    y 0.000000 3.526830 0.000000 
#    z 0.000000 0.000000 3.587780 
# 
# 
# High freq. dielectric constant tensor:
#      x y z
#    x 1.735950 0.000000 0.000000 
#    y 0.000000 1.751310 0.000000 
#    z 0.000000 0.000000 1.741050 
# 
# From -- ./inp_files/14959.got.cif
#   From: 2010.03.12/outbox.cif.g09.slc.cpg/sg59_8_cif.got.tgz:14959.got - 2010.04.16 16:29:54.
