data_PCOD8244365
_publ_section_title
;
Structure prediction by ZEFSAII (Michael W. Deem and Ramdas Pophale) SiO2 
 PCOD8244365
Probable space group: P M M N
;
_chemical_formula_sum "Si O2"
_cell_formula_units_Z 64
_cell_length_a 9.335441
_cell_length_b 30.651308
_cell_length_c 11.991106
_cell_angle_alpha 90.000000
_cell_angle_beta 90.000000
_cell_angle_gamma 90.000000
_cell_volume 3431.176769
_symmetry_space_group_name_H-M "P M M N"
_symmetry_group_IT_number 59
_space_group.IT_coordinate_system_code '2'
_symmetry_cell_setting 'orthorhombic'
loop_
_space_group_symop_operation_xyz
x,y,z
1/2-x,1/2-y,z
1/2+x,-y,-z
-x,1/2+y,-z
-x,-y,-z
1/2+x,1/2+y,-z
1/2-x,y,z
x,1/2-y,z
loop_
_atom_site_type_symbol
_atom_site_label
_atom_site_fract_x
_atom_site_fract_y
_atom_site_fract_z
Si Si1 0.910916 0.087088 0.248003
Si Si2 0.914888 0.201213 0.028450
Si Si3 0.413902 0.543840 0.987355
Si Si4 0.082869 0.173576 0.240134
Si Si5 0.579678 0.372777 0.617202
Si Si6 0.579813 0.375248 0.870108
Si Si7 0.414186 0.299464 0.486628
Si Si8 0.085405 0.543656 0.520673
O O1 0.750000 0.107164 0.253257
O O2 0.931094 0.058694 0.138771
O O3 0.938132 0.055499 0.351161
O O4 0.027813 0.124518 0.249579
O O5 0.750000 0.189831 0.055962
O O6 0.929598 0.250000 0.978867
O O7 0.002657 0.198982 0.142411
O O8 0.976440 0.167155 0.937517
O O9 0.250000 0.534387 0.018598
O O10 0.500000 0.500000 0.000000
O O11 0.477251 0.581108 0.069263
O O12 0.250000 0.172944 0.211835
O O13 0.050340 0.197931 0.355597
O O14 0.750000 0.368376 0.610681
O O15 0.522087 0.373833 0.743968
O O16 0.515502 0.330866 0.556629
O O17 0.527464 0.416953 0.556690
O O18 0.750000 0.375153 0.870580
O O19 0.250000 0.313261 0.507753
O O20 0.442412 0.250000 0.526237
O O21 0.250000 0.534519 0.491856
O O22 0.000000 0.500000 0.500000
#
# Coordination Sequence:
#
# PCOD8244365 Si02
#       8
#     8   8   8   8   8   8   8   8
#     4  10  20  38  60  82 112 150 189 233 280 334
#     4  10  20  36  59  83 111 149 186 223 278 342
#     4  10  21  37  58  81 112 147 182 229 278 328
#     4  11  21  35  58  86 116 147 184 236 285 332
#     4  10  21  38  60  85 111 145 192 237 273 326
#     4   9  19  37  58  82 113 146 182 230 280 324
#     4  10  22  39  57  81 115 151 184 227 288 343
#     4  10  22  37  57  84 114 146 186 232 278 331
#
# _framework density 18.652491999999999
#
# number of rings (size 3 to 8) (size 9 to 14) (size 15 to 20)
#    0.000    2.000    2.500    0.750    1.750    3.500 
#    0.000    2.500    0.000    0.000    0.000    0.000 
#    0.000    0.000    0.000    0.000    0.000    0.000 
#
# Total GULP energy -793710.605750 kJ/mol
# GULP energy per Si atom -12401.728215 kJ/mol
# Density = 1.861004 g / cm^3
# Si number density = 18.652492 Si / 1000 Ang^3
#
#
#
# Elastic Constant Matrix: (Units=GPa)
#
#
# Indices 1 2 3 4 5 6 
#
# 1 53.6608 50.0405 43.8461 0.0000 0.0000 0.0000
# 2 50.0405 146.1447 62.4490 0.0000 0.0000 0.0000
# 3 43.8461 62.4490 134.3332 0.0000 0.0000 0.0000
# 4 0.0000 0.0000 0.0000 20.4008 0.0000 0.0000
# 5 0.0000 0.0000 0.0000 0.0000 18.6999 0.0000
# 6 0.0000 0.0000 0.0000 0.0000 0.0000 32.8583
#
#
#
# Elastic Compliance Matrix: (Units=1/GPa)
#
#
# Indices 1 2 3 4 5 6 
#
# 1 0.031408 -0.007954 -0.006554 0.000000 0.000000 0.000000
# 2 -0.007954 0.010553 -0.002310 0.000000 0.000000 0.000000
# 3 -0.006554 -0.002310 0.010657 0.000000 0.000000 0.000000
# 4 0.000000 0.000000 0.000000 0.049018 0.000000 0.000000
# 5 0.000000 0.000000 0.000000 0.000000 0.053476 0.000000
# 6 0.000000 0.000000 0.000000 0.000000 0.000000 0.030434
#
#
# Mechanical properties :
#
#
# Convention : Reuss Voigt Hill
#
# Bulk Modulus (GPa) = 52.67834 71.86778 62.27306
# Shear Modulus (GPa) = 22.17219 26.24536 24.20877
#
# Velocity S-wave (km/s) = 3.45149 3.75516 3.60652
# Velocity P-wave (km/s) = 6.64733 7.57728 7.12749
#
# Compressibility (1/GPa) = 0.01898313
#
# Stress axis : x y z
#
# Youngs Moduli (GPa) = 31.83920 94.76093 93.83358
#
# Poissons Ratio (x) = 0.75369 0.61498
# Poissons Ratio (y) = 0.25324 0.21674
# Poissons Ratio (z) = 0.20867 0.21888
#
# Static dielectric constant tensor:
#      x y z
#    x 3.073910 0.000000 0.000000 
#    y 0.000000 3.461940 0.000000 
#    z 0.000000 0.000000 4.518080 
# 
# 
# High freq. dielectric constant tensor:
#      x y z
#    x 1.704090 0.000000 0.000000 
#    y 0.000000 1.733230 0.000000 
#    z 0.000000 0.000000 1.732330 
# 
# From -- ./inp_files/14879.got.cif
#   From: 2010.03.12/outbox.cif.g09.slc.cpg/sg59_8_cif.got.tgz:14879.got - 2010.04.16 16:29:54.
