data_PCOD8244034
_publ_section_title
;
Structure prediction by ZEFSAII (Michael W. Deem and Ramdas Pophale) SiO2 
 PCOD8244034
Probable space group: P M M N
;
_chemical_formula_sum "Si O2"
_cell_formula_units_Z 64
_cell_length_a 17.967533
_cell_length_b 8.796157
_cell_length_c 21.417810
_cell_angle_alpha 90.000000
_cell_angle_beta 90.000000
_cell_angle_gamma 90.000000
_cell_volume 3384.982947
_symmetry_space_group_name_H-M "P M M N"
_symmetry_group_IT_number 59
_space_group.IT_coordinate_system_code '2'
_symmetry_cell_setting 'orthorhombic'
loop_
_space_group_symop_operation_xyz
x,y,z
1/2-x,1/2-y,z
1/2+x,-y,-z
-x,1/2+y,-z
-x,-y,-z
1/2+x,1/2+y,-z
1/2-x,y,z
x,1/2-y,z
loop_
_atom_site_type_symbol
_atom_site_label
_atom_site_fract_x
_atom_site_fract_y
_atom_site_fract_z
Si Si1 0.564262 0.071071 0.613217
Si Si2 0.664127 0.926079 0.275507
Si Si3 0.332501 0.429515 0.135483
Si Si4 0.336961 0.076367 0.489032
Si Si5 0.904336 0.423423 0.751296
Si Si6 0.551261 0.578438 0.173787
Si Si7 0.905453 0.428462 0.393403
Si Si8 0.523546 0.572177 0.935503
O O1 0.545928 0.250000 0.613596
O O2 0.598553 0.020260 0.679822
O O3 0.623608 0.032481 0.560510
O O4 0.490183 0.978684 0.597846
O O5 0.750000 0.970211 0.271834
O O6 0.651855 0.750000 0.294474
O O7 0.629630 0.957286 0.206994
O O8 0.623282 0.033139 0.324625
O O9 0.250000 0.486841 0.115052
O O10 0.335831 0.250000 0.134219
O O11 0.348101 0.479864 0.206440
O O12 0.396214 0.493806 0.088425
O O13 0.250000 0.064812 0.476641
O O14 0.364785 0.250000 0.481988
O O15 0.353794 0.018066 0.558283
O O16 0.878309 0.250000 0.756776
O O17 0.988671 0.445549 0.773805
O O18 0.549180 0.750000 0.147414
O O19 0.539290 0.465860 0.115780
O O20 0.898977 0.250000 0.405750
O O21 0.528445 0.750000 0.945253
O O22 0.500000 0.500000 0.000000
#
# Coordination Sequence:
#
# PCOD8244034 Si02
#       8
#     8   8   8   8   8   8   8   8
#     4  11  22  39  61  84 112 146 188 234 282 341
#     4  10  20  36  59  85 114 149 187 230 284 341
#     4   9  19  35  55  81 113 146 183 228 274 325
#     4  11  25  43  59  78 109 148 189 235 289 346
#     4   9  18  33  55  81 109 142 178 220 270 327
#     4   9  17  34  56  80 111 144 181 223 268 326
#     4  12  24  38  59  84 112 146 189 237 286 340
#     4  10  20  35  57  83 110 148 191 230 274 324
#
# _framework density 18.907036999999999
#
# number of rings (size 3 to 8) (size 9 to 14) (size 15 to 20)
#    0.000    1.875    1.250    3.000    0.000    5.500 
#    0.000    3.125    0.000    3.750    0.000    0.000 
#    0.000    0.000    0.000    0.000    0.000    0.000 
#
# Total GULP energy -793735.659063 kJ/mol
# GULP energy per Si atom -12402.119673 kJ/mol
# Density = 1.886400 g / cm^3
# Si number density = 18.907037 Si / 1000 Ang^3
#
#
#
# Elastic Constant Matrix: (Units=GPa)
#
#
# Indices 1 2 3 4 5 6 
#
# 1 98.4420 31.7434 37.3007 0.0000 0.0000 0.0000
# 2 31.7434 51.0345 26.1333 0.0000 0.0000 0.0000
# 3 37.3007 26.1333 94.9149 0.0000 0.0000 0.0000
# 4 0.0000 0.0000 0.0000 34.4666 0.0000 0.0000
# 5 0.0000 0.0000 0.0000 0.0000 22.3930 0.0000
# 6 0.0000 0.0000 0.0000 0.0000 0.0000 25.6079
#
#
#
# Elastic Compliance Matrix: (Units=1/GPa)
#
#
# Indices 1 2 3 4 5 6 
#
# 1 0.013649 -0.006686 -0.003523 0.000000 0.000000 0.000000
# 2 -0.006686 0.026085 -0.004555 0.000000 0.000000 0.000000
# 3 -0.003523 -0.004555 0.013174 0.000000 0.000000 0.000000
# 4 0.000000 0.000000 0.000000 0.029014 0.000000 0.000000
# 5 0.000000 0.000000 0.000000 0.000000 0.044657 0.000000
# 6 0.000000 0.000000 0.000000 0.000000 0.000000 0.039050
#
#
# Mechanical properties :
#
#
# Convention : Reuss Voigt Hill
#
# Bulk Modulus (GPa) = 42.76849 48.30514 45.53682
# Shear Modulus (GPa) = 24.63649 26.44108 25.53878
#
# Velocity S-wave (km/s) = 3.61367 3.74368 3.67925
# Velocity P-wave (km/s) = 6.33096 6.65515 6.49508
#
# Compressibility (1/GPa) = 0.02338170
#
# Stress axis : x y z
#
# Youngs Moduli (GPa) = 73.26510 38.33564 75.90455
#
# Poissons Ratio (x) = 0.25630 0.26743
# Poissons Ratio (y) = 0.48982 0.34573
# Poissons Ratio (z) = 0.25813 0.17461
#
# Static dielectric constant tensor:
#      x y z
#    x 3.648010 0.000000 0.000000 
#    y 0.000000 3.454990 0.000000 
#    z 0.000000 0.000000 3.444310 
# 
# 
# High freq. dielectric constant tensor:
#      x y z
#    x 1.733160 0.000000 0.000000 
#    y 0.000000 1.732350 0.000000 
#    z 0.000000 0.000000 1.730980 
# 
# From -- ./inp_files/30728.got.cif
#   From: 2010.03.12/outbox.cif.g09.slc.cpg/sg59_16_cif.got.tgz:30728.got - 2010.04.16 16:29:54.
