data_PCOD8244245
_publ_section_title
;
Structure prediction by ZEFSAII (Michael W. Deem and Ramdas Pophale) SiO2 
 PCOD8244245
Probable space group: P M M N
;
_chemical_formula_sum "Si O2"
_cell_formula_units_Z 56
_cell_length_a 13.835243
_cell_length_b 18.154064
_cell_length_c 12.636227
_cell_angle_alpha 90.000000
_cell_angle_beta 90.000000
_cell_angle_gamma 90.000000
_cell_volume 3173.789161
_symmetry_space_group_name_H-M "P M M N"
_symmetry_group_IT_number 59
_space_group.IT_coordinate_system_code '2'
_symmetry_cell_setting 'orthorhombic'
loop_
_space_group_symop_operation_xyz
x,y,z
1/2-x,1/2-y,z
1/2+x,-y,-z
-x,1/2+y,-z
-x,-y,-z
1/2+x,1/2+y,-z
1/2-x,y,z
x,1/2-y,z
loop_
_atom_site_type_symbol
_atom_site_label
_atom_site_fract_x
_atom_site_fract_y
_atom_site_fract_z
Si Si1 0.861159 0.571022 0.219456
Si Si2 0.638362 0.940778 0.972089
Si Si3 0.034077 0.836638 0.285637
Si Si4 0.862593 0.407206 0.283120
Si Si5 0.860638 0.334535 0.500665
Si Si6 0.136620 0.893914 0.084530
Si Si7 0.018162 0.666153 0.897869
O O1 0.750000 0.590026 0.243467
O O2 0.890072 0.492031 0.266366
O O3 0.925383 0.633224 0.275145
O O4 0.882977 0.571747 0.095188
O O5 0.750000 0.928077 0.944421
O O6 0.577808 0.883258 0.903492
O O7 0.605732 0.022834 0.941992
O O8 0.034185 0.750000 0.264664
O O9 0.071581 0.856586 0.401979
O O10 0.105532 0.875569 0.203217
O O11 0.750000 0.393617 0.259109
O O12 0.889873 0.385853 0.402582
O O13 0.921115 0.355671 0.204431
O O14 0.750000 0.347961 0.534732
O O15 0.876500 0.250000 0.467061
O O16 0.250000 0.881683 0.071043
O O17 0.082905 0.840882 0.002701
O O18 0.984177 0.750000 0.886695
#
# Coordination Sequence:
#
# PCOD8244245 Si02
#       7
#     8   8   8   8   8   8   8
#     4  10  20  36  56  76 104 142 184 223 260 310
#     4  10  21  38  55  73 107 151 182 212 262 319
#     4  11  22  35  53  79 110 142 175 217 270 322
#     4  10  20  36  57  80 106 140 180 221 264 315
#     4   9  19  36  55  76 107 142 171 208 266 328
#     4  11  21  34  53  78 107 139 173 214 266 320
#     4  12  22  32  53  83 109 136 174 222 267 313
#
# _framework density 17.644525000000002
#
# number of rings (size 3 to 8) (size 9 to 14) (size 15 to 20)
#    0.000    1.571    2.857    3.000    0.000    4.286 
#    0.000    1.429    0.000    0.857    0.000    2.000 
#    0.000    0.000    0.000    0.000    0.000    0.000 
#
# Total GULP energy -694712.246713 kJ/mol
# GULP energy per Si atom -12405.575834 kJ/mol
# Density = 1.760437 g / cm^3
# Si number density = 17.644525 Si / 1000 Ang^3
#
#
#
# Elastic Constant Matrix: (Units=GPa)
#
#
# Indices 1 2 3 4 5 6 
#
# 1 61.8551 39.0421 32.2341 0.0000 0.0000 0.0000
# 2 39.0421 70.1651 28.7069 0.0000 0.0000 0.0000
# 3 32.2341 28.7069 79.7423 0.0000 0.0000 0.0000
# 4 0.0000 0.0000 0.0000 20.1403 0.0000 0.0000
# 5 0.0000 0.0000 0.0000 0.0000 29.4476 0.0000
# 6 0.0000 0.0000 0.0000 0.0000 0.0000 27.4926
#
#
#
# Elastic Compliance Matrix: (Units=1/GPa)
#
#
# Indices 1 2 3 4 5 6 
#
# 1 0.027592 -0.012654 -0.006598 0.000000 0.000000 0.000000
# 2 -0.012654 0.022517 -0.002991 0.000000 0.000000 0.000000
# 3 -0.006598 -0.002991 0.016284 0.000000 0.000000 0.000000
# 4 0.000000 0.000000 0.000000 0.049652 0.000000 0.000000
# 5 0.000000 0.000000 0.000000 0.000000 0.033959 0.000000
# 6 0.000000 0.000000 0.000000 0.000000 0.000000 0.036373
#
#
# Mechanical properties :
#
#
# Convention : Reuss Voigt Hill
#
# Bulk Modulus (GPa) = 45.64653 45.74764 45.69709
# Shear Modulus (GPa) = 20.99384 22.86804 21.93094
#
# Velocity S-wave (km/s) = 3.45312 3.60396 3.52935
# Velocity P-wave (km/s) = 6.46722 6.58041 6.52406
#
# Compressibility (1/GPa) = 0.02190747
#
# Stress axis : x y z
#
# Youngs Moduli (GPa) = 36.24223 44.41159 61.40868
#
# Poissons Ratio (x) = 0.56196 0.40519
# Poissons Ratio (y) = 0.45859 0.18367
# Poissons Ratio (z) = 0.23914 0.13283
#
# Static dielectric constant tensor:
#      x y z
#    x 3.296710 0.000000 0.000000 
#    y 0.000000 3.257020 0.000000 
#    z 0.000000 0.000000 3.230640 
# 
# 
# High freq. dielectric constant tensor:
#      x y z
#    x 1.685190 0.000000 0.000000 
#    y 0.000000 1.683800 0.000000 
#    z 0.000000 0.000000 1.676520 
# 
# From -- ./inp_files/16927.got.cif
#   From: 2010.03.12/outbox.cif.g09.slc.cpg/sg59_9_cif.got.tgz:16927.got - 2010.04.16 16:29:54.
