data_PCOD8244373
_publ_section_title
;
Structure prediction by ZEFSAII (Michael W. Deem and Ramdas Pophale) SiO2 
 PCOD8244373
Probable space group: P M M N
;
_chemical_formula_sum "Si O2"
_cell_formula_units_Z 48
_cell_length_a 17.890368
_cell_length_b 8.833204
_cell_length_c 15.875358
_cell_angle_alpha 90.000000
_cell_angle_beta 90.000000
_cell_angle_gamma 90.000000
_cell_volume 2508.771239
_symmetry_space_group_name_H-M "P M M N"
_symmetry_group_IT_number 59
_space_group.IT_coordinate_system_code '2'
_symmetry_cell_setting 'orthorhombic'
loop_
_space_group_symop_operation_xyz
x,y,z
1/2-x,1/2-y,z
1/2+x,-y,-z
-x,1/2+y,-z
-x,-y,-z
1/2+x,1/2+y,-z
1/2-x,y,z
x,1/2-y,z
loop_
_atom_site_type_symbol
_atom_site_label
_atom_site_fract_x
_atom_site_fract_y
_atom_site_fract_z
Si Si1 0.544020 0.573075 0.816929
Si Si2 0.250000 0.428250 0.782842
Si Si3 0.383910 0.570755 0.884397
Si Si4 0.018039 0.077365 0.373758
Si Si5 0.250000 0.924887 0.604024
Si Si6 0.165295 0.570960 0.068149
Si Si7 0.112235 0.078171 0.533953
O O1 0.553570 0.750000 0.832323
O O2 0.466711 0.516111 0.858715
O O3 0.545114 0.530756 0.718675
O O4 0.614788 0.491336 0.857131
O O5 0.250000 0.250000 0.794938
O O6 0.324577 0.495072 0.823079
O O7 0.250000 0.469266 0.685209
O O8 0.374990 0.750000 0.874506
O O9 0.368252 0.515605 0.979188
O O10 0.987213 0.250000 0.374110
O O11 0.087247 0.060861 0.437251
O O12 0.953496 0.963337 0.401466
O O13 0.250000 0.750000 0.630878
O O14 0.178972 0.961588 0.546705
O O15 0.250000 0.509341 0.077722
O O16 0.164786 0.750000 0.072325
O O17 0.137215 0.250000 0.553017
#
# Coordination Sequence:
#
# PCOD8244373 Si02
#       7
#     8   4   8   8   4   8   8
#     4  10  21  36  59  87 111 148 197 239 282 340
#     4  12  24  36  58  91 120 147 188 239 290 343
#     4  10  20  38  60  83 118 156 189 231 291 349
#     4   9  19  37  58  84 116 150 187 232 292 347
#     4  12  24  38  56  81 114 151 190 231 284 347
#     4  10  21  38  57  79 116 159 194 236 290 336
#     4  10  20  36  59  84 115 148 186 237 287 341
#
# _framework density 19.132871000000002
#
# number of rings (size 3 to 8) (size 9 to 14) (size 15 to 20)
#    0.000    1.833    0.833    3.500    0.000    4.333 
#    1.500    0.000    0.000    0.000    0.000    0.000 
#    0.000    0.000    0.000    0.000    0.000    0.000 
#
# Total GULP energy -595389.866645 kJ/mol
# GULP energy per Si atom -12403.955555 kJ/mol
# Density = 1.908932 g / cm^3
# Si number density = 19.132871 Si / 1000 Ang^3
#
#
#
# Elastic Constant Matrix: (Units=GPa)
#
#
# Indices 1 2 3 4 5 6 
#
# 1 125.4913 31.7099 77.9055 0.0000 0.0000 0.0000
# 2 31.7099 43.5265 28.8235 0.0000 0.0000 0.0000
# 3 77.9055 28.8235 136.1602 0.0000 0.0000 0.0000
# 4 0.0000 0.0000 0.0000 27.7597 0.0000 0.0000
# 5 0.0000 0.0000 0.0000 0.0000 25.7298 0.0000
# 6 0.0000 0.0000 0.0000 0.0000 0.0000 25.5978
#
#
#
# Elastic Compliance Matrix: (Units=1/GPa)
#
#
# Indices 1 2 3 4 5 6 
#
# 1 0.013382 -0.005441 -0.006505 0.000000 0.000000 0.000000
# 2 -0.005441 0.028933 -0.003011 0.000000 0.000000 0.000000
# 3 -0.006505 -0.003011 0.011703 0.000000 0.000000 0.000000
# 4 0.000000 0.000000 0.000000 0.036023 0.000000 0.000000
# 5 0.000000 0.000000 0.000000 0.000000 0.038865 0.000000
# 6 0.000000 0.000000 0.000000 0.000000 0.000000 0.039066
#
#
# Mechanical properties :
#
#
# Convention : Reuss Voigt Hill
#
# Bulk Modulus (GPa) = 41.48828 64.67287 53.08057
# Shear Modulus (GPa) = 24.28103 26.93340 25.60722
#
# Velocity S-wave (km/s) = 3.56627 3.75601 3.66237
# Velocity P-wave (km/s) = 6.22006 7.25848 6.75924
#
# Compressibility (1/GPa) = 0.02410319
#
# Stress axis : x y z
#
# Youngs Moduli (GPa) = 74.72855 34.56275 85.44488
#
# Poissons Ratio (x) = 0.18807 0.55579
# Poissons Ratio (y) = 0.40663 0.25730
# Poissons Ratio (z) = 0.48608 0.10408
#
# Static dielectric constant tensor:
#      x y z
#    x 3.600990 0.000000 0.000000 
#    y 0.000000 3.412720 0.000000 
#    z 0.000000 0.000000 3.596390 
# 
# 
# High freq. dielectric constant tensor:
#      x y z
#    x 1.747430 0.000000 0.000000 
#    y 0.000000 1.738410 0.000000 
#    z 0.000000 0.000000 1.751160 
# 
# From -- ./inp_files/20487.got.cif
#   From: 2010.03.12/outbox.cif.g09.slc.cpg/sg59_11_cif.got.tgz:20487.got - 2010.04.16 16:29:54.
