data_PCOD8244857
_publ_section_title
;
Structure prediction by ZEFSAII (Michael W. Deem and Ramdas Pophale) SiO2 
 PCOD8244857
Probable space group: P M M N
;
_chemical_formula_sum "Si O2"
_cell_formula_units_Z 26
_cell_length_a 15.302955
_cell_length_b 7.629329
_cell_length_c 11.249128
_cell_angle_alpha 90.000000
_cell_angle_beta 90.000000
_cell_angle_gamma 90.000000
_cell_volume 1313.350075
_symmetry_space_group_name_H-M "P M M N"
_symmetry_group_IT_number 59
_space_group.IT_coordinate_system_code '2'
_symmetry_cell_setting 'orthorhombic'
loop_
_space_group_symop_operation_xyz
x,y,z
1/2-x,1/2-y,z
1/2+x,-y,-z
-x,1/2+y,-z
-x,-y,-z
1/2+x,1/2+y,-z
1/2-x,y,z
x,1/2-y,z
loop_
_atom_site_type_symbol
_atom_site_label
_atom_site_fract_x
_atom_site_fract_y
_atom_site_fract_z
Si Si1 0.404689 0.045863 0.544563
Si Si2 0.750000 0.250000 0.816114
Si Si3 0.250000 0.459346 0.377130
Si Si4 0.646134 0.554446 0.200107
Si Si5 0.347021 0.750000 0.956837
O O1 0.388970 0.250000 0.555366
O O2 0.334588 0.975501 0.449914
O O3 0.388420 0.969605 0.676130
O O4 0.500000 0.000000 0.500000
O O5 0.750000 0.430892 0.744243
O O6 0.837770 0.250000 0.899526
O O7 0.250000 0.250000 0.349220
O O8 0.750000 0.567745 0.204802
O O9 0.607516 0.750000 0.177574
O O10 0.609393 0.428526 0.094392
O O11 0.250000 0.750000 0.899018
#
# Coordination Sequence:
#
# PCOD8244857 Si02
#       5
#     8   2   4   8   4
#     4  10  21  35  56  90 117 150 185 231 299 357
#     4  10  22  34  58  86 108 154 200 232 278 340
#     4  10  22  39  55  81 125 152 183 232 292 352
#     4   9  16  31  54  79 111 137 181 235 278 328
#     4   8  18  31  50  87  98 140 198 231 266 325
#
# _framework density 19.796703999999998
#
# number of rings (size 3 to 8) (size 9 to 14) (size 15 to 20)
#    0.462    2.154    1.538    0.000    4.308    1.231 
#    0.000    0.000    0.000    1.846    0.000    0.000 
#    0.000    0.000    0.000    0.000    0.000    0.000 
#
# Total GULP energy -322139.550617 kJ/mol
# GULP energy per Si atom -12389.982716 kJ/mol
# Density = 1.975165 g / cm^3
# Si number density = 19.796704 Si / 1000 Ang^3
#
#
#
# Elastic Constant Matrix: (Units=GPa)
#
#
# Indices 1 2 3 4 5 6 
#
# 1 78.8084 16.8246 38.3291 0.0000 0.0000 0.0000
# 2 16.8246 102.5561 65.8394 0.0000 0.0000 0.0000
# 3 38.3291 65.8394 149.3494 0.0000 0.0000 0.0000
# 4 0.0000 0.0000 0.0000 40.5864 0.0000 0.0000
# 5 0.0000 0.0000 0.0000 0.0000 6.7388 0.0000
# 6 0.0000 0.0000 0.0000 0.0000 0.0000 18.1446
#
#
#
# Elastic Compliance Matrix: (Units=1/GPa)
#
#
# Indices 1 2 3 4 5 6 
#
# 1 0.014499 0.000014 -0.003727 0.000000 0.000000 0.000000
# 2 0.000014 0.013600 -0.005999 0.000000 0.000000 0.000000
# 3 -0.003727 -0.005999 0.010297 0.000000 0.000000 0.000000
# 4 0.000000 0.000000 0.000000 0.024639 0.000000 0.000000
# 5 0.000000 0.000000 0.000000 0.000000 0.148395 0.000000
# 6 0.000000 0.000000 0.000000 0.000000 0.000000 0.055113
#
#
# Mechanical properties :
#
#
# Convention : Reuss Voigt Hill
#
# Bulk Modulus (GPa) = 52.71096 63.63333 58.17215
# Shear Modulus (GPa) = 17.10634 27.07536 22.09085
#
# Velocity S-wave (km/s) = 2.94275 3.70221 3.34411
# Velocity P-wave (km/s) = 6.18306 7.10552 6.66028
#
# Compressibility (1/GPa) = 0.01897139
#
# Stress axis : x y z
#
# Youngs Moduli (GPa) = 68.97158 73.53135 97.11705
#
# Poissons Ratio (x) = -0.00105 0.36198
# Poissons Ratio (y) = -0.00098 0.58260
# Poissons Ratio (z) = 0.25707 0.44111
#
# Static dielectric constant tensor:
#      x y z
#    x 3.116190 0.000000 0.000000 
#    y 0.000000 3.790420 0.000000 
#    z 0.000000 0.000000 3.557320 
# 
# 
# High freq. dielectric constant tensor:
#      x y z
#    x 1.729280 0.000000 0.000000 
#    y 0.000000 1.780560 0.000000 
#    z 0.000000 0.000000 1.766720 
# 
# From -- ./inp_files/5147.got.cif
#   From: 2010.03.12/outbox.cif.g09.slc.cpg/sg59_3_cif.got.tgz:5147.got - 2010.04.16 16:29:54.
