data_PCOD8244714
_publ_section_title
;
Structure prediction by ZEFSAII (Michael W. Deem and Ramdas Pophale) SiO2 
 PCOD8244714
Probable space group: P M M N
;
_chemical_formula_sum "Si O2"
_cell_formula_units_Z 64
_cell_length_a 8.918215
_cell_length_b 14.596225
_cell_length_c 26.043272
_cell_angle_alpha 90.000000
_cell_angle_beta 90.000000
_cell_angle_gamma 90.000000
_cell_volume 3390.111906
_symmetry_space_group_name_H-M "P M M N"
_symmetry_group_IT_number 59
_space_group.IT_coordinate_system_code '2'
_symmetry_cell_setting 'orthorhombic'
loop_
_space_group_symop_operation_xyz
x,y,z
1/2-x,1/2-y,z
1/2+x,-y,-z
-x,1/2+y,-z
-x,-y,-z
1/2+x,1/2+y,-z
1/2-x,y,z
x,1/2-y,z
loop_
_atom_site_type_symbol
_atom_site_label
_atom_site_fract_x
_atom_site_fract_y
_atom_site_fract_z
Si Si1 0.425135 0.998891 0.054742
Si Si2 0.924895 0.643689 0.241922
Si Si3 0.423478 0.354764 0.136129
Si Si4 0.427181 0.498924 0.312364
Si Si5 0.076686 0.643469 0.493819
Si Si6 0.076394 0.856873 0.759557
Si Si7 0.576335 0.995426 0.420890
Si Si8 0.924754 0.354816 0.862906
O O1 0.250000 0.995350 0.045064
O O2 0.478664 0.911185 0.087533
O O3 0.472769 0.089181 0.086079
O O4 0.500000 0.000000 0.000000
O O5 0.750000 0.622031 0.244001
O O6 0.961149 0.750000 0.250342
O O7 0.006147 0.590247 0.287251
O O8 0.986271 0.610398 0.186931
O O9 0.250000 0.372510 0.149809
O O10 0.456545 0.250000 0.122750
O O11 0.519850 0.388129 0.184547
O O12 0.250000 0.503076 0.309053
O O13 0.485008 0.408609 0.283970
O O14 0.477022 0.493087 0.370833
O O15 0.250000 0.636322 0.477031
O O16 0.029310 0.750000 0.501165
O O17 0.050089 0.587928 0.546429
O O18 0.975462 0.596394 0.450309
O O19 0.250000 0.882707 0.754757
O O20 0.046380 0.750000 0.751222
O O21 0.750000 0.983503 0.406211
O O22 0.750000 0.371491 0.851597
O O23 0.962044 0.250000 0.875169
#
# Coordination Sequence:
#
# PCOD8244714 Si02
#       8
#     8   8   8   8   8   8   8   8
#     4  10  21  34  49  72 100 132 171 216 266 318
#     4  10  21  37  58  84 111 141 181 227 275 328
#     4   9  18  34  54  75 102 136 174 216 264 321
#     4  12  24  37  56  82 116 154 187 225 272 323
#     4   9  19  38  62  84 109 145 186 227 275 329
#     4  10  21  37  58  84 112 143 181 225 274 327
#     4  10  21  37  57  84 115 146 185 231 276 321
#     4   9  18  34  54  75 102 136 173 214 264 323
#
# _framework density 18.878433000000001
#
# number of rings (size 3 to 8) (size 9 to 14) (size 15 to 20)
#    0.000    2.125    0.000    3.000    0.000    5.750 
#    0.000    1.250    0.000    0.000    0.000    0.000 
#    0.000    0.000    0.000    0.000    0.000    0.000 
#
# Total GULP energy -793787.501930 kJ/mol
# GULP energy per Si atom -12402.929718 kJ/mol
# Density = 1.883547 g / cm^3
# Si number density = 18.878433 Si / 1000 Ang^3
#
#
#
# Elastic Constant Matrix: (Units=GPa)
#
#
# Indices 1 2 3 4 5 6 
#
# 1 92.7781 42.8157 56.3081 0.0000 0.0000 0.0000
# 2 42.8157 114.7487 59.7386 0.0000 0.0000 0.0000
# 3 56.3081 59.7386 131.4828 0.0000 0.0000 0.0000
# 4 0.0000 0.0000 0.0000 37.4001 0.0000 0.0000
# 5 0.0000 0.0000 0.0000 0.0000 40.0748 0.0000
# 6 0.0000 0.0000 0.0000 0.0000 0.0000 26.0718
#
#
#
# Elastic Compliance Matrix: (Units=1/GPa)
#
#
# Indices 1 2 3 4 5 6 
#
# 1 0.015320 -0.003013 -0.005192 0.000000 0.000000 0.000000
# 2 -0.003013 0.012007 -0.004165 0.000000 0.000000 0.000000
# 3 -0.005192 -0.004165 0.011721 0.000000 0.000000 0.000000
# 4 0.000000 0.000000 0.000000 0.026738 0.000000 0.000000
# 5 0.000000 0.000000 0.000000 0.000000 0.024953 0.000000
# 6 0.000000 0.000000 0.000000 0.000000 0.000000 0.038356
#
#
# Mechanical properties :
#
#
# Convention : Reuss Voigt Hill
#
# Bulk Modulus (GPa) = 69.88920 72.97051 71.42985
# Shear Modulus (GPa) = 31.52482 32.71916 32.12199
#
# Velocity S-wave (km/s) = 4.09086 4.16763 4.12942
# Velocity P-wave (km/s) = 7.70808 7.86737 7.78813
#
# Compressibility (1/GPa) = 0.01430836
#
# Stress axis : x y z
#
# Youngs Moduli (GPa) = 65.27430 83.28202 85.31505
#
# Poissons Ratio (x) = 0.25097 0.44293
# Poissons Ratio (y) = 0.19670 0.35534
# Poissons Ratio (z) = 0.33888 0.34687
#
# Static dielectric constant tensor:
#      x y z
#    x 3.586770 0.000000 0.000000 
#    y 0.000000 3.644010 0.000000 
#    z 0.000000 0.000000 3.432560 
# 
# 
# High freq. dielectric constant tensor:
#      x y z
#    x 1.736200 0.000000 0.000000 
#    y 0.000000 1.745650 0.000000 
#    z 0.000000 0.000000 1.730520 
# 
# From -- ./inp_files/31499.got.cif
#   From: 2010.03.12/outbox.cif.g09.slc.cpg/sg59_16_cif.got.tgz:31499.got - 2010.04.16 16:29:54.
