data_PCOD8244372
_publ_section_title
;
Structure prediction by ZEFSAII (Michael W. Deem and Ramdas Pophale) SiO2 
 PCOD8244372
Probable space group: P M M N
;
_chemical_formula_sum "Si O2"
_cell_formula_units_Z 40
_cell_length_a 9.078320
_cell_length_b 29.223821
_cell_length_c 7.392391
_cell_angle_alpha 90.000000
_cell_angle_beta 90.000000
_cell_angle_gamma 90.000000
_cell_volume 1961.224978
_symmetry_space_group_name_H-M "P M M N"
_symmetry_group_IT_number 59
_space_group.IT_coordinate_system_code '2'
_symmetry_cell_setting 'orthorhombic'
loop_
_space_group_symop_operation_xyz
x,y,z
1/2-x,1/2-y,z
1/2+x,-y,-z
-x,1/2+y,-z
-x,-y,-z
1/2+x,1/2+y,-z
1/2-x,y,z
x,1/2-y,z
loop_
_atom_site_type_symbol
_atom_site_label
_atom_site_fract_x
_atom_site_fract_y
_atom_site_fract_z
Si Si1 0.581105 0.302423 0.562208
Si Si2 0.075476 0.354443 0.862355
Si Si3 0.576517 0.369024 0.237067
Si Si4 0.412792 0.454174 0.800988
Si Si5 0.413873 0.460380 0.229784
O O1 0.750000 0.311343 0.617691
O O2 0.553826 0.250000 0.508391
O O3 0.479373 0.313988 0.733706
O O4 0.536597 0.332623 0.390597
O O5 0.250000 0.351716 0.894097
O O6 0.031388 0.402502 0.765189
O O7 0.997439 0.350143 0.055362
O O8 0.750000 0.374344 0.205181
O O9 0.511614 0.418035 0.298563
O O10 0.250000 0.461316 0.719949
O O11 0.517900 0.491189 0.704181
O O12 0.408682 0.461004 0.014916
O O13 0.250000 0.455587 0.311194
#
# Coordination Sequence:
#
# PCOD8244372 Si02
#       5
#     8   8   8   8   8
#     4  10  23  42  61  82 109 144 188 235 282 335
#     4  10  21  37  59  87 116 147 185 231 282 333
#     4  10  20  36  59  84 114 152 189 228 278 335
#     4   8  15  28  47  75 111 147 182 221 269 328
#     4   9  16  27  48  79 112 146 186 229 271 320
#
# _framework density 20.395415
#
# number of rings (size 3 to 8) (size 9 to 14) (size 15 to 20)
#    0.000    2.600    0.000    3.000    0.000    8.400 
#    0.000    3.000    0.000    0.000    0.000    0.000 
#    0.000    0.000    0.000    0.000    0.000    0.000 
#
# Total GULP energy -495972.344482 kJ/mol
# GULP energy per Si atom -12399.308612 kJ/mol
# Density = 2.034899 g / cm^3
# Si number density = 20.395415 Si / 1000 Ang^3
#
#
#
# Elastic Constant Matrix: (Units=GPa)
#
#
# Indices 1 2 3 4 5 6 
#
# 1 90.2054 20.3541 14.0327 0.0000 0.0000 0.0000
# 2 20.3541 76.2012 4.5280 0.0000 0.0000 0.0000
# 3 14.0327 4.5280 33.8159 0.0000 0.0000 0.0000
# 4 0.0000 0.0000 0.0000 19.1169 0.0000 0.0000
# 5 0.0000 0.0000 0.0000 0.0000 3.2102 0.0000
# 6 0.0000 0.0000 0.0000 0.0000 0.0000 32.8518
#
#
#
# Elastic Compliance Matrix: (Units=1/GPa)
#
#
# Indices 1 2 3 4 5 6 
#
# 1 0.012521 -0.003060 -0.004786 0.000000 0.000000 0.000000
# 2 -0.003060 0.013976 -0.000602 0.000000 0.000000 0.000000
# 3 -0.004786 -0.000602 0.031639 0.000000 0.000000 0.000000
# 4 0.000000 0.000000 0.000000 0.052310 0.000000 0.000000
# 5 0.000000 0.000000 0.000000 0.000000 0.311504 0.000000
# 6 0.000000 0.000000 0.000000 0.000000 0.000000 0.030440
#
#
# Mechanical properties :
#
#
# Convention : Reuss Voigt Hill
#
# Bulk Modulus (GPa) = 24.24817 30.89467 27.57142
# Shear Modulus (GPa) = 10.35129 21.78963 16.07046
#
# Velocity S-wave (km/s) = 2.25529 3.27212 2.81008
# Velocity P-wave (km/s) = 4.32396 5.42738 4.90678
#
# Compressibility (1/GPa) = 0.04124022
#
# Stress axis : x y z
#
# Youngs Moduli (GPa) = 79.86693 71.54980 31.60703
#
# Poissons Ratio (x) = 0.21895 0.15127
# Poissons Ratio (y) = 0.24440 0.01901
# Poissons Ratio (z) = 0.38225 0.04304
#
# Static dielectric constant tensor:
#      x y z
#    x 3.828160 0.000000 0.000000 
#    y 0.000000 3.867810 0.000000 
#    z 0.000000 0.000000 3.334350 
# 
# 
# High freq. dielectric constant tensor:
#      x y z
#    x 1.801590 0.000000 0.000000 
#    y 0.000000 1.798040 0.000000 
#    z 0.000000 0.000000 1.779400 
# 
# From -- ./inp_files/6039.got.cif
#   From: 2010.03.12/outbox.cif.g09.slc.cpg/sg59_4_cif.got.tgz:6039.got - 2010.04.16 16:29:54.
