data_PCOD8244050
_publ_section_title
;
Structure prediction by ZEFSAII (Michael W. Deem and Ramdas Pophale) SiO2 
 PCOD8244050
Probable space group: P M M N
;
_chemical_formula_sum "Si O2"
_cell_formula_units_Z 48
_cell_length_a 8.642710
_cell_length_b 15.190539
_cell_length_c 18.766614
_cell_angle_alpha 90.000000
_cell_angle_beta 90.000000
_cell_angle_gamma 90.000000
_cell_volume 2463.820397
_symmetry_space_group_name_H-M "P M M N"
_symmetry_group_IT_number 59
_space_group.IT_coordinate_system_code '2'
_symmetry_cell_setting 'orthorhombic'
loop_
_space_group_symop_operation_xyz
x,y,z
1/2-x,1/2-y,z
1/2+x,-y,-z
-x,1/2+y,-z
-x,-y,-z
1/2+x,1/2+y,-z
1/2-x,y,z
x,1/2-y,z
loop_
_atom_site_type_symbol
_atom_site_label
_atom_site_fract_x
_atom_site_fract_y
_atom_site_fract_z
Si Si1 0.419824 0.464105 0.304418
Si Si2 0.066833 0.504793 0.921733
Si Si3 0.432112 0.650392 0.807816
Si Si4 0.080968 0.608007 0.188224
Si Si5 0.569864 0.250000 0.579850
Si Si6 0.424339 0.250000 0.726987
Si Si7 0.433290 0.440008 0.561885
O O1 0.250000 0.439435 0.336437
O O2 0.502258 0.378811 0.270085
O O3 0.394937 0.524389 0.236813
O O4 0.518621 0.516092 0.363431
O O5 0.250000 0.496143 0.923702
O O6 0.016133 0.591292 0.876001
O O7 0.990650 0.418876 0.886861
O O8 0.000000 0.500000 0.000000
O O9 0.250000 0.644452 0.799452
O O10 0.488332 0.750000 0.822743
O O11 0.250000 0.653989 0.177451
O O12 0.950603 0.666744 0.224101
O O13 0.750000 0.250000 0.560010
O O14 0.549994 0.250000 0.664559
O O15 0.494409 0.340097 0.550303
O O16 0.250000 0.250000 0.695633
O O17 0.500000 0.500000 0.500000
O O18 0.250000 0.436957 0.558016
#
# Coordination Sequence:
#
# PCOD8244050 Si02
#       7
#     8   8   8   8   4   4   8
#     4  10  20  36  60  88 118 151 194 244 298 357
#     4  10  20  36  57  81 115 154 198 246 301 363
#     4   9  19  37  60  84 112 152 202 251 303 364
#     4  10  20  35  57  83 114 151 191 239 294 348
#     4  12  24  42  66  94 126 163 206 253 310 374
#     4  12  22  34  58  90 120 151 194 243 292 348
#     4  12  25  43  66  93 127 166 207 256 311 370
#
# _framework density 19.481939000000001
#
# number of rings (size 3 to 8) (size 9 to 14) (size 15 to 20)
#    0.000    1.500    1.667    4.500    0.000    2.333 
#    3.000    0.000    0.000    0.000    0.000    0.000 
#    0.000    0.000    0.000    0.000    0.000    0.000 
#
# Total GULP energy -594848.750563 kJ/mol
# GULP energy per Si atom -12392.682303 kJ/mol
# Density = 1.943760 g / cm^3
# Si number density = 19.481939 Si / 1000 Ang^3
#
#
#
# Elastic Constant Matrix: (Units=GPa)
#
#
# Indices 1 2 3 4 5 6 
#
# 1 131.2148 47.0555 43.6323 0.0000 0.0000 0.0000
# 2 47.0555 120.0523 50.4377 0.0000 0.0000 0.0000
# 3 43.6323 50.4377 105.1723 0.0000 0.0000 0.0000
# 4 0.0000 0.0000 0.0000 31.3430 0.0000 0.0000
# 5 0.0000 0.0000 0.0000 0.0000 33.6070 0.0000
# 6 0.0000 0.0000 0.0000 0.0000 0.0000 29.0370
#
#
#
# Elastic Compliance Matrix: (Units=1/GPa)
#
#
# Indices 1 2 3 4 5 6 
#
# 1 0.009435 -0.002572 -0.002681 0.000000 0.000000 0.000000
# 2 -0.002572 0.011132 -0.004272 0.000000 0.000000 0.000000
# 3 -0.002681 -0.004272 0.012669 0.000000 0.000000 0.000000
# 4 0.000000 0.000000 0.000000 0.031905 0.000000 0.000000
# 5 0.000000 0.000000 0.000000 0.000000 0.029756 0.000000
# 6 0.000000 0.000000 0.000000 0.000000 0.000000 0.034439
#
#
# Mechanical properties :
#
#
# Convention : Reuss Voigt Hill
#
# Bulk Modulus (GPa) = 70.48507 70.96559 70.72533
# Shear Modulus (GPa) = 32.65539 33.15165 32.90352
#
# Velocity S-wave (km/s) = 4.09857 4.12959 4.11411
# Velocity P-wave (km/s) = 7.65872 7.69698 7.67787
#
# Compressibility (1/GPa) = 0.01418740
#
# Stress axis : x y z
#
# Youngs Moduli (GPa) = 105.99053 89.82719 78.93236
#
# Poissons Ratio (x) = 0.23101 0.21160
# Poissons Ratio (y) = 0.27258 0.33719
# Poissons Ratio (z) = 0.28414 0.38373
#
# Static dielectric constant tensor:
#      x y z
#    x 3.951550 0.000000 0.000000 
#    y 0.000000 3.687390 0.000000 
#    z 0.000000 0.000000 3.478370 
# 
# 
# High freq. dielectric constant tensor:
#      x y z
#    x 1.774210 0.000000 0.000000 
#    y 0.000000 1.755090 0.000000 
#    z 0.000000 0.000000 1.748840 
# 
# From -- ./inp_files/25575.got.cif
#   From: 2010.03.12/outbox.cif.g09.slc.cpg/sg59_13_cif.got.tgz:25575.got - 2010.04.16 16:29:54.
