data_PCOD8244354
_publ_section_title
;
Structure prediction by ZEFSAII (Michael W. Deem and Ramdas Pophale) SiO2 
 PCOD8244354
Probable space group: P M M N
;
_chemical_formula_sum "Si O2"
_cell_formula_units_Z 48
_cell_length_a 24.254133
_cell_length_b 14.169682
_cell_length_c 7.077539
_cell_angle_alpha 90.000000
_cell_angle_beta 90.000000
_cell_angle_gamma 90.000000
_cell_volume 2432.361551
_symmetry_space_group_name_H-M "P M M N"
_symmetry_group_IT_number 59
_space_group.IT_coordinate_system_code '2'
_symmetry_cell_setting 'orthorhombic'
loop_
_space_group_symop_operation_xyz
x,y,z
1/2-x,1/2-y,z
1/2+x,-y,-z
-x,1/2+y,-z
-x,-y,-z
1/2+x,1/2+y,-z
1/2-x,y,z
x,1/2-y,z
loop_
_atom_site_type_symbol
_atom_site_label
_atom_site_fract_x
_atom_site_fract_y
_atom_site_fract_z
Si Si1 0.474284 0.642681 0.710646
Si Si2 0.313262 0.543873 0.682480
Si Si3 0.899782 0.042223 0.008466
Si Si4 0.594880 0.643706 0.815613
Si Si5 0.312184 0.355385 0.484136
Si Si6 0.390160 0.639458 0.393910
O O1 0.458428 0.750000 0.762457
O O2 0.453844 0.577824 0.882762
O O3 0.539857 0.629784 0.688904
O O4 0.445140 0.614656 0.513999
O O5 0.250000 0.572999 0.710463
O O6 0.345716 0.570788 0.872435
O O7 0.320416 0.431508 0.649467
O O8 0.336608 0.601678 0.504211
O O9 0.895835 0.088058 0.804062
O O10 0.904601 0.928920 0.989596
O O11 0.597336 0.750000 0.898084
O O12 0.647167 0.621084 0.686396
O O13 0.250000 0.362734 0.403196
O O14 0.323668 0.250000 0.565299
O O15 0.383401 0.750000 0.358314
#
# Coordination Sequence:
#
# PCOD8244354 Si02
#       6
#     8   8   8   8   8   8
#     4   9  20  38  57  83 119 150 187 234 280 338
#     4  10  22  39  58  83 114 147 187 234 281 335
#     4  11  21  36  58  87 115 152 187 232 286 341
#     4  10  20  36  58  87 116 148 192 236 278 334
#     4   9  18  36  60  82 110 149 188 228 279 335
#     4  10  21  39  60  82 112 152 190 232 287 334
#
# _framework density 19.733909000000001
#
# number of rings (size 3 to 8) (size 9 to 14) (size 15 to 20)
#    0.000    2.167    1.667    1.000    0.000    3.667 
#    3.000    0.000    0.000    0.000    0.000    0.000 
#    0.000    0.000    0.000    0.000    0.000    0.000 
#
# Total GULP energy -595243.835132 kJ/mol
# GULP energy per Si atom -12400.913232 kJ/mol
# Density = 1.968899 g / cm^3
# Si number density = 19.733909 Si / 1000 Ang^3
#
#
#
# Elastic Constant Matrix: (Units=GPa)
#
#
# Indices 1 2 3 4 5 6 
#
# 1 116.0231 29.9955 44.2654 0.0000 0.0000 0.0000
# 2 29.9955 91.4072 48.0531 0.0000 0.0000 0.0000
# 3 44.2654 48.0531 116.8893 0.0000 0.0000 0.0000
# 4 0.0000 0.0000 0.0000 29.2660 0.0000 0.0000
# 5 0.0000 0.0000 0.0000 0.0000 16.9695 0.0000
# 6 0.0000 0.0000 0.0000 0.0000 0.0000 27.9026
#
#
#
# Elastic Compliance Matrix: (Units=1/GPa)
#
#
# Indices 1 2 3 4 5 6 
#
# 1 0.010276 -0.001692 -0.003196 0.000000 0.000000 0.000000
# 2 -0.001692 0.014235 -0.005211 0.000000 0.000000 0.000000
# 3 -0.003196 -0.005211 0.011908 0.000000 0.000000 0.000000
# 4 0.000000 0.000000 0.000000 0.034169 0.000000 0.000000
# 5 0.000000 0.000000 0.000000 0.000000 0.058929 0.000000
# 6 0.000000 0.000000 0.000000 0.000000 0.000000 0.035839
#
#
# Mechanical properties :
#
#
# Convention : Reuss Voigt Hill
#
# Bulk Modulus (GPa) = 61.65123 63.21641 62.43382
# Shear Modulus (GPa) = 26.18344 28.29465 27.23905
#
# Velocity S-wave (km/s) = 3.64651 3.79067 3.71929
# Velocity P-wave (km/s) = 7.00275 7.15981 7.08172
#
# Compressibility (1/GPa) = 0.01622028
#
# Stress axis : x y z
#
# Youngs Moduli (GPa) = 97.31739 70.25027 83.97972
#
# Poissons Ratio (x) = 0.11886 0.26838
# Poissons Ratio (y) = 0.16466 0.43763
# Poissons Ratio (z) = 0.31100 0.36609
#
# Static dielectric constant tensor:
#      x y z
#    x 3.690780 0.000000 0.000000 
#    y 0.000000 3.915790 0.000000 
#    z 0.000000 0.000000 3.271290 
# 
# 
# High freq. dielectric constant tensor:
#      x y z
#    x 1.777030 0.000000 0.000000 
#    y 0.000000 1.785170 0.000000 
#    z 0.000000 0.000000 1.744010 
# 
# From -- ./inp_files/2130.got.cif
#   From: 2010.03.12/outbox.cif.g09.slc.cpg/sg59_2_cif.got.tgz:2130.got - 2010.04.16 16:29:54.
