data_PCOD8244138
_publ_section_title
;
Structure prediction by ZEFSAII (Michael W. Deem and Ramdas Pophale) SiO2 
 PCOD8244138
Probable space group: P M M N
;
_chemical_formula_sum "Si O2"
_cell_formula_units_Z 56
_cell_length_a 19.002540
_cell_length_b 9.142035
_cell_length_c 16.415386
_cell_angle_alpha 90.000000
_cell_angle_beta 90.000000
_cell_angle_gamma 90.000000
_cell_volume 2851.711812
_symmetry_space_group_name_H-M "P M M N"
_symmetry_group_IT_number 59
_space_group.IT_coordinate_system_code '2'
_symmetry_cell_setting 'orthorhombic'
loop_
_space_group_symop_operation_xyz
x,y,z
1/2-x,1/2-y,z
1/2+x,-y,-z
-x,1/2+y,-z
-x,-y,-z
1/2+x,1/2+y,-z
1/2-x,y,z
x,1/2-y,z
loop_
_atom_site_type_symbol
_atom_site_label
_atom_site_fract_x
_atom_site_fract_y
_atom_site_fract_z
Si Si1 0.572858 0.416941 0.999742
Si Si2 0.330417 0.576451 0.146803
Si Si3 0.667788 0.583418 0.312495
Si Si4 0.167546 0.582015 0.526877
Si Si5 0.436886 0.081967 0.254037
Si Si6 0.584678 0.415083 0.182860
Si Si7 0.946008 0.577958 0.560571
O O1 0.555436 0.250000 0.978253
O O2 0.606964 0.431334 0.089040
O O3 0.500000 0.500000 0.000000
O O4 0.629068 0.479260 0.934535
O O5 0.250000 0.518672 0.144442
O O6 0.331138 0.750000 0.152943
O O7 0.370112 0.513244 0.226024
O O8 0.750000 0.567050 0.297387
O O9 0.646766 0.750000 0.332396
O O10 0.642803 0.481282 0.386380
O O11 0.630132 0.532117 0.230995
O O12 0.250000 0.564652 0.513740
O O13 0.143055 0.750000 0.522799
O O14 0.131245 0.487317 0.456549
O O15 0.413070 0.250000 0.250560
O O16 0.501941 0.049897 0.193784
O O17 0.462213 0.040874 0.345324
O O18 0.600235 0.250000 0.214158
O O19 0.947724 0.750000 0.543515
O O20 0.000000 0.500000 0.500000
#
# Coordination Sequence:
#
# PCOD8244138 Si02
#       7
#     8   8   8   8   8   8   8
#     4  10  20  36  60  86 114 151 193 240 288 342
#     4  10  22  39  59  87 120 154 196 243 291 346
#     4  10  21  36  55  83 117 150 189 238 290 346
#     4  10  21  38  59  81 110 151 195 239 292 353
#     4  10  22  39  58  84 115 150 193 238 287 344
#     4  10  20  35  58  85 114 150 192 235 285 348
#     4  11  23  38  59  87 119 152 194 247 296 350
#
# _framework density 19.637328
#
# number of rings (size 3 to 8) (size 9 to 14) (size 15 to 20)
#    0.000    1.857    1.429    2.143    0.000    6.571 
#    0.000    4.286    0.000    0.000    0.000    0.000 
#    0.000    0.000    0.000    0.000    0.000    0.000 
#
# Total GULP energy -694545.141023 kJ/mol
# GULP energy per Si atom -12402.591804 kJ/mol
# Density = 1.959263 g / cm^3
# Si number density = 19.637328 Si / 1000 Ang^3
#
#
#
# Elastic Constant Matrix: (Units=GPa)
#
#
# Indices 1 2 3 4 5 6 
#
# 1 79.8095 44.7948 48.5122 0.0000 0.0000 0.0000
# 2 44.7948 78.1616 40.6582 0.0000 0.0000 0.0000
# 3 48.5122 40.6582 102.6485 0.0000 0.0000 0.0000
# 4 0.0000 0.0000 0.0000 32.6500 0.0000 0.0000
# 5 0.0000 0.0000 0.0000 0.0000 35.5664 0.0000
# 6 0.0000 0.0000 0.0000 0.0000 0.0000 35.6715
#
#
#
# Elastic Compliance Matrix: (Units=1/GPa)
#
#
# Indices 1 2 3 4 5 6 
#
# 1 0.021580 -0.008895 -0.006676 0.000000 0.000000 0.000000
# 2 -0.008895 0.019781 -0.003631 0.000000 0.000000 0.000000
# 3 -0.006676 -0.003631 0.014335 0.000000 0.000000 0.000000
# 4 0.000000 0.000000 0.000000 0.030628 0.000000 0.000000
# 5 0.000000 0.000000 0.000000 0.000000 0.028116 0.000000
# 6 0.000000 0.000000 0.000000 0.000000 0.000000 0.028034
#
#
# Mechanical properties :
#
#
# Convention : Reuss Voigt Hill
#
# Bulk Modulus (GPa) = 57.82912 58.72781 58.27846
# Shear Modulus (GPa) = 26.78927 29.22118 28.00522
#
# Velocity S-wave (km/s) = 3.69752 3.86170 3.78050
# Velocity P-wave (km/s) = 6.90951 7.06079 6.98556
#
# Compressibility (1/GPa) = 0.01729233
#
# Stress axis : x y z
#
# Youngs Moduli (GPa) = 46.33870 50.55431 69.75864
#
# Poissons Ratio (x) = 0.44969 0.46568
# Poissons Ratio (y) = 0.41219 0.25330
# Poissons Ratio (z) = 0.30934 0.18357
#
# Static dielectric constant tensor:
#      x y z
#    x 3.575390 0.000000 0.000000 
#    y 0.000000 3.598290 0.000000 
#    z 0.000000 0.000000 3.704180 
# 
# 
# High freq. dielectric constant tensor:
#      x y z
#    x 1.762730 0.000000 0.000000 
#    y 0.000000 1.765080 0.000000 
#    z 0.000000 0.000000 1.769400 
# 
# From -- ./inp_files/24282.got.cif
#   From: 2010.03.12/outbox.cif.g09.slc.cpg/sg59_13_cif.got.tgz:24282.got - 2010.04.16 16:29:54.
