data_PCOD8244160
_publ_section_title
;
Structure prediction by ZEFSAII (Michael W. Deem and Ramdas Pophale) SiO2 
 PCOD8244160
Probable space group: P M M N
;
_chemical_formula_sum "Si O2"
_cell_formula_units_Z 64
_cell_length_a 9.235651
_cell_length_b 23.455510
_cell_length_c 15.203645
_cell_angle_alpha 90.000000
_cell_angle_beta 90.000000
_cell_angle_gamma 90.000000
_cell_volume 3293.518552
_symmetry_space_group_name_H-M "P M M N"
_symmetry_group_IT_number 59
_space_group.IT_coordinate_system_code '2'
_symmetry_cell_setting 'orthorhombic'
loop_
_space_group_symop_operation_xyz
x,y,z
1/2-x,1/2-y,z
1/2+x,-y,-z
-x,1/2+y,-z
-x,-y,-z
1/2+x,1/2+y,-z
1/2-x,y,z
x,1/2-y,z
loop_
_atom_site_type_symbol
_atom_site_label
_atom_site_fract_x
_atom_site_fract_y
_atom_site_fract_z
Si Si1 0.084029 0.815984 0.488536
Si Si2 0.081758 0.883798 0.160912
Si Si3 0.078946 0.125840 0.665175
Si Si4 0.417516 0.494969 0.590381
Si Si5 0.582484 0.994969 0.909619
Si Si6 0.418242 0.883798 0.660912
Si Si7 0.084029 0.684015 0.988536
Si Si8 0.421054 0.374160 0.165175
O O1 0.250000 0.831239 0.465091
O O2 0.066056 0.750000 0.512072
O O3 0.031619 0.852083 0.572395
O O4 0.983728 0.830775 0.406229
O O5 0.250000 0.871895 0.180119
O O6 0.031619 0.852083 0.072395
O O7 0.988726 0.858635 0.240710
O O8 0.048567 0.950931 0.151627
O O9 0.250000 0.133703 0.670018
O O10 0.032280 0.061474 0.641299
O O11 0.500000 0.500000 0.500000
O O12 0.250000 0.492048 0.565596
O O13 0.451434 0.549069 0.651627
O O14 0.750000 0.992048 0.934404
O O15 0.532280 0.938525 0.858701
O O16 0.500000 0.000000 0.000000
O O17 0.250000 0.871895 0.680119
O O18 0.511274 0.858635 0.740710
O O19 0.250000 0.668760 0.965091
O O20 0.066057 0.750000 0.012072
O O21 0.983728 0.669225 0.906229
O O22 0.250000 0.366297 0.170018
#
# Coordination Sequence:
#
# PCOD8244160 Si02
#       8
#     8   8   8   8   8   8   8   8
#     4  10  22  41  63  84 110 151 201 245 284 335
#     4  10  21  38  60  86 117 155 196 238 283 342
#     4  11  23  37  58  90 122 152 187 236 295 350
#     4  10  20  35  58  87 118 153 191 233 288 345
#     4  10  20  35  58  87 118 153 191 233 288 345
#     4  10  21  38  60  86 117 155 196 238 283 342
#     4  10  22  41  63  84 110 151 201 245 284 335
#     4  11  23  37  58  90 122 152 187 236 295 350
#
# _framework density 19.432106000000001
#
# number of rings (size 3 to 8) (size 9 to 14) (size 15 to 20)
#    0.000    1.750    2.500    1.500    0.000    4.500 
#    0.000    2.500    0.000    0.000    0.000    0.000 
#    0.000    0.000    0.000    0.000    0.000    0.000 
#
# Total GULP energy -793958.012715 kJ/mol
# GULP energy per Si atom -12405.593949 kJ/mol
# Density = 1.938788 g / cm^3
# Si number density = 19.432106 Si / 1000 Ang^3
#
#
#
# Elastic Constant Matrix: (Units=GPa)
#
#
# Indices 1 2 3 4 5 6 
#
# 1 64.8701 17.4813 53.1550 0.0000 0.0000 0.0000
# 2 17.4813 68.7632 13.8296 0.0000 0.0000 0.0000
# 3 53.1550 13.8296 121.0046 0.0000 0.0000 0.0000
# 4 0.0000 0.0000 0.0000 17.4548 0.0000 0.0000
# 5 0.0000 0.0000 0.0000 0.0000 39.1768 0.0000
# 6 0.0000 0.0000 0.0000 0.0000 0.0000 26.8774
#
#
#
# Elastic Compliance Matrix: (Units=1/GPa)
#
#
# Indices 1 2 3 4 5 6 
#
# 1 0.025263 -0.004289 -0.010607 0.000000 0.000000 0.000000
# 2 -0.004289 0.015613 0.000100 0.000000 0.000000 0.000000
# 3 -0.010607 0.000100 0.012912 0.000000 0.000000 0.000000
# 4 0.000000 0.000000 0.000000 0.057291 0.000000 0.000000
# 5 0.000000 0.000000 0.000000 0.000000 0.025525 0.000000
# 6 0.000000 0.000000 0.000000 0.000000 0.000000 0.037206
#
#
# Mechanical properties :
#
#
# Convention : Reuss Voigt Hill
#
# Bulk Modulus (GPa) = 41.33111 47.06331 44.19721
# Shear Modulus (GPa) = 23.64414 28.04659 25.84536
#
# Velocity S-wave (km/s) = 3.49199 3.80322 3.65092
# Velocity P-wave (km/s) = 6.12979 6.59984 6.36915
#
# Compressibility (1/GPa) = 0.02419485
#
# Stress axis : x y z
#
# Youngs Moduli (GPa) = 39.58367 64.04911 77.44534
#
# Poissons Ratio (x) = 0.27471 0.82149
# Poissons Ratio (y) = 0.16978 -0.00772
# Poissons Ratio (z) = 0.41988 -0.00639
#
# Static dielectric constant tensor:
#      x y z
#    x 3.643580 0.000000 0.000000 
#    y 0.000000 3.682420 0.000000 
#    z 0.000000 0.000000 3.493410 
# 
# 
# High freq. dielectric constant tensor:
#      x y z
#    x 1.751480 0.000000 0.000000 
#    y 0.000000 1.757620 0.000000 
#    z 0.000000 0.000000 1.761380 
# 
# From -- ./inp_files/21520.got.cif
#   From: 2010.03.12/outbox.cif.g09.slc.cpg/sg59_11_cif.got.tgz:21520.got - 2010.04.16 16:29:54.
