data_PCOD8244899
_publ_section_title
;
Structure prediction by ZEFSAII (Michael W. Deem and Ramdas Pophale) SiO2 
 PCOD8244899
Probable space group: P M M N
;
_chemical_formula_sum "Si O2"
_cell_formula_units_Z 64
_cell_length_a 19.792843
_cell_length_b 9.335015
_cell_length_c 19.052761
_cell_angle_alpha 90.000000
_cell_angle_beta 90.000000
_cell_angle_gamma 90.000000
_cell_volume 3520.311704
_symmetry_space_group_name_H-M "P M M N"
_symmetry_group_IT_number 59
_space_group.IT_coordinate_system_code '2'
_symmetry_cell_setting 'orthorhombic'
loop_
_space_group_symop_operation_xyz
x,y,z
1/2-x,1/2-y,z
1/2+x,-y,-z
-x,1/2+y,-z
-x,-y,-z
1/2+x,1/2+y,-z
1/2-x,y,z
x,1/2-y,z
loop_
_atom_site_type_symbol
_atom_site_label
_atom_site_fract_x
_atom_site_fract_y
_atom_site_fract_z
Si Si1 0.583698 0.416950 0.068843
Si Si2 0.448645 0.587904 0.081276
Si Si3 0.053191 0.582806 0.710481
Si Si4 0.428445 0.586208 0.234661
Si Si5 0.327978 0.087446 0.486075
Si Si6 0.554490 0.418575 0.452613
Si Si7 0.174735 0.919337 0.806383
Si Si8 0.828280 0.589452 0.675420
O O1 0.575903 0.250000 0.084506
O O2 0.512387 0.485590 0.087087
O O3 0.642276 0.477531 0.120226
O O4 0.599069 0.448635 0.986160
O O5 0.476003 0.750000 0.073170
O O6 0.406374 0.571488 0.153064
O O7 0.040965 0.750000 0.724093
O O8 0.043796 0.545839 0.628884
O O9 0.127048 0.537360 0.740322
O O10 0.997901 0.496677 0.753641
O O11 0.439862 0.750000 0.256553
O O12 0.368007 0.525384 0.280135
O O13 0.250000 0.047611 0.496926
O O14 0.342120 0.250000 0.511555
O O15 0.349415 0.073762 0.405259
O O16 0.370844 0.974056 0.529840
O O17 0.500000 0.500000 0.500000
O O18 0.549228 0.250000 0.467842
O O19 0.250000 0.986828 0.796830
O O20 0.181871 0.750000 0.810044
O O21 0.750000 0.556673 0.685188
O O22 0.845886 0.750000 0.701061
#
# Coordination Sequence:
#
# PCOD8244899 Si02
#       8
#     8   8   8   8   8   8   8   8
#     4   9  16  30  52  74  97 132 175 210 249 304
#     4   9  18  30  47  75 106 132 165 210 256 301
#     4  10  21  36  53  75 103 137 179 218 260 313
#     4  11  21  32  50  78 110 138 169 215 263 309
#     4   9  19  37  58  77 100 133 173 217 264 318
#     4  11  23  36  53  78 107 138 173 221 271 319
#     4   9  17  31  53  78 102 132 176 224 260 298
#     4   9  19  36  56  76 100 134 175 214 255 311
#
# _framework density 18.180208
#
# number of rings (size 3 to 8) (size 9 to 14) (size 15 to 20)
#    0.000    2.375    1.250    2.250    0.000    6.000 
#    0.000    3.125    0.000    3.750    0.000    0.000 
#    0.000    0.000    0.000    0.000    0.000    0.000 
#
# Total GULP energy -793332.525472 kJ/mol
# GULP energy per Si atom -12395.820710 kJ/mol
# Density = 1.813883 g / cm^3
# Si number density = 18.180208 Si / 1000 Ang^3
#
#
#
# Elastic Constant Matrix: (Units=GPa)
#
#
# Indices 1 2 3 4 5 6 
#
# 1 72.0862 32.7208 48.5605 0.0000 0.0000 0.0000
# 2 32.7208 59.2948 45.7881 0.0000 0.0000 0.0000
# 3 48.5605 45.7881 110.5739 0.0000 0.0000 0.0000
# 4 0.0000 0.0000 0.0000 22.5859 0.0000 0.0000
# 5 0.0000 0.0000 0.0000 0.0000 30.5252 0.0000
# 6 0.0000 0.0000 0.0000 0.0000 0.0000 27.2079
#
#
#
# Elastic Compliance Matrix: (Units=1/GPa)
#
#
# Indices 1 2 3 4 5 6 
#
# 1 0.021360 -0.006679 -0.006615 0.000000 0.000000 0.000000
# 2 -0.006679 0.026881 -0.008198 0.000000 0.000000 0.000000
# 3 -0.006615 -0.008198 0.015344 0.000000 0.000000 0.000000
# 4 0.000000 0.000000 0.000000 0.044275 0.000000 0.000000
# 5 0.000000 0.000000 0.000000 0.000000 0.032760 0.000000
# 6 0.000000 0.000000 0.000000 0.000000 0.000000 0.036754
#
#
# Mechanical properties :
#
#
# Convention : Reuss Voigt Hill
#
# Bulk Modulus (GPa) = 48.54204 55.12151 51.83177
# Shear Modulus (GPa) = 22.00457 23.72284 22.86371
#
# Velocity S-wave (km/s) = 3.48280 3.61622 3.55013
# Velocity P-wave (km/s) = 6.55222 6.91530 6.73621
#
# Compressibility (1/GPa) = 0.02060070
#
# Stress axis : x y z
#
# Youngs Moduli (GPa) = 46.81634 37.20047 65.17373
#
# Poissons Ratio (x) = 0.24847 0.43112
# Poissons Ratio (y) = 0.31269 0.53431
# Poissons Ratio (z) = 0.30968 0.30498
#
# Static dielectric constant tensor:
#      x y z
#    x 3.356230 0.000000 0.000000 
#    y 0.000000 3.267470 0.000000 
#    z 0.000000 0.000000 3.614520 
# 
# 
# High freq. dielectric constant tensor:
#      x y z
#    x 1.690550 0.000000 0.000000 
#    y 0.000000 1.692180 0.000000 
#    z 0.000000 0.000000 1.715950 
# 
# From -- ./inp_files/26291.got.cif
#   From: 2010.03.12/outbox.cif.g09.slc.cpg/sg59_14_cif.got.tgz:26291.got - 2010.04.16 16:29:54.
