data_PCOD8244172
_publ_section_title
;
Structure prediction by ZEFSAII (Michael W. Deem and Ramdas Pophale) SiO2 
 PCOD8244172
Probable space group: P M M N
;
_chemical_formula_sum "Si O2"
_cell_formula_units_Z 40
_cell_length_a 8.825849
_cell_length_b 15.474382
_cell_length_c 14.317923
_cell_angle_alpha 90.000000
_cell_angle_beta 90.000000
_cell_angle_gamma 90.000000
_cell_volume 1955.464018
_symmetry_space_group_name_H-M "P M M N"
_symmetry_group_IT_number 59
_space_group.IT_coordinate_system_code '2'
_symmetry_cell_setting 'orthorhombic'
loop_
_space_group_symop_operation_xyz
x,y,z
1/2-x,1/2-y,z
1/2+x,-y,-z
-x,1/2+y,-z
-x,-y,-z
1/2+x,1/2+y,-z
1/2-x,y,z
x,1/2-y,z
loop_
_atom_site_type_symbol
_atom_site_label
_atom_site_fract_x
_atom_site_fract_y
_atom_site_fract_z
Si Si1 0.071380 0.250000 0.102854
Si Si2 0.424528 0.849708 0.414363
Si Si3 0.426864 0.582189 0.214664
Si Si4 0.427694 0.593070 0.787172
Si Si5 0.927534 0.250000 0.903207
Si Si6 0.076499 0.148076 0.397146
O O1 0.250000 0.250000 0.114896
O O2 0.008470 0.335217 0.151244
O O3 0.026778 0.250000 0.995415
O O4 0.250000 0.863040 0.441508
O O5 0.457983 0.750000 0.391918
O O6 0.468839 0.903648 0.323080
O O7 0.525489 0.883150 0.500438
O O8 0.250000 0.562285 0.203289
O O9 0.521878 0.501129 0.176089
O O10 0.472779 0.666059 0.155950
O O11 0.250000 0.604738 0.798837
O O12 0.474503 0.601019 0.679250
O O13 0.750000 0.250000 0.928347
O O14 0.250000 0.120901 0.381520
O O15 0.052465 0.250000 0.386682
#
# Coordination Sequence:
#
# PCOD8244172 Si02
#       6
#     4   8   8   8   4   8
#     4  12  26  46  69  92 121 158 201 258 318 372
#     4   9  17  33  59  90 124 165 209 251 299 357
#     4  10  21  40  66  95 128 165 206 254 306 364
#     4  12  25  41  64  93 125 164 208 256 308 370
#     4  10  22  44  71  96 123 160 203 252 312 370
#     4  10  20  35  58  88 124 166 209 256 306 359
#
# _framework density 20.455501999999999
#
# number of rings (size 3 to 8) (size 9 to 14) (size 15 to 20)
#    0.000    1.600    2.000    3.300    0.000    4.000 
#    0.000    0.000    0.000    0.000    0.000    0.000 
#    0.000    0.000    0.000    0.000    0.000    0.000 
#
# Total GULP energy -496190.163113 kJ/mol
# GULP energy per Si atom -12404.754078 kJ/mol
# Density = 2.040894 g / cm^3
# Si number density = 20.455502 Si / 1000 Ang^3
#
#
#
# Elastic Constant Matrix: (Units=GPa)
#
#
# Indices 1 2 3 4 5 6 
#
# 1 131.2054 68.5364 62.6978 0.0000 0.0000 0.0000
# 2 68.5364 136.8850 59.9028 0.0000 0.0000 0.0000
# 3 62.6978 59.9028 114.1219 0.0000 0.0000 0.0000
# 4 0.0000 0.0000 0.0000 -0.8458 0.0000 0.0000
# 5 0.0000 0.0000 0.0000 0.0000 32.5429 0.0000
# 6 0.0000 0.0000 0.0000 0.0000 0.0000 26.3432
#
#
#
# Elastic Compliance Matrix: (Units=1/GPa)
#
#
# Indices 1 2 3 4 5 6 
#
# 1 0.011803 -0.003988 -0.004391 0.000000 0.000000 0.000000
# 2 -0.003988 0.010831 -0.003494 0.000000 0.000000 0.000000
# 3 -0.004391 -0.003494 0.013009 0.000000 0.000000 0.000000
# 4 0.000000 0.000000 0.000000 -1.182320 0.000000 0.000000
# 5 0.000000 0.000000 0.000000 0.000000 0.030729 0.000000
# 6 0.000000 0.000000 0.000000 0.000000 0.000000 0.037960
#
#
# Mechanical properties :
#
#
# Convention : Reuss Voigt Hill
#
# Bulk Modulus (GPa) = 84.05857 84.94293 84.50075
# Shear Modulus (GPa) = -4.76066 24.34641 9.79288
#
# Velocity S-wave (km/s) = -1.52721 3.45369 2.19039
# Velocity P-wave (km/s) = 6.17031 7.58418 6.91349
#
# Compressibility (1/GPa) = 0.01189647
#
# Stress axis : x y z
#
# Youngs Moduli (GPa) = 84.72239 92.32465 76.86788
#
# Poissons Ratio (x) = 0.36819 0.33755
# Poissons Ratio (y) = 0.33787 0.26861
# Poissons Ratio (z) = 0.37204 0.32262
#
# Static dielectric constant tensor:
#      x y z
#    x 3.655910 0.000000 0.000000 
#    y 0.000000 3.767610 0.000000 
#    z 0.000000 0.000000 3.775200 
# 
# 
# High freq. dielectric constant tensor:
#      x y z
#    x 1.793750 0.000000 0.000000 
#    y 0.000000 1.807380 0.000000 
#    z 0.000000 0.000000 1.798930 
# 
# From -- ./inp_files/19991.got.cif
#   From: 2010.03.12/outbox.cif.g09.slc.cpg/sg59_10_cif.got.tgz:19991.got - 2010.04.16 16:29:54.
