data_PCOD8244280
_publ_section_title
;
Structure prediction by ZEFSAII (Michael W. Deem and Ramdas Pophale) SiO2 
 PCOD8244280
Probable space group: P M M N
;
_chemical_formula_sum "Si O2"
_cell_formula_units_Z 56
_cell_length_a 13.137665
_cell_length_b 13.265329
_cell_length_c 18.807391
_cell_angle_alpha 90.000000
_cell_angle_beta 90.000000
_cell_angle_gamma 90.000000
_cell_volume 3277.666502
_symmetry_space_group_name_H-M "P M M N"
_symmetry_group_IT_number 59
_space_group.IT_coordinate_system_code '2'
_symmetry_cell_setting 'orthorhombic'
loop_
_space_group_symop_operation_xyz
x,y,z
1/2-x,1/2-y,z
1/2+x,-y,-z
-x,1/2+y,-z
-x,-y,-z
1/2+x,1/2+y,-z
1/2-x,y,z
x,1/2-y,z
loop_
_atom_site_type_symbol
_atom_site_label
_atom_site_fract_x
_atom_site_fract_y
_atom_site_fract_z
Si Si1 0.633809 0.867436 0.417500
Si Si2 0.497702 0.498585 0.317385
Si Si3 0.632104 0.028158 0.068744
Si Si4 0.368549 0.866552 0.783988
Si Si5 0.867780 0.133785 0.787608
Si Si6 0.630058 0.636140 0.578484
Si Si7 0.037452 0.633777 0.061561
O O1 0.750000 0.901627 0.407062
O O2 0.621855 0.750000 0.400781
O O3 0.566039 0.926997 0.362593
O O4 0.598220 0.890790 0.497873
O O5 0.568570 0.418856 0.278048
O O6 0.433473 0.563259 0.262409
O O7 0.421904 0.440445 0.368546
O O8 0.750000 0.997832 0.067158
O O9 0.602470 0.084459 0.141014
O O10 0.568476 0.925883 0.062100
O O11 0.607646 0.103301 0.004493
O O12 0.250000 0.880504 0.766835
O O13 0.399549 0.750000 0.786897
O O14 0.750000 0.107007 0.776943
O O15 0.889625 0.250000 0.768177
O O16 0.897284 0.110898 0.868541
O O17 0.750000 0.625709 0.587474
O O18 0.595518 0.750000 0.596389
O O19 0.007541 0.750000 0.055299
#
# Coordination Sequence:
#
# PCOD8244280 Si02
#       7
#     8   8   8   8   8   8   8
#     4   9  19  35  53  74 102 134 171 214 258 310
#     4  12  19  32  53  80 102 136 170 214 261 312
#     4  10  20  36  57  80 105 141 181 218 256 302
#     4  10  21  35  51  76 108 138 171 213 261 311
#     4  10  21  35  51  76 108 138 171 213 261 311
#     4   9  19  35  53  74 100 134 175 214 254 306
#     4  10  20  36  57  80 105 141 181 218 256 302
#
# _framework density 17.085325000000001
#
# number of rings (size 3 to 8) (size 9 to 14) (size 15 to 20)
#    0.000    2.000    1.429    3.857    0.000    1.714 
#    0.000    0.000    0.000    0.000    0.000   12.000 
#    0.000    0.000    0.000    0.000    0.000    0.000 
#
# Total GULP energy -694537.413043 kJ/mol
# GULP energy per Si atom -12402.453804 kJ/mol
# Density = 1.704644 g / cm^3
# Si number density = 17.085325 Si / 1000 Ang^3
#
#
#
# Elastic Constant Matrix: (Units=GPa)
#
#
# Indices 1 2 3 4 5 6 
#
# 1 45.9194 30.6147 24.4104 0.0000 0.0000 0.0000
# 2 30.6147 78.4319 42.2385 0.0000 0.0000 0.0000
# 3 24.4104 42.2385 79.1962 0.0000 0.0000 0.0000
# 4 0.0000 0.0000 0.0000 34.6185 0.0000 0.0000
# 5 0.0000 0.0000 0.0000 0.0000 33.1087 0.0000
# 6 0.0000 0.0000 0.0000 0.0000 0.0000 31.2397
#
#
#
# Elastic Compliance Matrix: (Units=1/GPa)
#
#
# Indices 1 2 3 4 5 6 
#
# 1 0.030435 -0.009579 -0.004272 0.000000 0.000000 0.000000
# 2 -0.009579 0.020903 -0.008196 0.000000 0.000000 0.000000
# 3 -0.004272 -0.008196 0.018315 0.000000 0.000000 0.000000
# 4 0.000000 0.000000 0.000000 0.028886 0.000000 0.000000
# 5 0.000000 0.000000 0.000000 0.000000 0.030204 0.000000
# 6 0.000000 0.000000 0.000000 0.000000 0.000000 0.032011
#
#
# Mechanical properties :
#
#
# Convention : Reuss Voigt Hill
#
# Bulk Modulus (GPa) = 39.12574 44.23053 41.67813
# Shear Modulus (GPa) = 23.43400 26.87897 25.15649
#
# Velocity S-wave (km/s) = 3.70751 3.97069 3.84135
# Velocity P-wave (km/s) = 6.42475 6.85318 6.64242
#
# Compressibility (1/GPa) = 0.02555862
#
# Stress axis : x y z
#
# Youngs Moduli (GPa) = 32.85728 47.84085 54.60115
#
# Poissons Ratio (x) = 0.45827 0.23325
# Poissons Ratio (y) = 0.31474 0.44749
# Poissons Ratio (z) = 0.14036 0.39209
#
# Static dielectric constant tensor:
#      x y z
#    x 3.154120 0.000000 0.000000 
#    y 0.000000 3.234750 0.000000 
#    z 0.000000 0.000000 3.287330 
# 
# 
# High freq. dielectric constant tensor:
#      x y z
#    x 1.661540 0.000000 0.000000 
#    y 0.000000 1.664360 0.000000 
#    z 0.000000 0.000000 1.671890 
# 
# From -- ./inp_files/30075.got.cif
#   From: 2010.03.12/outbox.cif.g09.slc.cpg/sg59_16_cif.got.tgz:30075.got - 2010.04.16 16:29:54.
