data_PCOD8244767
_publ_section_title
;
Structure prediction by ZEFSAII (Michael W. Deem and Ramdas Pophale) SiO2 
 PCOD8244767
Probable space group: P M M N
;
_chemical_formula_sum "Si O2"
_cell_formula_units_Z 64
_cell_length_a 23.326648
_cell_length_b 9.191909
_cell_length_c 15.281397
_cell_angle_alpha 90.000000
_cell_angle_beta 90.000000
_cell_angle_gamma 90.000000
_cell_volume 3276.582524
_symmetry_space_group_name_H-M "P M M N"
_symmetry_group_IT_number 59
_space_group.IT_coordinate_system_code '2'
_symmetry_cell_setting 'orthorhombic'
loop_
_space_group_symop_operation_xyz
x,y,z
1/2-x,1/2-y,z
1/2+x,-y,-z
-x,1/2+y,-z
-x,-y,-z
1/2+x,1/2+y,-z
1/2-x,y,z
x,1/2-y,z
loop_
_atom_site_type_symbol
_atom_site_label
_atom_site_fract_x
_atom_site_fract_y
_atom_site_fract_z
Si Si1 0.486057 0.911979 0.586137
Si Si2 0.990780 0.922564 0.775456
Si Si3 0.886169 0.422669 0.176037
Si Si4 0.315526 0.409378 0.481051
Si Si5 0.682946 0.078609 0.007886
Si Si6 0.182252 0.587541 0.320171
Si Si7 0.868230 0.577053 0.840900
Si Si8 0.645001 0.412416 0.364501
O O1 0.510291 0.750000 0.571930
O O2 0.513549 0.981623 0.675070
O O3 0.418472 0.909273 0.598047
O O4 0.500000 0.000000 0.500000
O O5 0.996522 0.750000 0.767678
O O6 0.934930 0.968653 0.830319
O O7 0.048056 0.982970 0.824290
O O8 0.887955 0.250000 0.174484
O O9 0.850048 0.480059 0.093745
O O10 0.854446 0.472504 0.265055
O O11 0.250000 0.388634 0.454815
O O12 0.345594 0.250000 0.481157
O O13 0.344467 0.512540 0.407354
O O14 0.317831 0.479860 0.576813
O O15 0.750000 0.042532 0.017435
O O16 0.673383 0.250000 0.992368
O O17 0.655813 0.990177 0.929040
O O18 0.250000 0.600867 0.328007
O O19 0.155875 0.750000 0.310541
O O20 0.167970 0.487893 0.238024
O O21 0.860474 0.750000 0.841953
O O22 0.671639 0.250000 0.368520
#
# Coordination Sequence:
#
# PCOD8244767 Si02
#       8
#     8   8   8   8   8   8   8   8
#     4   9  18  32  50  75 106 140 178 221 266 316
#     4   8  17  34  53  77 109 144 181 221 271 324
#     4   8  16  35  59  79 107 143 182 228 275 325
#     4  10  21  35  51  75 108 145 182 220 271 332
#     4  10  21  37  58  84 109 139 183 231 280 331
#     4  10  21  37  55  75 104 142 183 230 276 322
#     4  11  22  35  55  82 111 144 180 222 275 336
#     4   9  18  33  54  79 105 137 179 227 272 319
#
# _framework density 19.532547000000001
#
# number of rings (size 3 to 8) (size 9 to 14) (size 15 to 20)
#    0.000    2.625    0.000    3.000    1.750    4.750 
#    0.000    2.500    0.000    3.000    0.000    0.000 
#    0.000    0.000    0.000    0.000    0.000    0.000 
#
# Total GULP energy -793302.730645 kJ/mol
# GULP energy per Si atom -12395.355166 kJ/mol
# Density = 1.948809 g / cm^3
# Si number density = 19.532547 Si / 1000 Ang^3
#
#
#
# Elastic Constant Matrix: (Units=GPa)
#
#
# Indices 1 2 3 4 5 6 
#
# 1 69.2221 38.0836 59.0803 0.0000 0.0000 0.0000
# 2 38.0836 86.9594 65.1226 0.0000 0.0000 0.0000
# 3 59.0803 65.1226 154.2217 0.0000 0.0000 0.0000
# 4 0.0000 0.0000 0.0000 12.1486 0.0000 0.0000
# 5 0.0000 0.0000 0.0000 0.0000 34.1209 0.0000
# 6 0.0000 0.0000 0.0000 0.0000 0.0000 19.4523
#
#
#
# Elastic Compliance Matrix: (Units=1/GPa)
#
#
# Indices 1 2 3 4 5 6 
#
# 1 0.022890 -0.005057 -0.006633 0.000000 0.000000 0.000000
# 2 -0.005057 0.017935 -0.005636 0.000000 0.000000 0.000000
# 3 -0.006633 -0.005636 0.011405 0.000000 0.000000 0.000000
# 4 0.000000 0.000000 0.000000 0.082314 0.000000 0.000000
# 5 0.000000 0.000000 0.000000 0.000000 0.029308 0.000000
# 6 0.000000 0.000000 0.000000 0.000000 0.000000 0.051408
#
#
# Mechanical properties :
#
#
# Convention : Reuss Voigt Hill
#
# Bulk Modulus (GPa) = 56.89141 70.55291 63.72216
# Shear Modulus (GPa) = 19.54869 23.01883 21.28376
#
# Velocity S-wave (km/s) = 3.16702 3.43663 3.30458
# Velocity P-wave (km/s) = 6.52403 7.20738 6.87420
#
# Compressibility (1/GPa) = 0.01757735
#
# Stress axis : x y z
#
# Youngs Moduli (GPa) = 43.68724 55.75662 87.67830
#
# Poissons Ratio (x) = 0.28195 0.58161
# Poissons Ratio (y) = 0.22092 0.49417
# Poissons Ratio (z) = 0.28980 0.31425
#
# Static dielectric constant tensor:
#      x y z
#    x 3.620900 0.000000 0.000000 
#    y 0.000000 3.605650 0.000000 
#    z 0.000000 0.000000 3.983440 
# 
# 
# High freq. dielectric constant tensor:
#      x y z
#    x 1.755730 0.000000 0.000000 
#    y 0.000000 1.735240 0.000000 
#    z 0.000000 0.000000 1.766760 
# 
# From -- ./inp_files/21613.got.cif
#   From: 2010.03.12/outbox.cif.g09.slc.cpg/sg59_11_cif.got.tgz:21613.got - 2010.04.16 16:29:54.
