data_PCOD8244689
_publ_section_title
;
Structure prediction by ZEFSAII (Michael W. Deem and Ramdas Pophale) SiO2 
 PCOD8244689
Probable space group: P M M N
;
_chemical_formula_sum "Si O2"
_cell_formula_units_Z 48
_cell_length_a 27.954410
_cell_length_b 8.631482
_cell_length_c 10.105969
_cell_angle_alpha 90.000000
_cell_angle_beta 90.000000
_cell_angle_gamma 90.000000
_cell_volume 2438.448914
_symmetry_space_group_name_H-M "P M M N"
_symmetry_group_IT_number 59
_space_group.IT_coordinate_system_code '2'
_symmetry_cell_setting 'orthorhombic'
loop_
_space_group_symop_operation_xyz
x,y,z
1/2-x,1/2-y,z
1/2+x,-y,-z
-x,1/2+y,-z
-x,-y,-z
1/2+x,1/2+y,-z
1/2-x,y,z
x,1/2-y,z
loop_
_atom_site_type_symbol
_atom_site_label
_atom_site_fract_x
_atom_site_fract_y
_atom_site_fract_z
Si Si1 0.008130 0.430208 0.144753
Si Si2 0.102150 0.933639 0.265015
Si Si3 0.650037 0.569234 0.480486
Si Si4 0.250000 0.566815 0.586313
Si Si5 0.346163 0.932741 0.009148
Si Si6 0.750000 0.435292 0.112902
Si Si7 0.904887 0.071939 0.240258
O O1 0.020849 0.250000 0.128321
O O2 0.961659 0.452097 0.237757
O O3 0.048955 0.519098 0.224157
O O4 0.000000 0.500000 0.000000
O O5 0.104180 0.750000 0.280437
O O6 0.138573 0.996073 0.152324
O O7 0.116899 0.010970 0.401209
O O8 0.658177 0.750000 0.492852
O O9 0.702226 0.490939 0.486696
O O10 0.621212 0.533405 0.347219
O O11 0.250000 0.750000 0.581314
O O12 0.250000 0.503622 0.736684
O O13 0.341257 0.750000 0.017122
O O14 0.295670 0.004288 0.963741
O O15 0.386553 0.979389 0.904028
O O16 0.750000 0.250000 0.114946
O O17 0.890796 0.250000 0.270285
#
# Coordination Sequence:
#
# PCOD8244689 Si02
#       7
#     8   8   8   4   8   4   8
#     4  11  22  38  63  93 126 163 209 264 319 377
#     4  11  23  41  63  90 126 168 212 258 315 380
#     4  12  26  42  61  93 132 166 205 260 317 372
#     4  11  21  40  69  92 120 168 209 249 308 373
#     4   9  17  33  59  92 119 149 202 258 301 359
#     4   9  16  30  61  94 116 142 195 257 300 349
#     4  10  20  39  64  91 120 160 211 256 304 375
#
# _framework density 19.684643000000001
#
# number of rings (size 3 to 8) (size 9 to 14) (size 15 to 20)
#    0.000    1.500    3.333    2.750    0.000    2.667 
#    0.000    1.667    0.000    0.000    0.000    0.000 
#    0.000    0.000    0.000    0.000    0.000    0.000 
#
# Total GULP energy -595262.961689 kJ/mol
# GULP energy per Si atom -12401.311702 kJ/mol
# Density = 1.963984 g / cm^3
# Si number density = 19.684643 Si / 1000 Ang^3
#
#
#
# Elastic Constant Matrix: (Units=GPa)
#
#
# Indices 1 2 3 4 5 6 
#
# 1 108.4586 25.7643 24.9763 0.0000 0.0000 0.0000
# 2 25.7643 80.8993 32.3390 0.0000 0.0000 0.0000
# 3 24.9763 32.3390 61.1699 0.0000 0.0000 0.0000
# 4 0.0000 0.0000 0.0000 24.3291 0.0000 0.0000
# 5 0.0000 0.0000 0.0000 0.0000 31.4734 0.0000
# 6 0.0000 0.0000 0.0000 0.0000 0.0000 32.9829
#
#
#
# Elastic Compliance Matrix: (Units=1/GPa)
#
#
# Indices 1 2 3 4 5 6 
#
# 1 0.010440 -0.002055 -0.003176 0.000000 0.000000 0.000000
# 2 -0.002055 0.016078 -0.007661 0.000000 0.000000 0.000000
# 3 -0.003176 -0.007661 0.021695 0.000000 0.000000 0.000000
# 4 0.000000 0.000000 0.000000 0.041103 0.000000 0.000000
# 5 0.000000 0.000000 0.000000 0.000000 0.031773 0.000000
# 6 0.000000 0.000000 0.000000 0.000000 0.000000 0.030319
#
#
# Mechanical properties :
#
#
# Convention : Reuss Voigt Hill
#
# Bulk Modulus (GPa) = 44.58665 46.29853 45.44259
# Shear Modulus (GPa) = 27.07569 28.92030 27.99800
#
# Velocity S-wave (km/s) = 3.71276 3.83715 3.77547
# Velocity P-wave (km/s) = 6.40930 6.57288 6.49161
#
# Compressibility (1/GPa) = 0.02242824
#
# Stress axis : x y z
#
# Youngs Moduli (GPa) = 95.78802 62.19703 46.09390
#
# Poissons Ratio (x) = 0.12782 0.14640
# Poissons Ratio (y) = 0.19686 0.35312
# Poissons Ratio (z) = 0.30424 0.47648
#
# Static dielectric constant tensor:
#      x y z
#    x 3.849150 0.000000 0.000000 
#    y 0.000000 3.398750 0.000000 
#    z 0.000000 0.000000 3.649920 
# 
# 
# High freq. dielectric constant tensor:
#      x y z
#    x 1.784360 0.000000 0.000000 
#    y 0.000000 1.747460 0.000000 
#    z 0.000000 0.000000 1.766690 
# 
# From -- ./inp_files/13066.got.cif
#   From: 2010.03.12/outbox.cif.g09.slc.cpg/sg59_7_cif.got.tgz:13066.got - 2010.04.16 16:29:54.
