data_PCOD8244216
_publ_section_title
;
Structure prediction by ZEFSAII (Michael W. Deem and Ramdas Pophale) SiO2 
 PCOD8244216
Probable space group: P M M N
;
_chemical_formula_sum "Si O2"
_cell_formula_units_Z 48
_cell_length_a 18.168541
_cell_length_b 7.687017
_cell_length_c 17.242543
_cell_angle_alpha 90.000000
_cell_angle_beta 90.000000
_cell_angle_gamma 90.000000
_cell_volume 2408.126032
_symmetry_space_group_name_H-M "P M M N"
_symmetry_group_IT_number 59
_space_group.IT_coordinate_system_code '2'
_symmetry_cell_setting 'orthorhombic'
loop_
_space_group_symop_operation_xyz
x,y,z
1/2-x,1/2-y,z
1/2+x,-y,-z
-x,1/2+y,-z
-x,-y,-z
1/2+x,1/2+y,-z
1/2-x,y,z
x,1/2-y,z
loop_
_atom_site_type_symbol
_atom_site_label
_atom_site_fract_x
_atom_site_fract_y
_atom_site_fract_z
Si Si1 0.168079 0.547140 0.908116
Si Si2 0.419601 0.954022 0.761869
Si Si3 0.668212 0.546041 0.924726
Si Si4 0.834277 0.555863 0.386872
Si Si5 0.837565 0.250000 0.670394
Si Si6 0.909292 0.545080 0.769747
Si Si7 0.662886 0.250000 0.495819
O O1 0.250000 0.462768 0.903073
O O2 0.173952 0.750000 0.894596
O O3 0.116006 0.469697 0.841017
O O4 0.133257 0.509400 0.992759
O O5 0.405183 0.750000 0.753277
O O6 0.505243 0.998067 0.762846
O O7 0.382552 0.050082 0.690204
O O8 0.750000 0.462357 0.915546
O O9 0.675057 0.750000 0.921388
O O10 0.616132 0.483150 0.855180
O O11 0.750000 0.508784 0.365131
O O12 0.839700 0.750000 0.422084
O O13 0.865358 0.421655 0.450719
O O14 0.750000 0.250000 0.674114
O O15 0.865894 0.428319 0.708364
O O16 0.868707 0.250000 0.582609
O O17 0.892592 0.750000 0.754679
O O18 0.750000 0.250000 0.500384
#
# Coordination Sequence:
#
# PCOD8244216 Si02
#       7
#     8   8   8   8   4   8   4
#     4   9  18  31  52  83 114 152 201 243 281 335
#     4  10  20  36  57  81 123 162 193 239 289 345
#     4   9  18  34  53  76 111 151 195 247 292 334
#     4  10  20  35  61  90 117 155 195 234 288 346
#     4  11  24  42  68  91 110 148 195 241 296 350
#     4  10  23  40  59  86 120 155 195 242 292 348
#     4   9  20  40  62  89 119 144 189 245 287 344
#
# _framework density 19.932511999999999
#
# number of rings (size 3 to 8) (size 9 to 14) (size 15 to 20)
#    0.000    2.333    0.833    1.000    2.333    3.667 
#    0.000    4.167    0.000    0.000    0.000    0.000 
#    0.000    0.000    0.000    0.000    0.000    0.000 
#
# Total GULP energy -595130.459422 kJ/mol
# GULP energy per Si atom -12398.551238 kJ/mol
# Density = 1.988714 g / cm^3
# Si number density = 19.932512 Si / 1000 Ang^3
#
#
#
# Elastic Constant Matrix: (Units=GPa)
#
#
# Indices 1 2 3 4 5 6 
#
# 1 91.1857 39.8074 64.8059 0.0000 0.0000 0.0000
# 2 39.8074 82.0130 60.6735 0.0000 0.0000 0.0000
# 3 64.8059 60.6735 180.2335 0.0000 0.0000 0.0000
# 4 0.0000 0.0000 0.0000 14.6276 0.0000 0.0000
# 5 0.0000 0.0000 0.0000 0.0000 20.7208 0.0000
# 6 0.0000 0.0000 0.0000 0.0000 0.0000 22.7487
#
#
#
# Elastic Compliance Matrix: (Units=1/GPa)
#
#
# Indices 1 2 3 4 5 6 
#
# 1 0.015967 -0.004664 -0.004171 0.000000 0.000000 0.000000
# 2 -0.004664 0.017599 -0.004247 0.000000 0.000000 0.000000
# 3 -0.004171 -0.004247 0.008478 0.000000 0.000000 0.000000
# 4 0.000000 0.000000 0.000000 0.068364 0.000000 0.000000
# 5 0.000000 0.000000 0.000000 0.000000 0.048261 0.000000
# 6 0.000000 0.000000 0.000000 0.000000 0.000000 0.043958
#
#
# Mechanical properties :
#
#
# Convention : Reuss Voigt Hill
#
# Bulk Modulus (GPa) = 62.97695 76.00063 69.48879
# Shear Modulus (GPa) = 21.35959 24.16246 22.76103
#
# Velocity S-wave (km/s) = 3.27707 3.48546 3.38287
# Velocity P-wave (km/s) = 6.78105 7.37629 7.08492
#
# Compressibility (1/GPa) = 0.01587883
#
# Stress axis : x y z
#
# Youngs Moduli (GPa) = 62.62807 56.81981 117.95227
#
# Poissons Ratio (x) = 0.26503 0.49199
# Poissons Ratio (y) = 0.29212 0.50100
# Poissons Ratio (z) = 0.26123 0.24134
#
# Static dielectric constant tensor:
#      x y z
#    x 3.605270 0.000000 0.000000 
#    y 0.000000 3.561900 0.000000 
#    z 0.000000 0.000000 3.820380 
# 
# 
# High freq. dielectric constant tensor:
#      x y z
#    x 1.759830 0.000000 0.000000 
#    y 0.000000 1.777790 0.000000 
#    z 0.000000 0.000000 1.778660 
# 
# From -- ./inp_files/20591.got.cif
#   From: 2010.03.12/outbox.cif.g09.slc.cpg/sg59_11_cif.got.tgz:20591.got - 2010.04.16 16:29:54.
