data_PCOD8244399
_publ_section_title
;
Structure prediction by ZEFSAII (Michael W. Deem and Ramdas Pophale) SiO2 
 PCOD8244399
Probable space group: P M M N
;
_chemical_formula_sum "Si O2"
_cell_formula_units_Z 56
_cell_length_a 8.706796
_cell_length_b 20.231321
_cell_length_c 15.634916
_cell_angle_alpha 90.000000
_cell_angle_beta 90.000000
_cell_angle_gamma 90.000000
_cell_volume 2754.090215
_symmetry_space_group_name_H-M "P M M N"
_symmetry_group_IT_number 59
_space_group.IT_coordinate_system_code '2'
_symmetry_cell_setting 'orthorhombic'
loop_
_space_group_symop_operation_xyz
x,y,z
1/2-x,1/2-y,z
1/2+x,-y,-z
-x,1/2+y,-z
-x,-y,-z
1/2+x,1/2+y,-z
1/2-x,y,z
x,1/2-y,z
loop_
_atom_site_type_symbol
_atom_site_label
_atom_site_fract_x
_atom_site_fract_y
_atom_site_fract_z
Si Si1 0.431001 0.946745 0.434247
Si Si2 0.077784 0.505814 0.256638
Si Si3 0.918830 0.675064 0.878089
Si Si4 0.069126 0.038920 0.917739
Si Si5 0.929022 0.675870 0.517656
Si Si6 0.921261 0.857753 0.699593
Si Si7 0.070693 0.673796 0.047806
O O1 0.250000 0.957196 0.436697
O O2 0.489362 0.950776 0.335257
O O3 0.475493 0.872527 0.458417
O O4 0.500000 0.000000 0.500000
O O5 0.250000 0.527856 0.229818
O O6 0.080465 0.435897 0.303834
O O7 0.974879 0.502841 0.171171
O O8 0.750000 0.637789 0.882214
O O9 0.884229 0.750000 0.897119
O O10 0.004224 0.665294 0.787126
O O11 0.035420 0.650825 0.950616
O O12 0.250000 0.038648 0.930051
O O13 0.013902 0.115216 0.900688
O O14 0.000000 0.000000 0.000000
O O15 0.750000 0.654785 0.518402
O O16 0.951103 0.750000 0.482813
O O17 0.998797 0.670677 0.613961
O O18 0.750000 0.827524 0.704716
O O19 0.250000 0.669419 0.065643
O O20 0.014754 0.750000 0.068437
#
# Coordination Sequence:
#
# PCOD8244399 Si02
#       7
#     8   8   8   8   8   8   8
#     4  11  22  39  63  89 121 160 205 251 301 362
#     4  10  21  38  60  86 117 158 205 252 305 367
#     4   9  16  27  48  78 110 148 193 240 296 362
#     4  12  25  41  63  92 126 161 203 257 310 369
#     4  10  20  36  59  87 121 161 205 253 307 364
#     4   9  16  30  52  80 113 150 194 240 294 360
#     4  10  21  38  59  83 115 157 204 254 309 365
#
# _framework density 20.333393000000001
#
# number of rings (size 3 to 8) (size 9 to 14) (size 15 to 20)
#    0.000    1.857    1.429    3.429    0.000    5.143 
#    0.000    1.429    0.000    2.571    0.000    0.000 
#    0.000    0.000    0.000    0.000    0.000    0.000 
#
# Total GULP energy -693738.043824 kJ/mol
# GULP energy per Si atom -12388.179354 kJ/mol
# Density = 2.028711 g / cm^3
# Si number density = 20.333393 Si / 1000 Ang^3
#
#
#
# Elastic Constant Matrix: (Units=GPa)
#
#
# Indices 1 2 3 4 5 6 
#
# 1 75.3462 27.8511 29.7232 0.0000 0.0000 0.0000
# 2 27.8511 88.7119 27.9789 0.0000 0.0000 0.0000
# 3 29.7232 27.9789 105.3408 0.0000 0.0000 0.0000
# 4 0.0000 0.0000 0.0000 32.9747 0.0000 0.0000
# 5 0.0000 0.0000 0.0000 0.0000 25.9462 0.0000
# 6 0.0000 0.0000 0.0000 0.0000 0.0000 29.5143
#
#
#
# Elastic Compliance Matrix: (Units=1/GPa)
#
#
# Indices 1 2 3 4 5 6 
#
# 1 0.016114 -0.003956 -0.003496 0.000000 0.000000 0.000000
# 2 -0.003956 0.013274 -0.002409 0.000000 0.000000 0.000000
# 3 -0.003496 -0.002409 0.011119 0.000000 0.000000 0.000000
# 4 0.000000 0.000000 0.000000 0.030326 0.000000 0.000000
# 5 0.000000 0.000000 0.000000 0.000000 0.038541 0.000000
# 6 0.000000 0.000000 0.000000 0.000000 0.000000 0.033882
#
#
# Mechanical properties :
#
#
# Convention : Reuss Voigt Hill
#
# Bulk Modulus (GPa) = 48.11340 48.94503 48.52921
# Shear Modulus (GPa) = 29.42771 29.94342 29.68556
#
# Velocity S-wave (km/s) = 3.80841 3.84164 3.82506
# Velocity P-wave (km/s) = 6.56143 6.61824 6.58989
#
# Compressibility (1/GPa) = 0.02078423
#
# Stress axis : x y z
#
# Youngs Moduli (GPa) = 62.05960 75.33283 89.93334
#
# Poissons Ratio (x) = 0.29804 0.31439
# Poissons Ratio (y) = 0.24553 0.21669
# Poissons Ratio (z) = 0.21695 0.18151
#
# Static dielectric constant tensor:
#      x y z
#    x 3.308120 0.000000 0.000000 
#    y 0.000000 3.825330 0.000000 
#    z 0.000000 0.000000 3.828240 
# 
# 
# High freq. dielectric constant tensor:
#      x y z
#    x 1.763900 0.000000 0.000000 
#    y 0.000000 1.798990 0.000000 
#    z 0.000000 0.000000 1.789990 
# 
# From -- ./inp_files/20981.got.cif
#   From: 2010.03.12/outbox.cif.g09.slc.cpg/sg59_11_cif.got.tgz:20981.got - 2010.04.16 16:29:54.
