data_PCOD8244871
_publ_section_title
;
Structure prediction by ZEFSAII (Michael W. Deem and Ramdas Pophale) SiO2 
 PCOD8244871
Probable space group: P M M N
;
_chemical_formula_sum "Si O2"
_cell_formula_units_Z 64
_cell_length_a 9.351443
_cell_length_b 18.295903
_cell_length_c 20.570163
_cell_angle_alpha 90.000000
_cell_angle_beta 90.000000
_cell_angle_gamma 90.000000
_cell_volume 3519.412833
_symmetry_space_group_name_H-M "P M M N"
_symmetry_group_IT_number 59
_space_group.IT_coordinate_system_code '2'
_symmetry_cell_setting 'orthorhombic'
loop_
_space_group_symop_operation_xyz
x,y,z
1/2-x,1/2-y,z
1/2+x,-y,-z
-x,1/2+y,-z
-x,-y,-z
1/2+x,1/2+y,-z
1/2-x,y,z
x,1/2-y,z
loop_
_atom_site_type_symbol
_atom_site_label
_atom_site_fract_x
_atom_site_fract_y
_atom_site_fract_z
Si Si1 0.917302 0.166689 0.373065
Si Si2 0.585377 0.334299 0.122450
Si Si3 0.411693 0.336989 0.999134
Si Si4 0.080915 0.922883 0.252655
Si Si5 0.584764 0.334615 0.875489
Si Si6 0.592055 0.663180 0.505698
Si Si7 0.417058 0.927135 0.750813
Si Si8 0.917237 0.665048 0.360641
O O1 0.750000 0.163144 0.384284
O O2 0.967410 0.250000 0.360485
O O3 0.964761 0.118872 0.311895
O O4 0.987799 0.133264 0.438275
O O5 0.750000 0.343284 0.102137
O O6 0.548909 0.250000 0.136903
O O7 0.490580 0.366199 0.063573
O O8 0.547875 0.378828 0.186600
O O9 0.250000 0.366733 0.998744
O O10 0.417276 0.250000 0.999097
O O11 0.491966 0.366320 0.935100
O O12 0.250000 0.928978 0.262260
O O13 0.040199 0.878087 0.188460
O O14 0.014859 0.882360 0.314024
O O15 0.013883 0.002116 0.245657
O O16 0.750000 0.345866 0.893583
O O17 0.549993 0.250000 0.862256
O O18 0.750000 0.632274 0.520353
O O19 0.594858 0.750000 0.506163
O O20 0.543036 0.638708 0.433702
O O21 0.250000 0.948303 0.747517
O O22 0.750000 0.650867 0.346571
O O23 0.954259 0.750000 0.350408
#
# Coordination Sequence:
#
# PCOD8244871 Si02
#       8
#     8   8   8   8   8   8   8   8
#     4   9  17  31  53  79 103 129 166 211 254 298
#     4   9  17  32  55  78 100 131 169 207 250 301
#     4   9  17  29  49  79 107 127 156 203 252 297
#     4  11  23  36  51  74 104 136 172 213 254 297
#     4   9  18  34  54  74  98 129 164 203 248 297
#     4   8  15  29  50  77 105 130 160 202 252 303
#     4  10  21  36  52  72 102 138 173 208 250 302
#     4   9  18  34  56  79 103 133 168 206 251 304
#
# _framework density 18.184850999999998
#
# number of rings (size 3 to 8) (size 9 to 14) (size 15 to 20)
#    0.000    2.750    0.000    2.250    0.000    6.250 
#    0.000    3.750    0.000    3.750    0.000    0.000 
#    0.000    0.000    0.000    0.000    0.000    0.000 
#
# Total GULP energy -793569.244521 kJ/mol
# GULP energy per Si atom -12399.519446 kJ/mol
# Density = 1.814346 g / cm^3
# Si number density = 18.184851 Si / 1000 Ang^3
#
#
#
# Elastic Constant Matrix: (Units=GPa)
#
#
# Indices 1 2 3 4 5 6 
#
# 1 89.7480 49.8200 87.7768 0.0000 0.0000 0.0000
# 2 49.8200 72.5236 64.0677 0.0000 0.0000 0.0000
# 3 87.7768 64.0677 181.5078 0.0000 0.0000 0.0000
# 4 0.0000 0.0000 0.0000 -2.1528 0.0000 0.0000
# 5 0.0000 0.0000 0.0000 0.0000 31.3805 0.0000
# 6 0.0000 0.0000 0.0000 0.0000 0.0000 24.3492
#
#
#
# Elastic Compliance Matrix: (Units=1/GPa)
#
#
# Indices 1 2 3 4 5 6 
#
# 1 0.024882 -0.009391 -0.008718 0.000000 0.000000 0.000000
# 2 -0.009391 0.023581 -0.003782 0.000000 0.000000 0.000000
# 3 -0.008718 -0.003782 0.011060 0.000000 0.000000 0.000000
# 4 0.000000 0.000000 0.000000 -0.464503 0.000000 0.000000
# 5 0.000000 0.000000 0.000000 0.000000 0.031867 0.000000
# 6 0.000000 0.000000 0.000000 0.000000 0.000000 0.041069
#
#
# Mechanical properties :
#
#
# Convention : Reuss Voigt Hill
#
# Bulk Modulus (GPa) = 63.52832 83.01206 73.27019
# Shear Modulus (GPa) = -17.66691 20.18971 1.26140
#
# Velocity S-wave (km/s) = -3.12030 3.33565 0.83376
# Velocity P-wave (km/s) = 4.69349 7.78354 6.42699
#
# Compressibility (1/GPa) = 0.01574101
#
# Stress axis : x y z
#
# Youngs Moduli (GPa) = 40.18972 42.40740 90.41290
#
# Poissons Ratio (x) = 0.39825 0.78823
# Poissons Ratio (y) = 0.37742 0.34193
# Poissons Ratio (z) = 0.35038 0.16038
#
# Static dielectric constant tensor:
#      x y z
#    x 3.398780 0.000000 0.000000 
#    y 0.000000 3.073900 0.000000 
#    z 0.000000 0.000000 3.585250 
# 
# 
# High freq. dielectric constant tensor:
#      x y z
#    x 1.702610 0.000000 0.000000 
#    y 0.000000 1.672940 0.000000 
#    z 0.000000 0.000000 1.720950 
# 
# From -- ./inp_files/29589.got.cif
#   From: 2010.03.12/outbox.cif.g09.slc.cpg/sg59_15_cif.got.tgz:29589.got - 2010.04.16 16:29:54.
