data_PCOD8244072
_publ_section_title
;
Structure prediction by ZEFSAII (Michael W. Deem and Ramdas Pophale) SiO2 
 PCOD8244072
Probable space group: P M M N
;
_chemical_formula_sum "Si O2"
_cell_formula_units_Z 48
_cell_length_a 16.013872
_cell_length_b 8.709890
_cell_length_c 17.973830
_cell_angle_alpha 90.000000
_cell_angle_beta 90.000000
_cell_angle_gamma 90.000000
_cell_volume 2506.972978
_symmetry_space_group_name_H-M "P M M N"
_symmetry_group_IT_number 59
_space_group.IT_coordinate_system_code '2'
_symmetry_cell_setting 'orthorhombic'
loop_
_space_group_symop_operation_xyz
x,y,z
1/2-x,1/2-y,z
1/2+x,-y,-z
-x,1/2+y,-z
-x,-y,-z
1/2+x,1/2+y,-z
1/2-x,y,z
x,1/2-y,z
loop_
_atom_site_type_symbol
_atom_site_label
_atom_site_fract_x
_atom_site_fract_y
_atom_site_fract_z
Si Si1 0.414332 0.930918 0.030910
Si Si2 0.156989 0.574019 0.320725
Si Si3 0.005296 0.571086 0.419549
Si Si4 0.750000 0.429975 0.205161
Si Si5 0.750000 0.568776 0.044828
Si Si6 0.424944 0.071621 0.188748
Si Si7 0.918294 0.428406 0.286491
O O1 0.414885 0.750000 0.016796
O O2 0.408419 0.967008 0.117738
O O3 0.500000 0.000000 0.000000
O O4 0.333625 0.999901 0.990664
O O5 0.250000 0.552889 0.352148
O O6 0.138915 0.750000 0.297538
O O7 0.146501 0.466967 0.248545
O O8 0.094470 0.521508 0.385517
O O9 0.996138 0.750000 0.429085
O O10 0.932291 0.514824 0.364376
O O11 0.000000 0.500000 0.500000
O O12 0.750000 0.250000 0.183537
O O13 0.750000 0.531421 0.131713
O O14 0.829137 0.475608 0.254571
O O15 0.750000 0.750000 0.031932
O O16 0.421300 0.250000 0.166097
O O17 0.513799 0.025270 0.224322
O O18 0.924666 0.250000 0.304629
#
# Coordination Sequence:
#
# PCOD8244072 Si02
#       7
#     8   8   8   4   4   8   8
#     4  12  25  42  62  87 121 161 204 254 309 364
#     4   9  19  36  57  81 108 145 191 233 282 341
#     4  10  20  36  58  82 114 149 185 232 283 341
#     4  10  20  38  62  86 115 152 197 246 292 346
#     4  12  26  42  62  90 123 162 207 256 308 362
#     4  10  20  35  57  84 116 151 191 239 292 352
#     4   9  19  36  59  85 113 151 193 234 286 345
#
# _framework density 19.146598000000001
#
# number of rings (size 3 to 8) (size 9 to 14) (size 15 to 20)
#    0.000    1.833    0.000    4.250    1.167    3.667 
#    1.500    0.000    0.000    0.000    0.000    0.000 
#    0.000    0.000    0.000    0.000    0.000    0.000 
#
# Total GULP energy -595335.707819 kJ/mol
# GULP energy per Si atom -12402.827246 kJ/mol
# Density = 1.910302 g / cm^3
# Si number density = 19.146598 Si / 1000 Ang^3
#
#
#
# Elastic Constant Matrix: (Units=GPa)
#
#
# Indices 1 2 3 4 5 6 
#
# 1 146.8020 50.8779 73.0357 0.0000 0.0000 0.0000
# 2 50.8779 104.2381 62.2634 0.0000 0.0000 0.0000
# 3 73.0357 62.2634 152.7840 0.0000 0.0000 0.0000
# 4 0.0000 0.0000 0.0000 39.5854 0.0000 0.0000
# 5 0.0000 0.0000 0.0000 0.0000 18.3958 0.0000
# 6 0.0000 0.0000 0.0000 0.0000 0.0000 30.1927
#
#
#
# Elastic Compliance Matrix: (Units=1/GPa)
#
#
# Indices 1 2 3 4 5 6 
#
# 1 0.009413 -0.002520 -0.003473 0.000000 0.000000 0.000000
# 2 -0.002520 0.013355 -0.004238 0.000000 0.000000 0.000000
# 3 -0.003473 -0.004238 0.009932 0.000000 0.000000 0.000000
# 4 0.000000 0.000000 0.000000 0.025262 0.000000 0.000000
# 5 0.000000 0.000000 0.000000 0.000000 0.054360 0.000000
# 6 0.000000 0.000000 0.000000 0.000000 0.000000 0.033121
#
#
# Mechanical properties :
#
#
# Convention : Reuss Voigt Hill
#
# Bulk Modulus (GPa) = 81.70652 86.24200 83.97426
# Shear Modulus (GPa) = 29.41465 32.14459 30.77962
#
# Velocity S-wave (km/s) = 3.92380 4.10184 4.01381
# Velocity P-wave (km/s) = 7.95582 8.22036 8.08917
#
# Compressibility (1/GPa) = 0.01223893
#
# Stress axis : x y z
#
# Youngs Moduli (GPa) = 106.23577 74.87982 100.68226
#
# Poissons Ratio (x) = 0.18871 0.34964
# Poissons Ratio (y) = 0.26773 0.42666
# Poissons Ratio (z) = 0.36893 0.31732
#
# Static dielectric constant tensor:
#      x y z
#    x 3.766120 0.000000 0.000000 
#    y 0.000000 3.408950 0.000000 
#    z 0.000000 0.000000 3.564160 
# 
# 
# High freq. dielectric constant tensor:
#      x y z
#    x 1.751490 0.000000 0.000000 
#    y 0.000000 1.750160 0.000000 
#    z 0.000000 0.000000 1.745290 
# 
# From -- ./inp_files/27434.got.cif
#   From: 2010.03.12/outbox.cif.g09.slc.cpg/sg59_14_cif.got.tgz:27434.got - 2010.04.16 16:29:54.
