data_PCOD8244256
_publ_section_title
;
Structure prediction by ZEFSAII (Michael W. Deem and Ramdas Pophale) SiO2 
 PCOD8244256
Probable space group: P M M N
;
_chemical_formula_sum "Si O2"
_cell_formula_units_Z 48
_cell_length_a 31.190920
_cell_length_b 8.733221
_cell_length_c 9.279083
_cell_angle_alpha 90.000000
_cell_angle_beta 90.000000
_cell_angle_gamma 90.000000
_cell_volume 2527.596205
_symmetry_space_group_name_H-M "P M M N"
_symmetry_group_IT_number 59
_space_group.IT_coordinate_system_code '2'
_symmetry_cell_setting 'orthorhombic'
loop_
_space_group_symop_operation_xyz
x,y,z
1/2-x,1/2-y,z
1/2+x,-y,-z
-x,1/2+y,-z
-x,-y,-z
1/2+x,1/2+y,-z
1/2-x,y,z
x,1/2-y,z
loop_
_atom_site_type_symbol
_atom_site_label
_atom_site_fract_x
_atom_site_fract_y
_atom_site_fract_z
Si Si1 0.333724 0.081964 0.174697
Si Si2 0.250000 0.581108 0.174633
Si Si3 0.250000 0.576859 0.830258
Si Si4 0.923252 0.069002 0.151023
Si Si5 0.928203 0.933042 0.840015
Si Si6 0.003676 0.067833 0.657559
Si Si7 0.335436 0.079130 0.833306
O O1 0.329825 0.250000 0.241453
O O2 0.380674 0.014971 0.213755
O O3 0.293651 0.989932 0.239429
O O4 0.330282 0.087915 0.003604
O O5 0.250000 0.750000 0.234421
O O6 0.250000 0.571826 0.002826
O O7 0.250000 0.750000 0.774175
O O8 0.207829 0.493524 0.767554
O O9 0.926678 0.250000 0.124860
O O10 0.955957 0.014759 0.271704
O O11 0.875804 0.026619 0.207278
O O12 0.935111 0.979348 0.005532
O O13 0.934532 0.750000 0.827066
O O14 0.960926 0.026060 0.743428
O O15 0.010145 0.250000 0.654489
O O16 0.000000 0.000000 0.500000
O O17 0.342018 0.250000 0.770086
#
# Coordination Sequence:
#
# PCOD8244256 Si02
#       7
#     8   4   4   8   8   8   8
#     4   8  15  26  42  64  96 133 168 204 249 300
#     4   9  15  21  35  61  96 131 166 205 248 295
#     4   9  15  23  37  63  98 135 170 209 256 307
#     4  11  21  35  55  80 108 140 177 219 263 312
#     4  10  20  36  56  80 107 139 177 218 262 312
#     4  12  25  41  58  78 104 136 173 217 266 319
#     4   9  16  27  43  67  99 136 173 212 257 307
#
# _framework density 18.990376000000001
#
# number of rings (size 3 to 8) (size 9 to 14) (size 15 to 20)
#    0.000    2.167    0.000    6.000    0.000    6.667 
#    0.000    0.000    0.000    0.000    0.000    1.167 
#    0.000    4.000    0.000    0.000    0.000    0.000 
#
# Total GULP energy -595015.660010 kJ/mol
# GULP energy per Si atom -12396.159584 kJ/mol
# Density = 1.894715 g / cm^3
# Si number density = 18.990376 Si / 1000 Ang^3
#
#
#
# Elastic Constant Matrix: (Units=GPa)
#
#
# Indices 1 2 3 4 5 6 
#
# 1 155.3628 41.5796 32.8990 0.0000 0.0000 0.0000
# 2 41.5796 103.5817 5.7466 0.0000 0.0000 0.0000
# 3 32.8990 5.7466 39.8174 0.0000 0.0000 0.0000
# 4 0.0000 0.0000 0.0000 19.8623 0.0000 0.0000
# 5 0.0000 0.0000 0.0000 0.0000 -3.2235 0.0000
# 6 0.0000 0.0000 0.0000 0.0000 0.0000 39.0934
#
#
#
# Elastic Compliance Matrix: (Units=1/GPa)
#
#
# Indices 1 2 3 4 5 6 
#
# 1 0.008697 -0.003118 -0.006736 0.000000 0.000000 0.000000
# 2 -0.003118 0.010850 0.001010 0.000000 0.000000 0.000000
# 3 -0.006736 0.001010 0.030535 0.000000 0.000000 0.000000
# 4 0.000000 0.000000 0.000000 0.050347 0.000000 0.000000
# 5 0.000000 0.000000 0.000000 0.000000 -0.310220 0.000000
# 6 0.000000 0.000000 0.000000 0.000000 0.000000 0.025580
#
#
# Mechanical properties :
#
#
# Convention : Reuss Voigt Hill
#
# Bulk Modulus (GPa) = 30.86976 51.02359 40.94667
# Shear Modulus (GPa) = -32.10760 25.71555 -3.19602
#
# Velocity S-wave (km/s) = -4.11631 3.68385 -1.29870
# Velocity P-wave (km/s) = 2.51023 6.70975 4.39997
#
# Compressibility (1/GPa) = 0.03239416
#
# Stress axis : x y z
#
# Youngs Moduli (GPa) = 114.97779 92.16906 32.74961
#
# Poissons Ratio (x) = 0.28734 0.22061
# Poissons Ratio (y) = 0.35845 -0.03308
# Poissons Ratio (z) = 0.77452 -0.09309
#
# Static dielectric constant tensor:
#      x y z
#    x 3.900730 0.000000 0.000000 
#    y 0.000000 3.700510 0.000000 
#    z 0.000000 0.000000 2.830650 
# 
# 
# High freq. dielectric constant tensor:
#      x y z
#    x 1.764130 0.000000 0.000000 
#    y 0.000000 1.752460 0.000000 
#    z 0.000000 0.000000 1.667130 
# 
# From -- ./inp_files/12991.got.cif
#   From: 2010.03.12/outbox.cif.g09.slc.cpg/sg59_7_cif.got.tgz:12991.got - 2010.04.16 16:29:54.
