data_PCOD8244959
_publ_section_title
;
Structure prediction by ZEFSAII (Michael W. Deem and Ramdas Pophale) SiO2 
 PCOD8244959
Probable space group: P M M N
;
_chemical_formula_sum "Si O2"
_cell_formula_units_Z 64
_cell_length_a 31.366638
_cell_length_b 8.947282
_cell_length_c 12.042008
_cell_angle_alpha 90.000000
_cell_angle_beta 90.000000
_cell_angle_gamma 90.000000
_cell_volume 3379.543251
_symmetry_space_group_name_H-M "P M M N"
_symmetry_group_IT_number 59
_space_group.IT_coordinate_system_code '2'
_symmetry_cell_setting 'orthorhombic'
loop_
_space_group_symop_operation_xyz
x,y,z
1/2-x,1/2-y,z
1/2+x,-y,-z
-x,1/2+y,-z
-x,-y,-z
1/2+x,1/2+y,-z
1/2-x,y,z
x,1/2-y,z
loop_
_atom_site_type_symbol
_atom_site_label
_atom_site_fract_x
_atom_site_fract_y
_atom_site_fract_z
Si Si1 0.103874 0.076007 0.854477
Si Si2 0.984784 0.426118 0.112927
Si Si3 0.701884 0.426216 0.521263
Si Si4 0.454213 0.577580 0.490102
Si Si5 0.374272 0.927930 0.636206
Si Si6 0.373135 0.421011 0.100305
Si Si7 0.297541 0.077732 0.253681
Si Si8 0.055524 0.922224 0.239272
O O1 0.092784 0.250000 0.837454
O O2 0.061941 0.976997 0.856626
O O3 0.131462 0.013382 0.752610
O O4 0.129277 0.049439 0.968880
O O5 0.986764 0.250000 0.098818
O O6 0.014499 0.477379 0.213671
O O7 0.000000 0.500000 0.000000
O O8 0.750000 0.483941 0.491975
O O9 0.701549 0.250000 0.528729
O O10 0.667346 0.480795 0.431829
O O11 0.686601 0.486073 0.640186
O O12 0.500000 0.500000 0.500000
O O13 0.463128 0.750000 0.513215
O O14 0.418321 0.518735 0.576381
O O15 0.433673 0.552896 0.368387
O O16 0.374643 0.750000 0.653200
O O17 0.387049 0.250000 0.124346
O O18 0.326620 0.457654 0.147661
O O19 0.406073 0.529445 0.160352
O O20 0.250000 0.029540 0.219172
O O21 0.299872 0.250000 0.287803
O O22 0.045051 0.750000 0.213448
#
# Coordination Sequence:
#
# PCOD8244959 Si02
#       8
#     8   8   8   8   8   8   8   8
#     4  11  23  38  55  79 111 148 192 236 275 328
#     4  12  23  37  56  80 110 147 187 229 276 326
#     4   9  18  35  60  87 113 143 182 232 289 346
#     4  10  22  37  53  77 108 143 182 226 276 332
#     4  10  21  38  57  79 111 150 189 233 288 342
#     4  10  21  36  54  78 109 143 180 225 278 330
#     4   9  18  34  57  84 112 142 178 224 281 341
#     4  11  22  36  57  83 109 140 183 232 278 328
#
# _framework density 18.937472
#
# number of rings (size 3 to 8) (size 9 to 14) (size 15 to 20)
#    0.000    1.750    1.250    3.375    0.000    6.000 
#    0.000    0.625    0.000    0.750    0.000    0.000 
#    0.000    0.000    0.000    0.000    0.000    0.000 
#
# Total GULP energy -793657.496384 kJ/mol
# GULP energy per Si atom -12400.898381 kJ/mol
# Density = 1.889437 g / cm^3
# Si number density = 18.937472 Si / 1000 Ang^3
#
#
#
# Elastic Constant Matrix: (Units=GPa)
#
#
# Indices 1 2 3 4 5 6 
#
# 1 113.7073 41.8931 68.4541 0.0000 0.0000 0.0000
# 2 41.8931 73.8950 46.4433 0.0000 0.0000 0.0000
# 3 68.4541 46.4433 134.7599 0.0000 0.0000 0.0000
# 4 0.0000 0.0000 0.0000 31.9484 0.0000 0.0000
# 5 0.0000 0.0000 0.0000 0.0000 32.0203 0.0000
# 6 0.0000 0.0000 0.0000 0.0000 0.0000 23.3684
#
#
#
# Elastic Compliance Matrix: (Units=1/GPa)
#
#
# Indices 1 2 3 4 5 6 
#
# 1 0.013671 -0.004322 -0.005455 0.000000 0.000000 0.000000
# 2 -0.004322 0.018641 -0.004229 0.000000 0.000000 0.000000
# 3 -0.005455 -0.004229 0.011649 0.000000 0.000000 0.000000
# 4 0.000000 0.000000 0.000000 0.031301 0.000000 0.000000
# 5 0.000000 0.000000 0.000000 0.000000 0.031230 0.000000
# 6 0.000000 0.000000 0.000000 0.000000 0.000000 0.042793
#
#
# Mechanical properties :
#
#
# Convention : Reuss Voigt Hill
#
# Bulk Modulus (GPa) = 62.69928 70.66038 66.67983
# Shear Modulus (GPa) = 27.38047 28.50552 27.94300
#
# Velocity S-wave (km/s) = 3.80654 3.88396 3.84544
# Velocity P-wave (km/s) = 7.24570 7.58333 7.41644
#
# Compressibility (1/GPa) = 0.01594915
#
# Stress axis : x y z
#
# Youngs Moduli (GPa) = 73.14878 53.64572 85.84469
#
# Poissons Ratio (x) = 0.23185 0.46827
# Poissons Ratio (y) = 0.31614 0.36303
# Poissons Ratio (z) = 0.39902 0.22686
#
# Static dielectric constant tensor:
#      x y z
#    x 3.667510 0.000000 0.000000 
#    y 0.000000 3.462490 0.000000 
#    z 0.000000 0.000000 3.559260 
# 
# 
# High freq. dielectric constant tensor:
#      x y z
#    x 1.731340 0.000000 0.000000 
#    y 0.000000 1.735200 0.000000 
#    z 0.000000 0.000000 1.741360 
# 
# From -- ./inp_files/19249.got.cif
#   From: 2010.03.12/outbox.cif.g09.slc.cpg/sg59_10_cif.got.tgz:19249.got - 2010.04.16 16:29:54.
