data_PCOD8244508
_publ_section_title
;
Structure prediction by ZEFSAII (Michael W. Deem and Ramdas Pophale) SiO2 
 PCOD8244508
Probable space group: P M M N
;
_chemical_formula_sum "Si O2"
_cell_formula_units_Z 48
_cell_length_a 30.978924
_cell_length_b 8.924388
_cell_length_c 9.063769
_cell_angle_alpha 90.000000
_cell_angle_beta 90.000000
_cell_angle_gamma 90.000000
_cell_volume 2505.841522
_symmetry_space_group_name_H-M "P M M N"
_symmetry_group_IT_number 59
_space_group.IT_coordinate_system_code '2'
_symmetry_cell_setting 'orthorhombic'
loop_
_space_group_symop_operation_xyz
x,y,z
1/2-x,1/2-y,z
1/2+x,-y,-z
-x,1/2+y,-z
-x,-y,-z
1/2+x,1/2+y,-z
1/2-x,y,z
x,1/2-y,z
loop_
_atom_site_type_symbol
_atom_site_label
_atom_site_fract_x
_atom_site_fract_y
_atom_site_fract_z
Si Si1 0.750000 0.426913 0.318727
Si Si2 0.668161 0.427352 0.132277
Si Si3 0.415488 0.575629 0.684861
Si Si4 0.670286 0.926693 0.816499
Si Si5 0.250000 0.571194 0.348182
Si Si6 0.998320 0.578110 0.344276
Si Si7 0.406235 0.577799 0.343969
O O1 0.750000 0.250000 0.327689
O O2 0.707535 0.482414 0.233965
O O3 0.750000 0.490363 0.484498
O O4 0.670440 0.250000 0.099716
O O5 0.624334 0.473059 0.214446
O O6 0.670902 0.519710 0.983633
O O7 0.424642 0.750000 0.695550
O O8 0.458824 0.494942 0.747387
O O9 0.405694 0.530568 0.515803
O O10 0.677804 0.750000 0.809320
O O11 0.707665 0.010576 0.729782
O O12 0.624654 0.967684 0.744420
O O13 0.250000 0.750000 0.339936
O O14 0.987200 0.750000 0.368989
O O15 0.045836 0.559140 0.272103
O O16 0.000000 0.500000 0.500000
O O17 0.390532 0.750000 0.327519
#
# Coordination Sequence:
#
# PCOD8244508 Si02
#       7
#     4   8   8   8   4   8   8
#     4   9  19  37  64  88 102 131 184 227 260 316
#     4  10  20  37  59  82 110 147 184 222 273 332
#     4   9  18  33  56  84 111 141 187 236 278 329
#     4  12  25  38  54  83 117 147 182 224 270 323
#     4  11  22  41  66  86 108 141 180 223 270 326
#     4   9  17  30  52  80 110 143 184 231 280 329
#     4   9  18  35  57  81 108 144 187 228 272 329
#
# _framework density 19.155241
#
# number of rings (size 3 to 8) (size 9 to 14) (size 15 to 20)
#    0.000    2.167    0.000    4.750    0.000    7.333 
#    0.000    4.167    0.000    0.000    0.000    0.000 
#    0.000    0.000    0.000    0.000    0.000    0.000 
#
# Total GULP energy -595122.795068 kJ/mol
# GULP energy per Si atom -12398.391564 kJ/mol
# Density = 1.911164 g / cm^3
# Si number density = 19.155241 Si / 1000 Ang^3
#
#
#
# Elastic Constant Matrix: (Units=GPa)
#
#
# Indices 1 2 3 4 5 6 
#
# 1 160.4299 63.9916 68.9825 0.0000 0.0000 0.0000
# 2 63.9916 88.2044 48.6464 0.0000 0.0000 0.0000
# 3 68.9825 48.6464 114.4211 0.0000 0.0000 0.0000
# 4 0.0000 0.0000 0.0000 19.9673 0.0000 0.0000
# 5 0.0000 0.0000 0.0000 0.0000 1092.6161 0.0000
# 6 0.0000 0.0000 0.0000 0.0000 0.0000 34.4961
#
#
#
# Elastic Compliance Matrix: (Units=1/GPa)
#
#
# Indices 1 2 3 4 5 6 
#
# 1 0.009896 -0.005080 -0.003806 0.000000 0.000000 0.000000
# 2 -0.005080 0.017418 -0.004342 0.000000 0.000000 0.000000
# 3 -0.003806 -0.004342 0.012881 0.000000 0.000000 0.000000
# 4 0.000000 0.000000 0.000000 0.050082 0.000000 0.000000
# 5 0.000000 0.000000 0.000000 0.000000 0.000915 0.000000
# 6 0.000000 0.000000 0.000000 0.000000 0.000000 0.028989
#
#
# Mechanical properties :
#
#
# Convention : Reuss Voigt Hill
#
# Bulk Modulus (GPa) = 72.79836 80.69959 76.74898
# Shear Modulus (GPa) = 33.06472 241.51154 137.28813
#
# Velocity S-wave (km/s) = 4.15920 11.24077 8.47508
# Velocity P-wave (km/s) = 7.81998 14.51530 11.65860
#
# Compressibility (1/GPa) = 0.01373657
#
# Stress axis : x y z
#
# Youngs Moduli (GPa) = 101.04653 57.41162 77.63587
#
# Poissons Ratio (x) = 0.29168 0.29551
# Poissons Ratio (y) = 0.51337 0.33713
# Poissons Ratio (z) = 0.38462 0.24930
#
# Static dielectric constant tensor:
#      x y z
#    x 4.067780 0.000000 0.000000 
#    y 0.000000 3.504730 0.000000 
#    z 0.000000 0.000000 3.440520 
# 
# 
# High freq. dielectric constant tensor:
#      x y z
#    x 1.768990 0.000000 0.000000 
#    y 0.000000 1.733630 0.000000 
#    z 0.000000 0.000000 1.724740 
# 
# From -- ./inp_files/13008.got.cif
#   From: 2010.03.12/outbox.cif.g09.slc.cpg/sg59_7_cif.got.tgz:13008.got - 2010.04.16 16:29:54.
