data_PCOD8244180
_publ_section_title
;
Structure prediction by ZEFSAII (Michael W. Deem and Ramdas Pophale) SiO2 
 PCOD8244180
Probable space group: P M M N
;
_chemical_formula_sum "Si O2"
_cell_formula_units_Z 64
_cell_length_a 8.966339
_cell_length_b 28.718046
_cell_length_c 12.321860
_cell_angle_alpha 90.000000
_cell_angle_beta 90.000000
_cell_angle_gamma 90.000000
_cell_volume 3172.826408
_symmetry_space_group_name_H-M "P M M N"
_symmetry_group_IT_number 59
_space_group.IT_coordinate_system_code '2'
_symmetry_cell_setting 'orthorhombic'
loop_
_space_group_symop_operation_xyz
x,y,z
1/2-x,1/2-y,z
1/2+x,-y,-z
-x,1/2+y,-z
-x,-y,-z
1/2+x,1/2+y,-z
1/2-x,y,z
x,1/2-y,z
loop_
_atom_site_type_symbol
_atom_site_label
_atom_site_fract_x
_atom_site_fract_y
_atom_site_fract_z
Si Si1 0.576369 0.472477 0.097279
Si Si2 0.580821 0.001732 0.336510
Si Si3 0.073843 0.865948 0.881120
Si Si4 0.077349 0.663979 0.504282
Si Si5 0.423005 0.196351 0.944161
Si Si6 0.418572 0.070419 0.487969
Si Si7 0.923448 0.697867 0.706707
Si Si8 0.085864 0.195119 0.698549
O O1 0.750000 0.471603 0.070724
O O2 0.541866 0.500097 0.208980
O O3 0.517043 0.419254 0.108209
O O4 0.500000 0.500000 0.000000
O O5 0.750000 0.021257 0.352298
O O6 0.459362 0.032974 0.396836
O O7 0.569238 0.950548 0.390167
O O8 0.250000 0.864449 0.867646
O O9 0.004934 0.841809 0.775309
O O10 0.025641 0.837148 0.985879
O O11 0.250000 0.672788 0.524856
O O12 0.036848 0.610956 0.527655
O O13 0.984875 0.697340 0.584107
O O14 0.038621 0.674651 0.379850
O O15 0.250000 0.189971 0.976741
O O16 0.470071 0.250000 0.962380
O O17 0.451843 0.180494 0.821048
O O18 0.250000 0.087879 0.466512
O O19 0.750000 0.686038 0.705763
O O20 0.950880 0.750000 0.754282
O O21 0.250000 0.175592 0.666290
O O22 0.088025 0.250000 0.690372
#
# Coordination Sequence:
#
# PCOD8244180 Si02
#       8
#     8   8   8   8   8   8   8   8
#     4  10  23  41  59  82 114 151 191 238 291 346
#     4   9  19  38  60  82 110 143 184 235 287 337
#     4  11  23  38  59  89 122 153 190 241 298 352
#     4  12  24  36  54  83 119 153 186 230 286 344
#     4   9  19  37  60  84 112 151 198 242 285 342
#     4  10  20  35  59  86 110 144 188 232 281 339
#     4  11  24  41  62  88 119 157 200 242 286 345
#     4   9  19  37  58  78 105 144 188 233 279 329
#
# _framework density 20.171289000000002
#
# number of rings (size 3 to 8) (size 9 to 14) (size 15 to 20)
#    0.000    1.875    0.000    4.500    0.000    9.000 
#    0.000    5.000    0.000    0.000    0.000    0.000 
#    0.000    0.000    0.000    0.000    0.000    0.000 
#
# Total GULP energy -793642.374648 kJ/mol
# GULP energy per Si atom -12400.662104 kJ/mol
# Density = 2.012538 g / cm^3
# Si number density = 20.171289 Si / 1000 Ang^3
#
#
#
# Elastic Constant Matrix: (Units=GPa)
#
#
# Indices 1 2 3 4 5 6 
#
# 1 88.1900 40.0222 46.2207 0.0000 0.0000 0.0000
# 2 40.0222 79.9330 39.3631 0.0000 0.0000 0.0000
# 3 46.2207 39.3631 111.7474 0.0000 0.0000 0.0000
# 4 0.0000 0.0000 0.0000 28.1845 0.0000 0.0000
# 5 0.0000 0.0000 0.0000 0.0000 35.8011 0.0000
# 6 0.0000 0.0000 0.0000 0.0000 0.0000 32.9227
#
#
#
# Elastic Compliance Matrix: (Units=1/GPa)
#
#
# Indices 1 2 3 4 5 6 
#
# 1 0.016518 -0.005936 -0.004741 0.000000 0.000000 0.000000
# 2 -0.005936 0.017269 -0.003628 0.000000 0.000000 0.000000
# 3 -0.004741 -0.003628 0.012188 0.000000 0.000000 0.000000
# 4 0.000000 0.000000 0.000000 0.035480 0.000000 0.000000
# 5 0.000000 0.000000 0.000000 0.000000 0.027932 0.000000
# 6 0.000000 0.000000 0.000000 0.000000 0.000000 0.030374
#
#
# Mechanical properties :
#
#
# Convention : Reuss Voigt Hill
#
# Bulk Modulus (GPa) = 57.58712 59.00916 58.29814
# Shear Modulus (GPa) = 28.70941 29.66596 29.18768
#
# Velocity S-wave (km/s) = 3.77673 3.83913 3.80806
# Velocity P-wave (km/s) = 6.90140 6.99782 6.94978
#
# Compressibility (1/GPa) = 0.01736499
#
# Stress axis : x y z
#
# Youngs Moduli (GPa) = 60.54120 57.90731 82.04957
#
# Poissons Ratio (x) = 0.34371 0.38901
# Poissons Ratio (y) = 0.35934 0.29767
# Poissons Ratio (z) = 0.28704 0.21009
#
# Static dielectric constant tensor:
#      x y z
#    x 3.545880 0.000000 0.000000 
#    y 0.000000 3.669210 0.000000 
#    z 0.000000 0.000000 4.028590 
# 
# 
# High freq. dielectric constant tensor:
#      x y z
#    x 1.784120 0.000000 0.000000 
#    y 0.000000 1.784220 0.000000 
#    z 0.000000 0.000000 1.796680 
# 
# From -- ./inp_files/14946.got.cif
#   From: 2010.03.12/outbox.cif.g09.slc.cpg/sg59_8_cif.got.tgz:14946.got - 2010.04.16 16:29:54.
