data_PCOD8244989
_publ_section_title
;
Structure prediction by ZEFSAII (Michael W. Deem and Ramdas Pophale) SiO2 
 PCOD8244989
Probable space group: P M M N
;
_chemical_formula_sum "Si O2"
_cell_formula_units_Z 64
_cell_length_a 20.961329
_cell_length_b 9.006064
_cell_length_c 17.263448
_cell_angle_alpha 90.000000
_cell_angle_beta 90.000000
_cell_angle_gamma 90.000000
_cell_volume 3258.977667
_symmetry_space_group_name_H-M "P M M N"
_symmetry_group_IT_number 59
_space_group.IT_coordinate_system_code '2'
_symmetry_cell_setting 'orthorhombic'
loop_
_space_group_symop_operation_xyz
x,y,z
1/2-x,1/2-y,z
1/2+x,-y,-z
-x,1/2+y,-z
-x,-y,-z
1/2+x,1/2+y,-z
1/2-x,y,z
x,1/2-y,z
loop_
_atom_site_type_symbol
_atom_site_label
_atom_site_fract_x
_atom_site_fract_y
_atom_site_fract_z
Si Si1 0.109464 0.424852 0.355287
Si Si2 0.433651 0.424408 0.088866
Si Si3 0.995805 0.919622 0.417553
Si Si4 0.679372 0.415138 0.512373
Si Si5 0.147170 0.080387 0.634476
Si Si6 0.179054 0.073714 0.806025
Si Si7 0.563980 0.924746 0.089585
Si Si8 0.678185 0.926346 0.799628
O O1 0.099197 0.250000 0.352735
O O2 0.139977 0.468984 0.437064
O O3 0.153116 0.480062 0.284225
O O4 0.041234 0.504897 0.353210
O O5 0.441803 0.250000 0.102146
O O6 0.498476 0.500760 0.119493
O O7 0.371700 0.484425 0.135630
O O8 0.422669 0.465604 0.999537
O O9 0.015926 0.750000 0.430725
O O10 0.927462 0.933448 0.379432
O O11 0.000000 0.000000 0.500000
O O12 0.750000 0.406847 0.546900
O O13 0.648402 0.250000 0.514221
O O14 0.683546 0.475303 0.425280
O O15 0.170669 0.250000 0.624445
O O16 0.164004 0.019779 0.719380
O O17 0.250000 0.017402 0.830684
O O18 0.176845 0.250000 0.810184
O O19 0.124505 0.010227 0.863204
O O20 0.556220 0.750000 0.101903
O O21 0.750000 0.990304 0.813830
O O22 0.681319 0.750000 0.802120
#
# Coordination Sequence:
#
# PCOD8244989 Si02
#       8
#     8   8   8   8   8   8   8   8
#     4  11  22  36  55  78 105 142 183 225 276 328
#     4   9  18  34  56  83 112 144 180 219 268 322
#     4  11  22  36  55  80 106 138 181 228 278 328
#     4  11  23  37  54  76 104 139 179 226 277 326
#     4  10  21  36  55  77 104 141 181 222 271 326
#     4   9  18  33  54  82 111 140 180 226 268 315
#     4   9  18  33  56  84 113 144 178 219 268 322
#     4   9  19  35  55  81 111 143 185 232 273 320
#
# _framework density 19.638059999999999
#
# number of rings (size 3 to 8) (size 9 to 14) (size 15 to 20)
#    0.000    2.125    1.250    1.875    1.750    3.000 
#    0.000    3.750    0.000    3.000    0.000    3.500 
#    0.000    0.000    0.000    0.000    0.000    0.000 
#
# Total GULP energy -793495.706907 kJ/mol
# GULP energy per Si atom -12398.370420 kJ/mol
# Density = 1.959336 g / cm^3
# Si number density = 19.638060 Si / 1000 Ang^3
#
#
#
# Elastic Constant Matrix: (Units=GPa)
#
#
# Indices 1 2 3 4 5 6 
#
# 1 156.8119 32.4095 64.8359 0.0000 0.0000 0.0000
# 2 32.4095 57.0453 22.7770 0.0000 0.0000 0.0000
# 3 64.8359 22.7770 100.1891 0.0000 0.0000 0.0000
# 4 0.0000 0.0000 0.0000 16.6259 0.0000 0.0000
# 5 0.0000 0.0000 0.0000 0.0000 36.5476 0.0000
# 6 0.0000 0.0000 0.0000 0.0000 0.0000 26.2856
#
#
#
# Elastic Compliance Matrix: (Units=1/GPa)
#
#
# Indices 1 2 3 4 5 6 
#
# 1 0.009188 -0.003130 -0.005234 0.000000 0.000000 0.000000
# 2 -0.003130 0.020346 -0.002600 0.000000 0.000000 0.000000
# 3 -0.005234 -0.002600 0.013960 0.000000 0.000000 0.000000
# 4 0.000000 0.000000 0.000000 0.060147 0.000000 0.000000
# 5 0.000000 0.000000 0.000000 0.000000 0.027362 0.000000
# 6 0.000000 0.000000 0.000000 0.000000 0.000000 0.038044
#
#
# Mechanical properties :
#
#
# Convention : Reuss Voigt Hill
#
# Bulk Modulus (GPa) = 46.37103 61.56568 53.96835
# Shear Modulus (GPa) = 25.23164 28.82674 27.02919
#
# Velocity S-wave (km/s) = 3.58835 3.83548 3.71397
# Velocity P-wave (km/s) = 6.39002 7.14372 6.77736
#
# Compressibility (1/GPa) = 0.02156519
#
# Stress axis : x y z
#
# Youngs Moduli (GPa) = 108.83469 49.14881 71.63548
#
# Poissons Ratio (x) = 0.15384 0.37497
# Poissons Ratio (y) = 0.34067 0.18624
# Poissons Ratio (z) = 0.56969 0.12778
#
# Static dielectric constant tensor:
#      x y z
#    x 3.816970 0.000000 0.000000 
#    y 0.000000 3.395840 0.000000 
#    z 0.000000 0.000000 3.610780 
# 
# 
# High freq. dielectric constant tensor:
#      x y z
#    x 1.784630 0.000000 0.000000 
#    y 0.000000 1.734300 0.000000 
#    z 0.000000 0.000000 1.759610 
# 
# From -- ./inp_files/28296.got.cif
#   From: 2010.03.12/outbox.cif.g09.slc.cpg/sg59_15_cif.got.tgz:28296.got - 2010.04.16 16:29:54.
