data_PCOD8244009
_publ_section_title
;
Structure prediction by ZEFSAII (Michael W. Deem and Ramdas Pophale) SiO2 
 PCOD8244009
Probable space group: P M M N
;
_chemical_formula_sum "Si O2"
_cell_formula_units_Z 64
_cell_length_a 17.969841
_cell_length_b 14.083632
_cell_length_c 11.353457
_cell_angle_alpha 90.000000
_cell_angle_beta 90.000000
_cell_angle_gamma 90.000000
_cell_volume 2873.340025
_symmetry_space_group_name_H-M "P M M N"
_symmetry_group_IT_number 59
_space_group.IT_coordinate_system_code '2'
_symmetry_cell_setting 'orthorhombic'
loop_
_space_group_symop_operation_xyz
x,y,z
1/2-x,1/2-y,z
1/2+x,-y,-z
-x,1/2+y,-z
-x,-y,-z
1/2+x,1/2+y,-z
1/2-x,y,z
x,1/2-y,z
loop_
_atom_site_type_symbol
_atom_site_label
_atom_site_fract_x
_atom_site_fract_y
_atom_site_fract_z
Si Si1 0.413038 0.964801 0.631826
Si Si2 0.162871 0.639890 0.433410
Si Si3 0.661699 0.646519 0.373778
Si Si4 0.435578 0.856120 0.041854
Si Si5 0.921920 0.857292 0.897599
Si Si6 0.163446 0.641367 0.837683
Si Si7 0.432533 0.517253 0.265205
Si Si8 0.169503 0.140189 0.888611
O O1 0.391997 0.878513 0.544491
O O2 0.379088 0.936237 0.758012
O O3 0.374738 0.055774 0.563907
O O4 0.499473 0.994020 0.645551
O O5 0.250000 0.616267 0.460890
O O6 0.154754 0.750000 0.398209
O O7 0.133821 0.575315 0.326012
O O8 0.750000 0.643282 0.380541
O O9 0.634226 0.750000 0.421533
O O10 0.632493 0.632233 0.239763
O O11 0.438799 0.750000 0.095893
O O12 0.456911 0.926371 0.147374
O O13 0.491729 0.863842 0.931069
O O14 0.357056 0.875903 0.975841
O O15 0.896814 0.750000 0.871126
O O16 0.902521 0.915650 0.779770
O O17 0.880438 0.905300 0.009566
O O18 0.250000 0.622691 0.820402
O O19 0.142927 0.750000 0.801451
O O20 0.250000 0.089248 0.889034
O O21 0.179130 0.250000 0.919267
#
# Coordination Sequence:
#
# PCOD8244009 Si02
#       8
#     8   8   8   8   8   8   8   8
#     4  12  23  40  67  95 126 162 217 281 338 389
#     4  11  27  51  73  93 123 170 226 281 336 395
#     4   9  18  32  53  86 125 161 202 254 314 380
#     4  10  21  38  60  92 135 178 216 266 329 391
#     4  10  20  35  56  87 130 173 208 254 317 388
#     4  10  21  37  61  95 132 175 228 282 332 381
#     4  12  25  40  65  97 131 171 216 274 331 404
#     4   8  15  28  47  75 114 160 204 241 287 361
#
# _framework density 22.27373
#
# number of rings (size 3 to 8) (size 9 to 14) (size 15 to 20)
#    0.000    1.750    1.250    4.125    1.750    4.500 
#    0.000    1.875    0.000    0.750    0.000    0.000 
#    0.000    0.000    0.000    0.000    0.000    0.000 
#
# Total GULP energy -793071.684907 kJ/mol
# GULP energy per Si atom -12391.745077 kJ/mol
# Density = 2.222303 g / cm^3
# Si number density = 22.273730 Si / 1000 Ang^3
#
#
#
# Elastic Constant Matrix: (Units=GPa)
#
#
# Indices 1 2 3 4 5 6 
#
# 1 64.8896 20.2405 10.1516 0.0000 0.0000 0.0000
# 2 20.2405 107.9666 17.4747 0.0000 0.0000 0.0000
# 3 10.1516 17.4747 54.2071 0.0000 0.0000 0.0000
# 4 0.0000 0.0000 0.0000 40.2725 0.0000 0.0000
# 5 0.0000 0.0000 0.0000 0.0000 29.6429 0.0000
# 6 0.0000 0.0000 0.0000 0.0000 0.0000 27.6977
#
#
#
# Elastic Compliance Matrix: (Units=1/GPa)
#
#
# Indices 1 2 3 4 5 6 
#
# 1 0.016618 -0.002755 -0.002224 0.000000 0.000000 0.000000
# 2 -0.002755 0.010229 -0.002781 0.000000 0.000000 0.000000
# 3 -0.002224 -0.002781 0.019761 0.000000 0.000000 0.000000
# 4 0.000000 0.000000 0.000000 0.024831 0.000000 0.000000
# 5 0.000000 0.000000 0.000000 0.000000 0.033735 0.000000
# 6 0.000000 0.000000 0.000000 0.000000 0.000000 0.036104
#
#
# Mechanical properties :
#
#
# Convention : Reuss Voigt Hill
#
# Bulk Modulus (GPa) = 32.16843 35.86631 34.01737
# Shear Modulus (GPa) = 29.91119 31.46906 30.69013
#
# Velocity S-wave (km/s) = 3.66852 3.76284 3.71598
# Velocity P-wave (km/s) = 5.69366 5.91744 5.80663
#
# Compressibility (1/GPa) = 0.03108638
#
# Stress axis : x y z
#
# Youngs Moduli (GPa) = 60.17498 97.76252 50.60497
#
# Poissons Ratio (x) = 0.26938 0.11254
# Poissons Ratio (y) = 0.16581 0.14075
# Poissons Ratio (z) = 0.13382 0.27192
#
# Static dielectric constant tensor:
#      x y z
#    x 3.988190 0.000000 0.000000 
#    y 0.000000 4.275610 0.000000 
#    z 0.000000 0.000000 3.702970 
# 
# 
# High freq. dielectric constant tensor:
#      x y z
#    x 1.861850 0.000000 0.000000 
#    y 0.000000 1.895960 0.000000 
#    z 0.000000 0.000000 1.846810 
# 
# From -- ./inp_files/17821.got.cif
#   From: 2010.03.12/outbox.cif.g09.slc.cpg/sg59_9_cif.got.tgz:17821.got - 2010.04.16 16:29:54.
