data_PCOD8244318
_publ_section_title
;
Structure prediction by ZEFSAII (Michael W. Deem and Ramdas Pophale) SiO2 
 PCOD8244318
Probable space group: P M M N
;
_chemical_formula_sum "Si O2"
_cell_formula_units_Z 48
_cell_length_a 23.556346
_cell_length_b 8.740149
_cell_length_c 11.418982
_cell_angle_alpha 90.000000
_cell_angle_beta 90.000000
_cell_angle_gamma 90.000000
_cell_volume 2351.008230
_symmetry_space_group_name_H-M "P M M N"
_symmetry_group_IT_number 59
_space_group.IT_coordinate_system_code '2'
_symmetry_cell_setting 'orthorhombic'
loop_
_space_group_symop_operation_xyz
x,y,z
1/2-x,1/2-y,z
1/2+x,-y,-z
-x,1/2+y,-z
-x,-y,-z
1/2+x,1/2+y,-z
1/2-x,y,z
x,1/2-y,z
loop_
_atom_site_type_symbol
_atom_site_label
_atom_site_fract_x
_atom_site_fract_y
_atom_site_fract_z
Si Si1 0.186157 0.075772 0.202995
Si Si2 0.091327 0.067912 0.788973
Si Si3 0.479327 0.068154 0.274947
Si Si4 0.378516 0.571702 0.404690
Si Si5 0.084774 0.074223 0.048135
Si Si6 0.315289 0.931414 0.638628
O O1 0.250000 0.038864 0.167370
O O2 0.178022 0.250000 0.249053
O O3 0.149976 0.050785 0.085782
O O4 0.166983 0.960322 0.303496
O O5 0.092571 0.250000 0.786891
O O6 0.152518 0.006157 0.748642
O O7 0.078281 0.000437 0.919546
O O8 0.041496 0.003724 0.704806
O O9 0.483103 0.250000 0.277159
O O10 0.455391 0.003469 0.149893
O O11 0.437487 0.016453 0.379470
O O12 0.392418 0.750000 0.410594
O O13 0.349430 0.513210 0.523825
O O14 0.068198 0.250000 0.037780
O O15 0.250000 0.989602 0.634263
O O16 0.316655 0.750000 0.650208
#
# Coordination Sequence:
#
# PCOD8244318 Si02
#       6
#     8   8   8   8   8   8
#     4   9  17  31  53  80 110 143 179 223 277 332
#     4  11  22  36  57  84 112 144 184 225 264 316
#     4  10  20  37  60  84 112 143 176 220 276 331
#     4  10  20  36  58  82 108 139 181 232 278 320
#     4   8  17  33  53  80 112 145 180 221 271 322
#     4  10  23  42  59  77 108 149 186 222 269 321
#
# _framework density 20.416772000000002
#
# number of rings (size 3 to 8) (size 9 to 14) (size 15 to 20)
#    0.000    2.333    0.000    3.500    0.000    4.000 
#    0.000    9.167    0.000    0.000    0.000    0.000 
#    0.000    0.000    0.000    0.000    0.000    0.000 
#
# Total GULP energy -595087.810493 kJ/mol
# GULP energy per Si atom -12397.662719 kJ/mol
# Density = 2.037030 g / cm^3
# Si number density = 20.416772 Si / 1000 Ang^3
#
#
#
# Elastic Constant Matrix: (Units=GPa)
#
#
# Indices 1 2 3 4 5 6 
#
# 1 134.2521 29.0789 33.1854 0.0000 0.0000 0.0000
# 2 29.0789 44.3347 21.6225 0.0000 0.0000 0.0000
# 3 33.1854 21.6225 66.1304 0.0000 0.0000 0.0000
# 4 0.0000 0.0000 0.0000 25.2612 0.0000 0.0000
# 5 0.0000 0.0000 0.0000 0.0000 22.3161 0.0000
# 6 0.0000 0.0000 0.0000 0.0000 0.0000 33.9113
#
#
#
# Elastic Compliance Matrix: (Units=1/GPa)
#
#
# Indices 1 2 3 4 5 6 
#
# 1 0.009201 -0.004501 -0.003146 0.000000 0.000000 0.000000
# 2 -0.004501 0.029037 -0.007235 0.000000 0.000000 0.000000
# 3 -0.003146 -0.007235 0.019066 0.000000 0.000000 0.000000
# 4 0.000000 0.000000 0.000000 0.039586 0.000000 0.000000
# 5 0.000000 0.000000 0.000000 0.000000 0.044811 0.000000
# 6 0.000000 0.000000 0.000000 0.000000 0.000000 0.029489
#
#
# Mechanical properties :
#
#
# Convention : Reuss Voigt Hill
#
# Bulk Modulus (GPa) = 36.31105 45.83230 41.07167
# Shear Modulus (GPa) = 23.79443 27.01974 25.40709
#
# Velocity S-wave (km/s) = 3.41755 3.64182 3.53146
# Velocity P-wave (km/s) = 5.77896 6.33884 6.06536
#
# Compressibility (1/GPa) = 0.02753982
#
# Stress axis : x y z
#
# Youngs Moduli (GPa) = 108.68258 34.43934 52.44955
#
# Poissons Ratio (x) = 0.15500 0.16499
# Poissons Ratio (y) = 0.48916 0.37950
# Poissons Ratio (z) = 0.34188 0.24918
#
# Static dielectric constant tensor:
#      x y z
#    x 3.873450 0.000000 0.000000 
#    y 0.000000 3.410480 0.000000 
#    z 0.000000 0.000000 3.796360 
# 
# 
# High freq. dielectric constant tensor:
#      x y z
#    x 1.809800 0.000000 0.000000 
#    y 0.000000 1.777500 0.000000 
#    z 0.000000 0.000000 1.789090 
# 
# From -- ./inp_files/18612.got.cif
#   From: 2010.03.12/outbox.cif.g09.slc.cpg/sg59_10_cif.got.tgz:18612.got - 2010.04.16 16:29:54.
