data_PCOD8244650
_publ_section_title
;
Structure prediction by ZEFSAII (Michael W. Deem and Ramdas Pophale) SiO2 
 PCOD8244650
Probable space group: P M M N
;
_chemical_formula_sum "Si O2"
_cell_formula_units_Z 48
_cell_length_a 30.384321
_cell_length_b 8.434736
_cell_length_c 9.515358
_cell_angle_alpha 90.000000
_cell_angle_beta 90.000000
_cell_angle_gamma 90.000000
_cell_volume 2438.631404
_symmetry_space_group_name_H-M "P M M N"
_symmetry_group_IT_number 59
_space_group.IT_coordinate_system_code '2'
_symmetry_cell_setting 'orthorhombic'
loop_
_space_group_symop_operation_xyz
x,y,z
1/2-x,1/2-y,z
1/2+x,-y,-z
-x,1/2+y,-z
-x,-y,-z
1/2+x,1/2+y,-z
1/2-x,y,z
x,1/2-y,z
loop_
_atom_site_type_symbol
_atom_site_label
_atom_site_fract_x
_atom_site_fract_y
_atom_site_fract_z
Si Si1 0.075797 0.937584 0.649718
Si Si2 0.327569 0.437100 0.343651
Si Si3 0.923140 0.063974 0.664865
Si Si4 0.000330 0.435023 0.155002
Si Si5 0.674556 0.437630 0.353329
Si Si6 0.750000 0.438448 0.845717
Si Si7 0.750000 0.937341 0.159574
O O1 0.072999 0.750000 0.653355
O O2 0.064649 0.995266 0.491962
O O3 0.125197 0.991311 0.690690
O O4 0.040085 0.012714 0.756225
O O5 0.332978 0.250000 0.329883
O O6 0.372805 0.522961 0.303520
O O7 0.311706 0.480660 0.500527
O O8 0.292761 0.500018 0.233053
O O9 0.930617 0.250000 0.683716
O O10 0.953330 0.971984 0.774061
O O11 0.992978 0.250000 0.147431
O O12 0.000000 0.500000 0.000000
O O13 0.677318 0.250000 0.376015
O O14 0.706603 0.492049 0.230900
O O15 0.750000 0.250000 0.854229
O O16 0.750000 0.512126 0.999415
O O17 0.750000 0.750000 0.175367
#
# Coordination Sequence:
#
# PCOD8244650 Si02
#       7
#     8   8   8   8   8   4   4
#     4   8  18  36  60  84 110 144 190 238 283 335
#     4  11  22  39  62  90 118 149 190 242 293 343
#     4  10  20  38  61  86 112 147 192 239 288 346
#     4  11  22  37  55  82 117 154 191 236 290 347
#     4  10  20  39  63  87 113 151 197 241 289 348
#     4  12  25  42  61  84 116 158 196 234 285 348
#     4  12  25  40  57  86 122 156 194 242 291 342
#
# _framework density 19.683171999999999
#
# number of rings (size 3 to 8) (size 9 to 14) (size 15 to 20)
#    0.000    1.667    0.000    6.500    0.000    1.333 
#    0.000   14.167    0.000    0.000    0.000    0.000 
#    0.000    0.000    0.000    0.000    0.000    0.000 
#
# Total GULP energy -595319.580274 kJ/mol
# GULP energy per Si atom -12402.491256 kJ/mol
# Density = 1.963837 g / cm^3
# Si number density = 19.683172 Si / 1000 Ang^3
#
#
#
# Elastic Constant Matrix: (Units=GPa)
#
#
# Indices 1 2 3 4 5 6 
#
# 1 122.0141 7.2220 88.5870 0.0000 0.0000 0.0000
# 2 7.2220 61.0793 18.3619 0.0000 0.0000 0.0000
# 3 88.5870 18.3619 159.6443 0.0000 0.0000 0.0000
# 4 0.0000 0.0000 0.0000 34.0449 0.0000 0.0000
# 5 0.0000 0.0000 0.0000 0.0000 16.0341 0.0000
# 6 0.0000 0.0000 0.0000 0.0000 0.0000 27.7114
#
#
#
# Elastic Compliance Matrix: (Units=1/GPa)
#
#
# Indices 1 2 3 4 5 6 
#
# 1 0.013754 0.000692 -0.007712 0.000000 0.000000 0.000000
# 2 0.000692 0.016993 -0.002339 0.000000 0.000000 0.000000
# 3 -0.007712 -0.002339 0.010812 0.000000 0.000000 0.000000
# 4 0.000000 0.000000 0.000000 0.029373 0.000000 0.000000
# 5 0.000000 0.000000 0.000000 0.000000 0.062367 0.000000
# 6 0.000000 0.000000 0.000000 0.000000 0.000000 0.036086
#
#
# Mechanical properties :
#
#
# Convention : Reuss Voigt Hill
#
# Bulk Modulus (GPa) = 43.77710 63.45328 53.61519
# Shear Modulus (GPa) = 25.54722 30.79586 28.17154
#
# Velocity S-wave (km/s) = 3.60658 3.95977 3.78729
# Velocity P-wave (km/s) = 6.29542 7.29477 6.81344
#
# Compressibility (1/GPa) = 0.02284299
#
# Stress axis : x y z
#
# Youngs Moduli (GPa) = 72.70763 58.84654 92.48928
#
# Poissons Ratio (x) = -0.04072 0.71324
# Poissons Ratio (y) = -0.05032 0.21629
# Poissons Ratio (z) = 0.56069 0.13762
#
# Static dielectric constant tensor:
#      x y z
#    x 3.037060 0.000000 0.000000 
#    y 0.000000 3.609590 0.000000 
#    z 0.000000 0.000000 3.646190 
# 
# 
# High freq. dielectric constant tensor:
#      x y z
#    x 1.782440 0.000000 0.000000 
#    y 0.000000 1.767560 0.000000 
#    z 0.000000 0.000000 1.767270 
# 
# From -- ./inp_files/13076.got.cif
#   From: 2010.03.12/outbox.cif.g09.slc.cpg/sg59_7_cif.got.tgz:13076.got - 2010.04.16 16:29:54.
