data_PCOD8244183
_publ_section_title
;
Structure prediction by ZEFSAII (Michael W. Deem and Ramdas Pophale) SiO2 
 PCOD8244183
Probable space group: P M M N
;
_chemical_formula_sum "Si O2"
_cell_formula_units_Z 64
_cell_length_a 9.132617
_cell_length_b 22.835290
_cell_length_c 15.737929
_cell_angle_alpha 90.000000
_cell_angle_beta 90.000000
_cell_angle_gamma 90.000000
_cell_volume 3282.081475
_symmetry_space_group_name_H-M "P M M N"
_symmetry_group_IT_number 59
_space_group.IT_coordinate_system_code '2'
_symmetry_cell_setting 'orthorhombic'
loop_
_space_group_symop_operation_xyz
x,y,z
1/2-x,1/2-y,z
1/2+x,-y,-z
-x,1/2+y,-z
-x,-y,-z
1/2+x,1/2+y,-z
1/2-x,y,z
x,1/2-y,z
loop_
_atom_site_type_symbol
_atom_site_label
_atom_site_fract_x
_atom_site_fract_y
_atom_site_fract_z
Si Si1 0.920044 0.817937 0.823603
Si Si2 0.418803 0.316999 0.659483
Si Si3 0.585720 0.416572 0.729657
Si Si4 0.586845 0.182618 0.493536
Si Si5 0.917988 0.992534 0.589532
Si Si6 0.417753 0.473097 0.877902
Si Si7 0.916453 0.918647 0.947907
Si Si8 0.422744 0.612405 0.673541
O O1 0.750000 0.819522 0.797213
O O2 0.972323 0.750000 0.833238
O O3 0.944587 0.852601 0.913085
O O4 0.012133 0.852457 0.752997
O O5 0.250000 0.332292 0.665393
O O6 0.453679 0.250000 0.680332
O O7 0.502851 0.354700 0.729416
O O8 0.471869 0.333963 0.565653
O O9 0.750000 0.405007 0.759502
O O10 0.579438 0.444823 0.635861
O O11 0.511793 0.458758 0.796587
O O12 0.750000 0.165380 0.525234
O O13 0.578987 0.250000 0.469228
O O14 0.542211 0.149334 0.409580
O O15 0.750000 0.972524 0.573289
O O16 0.997531 0.949003 0.655883
O O17 0.000000 0.000000 0.500000
O O18 0.250000 0.478201 0.850423
O O19 0.468969 0.537138 0.906439
O O20 0.439203 0.423155 0.950359
O O21 0.750000 0.938185 0.925469
O O22 0.250000 0.602501 0.688197
#
# Coordination Sequence:
#
# PCOD8244183 Si02
#       8
#     8   8   8   8   8   8   8   8
#     4  10  21  37  57  81 112 151 190 229 279 340
#     4  10  21  36  55  79 104 132 172 221 266 310
#     4  11  23  38  56  79 109 143 178 217 267 326
#     4   9  18  33  51  71 100 139 179 218 263 314
#     4  11  24  39  55  79 112 150 190 234 283 333
#     4  10  20  35  59  87 111 140 181 229 278 328
#     4   9  19  37  58  82 112 143 179 224 277 336
#     4  11  22  35  53  79 111 147 187 231 278 329
#
# _framework density 19.499822000000002
#
# number of rings (size 3 to 8) (size 9 to 14) (size 15 to 20)
#    0.000    1.875    0.000    3.750    0.000   11.500 
#    0.000    1.875    0.000    2.250    0.000    0.000 
#    0.000    0.000    0.000    0.000    0.000    0.000 
#
# Total GULP energy -793542.190214 kJ/mol
# GULP energy per Si atom -12399.096722 kJ/mol
# Density = 1.945544 g / cm^3
# Si number density = 19.499822 Si / 1000 Ang^3
#
#
#
# Elastic Constant Matrix: (Units=GPa)
#
#
# Indices 1 2 3 4 5 6 
#
# 1 92.4710 45.6009 46.9191 0.0000 0.0000 0.0000
# 2 45.6009 93.4473 39.1442 0.0000 0.0000 0.0000
# 3 46.9191 39.1442 64.1566 0.0000 0.0000 0.0000
# 4 0.0000 0.0000 0.0000 33.3835 0.0000 0.0000
# 5 0.0000 0.0000 0.0000 0.0000 29.9088 0.0000
# 6 0.0000 0.0000 0.0000 0.0000 0.0000 30.7866
#
#
#
# Elastic Compliance Matrix: (Units=1/GPa)
#
#
# Indices 1 2 3 4 5 6 
#
# 1 0.018513 -0.004517 -0.010783 0.000000 0.000000 0.000000
# 2 -0.004517 0.015477 -0.006140 0.000000 0.000000 0.000000
# 3 -0.010783 -0.006140 0.027219 0.000000 0.000000 0.000000
# 4 0.000000 0.000000 0.000000 0.029955 0.000000 0.000000
# 5 0.000000 0.000000 0.000000 0.000000 0.033435 0.000000
# 6 0.000000 0.000000 0.000000 0.000000 0.000000 0.032482
#
#
# Mechanical properties :
#
#
# Convention : Reuss Voigt Hill
#
# Bulk Modulus (GPa) = 54.55710 57.04482 55.80096
# Shear Modulus (GPa) = 24.26361 26.70985 25.48673
#
# Velocity S-wave (km/s) = 3.53129 3.70503 3.61920
# Velocity P-wave (km/s) = 6.68324 6.90076 6.79287
#
# Compressibility (1/GPa) = 0.01832942
#
# Stress axis : x y z
#
# Youngs Moduli (GPa) = 54.01636 64.61012 36.73950
#
# Poissons Ratio (x) = 0.29186 0.39615
# Poissons Ratio (y) = 0.24400 0.22557
# Poissons Ratio (z) = 0.58245 0.39669
#
# Static dielectric constant tensor:
#      x y z
#    x 3.701340 0.000000 0.000000 
#    y 0.000000 3.673780 0.000000 
#    z 0.000000 0.000000 3.528560 
# 
# 
# High freq. dielectric constant tensor:
#      x y z
#    x 1.769590 0.000000 0.000000 
#    y 0.000000 1.760940 0.000000 
#    z 0.000000 0.000000 1.749610 
# 
# From -- ./inp_files/21559.got.cif
#   From: 2010.03.12/outbox.cif.g09.slc.cpg/sg59_11_cif.got.tgz:21559.got - 2010.04.16 16:29:54.
