data_PCOD8244653
_publ_section_title
;
Structure prediction by ZEFSAII (Michael W. Deem and Ramdas Pophale) SiO2 
 PCOD8244653
Probable space group: P M M N
;
_chemical_formula_sum "Si O2"
_cell_formula_units_Z 64
_cell_length_a 8.794137
_cell_length_b 23.938699
_cell_length_c 14.972549
_cell_angle_alpha 90.000000
_cell_angle_beta 90.000000
_cell_angle_gamma 90.000000
_cell_volume 3152.023989
_symmetry_space_group_name_H-M "P M M N"
_symmetry_group_IT_number 59
_space_group.IT_coordinate_system_code '2'
_symmetry_cell_setting 'orthorhombic'
loop_
_space_group_symop_operation_xyz
x,y,z
1/2-x,1/2-y,z
1/2+x,-y,-z
-x,1/2+y,-z
-x,-y,-z
1/2+x,1/2+y,-z
1/2-x,y,z
x,1/2-y,z
loop_
_atom_site_type_symbol
_atom_site_label
_atom_site_fract_x
_atom_site_fract_y
_atom_site_fract_z
Si Si1 0.430610 0.107628 0.354750
Si Si2 0.576962 0.634513 0.962937
Si Si3 0.070210 0.993615 0.274799
Si Si4 0.070091 0.186341 0.512244
Si Si5 0.573636 0.314319 0.867832
Si Si6 0.073684 0.630258 0.320515
Si Si7 0.075178 0.309070 0.212161
Si Si8 0.071666 0.525127 0.911346
O O1 0.250000 0.106402 0.359726
O O2 0.486907 0.043372 0.341691
O O3 0.495888 0.141034 0.440784
O O4 0.496649 0.140130 0.267960
O O5 0.750000 0.611910 0.969518
O O6 0.564030 0.685871 0.894673
O O7 0.468004 0.589971 0.915911
O O8 0.523984 0.652730 0.059939
O O9 0.250000 0.997337 0.258628
O O10 0.995012 0.997030 0.177542
O O11 0.025033 0.934899 0.320299
O O12 0.250000 0.187575 0.506155
O O13 0.008737 0.250000 0.495565
O O14 0.022708 0.165023 0.609053
O O15 0.750000 0.319939 0.893083
O O16 0.522787 0.250000 0.863793
O O17 0.536793 0.343062 0.774609
O O18 0.250000 0.636787 0.344913
O O19 0.250000 0.306887 0.242033
O O20 0.997056 0.250000 0.238247
O O21 0.250000 0.514908 0.911501
O O22 0.000000 0.500000 0.000000
#
# Coordination Sequence:
#
# PCOD8244653 Si02
#       8
#     8   8   8   8   8   8   8   8
#     4   9  17  33  57  85 119 154 192 237 288 344
#     4  11  21  35  56  85 117 151 195 243 294 351
#     4  10  20  38  61  87 118 156 198 240 292 357
#     4  10  21  37  60  89 117 150 197 249 297 346
#     4  10  21  37  55  78 113 157 201 249 305 361
#     4  10  22  39  60  83 113 154 196 240 301 366
#     4   9  16  28  51  82 114 149 189 230 276 337
#     4  12  24  38  58  84 117 157 200 244 292 347
#
# _framework density 20.304413
#
# number of rings (size 3 to 8) (size 9 to 14) (size 15 to 20)
#    0.000    1.875    1.250    3.375    0.000    5.500 
#    0.000    0.625    0.000    0.000    0.000    0.000 
#    0.000    0.000    0.000    0.000    0.000    0.000 
#
# Total GULP energy -793256.767656 kJ/mol
# GULP energy per Si atom -12394.636995 kJ/mol
# Density = 2.025820 g / cm^3
# Si number density = 20.304413 Si / 1000 Ang^3
#
#
#
# Elastic Constant Matrix: (Units=GPa)
#
#
# Indices 1 2 3 4 5 6 
#
# 1 44.8441 24.8802 24.5349 0.0000 0.0000 0.0000
# 2 24.8802 109.9181 45.0873 0.0000 0.0000 0.0000
# 3 24.5349 45.0873 103.9014 0.0000 0.0000 0.0000
# 4 0.0000 0.0000 0.0000 33.6362 0.0000 0.0000
# 5 0.0000 0.0000 0.0000 0.0000 20.4811 0.0000
# 6 0.0000 0.0000 0.0000 0.0000 0.0000 20.4368
#
#
#
# Elastic Compliance Matrix: (Units=1/GPa)
#
#
# Indices 1 2 3 4 5 6 
#
# 1 0.027168 -0.004280 -0.004558 0.000000 0.000000 0.000000
# 2 -0.004280 0.011742 -0.004085 0.000000 0.000000 0.000000
# 3 -0.004558 -0.004085 0.012473 0.000000 0.000000 0.000000
# 4 0.000000 0.000000 0.000000 0.029730 0.000000 0.000000
# 5 0.000000 0.000000 0.000000 0.000000 0.048826 0.000000
# 6 0.000000 0.000000 0.000000 0.000000 0.000000 0.048931
#
#
# Mechanical properties :
#
#
# Convention : Reuss Voigt Hill
#
# Bulk Modulus (GPa) = 39.15756 49.74095 44.44926
# Shear Modulus (GPa) = 23.44909 25.85489 24.65199
#
# Velocity S-wave (km/s) = 3.40203 3.57229 3.48820
# Velocity P-wave (km/s) = 5.89567 6.44716 6.17757
#
# Compressibility (1/GPa) = 0.02553785
#
# Stress axis : x y z
#
# Youngs Moduli (GPa) = 36.80824 85.16482 80.17064
#
# Poissons Ratio (x) = 0.36449 0.36543
# Poissons Ratio (y) = 0.15753 0.32747
# Poissons Ratio (z) = 0.16778 0.34787
#
# Static dielectric constant tensor:
#      x y z
#    x 3.526520 0.000000 0.000000 
#    y 0.000000 4.233990 0.000000 
#    z 0.000000 0.000000 3.705060 
# 
# 
# High freq. dielectric constant tensor:
#      x y z
#    x 1.753470 0.000000 0.000000 
#    y 0.000000 1.813640 0.000000 
#    z 0.000000 0.000000 1.796980 
# 
# From -- ./inp_files/21591.got.cif
#   From: 2010.03.12/outbox.cif.g09.slc.cpg/sg59_11_cif.got.tgz:21591.got - 2010.04.16 16:29:54.
