data_PCOD8244371
_publ_section_title
;
Structure prediction by ZEFSAII (Michael W. Deem and Ramdas Pophale) SiO2 
 PCOD8244371
Probable space group: P M M N
;
_chemical_formula_sum "Si O2"
_cell_formula_units_Z 64
_cell_length_a 18.685370
_cell_length_b 9.342918
_cell_length_c 20.267598
_cell_angle_alpha 90.000000
_cell_angle_beta 90.000000
_cell_angle_gamma 90.000000
_cell_volume 3538.233750
_symmetry_space_group_name_H-M "P M M N"
_symmetry_group_IT_number 59
_space_group.IT_coordinate_system_code '2'
_symmetry_cell_setting 'orthorhombic'
loop_
_space_group_symop_operation_xyz
x,y,z
1/2-x,1/2-y,z
1/2+x,-y,-z
-x,1/2+y,-z
-x,-y,-z
1/2+x,1/2+y,-z
1/2-x,y,z
x,1/2-y,z
loop_
_atom_site_type_symbol
_atom_site_label
_atom_site_fract_x
_atom_site_fract_y
_atom_site_fract_z
Si Si1 0.165271 0.414006 0.275110
Si Si2 0.665879 0.915707 0.072527
Si Si3 0.334991 0.588979 0.544050
Si Si4 0.927622 0.085231 0.823003
Si Si5 0.429723 0.916667 0.022149
Si Si6 0.166972 0.417733 0.668260
Si Si7 0.164903 0.589081 0.398946
Si Si8 0.412727 0.080343 0.796845
O O1 0.250000 0.431414 0.270066
O O2 0.141450 0.250000 0.275452
O O3 0.132346 0.491109 0.211923
O O4 0.134815 0.484669 0.342447
O O5 0.750000 0.934193 0.079751
O O6 0.644736 0.750000 0.059729
O O7 0.629542 0.975677 0.139131
O O8 0.638967 0.012842 0.012380
O O9 0.250000 0.582105 0.544672
O O10 0.361472 0.750000 0.557449
O O11 0.365255 0.488224 0.601864
O O12 0.362184 0.537988 0.471511
O O13 0.916983 0.250000 0.802588
O O14 0.918468 0.064774 0.900482
O O15 0.005447 0.029145 0.800355
O O16 0.437000 0.750000 0.002892
O O17 0.500000 0.000000 0.000000
O O18 0.250000 0.456340 0.678857
O O19 0.155365 0.250000 0.660707
O O20 0.123795 0.480955 0.730648
O O21 0.250000 0.587129 0.398119
O O22 0.137366 0.750000 0.384712
O O23 0.407202 0.250000 0.796599
#
# Coordination Sequence:
#
# PCOD8244371 Si02
#       8
#     8   8   8   8   8   8   8   8
#     4  10  21  35  52  78 108 132 163 215 269 312
#     4  10  20  36  59  84 111 143 178 219 268 319
#     4   8  14  25  42  67 100 135 169 207 253 306
#     4  10  21  37  57  76 100 138 177 211 251 311
#     4  11  22  38  59  81 107 139 179 223 267 318
#     4   9  16  26  45  73 102 133 170 213 255 297
#     4   8  14  27  48  71  97 133 172 207 252 311
#     4   9  17  33  53  75 103 138 180 214 250 307
#
# _framework density 18.08812
#
# number of rings (size 3 to 8) (size 9 to 14) (size 15 to 20)
#    0.000    2.625    1.250    1.875    0.000    4.500 
#    0.000    6.250    0.000    2.250    0.000    0.000 
#    0.000    0.000    0.000    0.000    0.000    0.000 
#
# Total GULP energy -793478.856522 kJ/mol
# GULP energy per Si atom -12398.107133 kJ/mol
# Density = 1.804695 g / cm^3
# Si number density = 18.088120 Si / 1000 Ang^3
#
#
#
# Elastic Constant Matrix: (Units=GPa)
#
#
# Indices 1 2 3 4 5 6 
#
# 1 45.9527 35.6870 41.5852 0.0000 0.0000 0.0000
# 2 35.6870 89.6634 71.1514 0.0000 0.0000 0.0000
# 3 41.5852 71.1514 138.6445 0.0000 0.0000 0.0000
# 4 0.0000 0.0000 0.0000 34.8681 0.0000 0.0000
# 5 0.0000 0.0000 0.0000 0.0000 19.8332 0.0000
# 6 0.0000 0.0000 0.0000 0.0000 0.0000 20.9940
#
#
#
# Elastic Compliance Matrix: (Units=1/GPa)
#
#
# Indices 1 2 3 4 5 6 
#
# 1 0.033775 -0.009117 -0.005452 0.000000 0.000000 0.000000
# 2 -0.009117 0.021276 -0.008184 0.000000 0.000000 0.000000
# 3 -0.005452 -0.008184 0.013048 0.000000 0.000000 0.000000
# 4 0.000000 0.000000 0.000000 0.028680 0.000000 0.000000
# 5 0.000000 0.000000 0.000000 0.000000 0.050420 0.000000
# 6 0.000000 0.000000 0.000000 0.000000 0.000000 0.047633
#
#
# Mechanical properties :
#
#
# Convention : Reuss Voigt Hill
#
# Bulk Modulus (GPa) = 44.26032 63.45645 53.85838
# Shear Modulus (GPa) = 20.17201 23.52820 21.85011
#
# Velocity S-wave (km/s) = 3.34310 3.61051 3.47937
# Velocity P-wave (km/s) = 6.27886 7.24838 6.78097
#
# Compressibility (1/GPa) = 0.02259360
#
# Stress axis : x y z
#
# Youngs Moduli (GPa) = 29.60746 47.00191 76.63985
#
# Poissons Ratio (x) = 0.42849 0.41785
# Poissons Ratio (y) = 0.26992 0.62723
# Poissons Ratio (z) = 0.16142 0.38467
#
# Static dielectric constant tensor:
#      x y z
#    x 3.082400 0.000000 0.000000 
#    y 0.000000 3.355830 0.000000 
#    z 0.000000 0.000000 3.718680 
# 
# 
# High freq. dielectric constant tensor:
#      x y z
#    x 1.670820 0.000000 0.000000 
#    y 0.000000 1.685500 0.000000 
#    z 0.000000 0.000000 1.716850 
# 
# From -- ./inp_files/30722.got.cif
#   From: 2010.03.12/outbox.cif.g09.slc.cpg/sg59_16_cif.got.tgz:30722.got - 2010.04.16 16:29:54.
