data_PCOD8244420
_publ_section_title
;
Structure prediction by ZEFSAII (Michael W. Deem and Ramdas Pophale) SiO2 
 PCOD8244420
Probable space group: P M M N
;
_chemical_formula_sum "Si O2"
_cell_formula_units_Z 48
_cell_length_a 8.622632
_cell_length_b 30.391076
_cell_length_c 9.551318
_cell_angle_alpha 90.000000
_cell_angle_beta 90.000000
_cell_angle_gamma 90.000000
_cell_volume 2502.933049
_symmetry_space_group_name_H-M "P M M N"
_symmetry_group_IT_number 59
_space_group.IT_coordinate_system_code '2'
_symmetry_cell_setting 'orthorhombic'
loop_
_space_group_symop_operation_xyz
x,y,z
1/2-x,1/2-y,z
1/2+x,-y,-z
-x,1/2+y,-z
-x,-y,-z
1/2+x,1/2+y,-z
1/2-x,y,z
x,1/2-y,z
loop_
_atom_site_type_symbol
_atom_site_label
_atom_site_fract_x
_atom_site_fract_y
_atom_site_fract_z
Si Si1 0.431021 0.015735 0.145944
Si Si2 0.927868 0.564036 0.278360
Si Si3 0.429917 0.698907 0.306688
Si Si4 0.570431 0.856857 0.075318
Si Si5 0.569567 0.868234 0.513831
Si Si6 0.068982 0.609743 0.801199
O O1 0.250000 0.024202 0.128433
O O2 0.508441 0.060197 0.198153
O O3 0.463107 0.978496 0.262825
O O4 0.500000 0.000000 0.000000
O O5 0.750000 0.548500 0.278365
O O6 0.959558 0.596123 0.147615
O O7 0.970300 0.588595 0.422170
O O8 0.250000 0.689633 0.335371
O O9 0.470435 0.750000 0.312692
O O10 0.473962 0.680982 0.153308
O O11 0.531149 0.675158 0.425301
O O12 0.750000 0.843805 0.082641
O O13 0.515261 0.860102 0.916058
O O14 0.750000 0.867616 0.554340
O O15 0.465719 0.868621 0.651747
O O16 0.250000 0.610117 0.832554
#
# Coordination Sequence:
#
# PCOD8244420 Si02
#       6
#     8   8   8   8   8   8
#     4  12  23  35  55  82 115 155 201 247 291 339
#     4   9  19  36  57  81 111 151 197 241 286 337
#     4  10  21  39  64  92 120 150 188 233 284 348
#     4  10  20  36  60  86 116 150 191 238 285 342
#     4  10  22  40  61  85 118 155 194 241 293 351
#     4  12  24  38  58  84 118 156 195 242 296 348
#
# _framework density 19.177502
#
# number of rings (size 3 to 8) (size 9 to 14) (size 15 to 20)
#    0.000    1.500    1.667    5.500    0.000    5.333 
#    0.000    0.833    0.000    5.000    0.000    0.000 
#    0.000    0.000    0.000    0.000    0.000    0.000 
#
# Total GULP energy -595469.749800 kJ/mol
# GULP energy per Si atom -12405.619787 kJ/mol
# Density = 1.913385 g / cm^3
# Si number density = 19.177502 Si / 1000 Ang^3
#
#
#
# Elastic Constant Matrix: (Units=GPa)
#
#
# Indices 1 2 3 4 5 6 
#
# 1 56.9051 22.0664 9.6754 0.0000 0.0000 0.0000
# 2 22.0664 88.9711 29.2089 0.0000 0.0000 0.0000
# 3 9.6754 29.2089 103.1204 0.0000 0.0000 0.0000
# 4 0.0000 0.0000 0.0000 17.1558 0.0000 0.0000
# 5 0.0000 0.0000 0.0000 0.0000 34.6868 0.0000
# 6 0.0000 0.0000 0.0000 0.0000 0.0000 30.6898
#
#
#
# Elastic Compliance Matrix: (Units=1/GPa)
#
#
# Indices 1 2 3 4 5 6 
#
# 1 0.019467 -0.004662 -0.000506 0.000000 0.000000 0.000000
# 2 -0.004662 0.013508 -0.003389 0.000000 0.000000 0.000000
# 3 -0.000506 -0.003389 0.010705 0.000000 0.000000 0.000000
# 4 0.000000 0.000000 0.000000 0.058289 0.000000 0.000000
# 5 0.000000 0.000000 0.000000 0.000000 0.028829 0.000000
# 6 0.000000 0.000000 0.000000 0.000000 0.000000 0.032584
#
#
# Mechanical properties :
#
#
# Convention : Reuss Voigt Hill
#
# Bulk Modulus (GPa) = 37.64149 41.21089 39.42619
# Shear Modulus (GPa) = 26.40585 29.04290 27.72437
#
# Velocity S-wave (km/s) = 3.71471 3.89578 3.80632
# Velocity P-wave (km/s) = 6.17003 6.46313 6.31828
#
# Compressibility (1/GPa) = 0.02656643
#
# Stress axis : x y z
#
# Youngs Moduli (GPa) = 51.36901 74.02791 93.41631
#
# Poissons Ratio (x) = 0.34512 0.04727
# Poissons Ratio (y) = 0.23948 0.31657
# Poissons Ratio (z) = 0.02599 0.25087
#
# Static dielectric constant tensor:
#      x y z
#    x 3.678480 0.000000 0.000000 
#    y 0.000000 3.410680 0.000000 
#    z 0.000000 0.000000 3.497550 
# 
# 
# High freq. dielectric constant tensor:
#      x y z
#    x 1.757850 0.000000 0.000000 
#    y 0.000000 1.731870 0.000000 
#    z 0.000000 0.000000 1.745830 
# 
# From -- ./inp_files/6238.got.cif
#   From: 2010.03.12/outbox.cif.g09.slc.cpg/sg59_4_cif.got.tgz:6238.got - 2010.04.16 16:29:54.
