data_PCOD8244912
_publ_section_title
;
Structure prediction by ZEFSAII (Michael W. Deem and Ramdas Pophale) SiO2 
 PCOD8244912
Probable space group: P M M N
;
_chemical_formula_sum "Si O2"
_cell_formula_units_Z 64
_cell_length_a 13.922757
_cell_length_b 9.256598
_cell_length_c 26.723094
_cell_angle_alpha 90.000000
_cell_angle_beta 90.000000
_cell_angle_gamma 90.000000
_cell_volume 3444.001929
_symmetry_space_group_name_H-M "P M M N"
_symmetry_group_IT_number 59
_space_group.IT_coordinate_system_code '2'
_symmetry_cell_setting 'orthorhombic'
loop_
_space_group_symop_operation_xyz
x,y,z
1/2-x,1/2-y,z
1/2+x,-y,-z
-x,1/2+y,-z
-x,-y,-z
1/2+x,1/2+y,-z
1/2-x,y,z
x,1/2-y,z
loop_
_atom_site_type_symbol
_atom_site_label
_atom_site_fract_x
_atom_site_fract_y
_atom_site_fract_z
Si Si1 0.860495 0.084355 0.673562
Si Si2 0.456591 0.078557 0.239680
Si Si3 0.357828 0.409019 0.889040
Si Si4 0.004059 0.080591 0.052121
Si Si5 0.142794 0.078867 0.138313
Si Si6 0.642350 0.918149 0.482872
Si Si7 0.643304 0.584175 0.228216
Si Si8 0.952886 0.081469 0.571075
O O1 0.750000 0.065001 0.657733
O O2 0.882105 0.250000 0.688667
O O3 0.927641 0.035133 0.627439
O O4 0.881614 0.981024 0.720122
O O5 0.460108 0.250000 0.242812
O O6 0.420847 0.023368 0.185087
O O7 0.562152 0.016449 0.252630
O O8 0.250000 0.409788 0.909482
O O9 0.403347 0.250000 0.900298
O O10 0.410540 0.538441 0.916764
O O11 0.359466 0.440512 0.830667
O O12 0.004725 0.250000 0.041872
O O13 0.095630 0.031782 0.085526
O O14 0.000000 0.000000 0.000000
O O15 0.250000 0.012253 0.140992
O O16 0.148078 0.250000 0.141468
O O17 0.750000 0.960032 0.464517
O O18 0.635983 0.750000 0.495567
O O19 0.564538 0.958907 0.439958
O O20 0.618419 0.000697 0.533708
O O21 0.750000 0.541657 0.248162
O O22 0.621351 0.750000 0.242152
O O23 0.933338 0.250000 0.563414
#
# Coordination Sequence:
#
# PCOD8244912 Si02
#       8
#     8   8   8   8   8   8   8   8
#     4  10  21  36  53  76 108 146 186 227 273 326
#     4  11  21  35  57  83 109 139 179 227 272 320
#     4   9  18  34  56  79 103 133 167 207 257 311
#     4  11  22  36  54  78 107 139 176 218 263 316
#     4   9  19  36  55  75 102 137 174 212 261 318
#     4   9  17  30  51  79 108 139 180 229 279 328
#     4   9  18  34  57  82 107 136 171 212 259 315
#     4   9  18  33  52  75 107 146 186 227 271 323
#
# _framework density 18.583033
#
# number of rings (size 3 to 8) (size 9 to 14) (size 15 to 20)
#    0.000    2.375    1.250    2.250    0.000    3.000 
#    0.000    3.125    0.000    5.625    0.000    0.000 
#    0.000    0.000    0.000    0.000    0.000    0.000 
#
# Total GULP energy -793457.970063 kJ/mol
# GULP energy per Si atom -12397.780782 kJ/mol
# Density = 1.854074 g / cm^3
# Si number density = 18.583033 Si / 1000 Ang^3
#
#
#
# Elastic Constant Matrix: (Units=GPa)
#
#
# Indices 1 2 3 4 5 6 
#
# 1 123.9456 38.5229 44.5968 0.0000 0.0000 0.0000
# 2 38.5229 59.2446 37.7171 0.0000 0.0000 0.0000
# 3 44.5968 37.7171 89.4322 0.0000 0.0000 0.0000
# 4 0.0000 0.0000 0.0000 29.7450 0.0000 0.0000
# 5 0.0000 0.0000 0.0000 0.0000 22.3878 0.0000
# 6 0.0000 0.0000 0.0000 0.0000 0.0000 29.7043
#
#
#
# Elastic Compliance Matrix: (Units=1/GPa)
#
#
# Indices 1 2 3 4 5 6 
#
# 1 0.010783 -0.004905 -0.003308 0.000000 0.000000 0.000000
# 2 -0.004905 0.025306 -0.008226 0.000000 0.000000 0.000000
# 3 -0.003308 -0.008226 0.016301 0.000000 0.000000 0.000000
# 4 0.000000 0.000000 0.000000 0.033619 0.000000 0.000000
# 5 0.000000 0.000000 0.000000 0.000000 0.044667 0.000000
# 6 0.000000 0.000000 0.000000 0.000000 0.000000 0.033665
#
#
# Mechanical properties :
#
#
# Convention : Reuss Voigt Hill
#
# Bulk Modulus (GPa) = 51.25664 57.14401 54.20032
# Shear Modulus (GPa) = 24.54291 26.48645 25.51468
#
# Velocity S-wave (km/s) = 3.63811 3.77941 3.70943
# Velocity P-wave (km/s) = 6.72980 7.06135 6.89757
#
# Compressibility (1/GPa) = 0.01950967
#
# Stress axis : x y z
#
# Youngs Moduli (GPa) = 92.73839 39.51633 61.34647
#
# Poissons Ratio (x) = 0.19384 0.20296
# Poissons Ratio (y) = 0.45491 0.50466
# Poissons Ratio (z) = 0.30681 0.32508
#
# Static dielectric constant tensor:
#      x y z
#    x 3.125000 0.000000 0.000000 
#    y 0.000000 3.286090 0.000000 
#    z 0.000000 0.000000 3.587370 
# 
# 
# High freq. dielectric constant tensor:
#      x y z
#    x 1.731820 0.000000 0.000000 
#    y 0.000000 1.707850 0.000000 
#    z 0.000000 0.000000 1.704170 
# 
# From -- ./inp_files/31462.got.cif
#   From: 2010.03.12/outbox.cif.g09.slc.cpg/sg59_16_cif.got.tgz:31462.got - 2010.04.16 16:29:54.
