data_PCOD8244452
_publ_section_title
;
Structure prediction by ZEFSAII (Michael W. Deem and Ramdas Pophale) SiO2 
 PCOD8244452
Probable space group: P M M N
;
_chemical_formula_sum "Si O2"
_cell_formula_units_Z 64
_cell_length_a 8.442668
_cell_length_b 30.928946
_cell_length_c 12.049960
_cell_angle_alpha 90.000000
_cell_angle_beta 90.000000
_cell_angle_gamma 90.000000
_cell_volume 3146.519568
_symmetry_space_group_name_H-M "P M M N"
_symmetry_group_IT_number 59
_space_group.IT_coordinate_system_code '2'
_symmetry_cell_setting 'orthorhombic'
loop_
_space_group_symop_operation_xyz
x,y,z
1/2-x,1/2-y,z
1/2+x,-y,-z
-x,1/2+y,-z
-x,-y,-z
1/2+x,1/2+y,-z
1/2-x,y,z
x,1/2-y,z
loop_
_atom_site_type_symbol
_atom_site_label
_atom_site_fract_x
_atom_site_fract_y
_atom_site_fract_z
Si Si1 0.564782 0.873629 0.874549
Si Si2 0.437321 0.047520 0.729119
Si Si3 0.934022 0.701728 0.718274
Si Si4 0.067051 0.298673 0.721390
Si Si5 0.431961 0.831460 0.499796
Si Si6 0.566488 0.049061 0.262298
Si Si7 0.938370 0.624810 0.121361
Si Si8 0.065948 0.424165 0.490950
O O1 0.750000 0.866646 0.887045
O O2 0.495082 0.833084 0.805471
O O3 0.534238 0.918403 0.811854
O O4 0.488279 0.874653 0.997453
O O5 0.250000 0.052963 0.723322
O O6 0.508314 0.083080 0.813645
O O7 0.502170 0.055734 0.604983
O O8 0.484832 0.999701 0.770396
O O9 0.750000 0.692037 0.694034
O O10 0.956937 0.750000 0.767178
O O11 0.030115 0.698854 0.604120
O O12 0.250000 0.307788 0.691812
O O13 0.043006 0.250000 0.766377
O O14 0.007881 0.331570 0.816214
O O15 0.964398 0.304607 0.611224
O O16 0.250000 0.846200 0.503249
O O17 0.545191 0.872818 0.505204
O O18 0.750000 0.057265 0.237568
O O19 0.535430 0.055465 0.392219
O O20 0.750000 0.621542 0.115928
O O21 0.250000 0.434848 0.471597
#
# Coordination Sequence:
#
# PCOD8244452 Si02
#       8
#     8   8   8   8   8   8   8   8
#     4  10  21  37  59  82 110 151 194 236 278 324
#     4   9  19  35  58  84 114 149 183 229 282 333
#     4  10  21  37  57  82 113 149 189 231 277 332
#     4  10  20  36  61  88 114 148 189 233 280 332
#     4  12  23  35  56  86 118 150 183 227 283 342
#     4  11  22  36  56  85 117 149 185 228 282 338
#     4   9  18  36  59  83 111 147 194 238 276 323
#     4  11  20  36  61  84 112 148 186 230 282 338
#
# _framework density 20.339935000000001
#
# number of rings (size 3 to 8) (size 9 to 14) (size 15 to 20)
#    0.000    1.750    2.500    2.625    0.000    3.000 
#    0.000    5.000    0.000    0.000    0.000    1.750 
#    0.000    0.000    0.000    0.000    0.000    0.000 
#
# Total GULP energy -793736.898652 kJ/mol
# GULP energy per Si atom -12402.139041 kJ/mol
# Density = 2.029364 g / cm^3
# Si number density = 20.339935 Si / 1000 Ang^3
#
#
#
# Elastic Constant Matrix: (Units=GPa)
#
#
# Indices 1 2 3 4 5 6 
#
# 1 26.2758 9.7719 11.3739 0.0000 0.0000 0.0000
# 2 9.7719 155.0104 70.3567 0.0000 0.0000 0.0000
# 3 11.3739 70.3567 163.4602 0.0000 0.0000 0.0000
# 4 0.0000 0.0000 0.0000 13.3930 0.0000 0.0000
# 5 0.0000 0.0000 0.0000 0.0000 7.8551 0.0000
# 6 0.0000 0.0000 0.0000 0.0000 0.0000 20.9988
#
#
#
# Elastic Compliance Matrix: (Units=1/GPa)
#
#
# Indices 1 2 3 4 5 6 
#
# 1 0.039536 -0.001546 -0.002086 0.000000 0.000000 0.000000
# 2 -0.001546 0.008078 -0.003369 0.000000 0.000000 0.000000
# 3 -0.002086 -0.003369 0.007713 0.000000 0.000000 0.000000
# 4 0.000000 0.000000 0.000000 0.074666 0.000000 0.000000
# 5 0.000000 0.000000 0.000000 0.000000 0.127307 0.000000
# 6 0.000000 0.000000 0.000000 0.000000 0.000000 0.047622
#
#
# Mechanical properties :
#
#
# Convention : Reuss Voigt Hill
#
# Bulk Modulus (GPa) = 24.19837 58.63905 41.41871
# Shear Modulus (GPa) = 15.02868 25.33230 20.18049
#
# Velocity S-wave (km/s) = 2.72118 3.53292 3.15328
# Velocity P-wave (km/s) = 4.66860 6.74790 5.80215
#
# Compressibility (1/GPa) = 0.04132510
#
# Stress axis : x y z
#
# Youngs Moduli (GPa) = 25.29371 123.79434 129.65016
#
# Poissons Ratio (x) = 0.19134 0.27041
# Poissons Ratio (y) = 0.03910 0.43684
# Poissons Ratio (z) = 0.05275 0.41711
#
# Static dielectric constant tensor:
#      x y z
#    x 3.262810 0.000000 0.000000 
#    y 0.000000 3.832200 0.000000 
#    z 0.000000 0.000000 3.857810 
# 
# 
# High freq. dielectric constant tensor:
#      x y z
#    x 1.758880 0.000000 0.000000 
#    y 0.000000 1.807960 0.000000 
#    z 0.000000 0.000000 1.791130 
# 
# From -- ./inp_files/14911.got.cif
#   From: 2010.03.12/outbox.cif.g09.slc.cpg/sg59_8_cif.got.tgz:14911.got - 2010.04.16 16:29:54.
