data_PCOD8244630
_publ_section_title
;
Structure prediction by ZEFSAII (Michael W. Deem and Ramdas Pophale) SiO2 
 PCOD8244630
Probable space group: P M M N
;
_chemical_formula_sum "Si O2"
_cell_formula_units_Z 48
_cell_length_a 9.660013
_cell_length_b 9.182412
_cell_length_c 28.767339
_cell_angle_alpha 90.000000
_cell_angle_beta 90.000000
_cell_angle_gamma 90.000000
_cell_volume 2551.726812
_symmetry_space_group_name_H-M "P M M N"
_symmetry_group_IT_number 59
_space_group.IT_coordinate_system_code '2'
_symmetry_cell_setting 'orthorhombic'
loop_
_space_group_symop_operation_xyz
x,y,z
1/2-x,1/2-y,z
1/2+x,-y,-z
-x,1/2+y,-z
-x,-y,-z
1/2+x,1/2+y,-z
1/2-x,y,z
x,1/2-y,z
loop_
_atom_site_type_symbol
_atom_site_label
_atom_site_fract_x
_atom_site_fract_y
_atom_site_fract_z
Si Si1 0.588955 0.921406 0.539077
Si Si2 0.250000 0.923638 0.039038
Si Si3 0.407115 0.084134 0.207147
Si Si4 0.908042 0.080481 0.372771
Si Si5 0.590463 0.580522 0.279400
Si Si6 0.538480 0.579342 0.897655
Si Si7 0.750000 0.419668 0.065009
O O1 0.750000 0.972853 0.539101
O O2 0.579799 0.750000 0.530090
O O3 0.516505 0.964061 0.587491
O O4 0.500000 0.000000 0.500000
O O5 0.250000 0.750000 0.041248
O O6 0.384165 0.984714 0.064321
O O7 0.250000 0.988280 0.986614
O O8 0.250000 0.069939 0.224810
O O9 0.460373 0.250000 0.212192
O O10 0.414424 0.034321 0.153717
O O11 0.502262 0.979535 0.237017
O O12 0.750000 0.039532 0.387623
O O13 0.918432 0.250000 0.361104
O O14 0.955312 0.994612 0.327213
O O15 0.750000 0.546529 0.268605
O O16 0.561095 0.750000 0.284842
O O17 0.567697 0.750000 0.906506
O O18 0.379640 0.534554 0.903857
O O19 0.750000 0.250000 0.055776
#
# Coordination Sequence:
#
# PCOD8244630 Si02
#       7
#     8   4   8   8   8   8   4
#     4  10  21  36  56  84 117 153 193 238 284 329
#     4  11  21  35  55  83 115 145 177 219 276 331
#     4  10  21  37  58  82 105 139 187 230 271 324
#     4   9  18  35  57  80 110 150 193 234 275 325
#     4  10  22  38  57  84 116 147 179 223 281 339
#     4  10  20  38  59  80 107 143 185 227 269 323
#     4   9  20  35  57  85 109 139 183 229 270 321
#
# _framework density 18.810791999999999
#
# number of rings (size 3 to 8) (size 9 to 14) (size 15 to 20)
#    0.000    2.167    0.833    1.750    1.167    4.333 
#    0.000    4.583    0.000    0.000    0.000    0.000 
#    0.000    0.000    0.000    0.000    0.000    0.000 
#
# Total GULP energy -595245.728238 kJ/mol
# GULP energy per Si atom -12400.952672 kJ/mol
# Density = 1.876798 g / cm^3
# Si number density = 18.810792 Si / 1000 Ang^3
#
#
#
# Elastic Constant Matrix: (Units=GPa)
#
#
# Indices 1 2 3 4 5 6 
#
# 1 114.7328 33.3758 49.7310 0.0000 0.0000 0.0000
# 2 33.3758 53.6968 43.7758 0.0000 0.0000 0.0000
# 3 49.7310 43.7758 103.5907 0.0000 0.0000 0.0000
# 4 0.0000 0.0000 0.0000 33.5555 0.0000 0.0000
# 5 0.0000 0.0000 0.0000 0.0000 37.3003 0.0000
# 6 0.0000 0.0000 0.0000 0.0000 0.0000 30.2546
#
#
#
# Elastic Compliance Matrix: (Units=1/GPa)
#
#
# Indices 1 2 3 4 5 6 
#
# 1 0.011558 -0.004059 -0.003834 0.000000 0.000000 0.000000
# 2 -0.004059 0.029836 -0.010660 0.000000 0.000000 0.000000
# 3 -0.003834 -0.010660 0.015998 0.000000 0.000000 0.000000
# 4 0.000000 0.000000 0.000000 0.029801 0.000000 0.000000
# 5 0.000000 0.000000 0.000000 0.000000 0.026809 0.000000
# 6 0.000000 0.000000 0.000000 0.000000 0.000000 0.033053
#
#
# Mechanical properties :
#
#
# Convention : Reuss Voigt Hill
#
# Bulk Modulus (GPa) = 49.28912 58.42061 53.85486
# Shear Modulus (GPa) = 26.18846 29.89792 28.04319
#
# Velocity S-wave (km/s) = 3.73527 3.99106 3.86528
# Velocity P-wave (km/s) = 6.69795 7.23619 6.97226
#
# Compressibility (1/GPa) = 0.02028845
#
# Stress axis : x y z
#
# Youngs Moduli (GPa) = 86.51787 33.51637 62.50619
#
# Poissons Ratio (x) = 0.13604 0.23962
# Poissons Ratio (y) = 0.35117 0.66630
# Poissons Ratio (z) = 0.33167 0.35728
#
# Static dielectric constant tensor:
#      x y z
#    x 3.211560 0.000000 0.000000 
#    y 0.000000 3.316350 0.000000 
#    z 0.000000 0.000000 3.470350 
# 
# 
# High freq. dielectric constant tensor:
#      x y z
#    x 1.741040 0.000000 0.000000 
#    y 0.000000 1.716440 0.000000 
#    z 0.000000 0.000000 1.736700 
# 
# From -- ./inp_files/33056.got.cif
#   From: 2010.03.12/outbox.cif.g09.slc.cpg/sg59_17_cif.got.tgz:33056.got - 2010.04.16 16:29:54.
