data_PCOD8244388
_publ_section_title
;
Structure prediction by ZEFSAII (Michael W. Deem and Ramdas Pophale) SiO2 
 PCOD8244388
Probable space group: P M M N
;
_chemical_formula_sum "Si O2"
_cell_formula_units_Z 48
_cell_length_a 8.669040
_cell_length_b 10.111888
_cell_length_c 28.938472
_cell_angle_alpha 90.000000
_cell_angle_beta 90.000000
_cell_angle_gamma 90.000000
_cell_volume 2536.756918
_symmetry_space_group_name_H-M "P M M N"
_symmetry_group_IT_number 59
_space_group.IT_coordinate_system_code '2'
_symmetry_cell_setting 'orthorhombic'
loop_
_space_group_symop_operation_xyz
x,y,z
1/2-x,1/2-y,z
1/2+x,-y,-z
-x,1/2+y,-z
-x,-y,-z
1/2+x,1/2+y,-z
1/2-x,y,z
x,1/2-y,z
loop_
_atom_site_type_symbol
_atom_site_label
_atom_site_fract_x
_atom_site_fract_y
_atom_site_fract_z
Si Si1 0.568710 0.250000 0.555522
Si Si2 0.433311 0.750000 0.547991
Si Si3 0.930031 0.098735 0.208696
Si Si4 0.070446 0.401233 0.963031
Si Si5 0.570014 0.098681 0.863676
Si Si6 0.568614 0.500950 0.395575
Si Si7 0.070508 0.096933 0.305071
O O1 0.750000 0.250000 0.551078
O O2 0.497238 0.250000 0.503778
O O3 0.515892 0.125015 0.583760
O O4 0.250000 0.750000 0.547409
O O5 0.494892 0.623103 0.575414
O O6 0.750000 0.087043 0.219192
O O7 0.974418 0.250000 0.195530
O O8 0.021630 0.051531 0.254048
O O9 0.974409 0.001645 0.167549
O O10 0.250000 0.432576 0.955339
O O11 0.046726 0.250000 0.979807
O O12 0.979876 0.426683 0.915930
O O13 0.000000 0.500000 0.000000
O O14 0.750000 0.067551 0.858564
O O15 0.532803 0.250000 0.849209
O O16 0.750000 0.519295 0.400492
O O17 0.525343 0.487270 0.341942
O O18 0.250000 0.068740 0.312077
O O19 0.028104 0.250000 0.312087
#
# Coordination Sequence:
#
# PCOD8244388 Si02
#       7
#     4   4   8   8   8   8   8
#     4  11  23  39  55  83 119 149 185 233 280 331
#     4   9  20  37  61  85 111 147 189 231 278 335
#     4  10  21  37  59  86 114 147 188 235 283 337
#     4  10  21  37  58  84 115 153 196 240 287 340
#     4  10  21  38  59  84 116 153 192 236 288 342
#     4  11  21  38  60  84 113 149 187 230 282 338
#     4  10  20  36  59  86 113 145 186 233 284 338
#
# _framework density 18.921796000000001
#
# number of rings (size 3 to 8) (size 9 to 14) (size 15 to 20)
#    0.000    1.833    0.833    3.250    0.000    4.333 
#    1.500    2.500    0.000    0.000    0.000    0.000 
#    0.000    0.000    0.000    0.000    0.000    0.000 
#
# Total GULP energy -595388.548814 kJ/mol
# GULP energy per Si atom -12403.928100 kJ/mol
# Density = 1.887873 g / cm^3
# Si number density = 18.921796 Si / 1000 Ang^3
#
#
#
# Elastic Constant Matrix: (Units=GPa)
#
#
# Indices 1 2 3 4 5 6 
#
# 1 54.7196 24.4686 15.8986 0.0000 0.0000 0.0000
# 2 24.4686 110.0109 56.9981 0.0000 0.0000 0.0000
# 3 15.8986 56.9981 98.2780 0.0000 0.0000 0.0000
# 4 0.0000 0.0000 0.0000 37.0610 0.0000 0.0000
# 5 0.0000 0.0000 0.0000 0.0000 33.3885 0.0000
# 6 0.0000 0.0000 0.0000 0.0000 0.0000 37.7625
#
#
#
# Elastic Compliance Matrix: (Units=1/GPa)
#
#
# Indices 1 2 3 4 5 6 
#
# 1 0.020356 -0.004033 -0.000954 0.000000 0.000000 0.000000
# 2 -0.004033 0.013794 -0.007348 0.000000 0.000000 0.000000
# 3 -0.000954 -0.007348 0.014591 0.000000 0.000000 0.000000
# 4 0.000000 0.000000 0.000000 0.026983 0.000000 0.000000
# 5 0.000000 0.000000 0.000000 0.000000 0.029950 0.000000
# 6 0.000000 0.000000 0.000000 0.000000 0.000000 0.026481
#
#
# Mechanical properties :
#
#
# Convention : Reuss Voigt Hill
#
# Bulk Modulus (GPa) = 41.54353 50.85989 46.20171
# Shear Modulus (GPa) = 30.33101 32.68529 31.50815
#
# Velocity S-wave (km/s) = 4.00805 4.16070 4.08509
# Velocity P-wave (km/s) = 6.58956 7.07243 6.83526
#
# Compressibility (1/GPa) = 0.02407114
#
# Stress axis : x y z
#
# Youngs Moduli (GPa) = 49.12637 72.49541 68.53605
#
# Poissons Ratio (x) = 0.29240 0.06537
# Poissons Ratio (y) = 0.19814 0.50357
# Poissons Ratio (z) = 0.04686 0.53267
#
# Static dielectric constant tensor:
#      x y z
#    x 3.497740 0.000000 0.000000 
#    y 0.000000 3.393320 0.000000 
#    z 0.000000 0.000000 3.516520 
# 
# 
# High freq. dielectric constant tensor:
#      x y z
#    x 1.743240 0.000000 0.000000 
#    y 0.000000 1.732820 0.000000 
#    z 0.000000 0.000000 1.742890 
# 
# From -- ./inp_files/32972.got.cif
#   From: 2010.03.12/outbox.cif.g09.slc.cpg/sg59_17_cif.got.tgz:32972.got - 2010.04.16 16:29:54.
