data_PCOD8244351
_publ_section_title
;
Structure prediction by ZEFSAII (Michael W. Deem and Ramdas Pophale) SiO2 
 PCOD8244351
Probable space group: P M M N
;
_chemical_formula_sum "Si O2"
_cell_formula_units_Z 64
_cell_length_a 24.640034
_cell_length_b 9.299489
_cell_length_c 14.721822
_cell_angle_alpha 90.000000
_cell_angle_beta 90.000000
_cell_angle_gamma 90.000000
_cell_volume 3373.354247
_symmetry_space_group_name_H-M "P M M N"
_symmetry_group_IT_number 59
_space_group.IT_coordinate_system_code '2'
_symmetry_cell_setting 'orthorhombic'
loop_
_space_group_symop_operation_xyz
x,y,z
1/2-x,1/2-y,z
1/2+x,-y,-z
-x,1/2+y,-z
-x,-y,-z
1/2+x,1/2+y,-z
1/2-x,y,z
x,1/2-y,z
loop_
_atom_site_type_symbol
_atom_site_label
_atom_site_fract_x
_atom_site_fract_y
_atom_site_fract_z
Si Si1 0.555722 0.418735 0.479733
Si Si2 0.836299 0.912110 0.989267
Si Si3 0.812212 0.915692 0.788698
Si Si4 0.015244 0.913141 0.215351
Si Si5 0.913541 0.419033 0.277729
Si Si6 0.889136 0.411175 0.656896
Si Si7 0.955933 0.587441 0.946189
Si Si8 0.810091 0.414715 0.165102
O O1 0.500000 0.500000 0.500000
O O2 0.542466 0.250000 0.484318
O O3 0.581477 0.462367 0.383070
O O4 0.603068 0.459875 0.552300
O O5 0.813215 0.750000 0.994999
O O6 0.820885 0.979044 0.890451
O O7 0.900817 0.913380 0.002965
O O8 0.810704 0.001716 0.070228
O O9 0.750000 0.935415 0.759343
O O10 0.830336 0.750000 0.791238
O O11 0.848356 0.989130 0.711699
O O12 0.005558 0.750000 0.180343
O O13 0.048632 0.914984 0.308240
O O14 0.053493 0.003316 0.147540
O O15 0.957692 0.991453 0.221877
O O16 0.924252 0.250000 0.263673
O O17 0.854603 0.466273 0.238933
O O18 0.865571 0.250000 0.664299
O O19 0.975754 0.750000 0.927720
O O20 0.000000 0.500000 0.000000
O O21 0.750000 0.435364 0.208295
O O22 0.821429 0.250000 0.140243
#
# Coordination Sequence:
#
# PCOD8244351 Si02
#       8
#     8   8   8   8   8   8   8   8
#     4  10  20  36  58  86 115 146 185 229 281 339
#     4  10  21  37  57  80 108 145 189 231 275 328
#     4  10  21  38  59  82 110 147 192 235 277 333
#     4  11  21  34  54  82 117 149 182 228 280 336
#     4  10  21  37  59  84 113 148 188 231 282 340
#     4  10  21  36  55  83 117 146 181 230 282 336
#     4  11  22  35  52  78 113 152 190 230 283 338
#     4  10  22  39  57  80 110 145 187 233 277 324
#
# _framework density 18.972214000000001
#
# number of rings (size 3 to 8) (size 9 to 14) (size 15 to 20)
#    0.000    1.750    2.500    1.875    0.000    6.000 
#    0.000    0.625    0.000    2.250    0.000    0.000 
#    0.000    0.000    0.000    0.000    0.000    0.000 
#
# Total GULP energy -793491.855411 kJ/mol
# GULP energy per Si atom -12398.310241 kJ/mol
# Density = 1.892903 g / cm^3
# Si number density = 18.972214 Si / 1000 Ang^3
#
#
#
# Elastic Constant Matrix: (Units=GPa)
#
#
# Indices 1 2 3 4 5 6 
#
# 1 106.2102 40.0065 44.4300 0.0000 0.0000 0.0000
# 2 40.0065 77.7286 38.4835 0.0000 0.0000 0.0000
# 3 44.4300 38.4835 105.2582 0.0000 0.0000 0.0000
# 4 0.0000 0.0000 0.0000 27.2412 0.0000 0.0000
# 5 0.0000 0.0000 0.0000 0.0000 22.7616 0.0000
# 6 0.0000 0.0000 0.0000 0.0000 0.0000 25.8531
#
#
#
# Elastic Compliance Matrix: (Units=1/GPa)
#
#
# Indices 1 2 3 4 5 6 
#
# 1 0.012725 -0.004750 -0.003635 0.000000 0.000000 0.000000
# 2 -0.004750 0.017482 -0.004387 0.000000 0.000000 0.000000
# 3 -0.003635 -0.004387 0.012638 0.000000 0.000000 0.000000
# 4 0.000000 0.000000 0.000000 0.036709 0.000000 0.000000
# 5 0.000000 0.000000 0.000000 0.000000 0.043934 0.000000
# 6 0.000000 0.000000 0.000000 0.000000 0.000000 0.038680
#
#
# Mechanical properties :
#
#
# Convention : Reuss Voigt Hill
#
# Bulk Modulus (GPa) = 57.79376 59.44855 58.62115
# Shear Modulus (GPa) = 25.84276 26.25632 26.04954
#
# Velocity S-wave (km/s) = 3.69472 3.72416 3.70947
# Velocity P-wave (km/s) = 6.98067 7.06365 7.02228
#
# Compressibility (1/GPa) = 0.01730291
#
# Stress axis : x y z
#
# Youngs Moduli (GPa) = 78.58617 57.20224 79.12389
#
# Poissons Ratio (x) = 0.27171 0.28758
# Poissons Ratio (y) = 0.37328 0.34708
# Poissons Ratio (z) = 0.28563 0.25092
#
# Static dielectric constant tensor:
#      x y z
#    x 3.434740 0.000000 0.000000 
#    y 0.000000 3.607850 0.000000 
#    z 0.000000 0.000000 4.077000 
# 
# 
# High freq. dielectric constant tensor:
#      x y z
#    x 1.734270 0.000000 0.000000 
#    y 0.000000 1.733820 0.000000 
#    z 0.000000 0.000000 1.736040 
# 
# From -- ./inp_files/24655.got.cif
#   From: 2010.03.12/outbox.cif.g09.slc.cpg/sg59_13_cif.got.tgz:24655.got - 2010.04.16 16:29:54.
