data_PCOD8244234
_publ_section_title
;
Structure prediction by ZEFSAII (Michael W. Deem and Ramdas Pophale) SiO2 
 PCOD8244234
Probable space group: P M M N
;
_chemical_formula_sum "Si O2"
_cell_formula_units_Z 48
_cell_length_a 8.650556
_cell_length_b 29.759278
_cell_length_c 10.086070
_cell_angle_alpha 90.000000
_cell_angle_beta 90.000000
_cell_angle_gamma 90.000000
_cell_volume 2596.500379
_symmetry_space_group_name_H-M "P M M N"
_symmetry_group_IT_number 59
_space_group.IT_coordinate_system_code '2'
_symmetry_cell_setting 'orthorhombic'
loop_
_space_group_symop_operation_xyz
x,y,z
1/2-x,1/2-y,z
1/2+x,-y,-z
-x,1/2+y,-z
-x,-y,-z
1/2+x,1/2+y,-z
1/2-x,y,z
x,1/2-y,z
loop_
_atom_site_type_symbol
_atom_site_label
_atom_site_fract_x
_atom_site_fract_y
_atom_site_fract_z
Si Si1 0.069251 0.198409 0.377780
Si Si2 0.571138 0.302059 0.098304
Si Si3 0.567417 0.465211 0.896431
Si Si4 0.932029 0.869946 0.102922
Si Si5 0.569437 0.634023 0.396895
Si Si6 0.068521 0.467814 0.609846
O O1 0.250000 0.188993 0.352463
O O2 0.039951 0.250000 0.416876
O O3 0.996988 0.167988 0.495460
O O4 0.977040 0.184820 0.246455
O O5 0.750000 0.313567 0.077340
O O6 0.535169 0.250000 0.071230
O O7 0.468771 0.330104 0.996845
O O8 0.750000 0.468174 0.897183
O O9 0.515123 0.415632 0.941529
O O10 0.507206 0.478217 0.751034
O O11 0.500000 0.500000 0.000000
O O12 0.750000 0.879686 0.107150
O O13 0.993692 0.855823 0.249087
O O14 0.750000 0.643138 0.397537
O O15 0.530182 0.582891 0.435927
O O16 0.250000 0.475635 0.623921
O O17 0.000000 0.500000 0.500000
#
# Coordination Sequence:
#
# PCOD8244234 Si02
#       6
#     8   8   8   8   8   8
#     4   9  17  32  54  77 101 133 174 218 264 314
#     4  10  21  36  52  75 109 145 181 222 267 317
#     4  11  22  38  58  81 110 144 182 225 274 328
#     4  10  20  36  57  81 108 139 178 223 272 325
#     4   8  17  33  53  77 104 132 168 217 265 312
#     4  10  20  36  55  78 109 144 182 225 272 321
#
# _framework density 18.486422000000001
#
# number of rings (size 3 to 8) (size 9 to 14) (size 15 to 20)
#    0.000    2.333    0.000    4.000    0.000    3.000 
#    0.000   11.667    0.000    2.000    0.000    0.000 
#    0.000    0.000    0.000    0.000    0.000    0.000 
#
# Total GULP energy -595243.904965 kJ/mol
# GULP energy per Si atom -12400.914687 kJ/mol
# Density = 1.844435 g / cm^3
# Si number density = 18.486422 Si / 1000 Ang^3
#
#
#
# Elastic Constant Matrix: (Units=GPa)
#
#
# Indices 1 2 3 4 5 6 
#
# 1 91.4438 43.7104 48.7335 0.0000 0.0000 0.0000
# 2 43.7104 106.7750 87.7085 0.0000 0.0000 0.0000
# 3 48.7335 87.7085 118.6983 0.0000 0.0000 0.0000
# 4 0.0000 0.0000 0.0000 45.1293 0.0000 0.0000
# 5 0.0000 0.0000 0.0000 0.0000 26.7426 0.0000
# 6 0.0000 0.0000 0.0000 0.0000 0.0000 28.2947
#
#
#
# Elastic Compliance Matrix: (Units=1/GPa)
#
#
# Indices 1 2 3 4 5 6 
#
# 1 0.014281 -0.002620 -0.003927 0.000000 0.000000 0.000000
# 2 -0.002620 0.024310 -0.016887 0.000000 0.000000 0.000000
# 3 -0.003927 -0.016887 0.022515 0.000000 0.000000 0.000000
# 4 0.000000 0.000000 0.000000 0.022159 0.000000 0.000000
# 5 0.000000 0.000000 0.000000 0.000000 0.037394 0.000000
# 6 0.000000 0.000000 0.000000 0.000000 0.000000 0.035342
#
#
# Mechanical properties :
#
#
# Convention : Reuss Voigt Hill
#
# Bulk Modulus (GPa) = 70.23971 75.24687 72.74329
# Shear Modulus (GPa) = 24.08292 29.15096 26.61694
#
# Velocity S-wave (km/s) = 3.61326 3.97531 3.79860
# Velocity P-wave (km/s) = 7.44885 7.86530 7.65991
#
# Compressibility (1/GPa) = 0.01423696
#
# Stress axis : x y z
#
# Youngs Moduli (GPa) = 70.02251 41.13537 44.41412
#
# Poissons Ratio (x) = 0.10779 0.17442
# Poissons Ratio (y) = 0.18349 0.75003
# Poissons Ratio (z) = 0.27498 0.69466
#
# Static dielectric constant tensor:
#      x y z
#    x 3.349270 0.000000 0.000000 
#    y 0.000000 3.385730 0.000000 
#    z 0.000000 0.000000 3.680760 
# 
# 
# High freq. dielectric constant tensor:
#      x y z
#    x 1.712450 0.000000 0.000000 
#    y 0.000000 1.718840 0.000000 
#    z 0.000000 0.000000 1.724270 
# 
# From -- ./inp_files/6213.got.cif
#   From: 2010.03.12/outbox.cif.g09.slc.cpg/sg59_4_cif.got.tgz:6213.got - 2010.04.16 16:29:54.
