data_PCOD8244970
_publ_section_title
;
Structure prediction by ZEFSAII (Michael W. Deem and Ramdas Pophale) SiO2 
 PCOD8244970
Probable space group: P M M N
;
_chemical_formula_sum "Si O2"
_cell_formula_units_Z 64
_cell_length_a 8.966824
_cell_length_b 14.611901
_cell_length_c 26.154502
_cell_angle_alpha 90.000000
_cell_angle_beta 90.000000
_cell_angle_gamma 90.000000
_cell_volume 3426.824173
_symmetry_space_group_name_H-M "P M M N"
_symmetry_group_IT_number 59
_space_group.IT_coordinate_system_code '2'
_symmetry_cell_setting 'orthorhombic'
loop_
_space_group_symop_operation_xyz
x,y,z
1/2-x,1/2-y,z
1/2+x,-y,-z
-x,1/2+y,-z
-x,-y,-z
1/2+x,1/2+y,-z
1/2-x,y,z
x,1/2-y,z
loop_
_atom_site_type_symbol
_atom_site_label
_atom_site_fract_x
_atom_site_fract_y
_atom_site_fract_z
Si Si1 0.572558 0.851332 0.132102
Si Si2 0.426455 0.502947 0.313787
Si Si3 0.574068 0.495686 0.054712
Si Si4 0.580999 0.642563 0.245993
Si Si5 0.924380 0.504172 0.422133
Si Si6 0.576001 0.355997 0.506324
Si Si7 0.927292 0.850835 0.763710
Si Si8 0.918549 0.642689 0.877514
O O1 0.750000 0.849098 0.132503
O O2 0.510887 0.750000 0.118784
O O3 0.519981 0.881051 0.189015
O O4 0.511650 0.921326 0.089743
O O5 0.250000 0.500736 0.319501
O O6 0.475356 0.597999 0.288461
O O7 0.497674 0.488279 0.368565
O O8 0.488709 0.421869 0.277690
O O9 0.750000 0.501439 0.048093
O O10 0.529285 0.401578 0.081697
O O11 0.500000 0.500000 0.000000
O O12 0.750000 0.606549 0.252931
O O13 0.574865 0.750000 0.255237
O O14 0.750000 0.518175 0.414099
O O15 0.960006 0.413309 0.455136
O O16 0.986804 0.597020 0.447494
O O17 0.750000 0.361484 0.519749
O O18 0.525504 0.250000 0.499372
O O19 0.750000 0.847598 0.763453
O O20 0.990636 0.750000 0.750231
O O21 0.978531 0.880438 0.820567
O O22 0.750000 0.605563 0.885233
O O23 0.921762 0.750000 0.887192
#
# Coordination Sequence:
#
# PCOD8244970 Si02
#       8
#     8   8   8   8   8   8   8   8
#     4   8  16  33  55  75  96 128 170 212 256 308
#     4  11  21  32  51  79 111 142 170 208 253 297
#     4  11  22  34  51  76 104 133 169 214 262 312
#     4   9  18  34  55  76  99 131 171 212 256 307
#     4  10  21  36  54  79 109 139 173 211 255 307
#     4   9  19  38  61  80 101 133 174 220 264 302
#     4   8  16  32  53  77 104 136 174 211 252 307
#     4   9  18  35  57  76  99 135 174 212 258 310
#
# _framework density 18.676185
#
# number of rings (size 3 to 8) (size 9 to 14) (size 15 to 20)
#    0.000    2.625    0.000    3.375    0.000    2.750 
#    0.000    2.500    0.000    5.250    0.000    0.000 
#    0.000    0.000    0.000    0.000    0.000    0.000 
#
# Total GULP energy -793532.653592 kJ/mol
# GULP energy per Si atom -12398.947712 kJ/mol
# Density = 1.863368 g / cm^3
# Si number density = 18.676185 Si / 1000 Ang^3
#
#
#
# Elastic Constant Matrix: (Units=GPa)
#
#
# Indices 1 2 3 4 5 6 
#
# 1 58.2369 40.4515 52.0817 0.0000 0.0000 0.0000
# 2 40.4515 104.5239 66.6604 0.0000 0.0000 0.0000
# 3 52.0817 66.6604 146.4555 0.0000 0.0000 0.0000
# 4 0.0000 0.0000 0.0000 15.5245 0.0000 0.0000
# 5 0.0000 0.0000 0.0000 0.0000 27.3240 0.0000
# 6 0.0000 0.0000 0.0000 0.0000 0.0000 25.7526
#
#
#
# Elastic Compliance Matrix: (Units=1/GPa)
#
#
# Indices 1 2 3 4 5 6 
#
# 1 0.027828 -0.006282 -0.007037 0.000000 0.000000 0.000000
# 2 -0.006282 0.014898 -0.004547 0.000000 0.000000 0.000000
# 3 -0.007037 -0.004547 0.011400 0.000000 0.000000 0.000000
# 4 0.000000 0.000000 0.000000 0.064414 0.000000 0.000000
# 5 0.000000 0.000000 0.000000 0.000000 0.036598 0.000000
# 6 0.000000 0.000000 0.000000 0.000000 0.000000 0.038831
#
#
# Mechanical properties :
#
#
# Convention : Reuss Voigt Hill
#
# Bulk Modulus (GPa) = 54.36387 69.73370 62.04879
# Shear Modulus (GPa) = 21.20154 23.72172 22.46163
#
# Velocity S-wave (km/s) = 3.37295 3.56780 3.47174
# Velocity P-wave (km/s) = 6.65890 7.37506 7.02611
#
# Compressibility (1/GPa) = 0.01839457
#
# Stress axis : x y z
#
# Youngs Moduli (GPa) = 35.93565 67.12189 87.71907
#
# Poissons Ratio (x) = 0.42165 0.61725
# Poissons Ratio (y) = 0.22574 0.39887
# Poissons Ratio (z) = 0.25287 0.30521
#
# Static dielectric constant tensor:
#      x y z
#    x 3.240960 0.000000 0.000000 
#    y 0.000000 3.616620 0.000000 
#    z 0.000000 0.000000 3.496100 
# 
# 
# High freq. dielectric constant tensor:
#      x y z
#    x 1.703620 0.000000 0.000000 
#    y 0.000000 1.730560 0.000000 
#    z 0.000000 0.000000 1.727820 
# 
# From -- ./inp_files/31454.got.cif
#   From: 2010.03.12/outbox.cif.g09.slc.cpg/sg59_16_cif.got.tgz:31454.got - 2010.04.16 16:29:54.
