data_PCOD8244159
_publ_section_title
;
Structure prediction by ZEFSAII (Michael W. Deem and Ramdas Pophale) SiO2 
 PCOD8244159
Probable space group: P M M N
;
_chemical_formula_sum "Si O2"
_cell_formula_units_Z 64
_cell_length_a 25.324619
_cell_length_b 9.028916
_cell_length_c 14.409097
_cell_angle_alpha 90.000000
_cell_angle_beta 90.000000
_cell_angle_gamma 90.000000
_cell_volume 3294.695615
_symmetry_space_group_name_H-M "P M M N"
_symmetry_group_IT_number 59
_space_group.IT_coordinate_system_code '2'
_symmetry_cell_setting 'orthorhombic'
loop_
_space_group_symop_operation_xyz
x,y,z
1/2-x,1/2-y,z
1/2+x,-y,-z
-x,1/2+y,-z
-x,-y,-z
1/2+x,1/2+y,-z
1/2-x,y,z
x,1/2-y,z
loop_
_atom_site_type_symbol
_atom_site_label
_atom_site_fract_x
_atom_site_fract_y
_atom_site_fract_z
Si Si1 0.689446 0.076837 0.901370
Si Si2 0.903582 0.574759 0.386686
Si Si3 0.640504 0.077267 0.090813
Si Si4 0.808992 0.579153 0.717858
Si Si5 0.690445 0.924426 0.261661
Si Si6 0.406201 0.423205 0.404262
Si Si7 0.492285 0.574046 0.278950
Si Si8 0.981558 0.075591 0.094034
O O1 0.750000 0.031262 0.918827
O O2 0.682696 0.250000 0.887548
O O3 0.667560 0.002476 0.807962
O O4 0.654978 0.020023 0.987938
O O5 0.901082 0.750000 0.391802
O O6 0.849946 0.513204 0.339432
O O7 0.908895 0.514027 0.491146
O O8 0.953302 0.521317 0.326549
O O9 0.653135 0.250000 0.099465
O O10 0.579827 0.040807 0.110483
O O11 0.677722 0.994163 0.162683
O O12 0.750000 0.521104 0.692890
O O13 0.807296 0.750000 0.744077
O O14 0.846507 0.550026 0.630268
O O15 0.750000 0.966624 0.291524
O O16 0.683487 0.750000 0.250829
O O17 0.422069 0.250000 0.397572
O O18 0.444939 0.521260 0.343236
O O19 0.489988 0.750000 0.265959
O O20 0.486510 0.496272 0.179159
O O21 0.993014 0.250000 0.088891
O O22 0.000000 0.000000 0.000000
#
# Coordination Sequence:
#
# PCOD8244159 Si02
#       8
#     8   8   8   8   8   8   8   8
#     4   9  18  33  53  76 105 142 180 219 267 326
#     4   9  19  37  58  83 115 149 189 239 292 339
#     4  10  21  37  57  81 112 149 188 231 283 344
#     4   9  19  35  54  80 112 144 180 227 283 336
#     4  10  20  35  58  87 117 153 196 240 289 345
#     4  10  21  37  59  85 112 147 193 241 288 344
#     4  11  22  39  61  84 115 153 191 237 288 344
#     4  11  24  40  59  87 119 154 190 233 288 344
#
# _framework density 19.425163000000001
#
# number of rings (size 3 to 8) (size 9 to 14) (size 15 to 20)
#    0.000    2.125    1.250    1.500    1.750    2.750 
#    0.000    5.000    0.000    0.000    0.000    1.750 
#    0.000    0.000    0.000    0.000    0.000    0.000 
#
# Total GULP energy -793743.153901 kJ/mol
# GULP energy per Si atom -12402.236780 kJ/mol
# Density = 1.938095 g / cm^3
# Si number density = 19.425163 Si / 1000 Ang^3
#
#
#
# Elastic Constant Matrix: (Units=GPa)
#
#
# Indices 1 2 3 4 5 6 
#
# 1 93.7686 36.5264 50.7551 0.0000 0.0000 0.0000
# 2 36.5264 51.8686 42.6736 0.0000 0.0000 0.0000
# 3 50.7551 42.6736 150.9571 0.0000 0.0000 0.0000
# 4 0.0000 0.0000 0.0000 24.6703 0.0000 0.0000
# 5 0.0000 0.0000 0.0000 0.0000 33.0065 0.0000
# 6 0.0000 0.0000 0.0000 0.0000 0.0000 25.0406
#
#
#
# Elastic Compliance Matrix: (Units=1/GPa)
#
#
# Indices 1 2 3 4 5 6 
#
# 1 0.015541 -0.008659 -0.002777 0.000000 0.000000 0.000000
# 2 -0.008659 0.029947 -0.005554 0.000000 0.000000 0.000000
# 3 -0.002777 -0.005554 0.009128 0.000000 0.000000 0.000000
# 4 0.000000 0.000000 0.000000 0.040535 0.000000 0.000000
# 5 0.000000 0.000000 0.000000 0.000000 0.030297 0.000000
# 6 0.000000 0.000000 0.000000 0.000000 0.000000 0.039935
#
#
# Mechanical properties :
#
#
# Convention : Reuss Voigt Hill
#
# Bulk Modulus (GPa) = 48.46184 61.83383 55.14783
# Shear Modulus (GPa) = 24.24331 27.65278 25.94804
#
# Velocity S-wave (km/s) = 3.53659 3.77710 3.65882
# Velocity P-wave (km/s) = 6.45591 7.13603 6.80447
#
# Compressibility (1/GPa) = 0.02063479
#
# Stress axis : x y z
#
# Youngs Moduli (GPa) = 64.34625 33.39240 109.54903
#
# Poissons Ratio (x) = 0.28915 0.30426
# Poissons Ratio (y) = 0.55718 0.60846
# Poissons Ratio (z) = 0.17871 0.18547
#
# Static dielectric constant tensor:
#      x y z
#    x 3.729030 0.000000 0.000000 
#    y 0.000000 3.366580 0.000000 
#    z 0.000000 0.000000 3.693380 
# 
# 
# High freq. dielectric constant tensor:
#      x y z
#    x 1.762940 0.000000 0.000000 
#    y 0.000000 1.737570 0.000000 
#    z 0.000000 0.000000 1.764420 
# 
# From -- ./inp_files/24727.got.cif
#   From: 2010.03.12/outbox.cif.g09.slc.cpg/sg59_13_cif.got.tgz:24727.got - 2010.04.16 16:29:54.
