data_PCOD8244870
_publ_section_title
;
Structure prediction by ZEFSAII (Michael W. Deem and Ramdas Pophale) SiO2 
 PCOD8244870
Probable space group: P M M N
;
_chemical_formula_sum "Si O2"
_cell_formula_units_Z 40
_cell_length_a 9.391568
_cell_length_b 9.111776
_cell_length_c 26.122300
_cell_angle_alpha 90.000000
_cell_angle_beta 90.000000
_cell_angle_gamma 90.000000
_cell_volume 2235.386145
_symmetry_space_group_name_H-M "P M M N"
_symmetry_group_IT_number 59
_space_group.IT_coordinate_system_code '2'
_symmetry_cell_setting 'orthorhombic'
loop_
_space_group_symop_operation_xyz
x,y,z
1/2-x,1/2-y,z
1/2+x,-y,-z
-x,1/2+y,-z
-x,-y,-z
1/2+x,1/2+y,-z
1/2-x,y,z
x,1/2-y,z
loop_
_atom_site_type_symbol
_atom_site_label
_atom_site_fract_x
_atom_site_fract_y
_atom_site_fract_z
Si Si1 0.583492 0.420126 0.955463
Si Si2 0.579985 0.917934 0.234827
Si Si3 0.914273 0.920823 0.851917
Si Si4 0.905928 0.576396 0.345635
Si Si5 0.416406 0.420690 0.544165
O O1 0.750000 0.443495 0.965309
O O2 0.541186 0.250000 0.954442
O O3 0.536582 0.490992 0.901923
O O4 0.500000 0.500000 0.000000
O O5 0.750000 0.934880 0.233248
O O6 0.536810 0.750000 0.222139
O O7 0.519001 0.964578 0.291531
O O8 0.509400 0.027537 0.195113
O O9 0.750000 0.953455 0.839052
O O10 0.941378 0.750000 0.862157
O O11 0.750000 0.503401 0.345028
O O12 0.887165 0.750000 0.346838
O O13 0.979442 0.529013 0.399583
O O14 0.500000 0.500000 0.500000
O O15 0.250000 0.460210 0.540994
O O16 0.441697 0.250000 0.535989
#
# Coordination Sequence:
#
# PCOD8244870 Si02
#       5
#     8   8   8   8   8
#     4  10  21  37  57  79 102 131 167 204 242 285
#     4   9  17  31  53  77  96 120 161 208 247 286
#     4  10  21  36  52  72 102 137 166 195 238 289
#     4   7  12  26  47  68  91 121 158 199 241 285
#     4   9  17  30  48  69  94 125 160 199 243 290
#
# _framework density 17.894000999999999
#
# number of rings (size 3 to 8) (size 9 to 14) (size 15 to 20)
#    0.000    3.000    0.000    3.600    0.000    4.000 
#    0.000    2.000    0.000    9.600    0.000    0.000 
#    0.000    0.000    0.000    0.000    0.000    0.000 
#
# Total GULP energy -495567.858827 kJ/mol
# GULP energy per Si atom -12389.196471 kJ/mol
# Density = 1.785327 g / cm^3
# Si number density = 17.894001 Si / 1000 Ang^3
#
#
#
# Elastic Constant Matrix: (Units=GPa)
#
#
# Indices 1 2 3 4 5 6 
#
# 1 39.3565 35.9769 56.4126 0.0000 0.0000 0.0000
# 2 35.9769 82.6622 73.3835 0.0000 0.0000 0.0000
# 3 56.4126 73.3835 190.8794 0.0000 0.0000 0.0000
# 4 0.0000 0.0000 0.0000 33.8247 0.0000 0.0000
# 5 0.0000 0.0000 0.0000 0.0000 28.7119 0.0000
# 6 0.0000 0.0000 0.0000 0.0000 0.0000 27.8566
#
#
#
# Elastic Compliance Matrix: (Units=1/GPa)
#
#
# Indices 1 2 3 4 5 6 
#
# 1 0.052814 -0.013860 -0.010280 0.000000 0.000000 0.000000
# 2 -0.013860 0.022003 -0.004363 0.000000 0.000000 0.000000
# 3 -0.010280 -0.004363 0.009954 0.000000 0.000000 0.000000
# 4 0.000000 0.000000 0.000000 0.029564 0.000000 0.000000
# 5 0.000000 0.000000 0.000000 0.000000 0.034829 0.000000
# 6 0.000000 0.000000 0.000000 0.000000 0.000000 0.035898
#
#
# Mechanical properties :
#
#
# Convention : Reuss Voigt Hill
#
# Bulk Modulus (GPa) = 36.01622 71.60490 53.81056
# Shear Modulus (GPa) = 19.89479 27.88699 23.89089
#
# Velocity S-wave (km/s) = 3.33800 3.95201 3.65791
# Velocity P-wave (km/s) = 5.91841 7.80561 6.92658
#
# Compressibility (1/GPa) = 0.02776526
#
# Stress axis : x y z
#
# Youngs Moduli (GPa) = 18.93453 45.44917 100.45806
#
# Poissons Ratio (x) = 0.62991 1.03273
# Poissons Ratio (y) = 0.26243 0.43828
# Poissons Ratio (z) = 0.19465 0.19829
#
# Static dielectric constant tensor:
#      x y z
#    x 3.003360 0.000000 0.000000 
#    y 0.000000 3.141730 0.000000 
#    z 0.000000 0.000000 3.757870 
# 
# 
# High freq. dielectric constant tensor:
#      x y z
#    x 1.658480 0.000000 0.000000 
#    y 0.000000 1.675060 0.000000 
#    z 0.000000 0.000000 1.718690 
# 
# From -- ./inp_files/31152.got.cif
#   From: 2010.03.12/outbox.cif.g09.slc.cpg/sg59_16_cif.got.tgz:31152.got - 2010.04.16 16:29:54.
