data_PCOD8244456
_publ_section_title
;
Structure prediction by ZEFSAII (Michael W. Deem and Ramdas Pophale) SiO2 
 PCOD8244456
Probable space group: P M M N
;
_chemical_formula_sum "Si O2"
_cell_formula_units_Z 56
_cell_length_a 21.868338
_cell_length_b 13.657495
_cell_length_c 9.389725
_cell_angle_alpha 90.000000
_cell_angle_beta 90.000000
_cell_angle_gamma 90.000000
_cell_volume 2804.398338
_symmetry_space_group_name_H-M "P M M N"
_symmetry_group_IT_number 59
_space_group.IT_coordinate_system_code '2'
_symmetry_cell_setting 'orthorhombic'
loop_
_space_group_symop_operation_xyz
x,y,z
1/2-x,1/2-y,z
1/2+x,-y,-z
-x,1/2+y,-z
-x,-y,-z
1/2+x,1/2+y,-z
1/2-x,y,z
x,1/2-y,z
loop_
_atom_site_type_symbol
_atom_site_label
_atom_site_fract_x
_atom_site_fract_y
_atom_site_fract_z
Si Si1 0.250000 0.865706 0.248182
Si Si2 0.574193 0.861912 0.859864
Si Si3 0.488917 0.981527 0.664745
Si Si4 0.750000 0.367379 0.424716
Si Si5 0.144901 0.957194 0.756589
Si Si6 0.821442 0.863914 0.066425
Si Si7 0.356706 0.865871 0.053522
Si Si8 0.012596 0.861299 0.126072
O O1 0.250000 0.750000 0.231376
O O2 0.250000 0.897083 0.410590
O O3 0.309262 0.908415 0.168149
O O4 0.578483 0.750000 0.809211
O O5 0.547058 0.921104 0.725724
O O6 0.640422 0.895723 0.923661
O O7 0.527261 0.876267 0.987585
O O8 0.423168 0.932099 0.698304
O O9 0.500000 0.000000 0.500000
O O10 0.483602 0.086769 0.738528
O O11 0.750000 0.250000 0.400304
O O12 0.810074 0.418749 0.364225
O O13 0.156820 0.071565 0.797375
O O14 0.162345 0.895625 0.895774
O O15 0.750000 0.880225 0.034082
O O16 0.835940 0.750000 0.103038
O O17 0.360925 0.750000 0.059069
O O18 0.422375 0.912029 0.091547
O O19 0.020145 0.750000 0.171331
#
# Coordination Sequence:
#
# PCOD8244456 Si02
#       8
#     4   8   8   4   8   8   8   8
#     4   9  21  39  57  85 124 162 199 246 301 365
#     4  10  20  40  66  90 121 159 207 265 308 356
#     4  12  26  39  58  92 131 166 205 253 316 383
#     4  11  25  41  58  89 132 166 196 242 310 385
#     4  12  22  39  62  91 122 167 205 250 306 367
#     4  10  21  39  65  94 117 152 213 268 310 356
#     4  10  20  36  61  89 118 157 207 252 298 360
#     4  10  20  37  61  86 114 156 206 258 305 354
#
# _framework density 19.968631999999999
#
# number of rings (size 3 to 8) (size 9 to 14) (size 15 to 20)
#    0.000    1.429    3.571    2.143    2.000    1.714 
#    0.000    0.000    0.000    0.000    0.000    1.000 
#    0.000    0.000    0.000    0.000    0.000    0.000 
#
# Total GULP energy -694264.599899 kJ/mol
# GULP energy per Si atom -12397.582141 kJ/mol
# Density = 1.992318 g / cm^3
# Si number density = 19.968632 Si / 1000 Ang^3
#
#
#
# Elastic Constant Matrix: (Units=GPa)
#
#
# Indices 1 2 3 4 5 6 
#
# 1 131.3194 27.0967 44.2713 0.0000 0.0000 0.0000
# 2 27.0967 52.9756 33.1898 0.0000 0.0000 0.0000
# 3 44.2713 33.1898 128.8310 0.0000 0.0000 0.0000
# 4 0.0000 0.0000 0.0000 23.6268 0.0000 0.0000
# 5 0.0000 0.0000 0.0000 0.0000 30.7610 0.0000
# 6 0.0000 0.0000 0.0000 0.0000 0.0000 26.5109
#
#
#
# Elastic Compliance Matrix: (Units=1/GPa)
#
#
# Indices 1 2 3 4 5 6 
#
# 1 0.009045 -0.003195 -0.002285 0.000000 0.000000 0.000000
# 2 -0.003195 0.023638 -0.004992 0.000000 0.000000 0.000000
# 3 -0.002285 -0.004992 0.009833 0.000000 0.000000 0.000000
# 4 0.000000 0.000000 0.000000 0.042325 0.000000 0.000000
# 5 0.000000 0.000000 0.000000 0.000000 0.032509 0.000000
# 6 0.000000 0.000000 0.000000 0.000000 0.000000 0.037720
#
#
# Mechanical properties :
#
#
# Convention : Reuss Voigt Hill
#
# Bulk Modulus (GPa) = 46.35451 58.02684 52.19068
# Shear Modulus (GPa) = 27.29196 30.08429 28.68812
#
# Velocity S-wave (km/s) = 3.70096 3.88568 3.79444
# Velocity P-wave (km/s) = 6.44413 7.01808 6.73722
#
# Compressibility (1/GPa) = 0.02157287
#
# Stress axis : x y z
#
# Youngs Moduli (GPa) = 110.56364 42.30444 101.69449
#
# Poissons Ratio (x) = 0.13515 0.23238
# Poissons Ratio (y) = 0.35321 0.50765
# Poissons Ratio (z) = 0.25264 0.21118
#
# Static dielectric constant tensor:
#      x y z
#    x 4.034930 0.000000 0.000000 
#    y 0.000000 3.744840 0.000000 
#    z 0.000000 0.000000 3.645040 
# 
# 
# High freq. dielectric constant tensor:
#      x y z
#    x 1.798770 0.000000 0.000000 
#    y 0.000000 1.785330 0.000000 
#    z 0.000000 0.000000 1.752000 
# 
# From -- ./inp_files/9399.got.cif
#   From: 2010.03.12/outbox.cif.g09.slc.cpg/sg59_5_cif.got.tgz:9399.got - 2010.04.16 16:29:54.
