data_PCOD8244488
_publ_section_title
;
Structure prediction by ZEFSAII (Michael W. Deem and Ramdas Pophale) SiO2 
 PCOD8244488
Probable space group: P M M N
;
_chemical_formula_sum "Si O2"
_cell_formula_units_Z 56
_cell_length_a 9.010496
_cell_length_b 15.681713
_cell_length_c 20.040829
_cell_angle_alpha 90.000000
_cell_angle_beta 90.000000
_cell_angle_gamma 90.000000
_cell_volume 2831.769383
_symmetry_space_group_name_H-M "P M M N"
_symmetry_group_IT_number 59
_space_group.IT_coordinate_system_code '2'
_symmetry_cell_setting 'orthorhombic'
loop_
_space_group_symop_operation_xyz
x,y,z
1/2-x,1/2-y,z
1/2+x,-y,-z
-x,1/2+y,-z
-x,-y,-z
1/2+x,1/2+y,-z
1/2-x,y,z
x,1/2-y,z
loop_
_atom_site_type_symbol
_atom_site_label
_atom_site_fract_x
_atom_site_fract_y
_atom_site_fract_z
Si Si1 0.426125 0.151136 0.332922
Si Si2 0.571051 0.931493 0.949399
Si Si3 0.579728 0.936193 0.798890
Si Si4 0.082259 0.158544 0.643998
Si Si5 0.426711 0.511834 0.571152
Si Si6 0.912107 0.750000 0.989298
Si Si7 0.419603 0.873756 0.227424
Si Si8 0.088423 0.250000 0.855580
O O1 0.250000 0.133676 0.337921
O O2 0.463832 0.250000 0.348201
O O3 0.483274 0.130051 0.256893
O O4 0.507066 0.091534 0.387434
O O5 0.750000 0.940042 0.955057
O O6 0.509574 0.940260 0.873179
O O7 0.508254 0.837622 0.968143
O O8 0.500000 0.000000 0.000000
O O9 0.750000 0.913436 0.810598
O O10 0.552805 0.026546 0.764615
O O11 0.250000 0.141325 0.667819
O O12 0.072761 0.250000 0.604356
O O13 0.978748 0.172016 0.707350
O O14 0.026312 0.078270 0.602767
O O15 0.500000 0.500000 0.500000
O O16 0.250000 0.523904 0.565396
O O17 0.750000 0.750000 0.954498
O O18 0.893039 0.750000 0.066988
O O19 0.250000 0.850708 0.216968
O O20 0.503078 0.836191 0.163563
O O21 0.250000 0.250000 0.820899
#
# Coordination Sequence:
#
# PCOD8244488 Si02
#       8
#     8   8   8   8   8   4   8   4
#     4  10  21  39  64  92 121 158 203 251 301 356
#     4  10  20  37  57  81 113 153 200 248 298 355
#     4   9  19  34  57  86 115 147 193 250 300 347
#     4  10  21  38  59  85 116 151 190 232 282 341
#     4  11  24  42  65  92 125 162 196 239 291 348
#     4   9  20  35  55  79 109 152 199 240 287 353
#     4  11  20  32  53  83 113 145 187 238 294 346
#     4  11  21  33  49  77 115 152 193 238 291 355
#
# _framework density 19.775621000000001
#
# number of rings (size 3 to 8) (size 9 to 14) (size 15 to 20)
#    0.000    1.857    2.143    1.929    1.000    1.429 
#    0.000    3.929    0.000    0.000    0.000    0.000 
#    0.000    0.000    0.000    0.000    0.000    0.000 
#
# Total GULP energy -693783.378173 kJ/mol
# GULP energy per Si atom -12388.988896 kJ/mol
# Density = 1.973061 g / cm^3
# Si number density = 19.775621 Si / 1000 Ang^3
#
#
#
# Elastic Constant Matrix: (Units=GPa)
#
#
# Indices 1 2 3 4 5 6 
#
# 1 66.8535 46.1337 35.1424 0.0000 0.0000 0.0000
# 2 46.1337 148.7994 71.1518 0.0000 0.0000 0.0000
# 3 35.1424 71.1518 134.1766 0.0000 0.0000 0.0000
# 4 0.0000 0.0000 0.0000 34.8769 0.0000 0.0000
# 5 0.0000 0.0000 0.0000 0.0000 23.9960 0.0000
# 6 0.0000 0.0000 0.0000 0.0000 0.0000 29.3695
#
#
#
# Elastic Compliance Matrix: (Units=1/GPa)
#
#
# Indices 1 2 3 4 5 6 
#
# 1 0.019669 -0.004870 -0.002569 0.000000 0.000000 0.000000
# 2 -0.004870 0.010209 -0.004138 0.000000 0.000000 0.000000
# 3 -0.002569 -0.004138 0.010320 0.000000 0.000000 0.000000
# 4 0.000000 0.000000 0.000000 0.028672 0.000000 0.000000
# 5 0.000000 0.000000 0.000000 0.000000 0.041674 0.000000
# 6 0.000000 0.000000 0.000000 0.000000 0.000000 0.034049
#
#
# Mechanical properties :
#
#
# Convention : Reuss Voigt Hill
#
# Bulk Modulus (GPa) = 58.67171 72.74280 65.70726
# Shear Modulus (GPa) = 28.83026 30.80858 29.81942
#
# Velocity S-wave (km/s) = 3.82235 3.95132 3.88737
# Velocity P-wave (km/s) = 7.01524 7.59481 7.31077
#
# Compressibility (1/GPa) = 0.01704399
#
# Stress axis : x y z
#
# Youngs Moduli (GPa) = 50.84134 97.95237 96.89690
#
# Poissons Ratio (x) = 0.47699 0.24895
# Poissons Ratio (y) = 0.24758 0.40099
# Poissons Ratio (z) = 0.13062 0.40535
#
# Static dielectric constant tensor:
#      x y z
#    x 3.394410 0.000000 0.000000 
#    y 0.000000 2.858760 0.000000 
#    z 0.000000 0.000000 3.608420 
# 
# 
# High freq. dielectric constant tensor:
#      x y z
#    x 1.744490 0.000000 0.000000 
#    y 0.000000 1.790920 0.000000 
#    z 0.000000 0.000000 1.769910 
# 
# From -- ./inp_files/29256.got.cif
#   From: 2010.03.12/outbox.cif.g09.slc.cpg/sg59_15_cif.got.tgz:29256.got - 2010.04.16 16:29:54.
