data_PCOD8244491
_publ_section_title
;
Structure prediction by ZEFSAII (Michael W. Deem and Ramdas Pophale) SiO2 
 PCOD8244491
Probable space group: P M M N
;
_chemical_formula_sum "Si O2"
_cell_formula_units_Z 48
_cell_length_a 34.618075
_cell_length_b 8.735446
_cell_length_c 7.794573
_cell_angle_alpha 90.000000
_cell_angle_beta 90.000000
_cell_angle_gamma 90.000000
_cell_volume 2357.112585
_symmetry_space_group_name_H-M "P M M N"
_symmetry_group_IT_number 59
_space_group.IT_coordinate_system_code '2'
_symmetry_cell_setting 'orthorhombic'
loop_
_space_group_symop_operation_xyz
x,y,z
1/2-x,1/2-y,z
1/2+x,-y,-z
-x,1/2+y,-z
-x,-y,-z
1/2+x,1/2+y,-z
1/2-x,y,z
x,1/2-y,z
loop_
_atom_site_type_symbol
_atom_site_label
_atom_site_fract_x
_atom_site_fract_y
_atom_site_fract_z
Si Si1 0.998216 0.567812 0.314931
Si Si2 0.924973 0.917303 0.791280
Si Si3 0.336991 0.432956 0.859059
Si Si4 0.653828 0.431354 0.769709
Si Si5 0.081158 0.084412 0.812994
Si Si6 0.705515 0.072782 0.449588
O O1 0.998396 0.750000 0.308415
O O2 0.035263 0.509993 0.213610
O O3 0.000000 0.500000 0.500000
O O4 0.958135 0.496321 0.238757
O O5 0.928778 0.750000 0.699596
O O6 0.888916 0.010804 0.713891
O O7 0.916383 0.888985 0.986677
O O8 0.337949 0.250000 0.875907
O O9 0.377620 0.496020 0.773214
O O10 0.304126 0.483471 0.726328
O O11 0.330562 0.500887 0.049847
O O12 0.652799 0.250000 0.789393
O O13 0.681904 0.485258 0.615995
O O14 0.079571 0.250000 0.719789
O O15 0.750000 0.042244 0.492461
O O16 0.696783 0.250000 0.415277
#
# Coordination Sequence:
#
# PCOD8244491 Si02
#       6
#     8   8   8   8   8   8
#     4  11  22  35  51  79 114 152 194 240 289 346
#     4  10  20  37  58  81 110 150 194 245 296 344
#     4  10  21  39  63  92 122 157 198 245 300 357
#     4  10  21  39  63  91 121 160 203 246 298 361
#     4   8  18  36  56  78 109 148 189 233 287 341
#     4  10  23  42  63  89 121 157 196 241 297 360
#
# _framework density 20.363897999999999
#
# number of rings (size 3 to 8) (size 9 to 14) (size 15 to 20)
#    0.000    2.167    0.000    3.500    2.333    2.333 
#    0.000   10.000    0.000    0.000    0.000    0.000 
#    0.000    0.000    0.000    0.000    0.000    0.000 
#
# Total GULP energy -594723.537226 kJ/mol
# GULP energy per Si atom -12390.073692 kJ/mol
# Density = 2.031755 g / cm^3
# Si number density = 20.363898 Si / 1000 Ang^3
#
#
#
# Elastic Constant Matrix: (Units=GPa)
#
#
# Indices 1 2 3 4 5 6 
#
# 1 97.4397 21.6201 22.6993 0.0000 0.0000 0.0000
# 2 21.6201 76.8751 20.4217 0.0000 0.0000 0.0000
# 3 22.6993 20.4217 63.4986 0.0000 0.0000 0.0000
# 4 0.0000 0.0000 0.0000 26.5213 0.0000 0.0000
# 5 0.0000 0.0000 0.0000 0.0000 37.6498 0.0000
# 6 0.0000 0.0000 0.0000 0.0000 0.0000 26.2804
#
#
#
# Elastic Compliance Matrix: (Units=1/GPa)
#
#
# Indices 1 2 3 4 5 6 
#
# 1 0.011573 -0.002357 -0.003379 0.000000 0.000000 0.000000
# 2 -0.002357 0.014703 -0.003886 0.000000 0.000000 0.000000
# 3 -0.003379 -0.003886 0.018206 0.000000 0.000000 0.000000
# 4 0.000000 0.000000 0.000000 0.037706 0.000000 0.000000
# 5 0.000000 0.000000 0.000000 0.000000 0.026561 0.000000
# 6 0.000000 0.000000 0.000000 0.000000 0.000000 0.038051
#
#
# Mechanical properties :
#
#
# Convention : Reuss Voigt Hill
#
# Bulk Modulus (GPa) = 39.62287 40.81063 40.21675
# Shear Modulus (GPa) = 28.66042 29.62846 29.14444
#
# Velocity S-wave (km/s) = 3.75562 3.81852 3.78720
# Velocity P-wave (km/s) = 6.18918 6.28694 6.23825
#
# Compressibility (1/GPa) = 0.02523795
#
# Stress axis : x y z
#
# Youngs Moduli (GPa) = 86.40857 68.01175 54.92667
#
# Poissons Ratio (x) = 0.16031 0.18560
# Poissons Ratio (y) = 0.20367 0.21345
# Poissons Ratio (z) = 0.29197 0.26430
#
# Static dielectric constant tensor:
#      x y z
#    x 3.300510 0.000000 0.000000 
#    y 0.000000 3.733480 0.000000 
#    z 0.000000 0.000000 3.467660 
# 
# 
# High freq. dielectric constant tensor:
#      x y z
#    x 1.807990 0.000000 0.000000 
#    y 0.000000 1.783520 0.000000 
#    z 0.000000 0.000000 1.792530 
# 
# From -- ./inp_files/12955.got.cif
#   From: 2010.03.12/outbox.cif.g09.slc.cpg/sg59_7_cif.got.tgz:12955.got - 2010.04.16 16:29:54.
