data_PCOD8244893
_publ_section_title
;
Structure prediction by ZEFSAII (Michael W. Deem and Ramdas Pophale) SiO2 
 PCOD8244893
Probable space group: P M M N
;
_chemical_formula_sum "Si O2"
_cell_formula_units_Z 56
_cell_length_a 13.980249
_cell_length_b 9.179272
_cell_length_c 21.733069
_cell_angle_alpha 90.000000
_cell_angle_beta 90.000000
_cell_angle_gamma 90.000000
_cell_volume 2788.972323
_symmetry_space_group_name_H-M "P M M N"
_symmetry_group_IT_number 59
_space_group.IT_coordinate_system_code '2'
_symmetry_cell_setting 'orthorhombic'
loop_
_space_group_symop_operation_xyz
x,y,z
1/2-x,1/2-y,z
1/2+x,-y,-z
-x,1/2+y,-z
-x,-y,-z
1/2+x,1/2+y,-z
1/2-x,y,z
x,1/2-y,z
loop_
_atom_site_type_symbol
_atom_site_label
_atom_site_fract_x
_atom_site_fract_y
_atom_site_fract_z
Si Si1 0.363646 0.084848 0.167717
Si Si2 0.363550 0.911895 0.917986
Si Si3 0.643434 0.579434 0.484165
Si Si4 0.540610 0.080777 0.587814
Si Si5 0.863857 0.083860 0.949946
Si Si6 0.140835 0.576416 0.785023
Si Si7 0.973158 0.421133 0.728224
O O1 0.250000 0.080080 0.166208
O O2 0.401790 0.250000 0.172704
O O3 0.406803 0.015411 0.104663
O O4 0.397086 0.994012 0.226439
O O5 0.250000 0.905607 0.913389
O O6 0.404733 0.750000 0.922178
O O7 0.397327 0.980169 0.852714
O O8 0.394622 0.986733 0.983078
O O9 0.750000 0.531805 0.462799
O O10 0.639055 0.750000 0.496179
O O11 0.566923 0.531861 0.432101
O O12 0.619525 0.504542 0.549013
O O13 0.554462 0.250000 0.573966
O O14 0.559090 0.045183 0.658943
O O15 0.750000 0.084203 0.945809
O O16 0.900962 0.250000 0.942513
O O17 0.250000 0.531011 0.773141
O O18 0.128380 0.750000 0.779773
O O19 0.077622 0.492266 0.735533
O O20 0.978692 0.250000 0.741414
#
# Coordination Sequence:
#
# PCOD8244893 Si02
#       7
#     8   8   8   8   8   8   8
#     4  10  21  36  53  74 102 137 178 225 275 323
#     4   7  11  23  46  73  98 128 167 213 268 323
#     4   9  18  35  60  86 110 137 169 207 253 303
#     4   9  20  37  55  79 111 143 174 211 253 298
#     4   8  13  25  48  74  98 127 167 216 270 326
#     4   9  18  34  55  78 106 140 178 221 269 319
#     4  11  23  37  54  77 108 146 183 217 255 305
#
# _framework density 20.079082
#
# number of rings (size 3 to 8) (size 9 to 14) (size 15 to 20)
#    0.000    3.000    0.000    2.571    0.000    3.714 
#    0.000    5.714    0.000    2.571    0.000    0.000 
#    0.000    0.000    0.000    0.000    0.000    0.000 
#
# Total GULP energy -693907.990285 kJ/mol
# GULP energy per Si atom -12391.214112 kJ/mol
# Density = 2.003338 g / cm^3
# Si number density = 20.079082 Si / 1000 Ang^3
#
#
#
# Elastic Constant Matrix: (Units=GPa)
#
#
# Indices 1 2 3 4 5 6 
#
# 1 20.2668 4.8418 -12.0597 0.0000 0.0000 0.0000
# 2 4.8418 59.4415 27.9945 0.0000 0.0000 0.0000
# 3 -12.0597 27.9945 72.7121 0.0000 0.0000 0.0000
# 4 0.0000 0.0000 0.0000 25.2763 0.0000 0.0000
# 5 0.0000 0.0000 0.0000 0.0000 28.7898 0.0000
# 6 0.0000 0.0000 0.0000 0.0000 0.0000 25.3865
#
#
#
# Elastic Compliance Matrix: (Units=1/GPa)
#
#
# Indices 1 2 3 4 5 6 
#
# 1 0.060909 -0.011872 0.014673 0.000000 0.000000 0.000000
# 2 -0.011872 0.022863 -0.010771 0.000000 0.000000 0.000000
# 3 0.014673 -0.010771 0.020333 0.000000 0.000000 0.000000
# 4 0.000000 0.000000 0.000000 0.039563 0.000000 0.000000
# 5 0.000000 0.000000 0.000000 0.000000 0.034735 0.000000
# 6 0.000000 0.000000 0.000000 0.000000 0.000000 0.039391
#
#
# Mechanical properties :
#
#
# Convention : Reuss Voigt Hill
#
# Bulk Modulus (GPa) = 11.34238 21.55263 16.44751
# Shear Modulus (GPa) = 19.00255 24.66676 21.83466
#
# Velocity S-wave (km/s) = 3.07968 3.50877 3.30120
# Velocity P-wave (km/s) = 4.27867 5.21272 4.76862
#
# Compressibility (1/GPa) = 0.08816488
#
# Stress axis : x y z
#
# Youngs Moduli (GPa) = 16.41798 43.73858 49.18013
#
# Poissons Ratio (x) = 0.51924 -0.72160
# Poissons Ratio (y) = 0.19491 0.52974
# Poissons Ratio (z) = -0.24090 0.47112
#
# Static dielectric constant tensor:
#      x y z
#    x 3.525960 0.000000 0.000000 
#    y 0.000000 3.492390 0.000000 
#    z 0.000000 0.000000 3.822940 
# 
# 
# High freq. dielectric constant tensor:
#      x y z
#    x 1.779330 0.000000 0.000000 
#    y 0.000000 1.760470 0.000000 
#    z 0.000000 0.000000 1.787160 
# 
# From -- ./inp_files/30396.got.cif
#   From: 2010.03.12/outbox.cif.g09.slc.cpg/sg59_16_cif.got.tgz:30396.got - 2010.04.16 16:29:54.
