data_PCOD8244892
_publ_section_title
;
Structure prediction by ZEFSAII (Michael W. Deem and Ramdas Pophale) SiO2 
 PCOD8244892
Probable space group: P M M N
;
_chemical_formula_sum "Si O2"
_cell_formula_units_Z 64
_cell_length_a 9.209629
_cell_length_b 19.587296
_cell_length_c 20.177769
_cell_angle_alpha 90.000000
_cell_angle_beta 90.000000
_cell_angle_gamma 90.000000
_cell_volume 3639.902643
_symmetry_space_group_name_H-M "P M M N"
_symmetry_group_IT_number 59
_space_group.IT_coordinate_system_code '2'
_symmetry_cell_setting 'orthorhombic'
loop_
_space_group_symop_operation_xyz
x,y,z
1/2-x,1/2-y,z
1/2+x,-y,-z
-x,1/2+y,-z
-x,-y,-z
1/2+x,1/2+y,-z
1/2-x,y,z
x,1/2-y,z
loop_
_atom_site_type_symbol
_atom_site_label
_atom_site_fract_x
_atom_site_fract_y
_atom_site_fract_z
Si Si1 0.083617 0.580074 0.668329
Si Si2 0.914067 0.669608 0.922834
Si Si3 0.418090 0.420978 0.671815
Si Si4 0.922538 0.571078 0.178828
Si Si5 0.080328 0.671141 0.431585
Si Si6 0.923238 0.674041 0.069926
Si Si7 0.419554 0.580034 0.820222
Si Si8 0.419649 0.171280 0.434454
O O1 0.250000 0.599077 0.651648
O O2 0.056916 0.500219 0.654501
O O3 0.047477 0.598387 0.744157
O O4 0.975557 0.624558 0.624768
O O5 0.750000 0.643610 0.914456
O O6 0.923234 0.750000 0.912520
O O7 0.009785 0.635191 0.867231
O O8 0.972497 0.650520 0.996424
O O9 0.250000 0.401162 0.660636
O O10 0.466516 0.405893 0.747335
O O11 0.520017 0.374627 0.627288
O O12 0.750000 0.569207 0.174593
O O13 0.989209 0.622955 0.124800
O O14 0.982691 0.495304 0.163719
O O15 0.250000 0.656970 0.440566
O O16 0.048441 0.750000 0.414672
O O17 0.001193 0.649187 0.498898
O O18 0.750000 0.674955 0.072362
O O19 0.982391 0.750000 0.085390
O O20 0.250000 0.581287 0.833924
O O21 0.250000 0.158200 0.445084
O O22 0.452414 0.250000 0.416872
#
# Coordination Sequence:
#
# PCOD8244892 Si02
#       8
#     8   8   8   8   8   8   8   8
#     4   9  19  35  52  72 100 131 161 197 246 298
#     4   9  18  31  46  67  96 127 161 202 242 283
#     4   9  18  33  53  76 100 127 163 205 243 284
#     4   8  15  29  48  71  98 125 158 201 242 282
#     4  10  21  36  53  74 102 134 163 194 239 292
#     4   8  14  26  45  69  96 126 160 198 241 286
#     4   9  18  32  49  70  97 127 159 197 240 288
#     4  10  21  36  54  76  99 125 163 207 243 281
#
# _framework density 17.582886999999999
#
# number of rings (size 3 to 8) (size 9 to 14) (size 15 to 20)
#    0.000    3.000    0.000    3.000    0.000    4.750 
#    0.000    5.625    0.000    0.750    0.000    0.000 
#    0.000    0.000    0.000    0.000    0.000    0.000 
#
# Total GULP energy -793469.202286 kJ/mol
# GULP energy per Si atom -12397.956286 kJ/mol
# Density = 1.754287 g / cm^3
# Si number density = 17.582887 Si / 1000 Ang^3
#
#
#
# Elastic Constant Matrix: (Units=GPa)
#
#
# Indices 1 2 3 4 5 6 
#
# 1 61.4379 41.0147 57.8171 0.0000 0.0000 0.0000
# 2 41.0147 71.0631 73.1918 0.0000 0.0000 0.0000
# 3 57.8171 73.1918 131.3511 0.0000 0.0000 0.0000
# 4 0.0000 0.0000 0.0000 8.9267 0.0000 0.0000
# 5 0.0000 0.0000 0.0000 0.0000 26.2188 0.0000
# 6 0.0000 0.0000 0.0000 0.0000 0.0000 27.7872
#
#
#
# Elastic Compliance Matrix: (Units=1/GPa)
#
#
# Indices 1 2 3 4 5 6 
#
# 1 0.029911 -0.008691 -0.008323 0.000000 0.000000 0.000000
# 2 -0.008691 0.035551 -0.015985 0.000000 0.000000 0.000000
# 3 -0.008323 -0.015985 0.020184 0.000000 0.000000 0.000000
# 4 0.000000 0.000000 0.000000 0.112024 0.000000 0.000000
# 5 0.000000 0.000000 0.000000 0.000000 0.038141 0.000000
# 6 0.000000 0.000000 0.000000 0.000000 0.000000 0.035988
#
#
# Mechanical properties :
#
#
# Convention : Reuss Voigt Hill
#
# Bulk Modulus (GPa) = 50.89335 67.54437 59.21886
# Shear Modulus (GPa) = 14.52029 18.70844 16.61436
#
# Velocity S-wave (km/s) = 2.87682 3.26546 3.07728
# Velocity P-wave (km/s) = 6.32791 7.26057 6.81023
#
# Compressibility (1/GPa) = 0.01964893
#
# Stress axis : x y z
#
# Youngs Moduli (GPa) = 33.43225 28.12830 49.54456
#
# Poissons Ratio (x) = 0.24446 0.41238
# Poissons Ratio (y) = 0.29055 0.79195
# Poissons Ratio (z) = 0.27827 0.44962
#
# Static dielectric constant tensor:
#      x y z
#    x 2.992940 0.000000 0.000000 
#    y 0.000000 3.370250 0.000000 
#    z 0.000000 0.000000 3.368020 
# 
# 
# High freq. dielectric constant tensor:
#      x y z
#    x 1.653520 0.000000 0.000000 
#    y 0.000000 1.680080 0.000000 
#    z 0.000000 0.000000 1.687770 
# 
# From -- ./inp_files/26351.got.cif
#   From: 2010.03.12/outbox.cif.g09.slc.cpg/sg59_14_cif.got.tgz:26351.got - 2010.04.16 16:29:54.
