data_PCOD8244014
_publ_section_title
;
Structure prediction by ZEFSAII (Michael W. Deem and Ramdas Pophale) SiO2 
 PCOD8244014
Probable space group: P M M N
;
_chemical_formula_sum "Si O2"
_cell_formula_units_Z 56
_cell_length_a 16.280369
_cell_length_b 9.010115
_cell_length_c 19.766644
_cell_angle_alpha 90.000000
_cell_angle_beta 90.000000
_cell_angle_gamma 90.000000
_cell_volume 2899.529414
_symmetry_space_group_name_H-M "P M M N"
_symmetry_group_IT_number 59
_space_group.IT_coordinate_system_code '2'
_symmetry_cell_setting 'orthorhombic'
loop_
_space_group_symop_operation_xyz
x,y,z
1/2-x,1/2-y,z
1/2+x,-y,-z
-x,1/2+y,-z
-x,-y,-z
1/2+x,1/2+y,-z
1/2-x,y,z
x,1/2-y,z
loop_
_atom_site_type_symbol
_atom_site_label
_atom_site_fract_x
_atom_site_fract_y
_atom_site_fract_z
Si Si1 0.413542 0.425823 0.982038
Si Si2 0.655464 0.922092 0.423968
Si Si3 0.250000 0.073471 0.061953
Si Si4 0.250000 0.073891 0.215234
Si Si5 0.564128 0.924860 0.287719
Si Si6 0.653483 0.078947 0.559064
Si Si7 0.159827 0.425450 0.843058
Si Si8 0.601093 0.574350 0.693064
O O1 0.423241 0.250000 0.990457
O O2 0.334583 0.482198 0.026080
O O3 0.500000 0.500000 0.000000
O O4 0.397391 0.475723 0.904916
O O5 0.750000 0.959254 0.408442
O O6 0.643834 0.750000 0.441287
O O7 0.603836 0.969931 0.358921
O O8 0.622345 0.015413 0.487551
O O9 0.250000 0.250000 0.059642
O O10 0.250000 0.010862 0.138813
O O11 0.250000 0.250000 0.212078
O O12 0.328739 0.015435 0.256337
O O13 0.545352 0.750000 0.284249
O O14 0.623976 0.977938 0.228294
O O15 0.482790 0.018392 0.274902
O O16 0.750000 0.052870 0.566507
O O17 0.628393 0.250000 0.563270
O O18 0.608763 0.993342 0.618711
O O19 0.250000 0.497046 0.851408
O O20 0.168196 0.250000 0.844320
O O21 0.603541 0.750000 0.686467
#
# Coordination Sequence:
#
# PCOD8244014 Si02
#       8
#     8   8   4   4   8   8   8   8
#     4  10  20  35  59  87 117 151 191 235 281 336
#     4   9  18  34  56  80 106 142 182 221 268 326
#     4   9  18  36  59  83 112 153 194 228 275 341
#     4   9  20  36  55  77 104 141 186 226 263 319
#     4  10  21  35  54  82 113 140 179 231 277 321
#     4  10  20  35  57  81 107 140 179 227 277 324
#     4   9  17  34  59  84 111 149 191 228 272 331
#     4  11  22  37  56  78 107 144 185 226 272 330
#
# _framework density 19.313479000000001
#
# number of rings (size 3 to 8) (size 9 to 14) (size 15 to 20)
#    0.000    2.286    1.429    1.286    2.000    3.429 
#    0.000    0.357    0.000    3.857    0.000    0.000 
#    0.000    0.000    0.000    0.000    0.000    0.000 
#
# Total GULP energy -694368.723584 kJ/mol
# GULP energy per Si atom -12399.441493 kJ/mol
# Density = 1.926952 g / cm^3
# Si number density = 19.313479 Si / 1000 Ang^3
#
#
#
# Elastic Constant Matrix: (Units=GPa)
#
#
# Indices 1 2 3 4 5 6 
#
# 1 140.1952 36.5423 70.9772 0.0000 0.0000 0.0000
# 2 36.5423 46.2830 35.5379 0.0000 0.0000 0.0000
# 3 70.9772 35.5379 150.7671 0.0000 0.0000 0.0000
# 4 0.0000 0.0000 0.0000 16.5369 0.0000 0.0000
# 5 0.0000 0.0000 0.0000 0.0000 24.1276 0.0000
# 6 0.0000 0.0000 0.0000 0.0000 0.0000 29.1611
#
#
#
# Elastic Compliance Matrix: (Units=1/GPa)
#
#
# Indices 1 2 3 4 5 6 
#
# 1 0.010371 -0.005420 -0.003605 0.000000 0.000000 0.000000
# 2 -0.005420 0.029214 -0.004334 0.000000 0.000000 0.000000
# 3 -0.003605 -0.004334 0.009351 0.000000 0.000000 0.000000
# 4 0.000000 0.000000 0.000000 0.060471 0.000000 0.000000
# 5 0.000000 0.000000 0.000000 0.000000 0.041446 0.000000
# 6 0.000000 0.000000 0.000000 0.000000 0.000000 0.034292
#
#
# Mechanical properties :
#
#
# Convention : Reuss Voigt Hill
#
# Bulk Modulus (GPa) = 45.00991 69.26224 57.13608
# Shear Modulus (GPa) = 22.80296 26.91096 24.85696
#
# Velocity S-wave (km/s) = 3.43982 3.73685 3.59141
# Velocity P-wave (km/s) = 6.25556 7.38638 6.84437
#
# Compressibility (1/GPa) = 0.02221733
#
# Stress axis : x y z
#
# Youngs Moduli (GPa) = 96.42613 34.23034 106.93630
#
# Poissons Ratio (x) = 0.18554 0.38546
# Poissons Ratio (y) = 0.52266 0.46350
# Poissons Ratio (z) = 0.34758 0.14837
#
# Static dielectric constant tensor:
#      x y z
#    x 3.679980 0.000000 0.000000 
#    y 0.000000 3.196850 0.000000 
#    z 0.000000 0.000000 3.769930 
# 
# 
# High freq. dielectric constant tensor:
#      x y z
#    x 1.758720 0.000000 0.000000 
#    y 0.000000 1.714900 0.000000 
#    z 0.000000 0.000000 1.766370 
# 
# From -- ./inp_files/30508.got.cif
#   From: 2010.03.12/outbox.cif.g09.slc.cpg/sg59_16_cif.got.tgz:30508.got - 2010.04.16 16:29:54.
