data_PCOD8244980
_publ_section_title
;
Structure prediction by ZEFSAII (Michael W. Deem and Ramdas Pophale) SiO2 
 PCOD8244980
Probable space group: P M M N
;
_chemical_formula_sum "Si O2"
_cell_formula_units_Z 64
_cell_length_a 8.979382
_cell_length_b 23.133428
_cell_length_c 15.179248
_cell_angle_alpha 90.000000
_cell_angle_beta 90.000000
_cell_angle_gamma 90.000000
_cell_volume 3153.092396
_symmetry_space_group_name_H-M "P M M N"
_symmetry_group_IT_number 59
_space_group.IT_coordinate_system_code '2'
_symmetry_cell_setting 'orthorhombic'
loop_
_space_group_symop_operation_xyz
x,y,z
1/2-x,1/2-y,z
1/2+x,-y,-z
-x,1/2+y,-z
-x,-y,-z
1/2+x,1/2+y,-z
1/2-x,y,z
x,1/2-y,z
loop_
_atom_site_type_symbol
_atom_site_label
_atom_site_fract_x
_atom_site_fract_y
_atom_site_fract_z
Si Si1 0.577556 0.317382 0.531898
Si Si2 0.423423 0.617678 0.648420
Si Si3 0.584733 0.681399 0.798421
Si Si4 0.574513 0.614779 0.314467
Si Si5 0.416252 0.640888 0.144136
Si Si6 0.914429 0.316210 0.036638
Si Si7 0.927861 0.993387 0.717334
Si Si8 0.586252 0.009289 0.909892
O O1 0.750000 0.324804 0.558396
O O2 0.537750 0.250000 0.518298
O O3 0.540416 0.352239 0.443619
O O4 0.473284 0.344273 0.606051
O O5 0.250000 0.603881 0.659421
O O6 0.472923 0.662429 0.722757
O O7 0.514710 0.558096 0.655581
O O8 0.750000 0.655326 0.782860
O O9 0.592823 0.750000 0.799995
O O10 0.524570 0.655593 0.891463
O O11 0.750000 0.604972 0.316082
O O12 0.527852 0.648232 0.225403
O O13 0.494285 0.552858 0.320377
O O14 0.250000 0.661734 0.172236
O O15 0.408714 0.576308 0.110084
O O16 0.479138 0.678081 0.062133
O O17 0.750000 0.345930 0.040673
O O18 0.897732 0.250000 0.062294
O O19 0.750000 0.998842 0.712758
O O20 0.979657 0.980852 0.819282
O O21 0.750000 0.983970 0.926631
O O22 0.500000 0.000000 0.000000
#
# Coordination Sequence:
#
# PCOD8244980 Si02
#       8
#     8   8   8   8   8   8   8   8
#     4  10  23  44  68  92 119 156 200 247 304 366
#     4  11  23  39  63  92 120 154 201 253 302 361
#     4  10  21  36  54  80 118 160 198 244 303 361
#     4  11  23  40  63  91 122 157 199 250 304 359
#     4   9  19  36  55  79 113 154 195 241 296 350
#     4   9  18  33  54  80 110 150 200 245 289 349
#     4  10  22  41  61  87 123 164 204 244 301 365
#     4   9  19  33  51  77 111 151 196 241 284 336
#
# _framework density 20.297535
#
# number of rings (size 3 to 8) (size 9 to 14) (size 15 to 20)
#    0.000    2.125    0.000    3.375    1.750    6.500 
#    0.000    1.250    0.000    0.000    0.000    0.000 
#    0.000    0.000    0.000    0.000    0.000    0.000 
#
# Total GULP energy -793402.557244 kJ/mol
# GULP energy per Si atom -12396.914957 kJ/mol
# Density = 2.025134 g / cm^3
# Si number density = 20.297535 Si / 1000 Ang^3
#
#
#
# Elastic Constant Matrix: (Units=GPa)
#
#
# Indices 1 2 3 4 5 6 
#
# 1 103.1064 38.1690 63.7011 0.0000 0.0000 0.0000
# 2 38.1690 49.4975 42.9940 0.0000 0.0000 0.0000
# 3 63.7011 42.9940 130.9490 0.0000 0.0000 0.0000
# 4 0.0000 0.0000 0.0000 32.8923 0.0000 0.0000
# 5 0.0000 0.0000 0.0000 0.0000 27.7346 0.0000
# 6 0.0000 0.0000 0.0000 0.0000 0.0000 28.1242
#
#
#
# Elastic Compliance Matrix: (Units=1/GPa)
#
#
# Indices 1 2 3 4 5 6 
#
# 1 0.015698 -0.007655 -0.005123 0.000000 0.000000 0.000000
# 2 -0.007655 0.031997 -0.006781 0.000000 0.000000 0.000000
# 3 -0.005123 -0.006781 0.012355 0.000000 0.000000 0.000000
# 4 0.000000 0.000000 0.000000 0.030402 0.000000 0.000000
# 5 0.000000 0.000000 0.000000 0.000000 0.036056 0.000000
# 6 0.000000 0.000000 0.000000 0.000000 0.000000 0.035557
#
#
# Mechanical properties :
#
#
# Convention : Reuss Voigt Hill
#
# Bulk Modulus (GPa) = 47.77715 63.69789 55.73752
# Shear Modulus (GPa) = 24.02004 26.99615 25.50810
#
# Velocity S-wave (km/s) = 3.44379 3.65090 3.54886
# Velocity P-wave (km/s) = 6.27713 7.01586 6.65675
#
# Compressibility (1/GPa) = 0.02093051
#
# Stress axis : x y z
#
# Youngs Moduli (GPa) = 63.70429 31.25338 80.93816
#
# Poissons Ratio (x) = 0.23925 0.41463
# Poissons Ratio (y) = 0.48766 0.54888
# Poissons Ratio (z) = 0.32635 0.21194
#
# Static dielectric constant tensor:
#      x y z
#    x 3.590620 0.000000 0.000000 
#    y 0.000000 3.554260 0.000000 
#    z 0.000000 0.000000 5.599520 
# 
# 
# High freq. dielectric constant tensor:
#      x y z
#    x 1.788470 0.000000 0.000000 
#    y 0.000000 1.788290 0.000000 
#    z 0.000000 0.000000 1.798660 
# 
# From -- ./inp_files/21624.got.cif
#   From: 2010.03.12/outbox.cif.g09.slc.cpg/sg59_11_cif.got.tgz:21624.got - 2010.04.16 16:29:54.
