data_PCOD8244948
_publ_section_title
;
Structure prediction by ZEFSAII (Michael W. Deem and Ramdas Pophale) SiO2 
 PCOD8244948
Probable space group: P M M N
;
_chemical_formula_sum "Si O2"
_cell_formula_units_Z 56
_cell_length_a 14.110440
_cell_length_b 9.052471
_cell_length_c 22.891953
_cell_angle_alpha 90.000000
_cell_angle_beta 90.000000
_cell_angle_gamma 90.000000
_cell_volume 2924.088711
_symmetry_space_group_name_H-M "P M M N"
_symmetry_group_IT_number 59
_space_group.IT_coordinate_system_code '2'
_symmetry_cell_setting 'orthorhombic'
loop_
_space_group_symop_operation_xyz
x,y,z
1/2-x,1/2-y,z
1/2+x,-y,-z
-x,1/2+y,-z
-x,-y,-z
1/2+x,1/2+y,-z
1/2-x,y,z
x,1/2-y,z
loop_
_atom_site_type_symbol
_atom_site_label
_atom_site_fract_x
_atom_site_fract_y
_atom_site_fract_z
Si Si1 0.451774 0.576169 0.082667
Si Si2 0.857085 0.576976 0.024379
Si Si3 0.357463 0.925632 0.201375
Si Si4 0.352932 0.414821 0.397500
Si Si5 0.143322 0.581133 0.639205
Si Si6 0.023462 0.576367 0.311425
Si Si7 0.091624 0.418526 0.522689
O O1 0.437241 0.750000 0.077254
O O2 0.563138 0.533822 0.072922
O O3 0.417359 0.518283 0.145621
O O4 0.382941 0.503662 0.035414
O O5 0.750000 0.531085 0.044576
O O6 0.861189 0.750000 0.011768
O O7 0.250000 0.989035 0.199958
O O8 0.353584 0.750000 0.202805
O O9 0.412498 0.984880 0.258412
O O10 0.250000 0.446325 0.369447
O O11 0.388586 0.250000 0.380527
O O12 0.426777 0.534280 0.372759
O O13 0.338958 0.425295 0.467158
O O14 0.250000 0.570821 0.662919
O O15 0.110840 0.750000 0.631039
O O16 0.137991 0.501478 0.576886
O O17 0.078747 0.502031 0.688304
O O18 0.008534 0.750000 0.307008
O O19 0.069870 0.250000 0.541622
O O20 0.000000 0.500000 0.500000
#
# Coordination Sequence:
#
# PCOD8244948 Si02
#       7
#     8   8   8   8   8   8   8
#     4   9  17  31  52  76 105 144 184 218 259 315
#     4   9  17  29  47  76 112 143 175 219 267 311
#     4   9  18  33  53  79 108 137 173 217 263 312
#     4  10  21  36  54  77 107 139 169 207 259 318
#     4  11  24  41  59  78 104 140 179 219 268 325
#     4  11  22  36  56  79 104 135 175 224 269 314
#     4  11  21  35  57  83 110 139 172 213 264 320
#
# _framework density 19.151264999999999
#
# number of rings (size 3 to 8) (size 9 to 14) (size 15 to 20)
#    0.000    2.000    1.429    2.571    0.000    4.000 
#    0.000    2.143    0.000    6.000    0.000    0.000 
#    0.000    0.000    0.000    0.000    0.000    0.000 
#
# Total GULP energy -694189.107421 kJ/mol
# GULP energy per Si atom -12396.234061 kJ/mol
# Density = 1.910768 g / cm^3
# Si number density = 19.151265 Si / 1000 Ang^3
#
#
#
# Elastic Constant Matrix: (Units=GPa)
#
#
# Indices 1 2 3 4 5 6 
#
# 1 151.7695 44.7560 57.5401 0.0000 0.0000 0.0000
# 2 44.7560 77.1943 29.7286 0.0000 0.0000 0.0000
# 3 57.5401 29.7286 103.2164 0.0000 0.0000 0.0000
# 4 0.0000 0.0000 0.0000 22.5830 0.0000 0.0000
# 5 0.0000 0.0000 0.0000 0.0000 29.3263 0.0000
# 6 0.0000 0.0000 0.0000 0.0000 0.0000 26.3202
#
#
#
# Elastic Compliance Matrix: (Units=1/GPa)
#
#
# Indices 1 2 3 4 5 6 
#
# 1 0.009249 -0.003798 -0.004062 0.000000 0.000000 0.000000
# 2 -0.003798 0.016130 -0.002529 0.000000 0.000000 0.000000
# 3 -0.004062 -0.002529 0.012681 0.000000 0.000000 0.000000
# 4 0.000000 0.000000 0.000000 0.044281 0.000000 0.000000
# 5 0.000000 0.000000 0.000000 0.000000 0.034099 0.000000
# 6 0.000000 0.000000 0.000000 0.000000 0.000000 0.037994
#
#
# Mechanical properties :
#
#
# Convention : Reuss Voigt Hill
#
# Bulk Modulus (GPa) = 57.86065 66.24773 62.05419
# Shear Modulus (GPa) = 27.62848 28.98960 28.30904
#
# Velocity S-wave (km/s) = 3.80234 3.89487 3.84888
# Velocity P-wave (km/s) = 7.03954 7.40902 7.22664
#
# Compressibility (1/GPa) = 0.01728290
#
# Stress axis : x y z
#
# Youngs Moduli (GPa) = 108.11938 61.99569 78.85693
#
# Poissons Ratio (x) = 0.23546 0.32033
# Poissons Ratio (y) = 0.41064 0.19939
# Poissons Ratio (z) = 0.43920 0.15676
#
# Static dielectric constant tensor:
#      x y z
#    x 3.792690 0.000000 0.000000 
#    y 0.000000 3.444940 0.000000 
#    z 0.000000 0.000000 3.601840 
# 
# 
# High freq. dielectric constant tensor:
#      x y z
#    x 1.760790 0.000000 0.000000 
#    y 0.000000 1.732740 0.000000 
#    z 0.000000 0.000000 1.721380 
# 
# From -- ./inp_files/30331.got.cif
#   From: 2010.03.12/outbox.cif.g09.slc.cpg/sg59_16_cif.got.tgz:30331.got - 2010.04.16 16:29:54.
