data_PCOD8244086
_publ_section_title
;
Structure prediction by ZEFSAII (Michael W. Deem and Ramdas Pophale) SiO2 
 PCOD8244086
Probable space group: P M M N
;
_chemical_formula_sum "Si O2"
_cell_formula_units_Z 48
_cell_length_a 8.920331
_cell_length_b 13.836146
_cell_length_c 20.521200
_cell_angle_alpha 90.000000
_cell_angle_beta 90.000000
_cell_angle_gamma 90.000000
_cell_volume 2532.788110
_symmetry_space_group_name_H-M "P M M N"
_symmetry_group_IT_number 59
_space_group.IT_coordinate_system_code '2'
_symmetry_cell_setting 'orthorhombic'
loop_
_space_group_symop_operation_xyz
x,y,z
1/2-x,1/2-y,z
1/2+x,-y,-z
-x,1/2+y,-z
-x,-y,-z
1/2+x,1/2+y,-z
1/2-x,y,z
x,1/2-y,z
loop_
_atom_site_type_symbol
_atom_site_label
_atom_site_fract_x
_atom_site_fract_y
_atom_site_fract_z
Si Si1 0.073538 0.138782 0.218803
Si Si2 0.572112 0.143556 0.466533
Si Si3 0.427107 0.963494 0.660669
Si Si4 0.575593 0.465415 0.099274
Si Si5 0.075689 0.638786 0.034399
Si Si6 0.425169 0.861265 0.388425
O O1 0.250000 0.125810 0.224695
O O2 0.028206 0.250000 0.206916
O O3 0.998605 0.103287 0.284862
O O4 0.015388 0.074116 0.159971
O O5 0.750000 0.147355 0.467726
O O6 0.508584 0.250000 0.450940
O O7 0.514717 0.073792 0.409657
O O8 0.517050 0.111926 0.538481
O O9 0.250000 0.959240 0.668890
O O10 0.485032 0.073939 0.664078
O O11 0.750000 0.468808 0.117033
O O12 0.520730 0.574032 0.083829
O O13 0.542241 0.394337 0.039164
O O14 0.250000 0.624768 0.051034
O O15 0.025957 0.750000 0.042121
O O16 0.250000 0.882674 0.380873
O O17 0.460658 0.750000 0.372616
#
# Coordination Sequence:
#
# PCOD8244086 Si02
#       6
#     8   8   8   8   8   8
#     4  11  24  40  57  78 107 143 180 217 261 317
#     4   8  15  29  50  76 104 135 171 212 263 320
#     4  11  21  33  53  79 107 138 174 220 268 316
#     4  10  20  35  57  85 115 146 182 223 265 310
#     4   9  18  34  57  85 117 150 182 218 262 312
#     4   9  18  34  54  74 101 138 177 218 266 320
#
# _framework density 18.951447000000002
#
# number of rings (size 3 to 8) (size 9 to 14) (size 15 to 20)
#    0.000    2.333    0.000    4.000    0.000    4.000 
#    0.000    1.667    0.000    7.000    0.000    0.000 
#    0.000    0.000    0.000    0.000    0.000    0.000 
#
# Total GULP energy -595171.180097 kJ/mol
# GULP energy per Si atom -12399.399585 kJ/mol
# Density = 1.890831 g / cm^3
# Si number density = 18.951447 Si / 1000 Ang^3
#
#
#
# Elastic Constant Matrix: (Units=GPa)
#
#
# Indices 1 2 3 4 5 6 
#
# 1 70.9096 49.9278 35.2570 0.0000 0.0000 0.0000
# 2 49.9278 125.8798 46.3977 0.0000 0.0000 0.0000
# 3 35.2570 46.3977 54.6469 0.0000 0.0000 0.0000
# 4 0.0000 0.0000 0.0000 27.0050 0.0000 0.0000
# 5 0.0000 0.0000 0.0000 0.0000 29.1586 0.0000
# 6 0.0000 0.0000 0.0000 0.0000 0.0000 28.4710
#
#
#
# Elastic Compliance Matrix: (Units=1/GPa)
#
#
# Indices 1 2 3 4 5 6 
#
# 1 0.022967 -0.005309 -0.010310 0.000000 0.000000 0.000000
# 2 -0.005309 0.012790 -0.007434 0.000000 0.000000 0.000000
# 3 -0.010310 -0.007434 0.031263 0.000000 0.000000 0.000000
# 4 0.000000 0.000000 0.000000 0.037030 0.000000 0.000000
# 5 0.000000 0.000000 0.000000 0.000000 0.034295 0.000000
# 6 0.000000 0.000000 0.000000 0.000000 0.000000 0.035124
#
#
# Mechanical properties :
#
#
# Convention : Reuss Voigt Hill
#
# Bulk Modulus (GPa) = 47.81598 57.17790 52.49694
# Shear Modulus (GPa) = 22.07061 24.91716 23.49388
#
# Velocity S-wave (km/s) = 3.41631 3.62994 3.52474
# Velocity P-wave (km/s) = 6.39117 6.91410 6.65777
#
# Compressibility (1/GPa) = 0.02091351
#
# Stress axis : x y z
#
# Youngs Moduli (GPa) = 43.54079 78.18665 31.98708
#
# Poissons Ratio (x) = 0.41512 0.32978
# Poissons Ratio (y) = 0.23117 0.23778
# Poissons Ratio (z) = 0.44890 0.58122
#
# Static dielectric constant tensor:
#      x y z
#    x 3.295250 0.000000 0.000000 
#    y 0.000000 3.622490 0.000000 
#    z 0.000000 0.000000 3.412430 
# 
# 
# High freq. dielectric constant tensor:
#      x y z
#    x 1.726300 0.000000 0.000000 
#    y 0.000000 1.748560 0.000000 
#    z 0.000000 0.000000 1.723080 
# 
# From -- ./inp_files/25473.got.cif
#   From: 2010.03.12/outbox.cif.g09.slc.cpg/sg59_13_cif.got.tgz:25473.got - 2010.04.16 16:29:54.
