data_PCOD8244119
_publ_section_title
;
Structure prediction by ZEFSAII (Michael W. Deem and Ramdas Pophale) SiO2 
 PCOD8244119
Probable space group: P M M N
;
_chemical_formula_sum "Si O2"
_cell_formula_units_Z 64
_cell_length_a 9.330646
_cell_length_b 28.785599
_cell_length_c 12.327090
_cell_angle_alpha 90.000000
_cell_angle_beta 90.000000
_cell_angle_gamma 90.000000
_cell_volume 3310.911336
_symmetry_space_group_name_H-M "P M M N"
_symmetry_group_IT_number 59
_space_group.IT_coordinate_system_code '2'
_symmetry_cell_setting 'orthorhombic'
loop_
_space_group_symop_operation_xyz
x,y,z
1/2-x,1/2-y,z
1/2+x,-y,-z
-x,1/2+y,-z
-x,-y,-z
1/2+x,1/2+y,-z
1/2-x,y,z
x,1/2-y,z
loop_
_atom_site_type_symbol
_atom_site_label
_atom_site_fract_x
_atom_site_fract_y
_atom_site_fract_z
Si Si1 0.414762 0.802073 0.797109
Si Si2 0.410970 0.486521 0.831446
Si Si3 0.079949 0.867587 0.606371
Si Si4 0.579868 0.025953 0.402427
Si Si5 0.088373 0.567600 0.005581
Si Si6 0.082986 0.155857 0.021993
Si Si7 0.580584 0.197145 0.584668
Si Si8 0.412315 0.303112 0.792770
O O1 0.250000 0.812586 0.827640
O O2 0.428241 0.750000 0.747888
O O3 0.474219 0.840433 0.712942
O O4 0.512001 0.804492 0.904162
O O5 0.250000 0.465537 0.825666
O O6 0.461553 0.501764 0.711510
O O7 0.519016 0.448432 0.880023
O O8 0.411461 0.529264 0.913052
O O9 0.250000 0.866557 0.605547
O O10 0.024911 0.920619 0.602500
O O11 0.020081 0.838443 0.504558
O O12 0.750000 0.024007 0.422507
O O13 0.500000 0.000000 0.500000
O O14 0.250000 0.584003 0.030895
O O15 0.995046 0.607837 0.951591
O O16 0.250000 0.152440 0.049167
O O17 0.053511 0.166417 0.896996
O O18 0.750000 0.194620 0.592906
O O19 0.530895 0.250000 0.558041
O O20 0.516463 0.179951 0.698094
O O21 0.250000 0.310271 0.753026
O O22 0.441365 0.250000 0.824522
#
# Coordination Sequence:
#
# PCOD8244119 Si02
#       8
#     8   8   8   8   8   8   8   8
#     4  10  20  35  58  85 111 142 182 225 269 325
#     4   9  19  37  57  78 107 140 174 218 274 328
#     4   9  18  35  57  80 108 141 175 218 276 330
#     4  10  21  37  56  77 107 145 183 225 274 330
#     4  10  20  35  58  83 105 135 178 224 267 318
#     4  11  22  35  52  77 112 147 178 216 266 321
#     4   9  17  31  54  81 105 132 173 223 270 321
#     4   9  19  35  51  68  98 140 176 208 254 309
#
# _framework density 19.330026
#
# number of rings (size 3 to 8) (size 9 to 14) (size 15 to 20)
#    0.000    2.375    0.000    2.250    0.000    7.250 
#    0.000    6.875    0.000    1.500    0.000    0.000 
#    0.000    0.000    0.000    0.000    0.000    0.000 
#
# Total GULP energy -793550.657283 kJ/mol
# GULP energy per Si atom -12399.229020 kJ/mol
# Density = 1.928603 g / cm^3
# Si number density = 19.330026 Si / 1000 Ang^3
#
#
#
# Elastic Constant Matrix: (Units=GPa)
#
#
# Indices 1 2 3 4 5 6 
#
# 1 72.0172 37.1758 49.6763 0.0000 0.0000 0.0000
# 2 37.1758 87.9883 42.3672 0.0000 0.0000 0.0000
# 3 49.6763 42.3672 109.0687 0.0000 0.0000 0.0000
# 4 0.0000 0.0000 0.0000 27.7897 0.0000 0.0000
# 5 0.0000 0.0000 0.0000 0.0000 20.7063 0.0000
# 6 0.0000 0.0000 0.0000 0.0000 0.0000 25.2593
#
#
#
# Elastic Compliance Matrix: (Units=1/GPa)
#
#
# Indices 1 2 3 4 5 6 
#
# 1 0.022260 -0.005564 -0.007977 0.000000 0.000000 0.000000
# 2 -0.005564 0.015371 -0.003436 0.000000 0.000000 0.000000
# 3 -0.007977 -0.003436 0.014137 0.000000 0.000000 0.000000
# 4 0.000000 0.000000 0.000000 0.035985 0.000000 0.000000
# 5 0.000000 0.000000 0.000000 0.000000 0.048294 0.000000
# 6 0.000000 0.000000 0.000000 0.000000 0.000000 0.039589
#
#
# Mechanical properties :
#
#
# Convention : Reuss Voigt Hill
#
# Bulk Modulus (GPa) = 56.14158 58.61253 57.37705
# Shear Modulus (GPa) = 23.19869 24.07473 23.63671
#
# Velocity S-wave (km/s) = 3.46806 3.53293 3.50065
# Velocity P-wave (km/s) = 6.71888 6.85784 6.78872
#
# Compressibility (1/GPa) = 0.01781211
#
# Stress axis : x y z
#
# Youngs Moduli (GPa) = 44.92274 65.05888 70.73743
#
# Poissons Ratio (x) = 0.36199 0.56430
# Poissons Ratio (y) = 0.24995 0.24309
# Poissons Ratio (z) = 0.35837 0.22357
#
# Static dielectric constant tensor:
#      x y z
#    x 3.432760 0.000000 0.000000 
#    y 0.000000 3.608480 0.000000 
#    z 0.000000 0.000000 3.549700 
# 
# 
# High freq. dielectric constant tensor:
#      x y z
#    x 1.735060 0.000000 0.000000 
#    y 0.000000 1.753830 0.000000 
#    z 0.000000 0.000000 1.755080 
# 
# From -- ./inp_files/15049.got.cif
#   From: 2010.03.12/outbox.cif.g09.slc.cpg/sg59_8_cif.got.tgz:15049.got - 2010.04.16 16:29:54.
