data_PCOD8244931
_publ_section_title
;
Structure prediction by ZEFSAII (Michael W. Deem and Ramdas Pophale) SiO2 
 PCOD8244931
Probable space group: P M M N
;
_chemical_formula_sum "Si O2"
_cell_formula_units_Z 48
_cell_length_a 9.219988
_cell_length_b 9.246520
_cell_length_c 30.882391
_cell_angle_alpha 90.000000
_cell_angle_beta 90.000000
_cell_angle_gamma 90.000000
_cell_volume 2632.810410
_symmetry_space_group_name_H-M "P M M N"
_symmetry_group_IT_number 59
_space_group.IT_coordinate_system_code '2'
_symmetry_cell_setting 'orthorhombic'
loop_
_space_group_symop_operation_xyz
x,y,z
1/2-x,1/2-y,z
1/2+x,-y,-z
-x,1/2+y,-z
-x,-y,-z
1/2+x,1/2+y,-z
1/2-x,y,z
x,1/2-y,z
loop_
_atom_site_type_symbol
_atom_site_label
_atom_site_fract_x
_atom_site_fract_y
_atom_site_fract_z
Si Si1 0.582423 0.081685 0.124035
Si Si2 0.419165 0.416107 0.376814
Si Si3 0.919592 0.082963 0.291131
Si Si4 0.579403 0.082913 0.537979
Si Si5 0.422551 0.086817 0.792043
Si Si6 0.417427 0.419797 0.037886
O O1 0.750000 0.044429 0.114233
O O2 0.562790 0.250000 0.134514
O O3 0.488055 0.032563 0.083149
O O4 0.521381 0.994369 0.165151
O O5 0.250000 0.434746 0.367799
O O6 0.459275 0.250000 0.387342
O O7 0.502107 0.471967 0.334410
O O8 0.471009 0.513931 0.416717
O O9 0.750000 0.056213 0.297536
O O10 0.954911 0.250000 0.282011
O O11 0.982287 0.992795 0.250695
O O12 0.750000 0.062946 0.531356
O O13 0.533206 0.250000 0.537527
O O14 0.500000 0.000000 0.500000
O O15 0.250000 0.081635 0.791487
O O16 0.481794 0.250000 0.792491
O O17 0.250000 0.466596 0.037991
O O18 0.436226 0.250000 0.030468
O O19 0.500000 0.500000 0.000000
#
# Coordination Sequence:
#
# PCOD8244931 Si02
#       6
#     8   8   8   8   8   8
#     4   9  17  31  51  72  96 129 166 202 244 295
#     4   9  18  33  51  71  98 131 164 200 246 298
#     4   9  17  30  49  72  97 127 164 203 242 289
#     4  10  21  36  54  76 102 133 169 209 254 304
#     4   9  17  29  47  72  99 126 160 203 247 290
#     4  10  21  36  54  77 104 134 169 209 253 302
#
# _framework density 18.231469000000001
#
# number of rings (size 3 to 8) (size 9 to 14) (size 15 to 20)
#    0.000    2.667    0.000    1.500    0.000    6.000 
#    0.000    4.167    0.000    5.000    0.000    0.000 
#    0.000    0.000    0.000    0.000    0.000    0.000 
#
# Total GULP energy -595306.436144 kJ/mol
# GULP energy per Si atom -12402.217420 kJ/mol
# Density = 1.818997 g / cm^3
# Si number density = 18.231469 Si / 1000 Ang^3
#
#
#
# Elastic Constant Matrix: (Units=GPa)
#
#
# Indices 1 2 3 4 5 6 
#
# 1 59.2943 41.7897 69.6401 0.0000 0.0000 0.0000
# 2 41.7897 104.3461 99.2692 0.0000 0.0000 0.0000
# 3 69.6401 99.2692 205.3789 0.0000 0.0000 0.0000
# 4 0.0000 0.0000 0.0000 39.7932 0.0000 0.0000
# 5 0.0000 0.0000 0.0000 0.0000 33.5636 0.0000
# 6 0.0000 0.0000 0.0000 0.0000 0.0000 20.2564
#
#
#
# Elastic Compliance Matrix: (Units=1/GPa)
#
#
# Indices 1 2 3 4 5 6 
#
# 1 0.028979 -0.004180 -0.007806 0.000000 0.000000 0.000000
# 2 -0.004180 0.018344 -0.007450 0.000000 0.000000 0.000000
# 3 -0.007806 -0.007450 0.011117 0.000000 0.000000 0.000000
# 4 0.000000 0.000000 0.000000 0.025130 0.000000 0.000000
# 5 0.000000 0.000000 0.000000 0.000000 0.029794 0.000000
# 6 0.000000 0.000000 0.000000 0.000000 0.000000 0.049367
#
#
# Mechanical properties :
#
#
# Convention : Reuss Voigt Hill
#
# Bulk Modulus (GPa) = 51.09950 87.82412 69.46181
# Shear Modulus (GPa) = 24.02413 29.27732 26.65073
#
# Velocity S-wave (km/s) = 3.63399 4.01167 3.82749
# Velocity P-wave (km/s) = 6.75995 8.35071 7.59708
#
# Compressibility (1/GPa) = 0.01956966
#
# Stress axis : x y z
#
# Youngs Moduli (GPa) = 34.50820 54.51248 89.95567
#
# Poissons Ratio (x) = 0.22784 0.70219
# Poissons Ratio (y) = 0.14423 0.67013
# Poissons Ratio (z) = 0.26937 0.40609
#
# Static dielectric constant tensor:
#      x y z
#    x 3.173660 0.000000 0.000000 
#    y 0.000000 3.512170 0.000000 
#    z 0.000000 0.000000 3.558140 
# 
# 
# High freq. dielectric constant tensor:
#      x y z
#    x 1.682850 0.000000 0.000000 
#    y 0.000000 1.705210 0.000000 
#    z 0.000000 0.000000 1.720900 
# 
# From -- ./inp_files/32792.got.cif
#   From: 2010.03.12/outbox.cif.g09.slc.cpg/sg59_17_cif.got.tgz:32792.got - 2010.04.16 16:29:54.
