data_PCOD8244742
_publ_section_title
;
Structure prediction by ZEFSAII (Michael W. Deem and Ramdas Pophale) SiO2 
 PCOD8244742
Probable space group: P M M N
;
_chemical_formula_sum "Si O2"
_cell_formula_units_Z 64
_cell_length_a 8.837985
_cell_length_b 22.876107
_cell_length_c 18.786466
_cell_angle_alpha 90.000000
_cell_angle_beta 90.000000
_cell_angle_gamma 90.000000
_cell_volume 3798.223095
_symmetry_space_group_name_H-M "P M M N"
_symmetry_group_IT_number 59
_space_group.IT_coordinate_system_code '2'
_symmetry_cell_setting 'orthorhombic'
loop_
_space_group_symop_operation_xyz
x,y,z
1/2-x,1/2-y,z
1/2+x,-y,-z
-x,1/2+y,-z
-x,-y,-z
1/2+x,1/2+y,-z
1/2-x,y,z
x,1/2-y,z
loop_
_atom_site_type_symbol
_atom_site_label
_atom_site_fract_x
_atom_site_fract_y
_atom_site_fract_z
Si Si1 0.075310 0.004941 0.424093
Si Si2 0.571470 0.317096 0.562761
Si Si3 0.428882 0.095369 0.666982
Si Si4 0.928619 0.078470 0.190662
Si Si5 0.578117 0.517189 0.927497
Si Si6 0.576973 0.861868 0.578349
Si Si7 0.576190 0.184460 0.286083
Si Si8 0.577534 0.464655 0.784889
O O1 0.250000 0.985515 0.428779
O O2 0.059019 0.071260 0.397231
O O3 0.000000 0.000000 0.500000
O O4 0.986898 0.962986 0.371075
O O5 0.750000 0.322674 0.569792
O O6 0.518667 0.250000 0.559716
O O7 0.496316 0.346535 0.631765
O O8 0.520076 0.350391 0.492045
O O9 0.250000 0.099184 0.663852
O O10 0.486879 0.089265 0.748886
O O11 0.750000 0.070540 0.188033
O O12 0.977508 0.140469 0.224083
O O13 0.994826 0.072766 0.109920
O O14 0.001197 0.026564 0.238727
O O15 0.750000 0.535023 0.943431
O O16 0.570086 0.462172 0.871625
O O17 0.500000 0.500000 0.000000
O O18 0.750000 0.846347 0.560423
O O19 0.520876 0.821702 0.642578
O O20 0.750000 0.171769 0.306465
O O21 0.554538 0.250000 0.256514
O O22 0.750000 0.463960 0.757267
#
# Coordination Sequence:
#
# PCOD8244742 Si02
#       8
#     8   8   8   8   8   8   8   8
#     4  11  22  35  52  74 100 130 167 212 264 319
#     4  11  24  40  56  71  93 130 174 220 267 315
#     4  12  23  35  53  76 101 131 167 210 259 309
#     4   9  17  31  51  75 105 138 173 213 256 303
#     4   9  18  31  52  79 111 140 166 199 244 300
#     4  11  23  36  52  74  99 130 171 221 270 314
#     4  10  21  35  50  70  99 140 184 220 257 306
#     4   9  19  33  51  76 106 136 164 203 251 304
#
# _framework density 16.849985
#
# number of rings (size 3 to 8) (size 9 to 14) (size 15 to 20)
#    0.750    1.000    1.250    4.125    0.000    7.250 
#    0.000    0.000    0.000    0.000    0.000    0.875 
#    0.000    3.000    0.000    0.000    0.000    0.000 
#
# Total GULP energy -793335.404035 kJ/mol
# GULP energy per Si atom -12395.865688 kJ/mol
# Density = 1.681163 g / cm^3
# Si number density = 16.849985 Si / 1000 Ang^3
#
#
#
# Elastic Constant Matrix: (Units=GPa)
#
#
# Indices 1 2 3 4 5 6 
#
# 1 108.2513 32.8468 36.2824 0.0000 0.0000 0.0000
# 2 32.8468 64.7563 28.0010 0.0000 0.0000 0.0000
# 3 36.2824 28.0010 85.6949 0.0000 0.0000 0.0000
# 4 0.0000 0.0000 0.0000 16.3696 0.0000 0.0000
# 5 0.0000 0.0000 0.0000 0.0000 29.0883 0.0000
# 6 0.0000 0.0000 0.0000 0.0000 0.0000 24.0445
#
#
#
# Elastic Compliance Matrix: (Units=1/GPa)
#
#
# Indices 1 2 3 4 5 6 
#
# 1 0.011769 -0.004443 -0.003531 0.000000 0.000000 0.000000
# 2 -0.004443 0.019661 -0.004543 0.000000 0.000000 0.000000
# 3 -0.003531 -0.004543 0.014649 0.000000 0.000000 0.000000
# 4 0.000000 0.000000 0.000000 0.061089 0.000000 0.000000
# 5 0.000000 0.000000 0.000000 0.000000 0.034378 0.000000
# 6 0.000000 0.000000 0.000000 0.000000 0.000000 0.041590
#
#
# Mechanical properties :
#
#
# Convention : Reuss Voigt Hill
#
# Bulk Modulus (GPa) = 47.51882 50.32922 48.92402
# Shear Modulus (GPa) = 23.23585 24.67197 23.95391
#
# Velocity S-wave (km/s) = 3.71750 3.83066 3.77450
# Velocity P-wave (km/s) = 6.83291 7.03556 6.93498
#
# Compressibility (1/GPa) = 0.02104429
#
# Stress axis : x y z
#
# Youngs Moduli (GPa) = 84.96552 50.86326 68.26459
#
# Poissons Ratio (x) = 0.22598 0.24107
# Poissons Ratio (y) = 0.37750 0.31013
# Poissons Ratio (z) = 0.30004 0.23107
#
# Static dielectric constant tensor:
#      x y z
#    x 3.338500 0.000000 0.000000 
#    y 0.000000 3.106770 0.000000 
#    z 0.000000 0.000000 3.038640 
# 
# 
# High freq. dielectric constant tensor:
#      x y z
#    x 1.669020 0.000000 0.000000 
#    y 0.000000 1.626990 0.000000 
#    z 0.000000 0.000000 1.631470 
# 
# From -- ./inp_files/29788.got.cif
#   From: 2010.03.12/outbox.cif.g09.slc.cpg/sg59_15_cif.got.tgz:29788.got - 2010.04.16 16:29:54.
