data_PCOD8244000
_publ_section_title
;
Structure prediction by ZEFSAII (Michael W. Deem and Ramdas Pophale) SiO2 
 PCOD8244000
Probable space group: P M M N
;
_chemical_formula_sum "Si O2"
_cell_formula_units_Z 40
_cell_length_a 8.634027
_cell_length_b 14.857171
_cell_length_c 14.362106
_cell_angle_alpha 90.000000
_cell_angle_beta 90.000000
_cell_angle_gamma 90.000000
_cell_volume 1842.330967
_symmetry_space_group_name_H-M "P M M N"
_symmetry_group_IT_number 59
_space_group.IT_coordinate_system_code '2'
_symmetry_cell_setting 'orthorhombic'
loop_
_space_group_symop_operation_xyz
x,y,z
1/2-x,1/2-y,z
1/2+x,-y,-z
-x,1/2+y,-z
-x,-y,-z
1/2+x,1/2+y,-z
1/2-x,y,z
x,1/2-y,z
loop_
_atom_site_type_symbol
_atom_site_label
_atom_site_fract_x
_atom_site_fract_y
_atom_site_fract_z
Si Si1 0.933518 0.145288 0.747754
Si Si2 0.073189 0.356315 0.285840
Si Si3 0.568699 0.991313 0.398320
Si Si4 0.067109 0.084912 0.941347
Si Si5 0.583032 0.151799 0.104676
O O1 0.750000 0.140029 0.754135
O O2 0.988194 0.250000 0.742505
O O3 0.004077 0.095123 0.837462
O O4 0.989762 0.091498 0.656766
O O5 0.250000 0.384188 0.304043
O O6 0.049599 0.250000 0.301764
O O7 0.961851 0.411236 0.353454
O O8 0.029773 0.391388 0.181771
O O9 0.750000 0.971751 0.402464
O O10 0.500000 0.000000 0.500000
O O11 0.250000 0.085450 0.937730
O O12 0.001769 0.164871 0.005409
O O13 0.000000 0.000000 0.000000
O O14 0.750000 0.098913 0.098006
O O15 0.621888 0.250000 0.142054
#
# Coordination Sequence:
#
# PCOD8244000 Si02
#       5
#     8   8   8   8   8
#     4  11  25  46  70  97 133 176 223 277 337 401
#     4  10  21  39  64  94 128 165 208 261 321 386
#     4  12  26  45  69  95 126 164 211 268 329 396
#     4  12  24  38  59  88 126 170 216 263 313 375
#     4  10  20  35  56  84 119 157 197 242 295 357
#
# _framework density 21.711625000000002
#
# number of rings (size 3 to 8) (size 9 to 14) (size 15 to 20)
#    0.000    1.000    0.000    7.200    0.000    7.200 
#    0.000    0.000    0.000    0.000    0.000    0.000 
#    0.000    0.000    0.000    0.000    0.000    0.000 
#
# Total GULP energy -495641.650187 kJ/mol
# GULP energy per Si atom -12391.041255 kJ/mol
# Density = 2.166221 g / cm^3
# Si number density = 21.711625 Si / 1000 Ang^3
#
#
#
# Elastic Constant Matrix: (Units=GPa)
#
#
# Indices 1 2 3 4 5 6 
#
# 1 155.4084 44.4117 53.1396 0.0000 0.0000 0.0000
# 2 44.4117 107.8327 48.8072 0.0000 0.0000 0.0000
# 3 53.1396 48.8072 162.9564 0.0000 0.0000 0.0000
# 4 0.0000 0.0000 0.0000 27.7893 0.0000 0.0000
# 5 0.0000 0.0000 0.0000 0.0000 43.4394 0.0000
# 6 0.0000 0.0000 0.0000 0.0000 0.0000 29.6059
#
#
#
# Elastic Compliance Matrix: (Units=1/GPa)
#
#
# Indices 1 2 3 4 5 6 
#
# 1 0.007730 -0.002363 -0.001813 0.000000 0.000000 0.000000
# 2 -0.002363 0.011450 -0.002659 0.000000 0.000000 0.000000
# 3 -0.001813 -0.002659 0.007524 0.000000 0.000000 0.000000
# 4 0.000000 0.000000 0.000000 0.035985 0.000000 0.000000
# 5 0.000000 0.000000 0.000000 0.000000 0.023021 0.000000
# 6 0.000000 0.000000 0.000000 0.000000 0.000000 0.033777
#
#
# Mechanical properties :
#
#
# Convention : Reuss Voigt Hill
#
# Bulk Modulus (GPa) = 76.71885 79.87939 78.29912
# Shear Modulus (GPa) = 36.36320 38.82287 37.59303
#
# Velocity S-wave (km/s) = 4.09690 4.23320 4.16561
# Velocity P-wave (km/s) = 7.60208 7.79514 7.69921
#
# Compressibility (1/GPa) = 0.01303461
#
# Stress axis : x y z
#
# Youngs Moduli (GPa) = 129.36856 87.33364 132.90485
#
# Poissons Ratio (x) = 0.20637 0.24095
# Poissons Ratio (y) = 0.30570 0.35338
# Poissons Ratio (z) = 0.23454 0.23221
#
# Static dielectric constant tensor:
#      x y z
#    x 4.032280 0.000000 0.000000 
#    y 0.000000 5.192710 0.000000 
#    z 0.000000 0.000000 4.320280 
# 
# 
# High freq. dielectric constant tensor:
#      x y z
#    x 1.871370 0.000000 0.000000 
#    y 0.000000 1.866210 0.000000 
#    z 0.000000 0.000000 1.852050 
# 
# From -- ./inp_files/19887.got.cif
#   From: 2010.03.12/outbox.cif.g09.slc.cpg/sg59_10_cif.got.tgz:19887.got - 2010.04.16 16:29:54.
