data_PCOD8244350
_publ_section_title
;
Structure prediction by ZEFSAII (Michael W. Deem and Ramdas Pophale) SiO2 
 PCOD8244350
Probable space group: P M M N
;
_chemical_formula_sum "Si O2"
_cell_formula_units_Z 56
_cell_length_a 9.101201
_cell_length_b 16.764540
_cell_length_c 19.049798
_cell_angle_alpha 90.000000
_cell_angle_beta 90.000000
_cell_angle_gamma 90.000000
_cell_volume 2906.569568
_symmetry_space_group_name_H-M "P M M N"
_symmetry_group_IT_number 59
_space_group.IT_coordinate_system_code '2'
_symmetry_cell_setting 'orthorhombic'
loop_
_space_group_symop_operation_xyz
x,y,z
1/2-x,1/2-y,z
1/2+x,-y,-z
-x,1/2+y,-z
-x,-y,-z
1/2+x,1/2+y,-z
1/2-x,y,z
x,1/2-y,z
loop_
_atom_site_type_symbol
_atom_site_label
_atom_site_fract_x
_atom_site_fract_y
_atom_site_fract_z
Si Si1 0.076728 0.159242 0.025220
Si Si2 0.578991 0.887382 0.129280
Si Si3 0.579418 0.430258 0.149524
Si Si4 0.420287 0.657178 0.709492
Si Si5 0.081026 0.750000 0.209391
Si Si6 0.080276 0.096449 0.567913
Si Si7 0.580030 0.250000 0.625567
Si Si8 0.919497 0.561386 0.593867
O O1 0.250000 0.154085 0.033358
O O2 0.021063 0.250000 0.031823
O O3 0.006868 0.106194 0.085035
O O4 0.025452 0.124335 0.950523
O O5 0.750000 0.865913 0.135411
O O6 0.491829 0.829419 0.180000
O O7 0.544434 0.976381 0.154556
O O8 0.750000 0.413773 0.136036
O O9 0.526805 0.389738 0.221473
O O10 0.250000 0.639776 0.692891
O O11 0.449257 0.750000 0.722710
O O12 0.517528 0.629360 0.644262
O O13 0.250000 0.750000 0.187396
O O14 0.058422 0.750000 0.291900
O O15 0.250000 0.100998 0.590230
O O16 0.060950 0.092806 0.484647
O O17 0.996124 0.173280 0.593667
O O18 0.009861 0.019698 0.605441
O O19 0.750000 0.250000 0.603613
O O20 0.750000 0.544647 0.611681
#
# Coordination Sequence:
#
# PCOD8244350 Si02
#       8
#     8   8   8   8   4   8   4   8
#     4  10  20  36  58  85 120 157 196 243 296 353
#     4  10  21  40  62  85 118 158 198 242 297 356
#     4  10  22  38  60  88 117 154 202 248 293 351
#     4  10  22  39  58  86 122 159 202 250 299 356
#     4  11  25  41  59  89 122 153 196 245 297 354
#     4  10  22  41  64  91 121 160 204 243 300 367
#     4  11  25  41  61  93 130 159 198 251 301 350
#     4  10  22  40  63  90 122 155 201 256 301 357
#
# _framework density 19.266698999999999
#
# number of rings (size 3 to 8) (size 9 to 14) (size 15 to 20)
#    0.000    1.857    0.714    2.143    3.000    5.714 
#    0.000    0.000    0.000    0.000    0.000    0.000 
#    0.000    0.000    0.000    0.000    0.000    0.000 
#
# Total GULP energy -694721.170397 kJ/mol
# GULP energy per Si atom -12405.735186 kJ/mol
# Density = 1.922285 g / cm^3
# Si number density = 19.266699 Si / 1000 Ang^3
#
#
#
# Elastic Constant Matrix: (Units=GPa)
#
#
# Indices 1 2 3 4 5 6 
#
# 1 103.9382 69.0852 58.0486 0.0000 0.0000 0.0000
# 2 69.0852 140.2005 62.4324 0.0000 0.0000 0.0000
# 3 58.0486 62.4324 76.6514 0.0000 0.0000 0.0000
# 4 0.0000 0.0000 0.0000 33.4243 0.0000 0.0000
# 5 0.0000 0.0000 0.0000 0.0000 30.6549 0.0000
# 6 0.0000 0.0000 0.0000 0.0000 0.0000 33.0274
#
#
#
# Elastic Compliance Matrix: (Units=1/GPa)
#
#
# Indices 1 2 3 4 5 6 
#
# 1 0.018296 -0.004465 -0.010219 0.000000 0.000000 0.000000
# 2 -0.004465 0.012282 -0.006622 0.000000 0.000000 0.000000
# 3 -0.010219 -0.006622 0.026179 0.000000 0.000000 0.000000
# 4 0.000000 0.000000 0.000000 0.029918 0.000000 0.000000
# 5 0.000000 0.000000 0.000000 0.000000 0.032621 0.000000
# 6 0.000000 0.000000 0.000000 0.000000 0.000000 0.030278
#
#
# Mechanical properties :
#
#
# Convention : Reuss Voigt Hill
#
# Bulk Modulus (GPa) = 70.69980 77.76919 74.23449
# Shear Modulus (GPa) = 25.39351 28.16958 26.78155
#
# Velocity S-wave (km/s) = 3.63437 3.82787 3.73237
# Velocity P-wave (km/s) = 7.37472 7.74526 7.56226
#
# Compressibility (1/GPa) = 0.01414431
#
# Stress axis : x y z
#
# Youngs Moduli (GPa) = 54.65634 81.42234 38.19907
#
# Poissons Ratio (x) = 0.36355 0.39036
# Poissons Ratio (y) = 0.24404 0.25295
# Poissons Ratio (z) = 0.55854 0.53918
#
# Static dielectric constant tensor:
#      x y z
#    x 3.560920 0.000000 0.000000 
#    y 0.000000 3.732930 0.000000 
#    z 0.000000 0.000000 3.557450 
# 
# 
# High freq. dielectric constant tensor:
#      x y z
#    x 1.750480 0.000000 0.000000 
#    y 0.000000 1.765060 0.000000 
#    z 0.000000 0.000000 1.756490 
# 
# From -- ./inp_files/29207.got.cif
#   From: 2010.03.12/outbox.cif.g09.slc.cpg/sg59_15_cif.got.tgz:29207.got - 2010.04.16 16:29:54.
