data_PCOD8244566
_publ_section_title
;
Structure prediction by ZEFSAII (Michael W. Deem and Ramdas Pophale) SiO2 
 PCOD8244566
Probable space group: P M M N
;
_chemical_formula_sum "Si O2"
_cell_formula_units_Z 40
_cell_length_a 15.495839
_cell_length_b 7.995725
_cell_length_c 16.174441
_cell_angle_alpha 90.000000
_cell_angle_beta 90.000000
_cell_angle_gamma 90.000000
_cell_volume 2004.020798
_symmetry_space_group_name_H-M "P M M N"
_symmetry_group_IT_number 59
_space_group.IT_coordinate_system_code '2'
_symmetry_cell_setting 'orthorhombic'
loop_
_space_group_symop_operation_xyz
x,y,z
1/2-x,1/2-y,z
1/2+x,-y,-z
-x,1/2+y,-z
-x,-y,-z
1/2+x,1/2+y,-z
1/2-x,y,z
x,1/2-y,z
loop_
_atom_site_type_symbol
_atom_site_label
_atom_site_fract_x
_atom_site_fract_y
_atom_site_fract_z
Si Si1 0.905565 0.935581 0.679263
Si Si2 0.592163 0.055461 0.299905
Si Si3 0.250000 0.438118 0.598035
Si Si4 0.853095 0.750000 0.012985
Si Si5 0.250000 0.564945 0.421791
Si Si6 0.851833 0.750000 0.827716
Si Si7 0.147830 0.560244 0.879425
O O1 0.903505 0.750000 0.637696
O O2 0.883257 0.915332 0.777446
O O3 0.000029 0.023054 0.671638
O O4 0.834788 0.046630 0.634065
O O5 0.574599 0.250000 0.290045
O O6 0.621448 0.989354 0.210630
O O7 0.664057 0.025595 0.368791
O O8 0.250000 0.250000 0.630458
O O9 0.250000 0.439793 0.498898
O O10 0.750000 0.750000 0.014188
O O11 0.887189 0.578635 0.055995
O O12 0.890720 0.750000 0.919863
O O13 0.250000 0.750000 0.459456
O O14 0.750000 0.750000 0.831867
O O15 0.250000 0.569044 0.882563
O O16 0.111821 0.750000 0.897339
#
# Coordination Sequence:
#
# PCOD8244566 Si02
#       7
#     8   8   4   4   4   4   8
#     4   9  19  39  66  82 114 159 201 238 304 354
#     4  10  20  37  61  89 119 160 197 244 301 359
#     4  12  26  38  62  90 121 154 194 239 304 373
#     4   9  18  30  56  86 117 160 207 253 298 361
#     4  12  24  42  62  88 119 150 198 255 298 349
#     4   9  16  36  66  83 111 158 207 244 298 358
#     4   9  17  31  53  82 123 162 199 250 303 355
#
# _framework density 19.959872000000001
#
# number of rings (size 3 to 8) (size 9 to 14) (size 15 to 20)
#    0.600    1.600    2.000    1.800    1.400    1.600 
#    0.000    2.000    0.000    0.000    0.000    0.000 
#    0.000    0.000    0.000    0.000    0.000    0.000 
#
# Total GULP energy -495690.357730 kJ/mol
# GULP energy per Si atom -12392.258943 kJ/mol
# Density = 1.991444 g / cm^3
# Si number density = 19.959872 Si / 1000 Ang^3
#
#
#
# Elastic Constant Matrix: (Units=GPa)
#
#
# Indices 1 2 3 4 5 6 
#
# 1 109.6409 24.1777 49.6532 0.0000 0.0000 0.0000
# 2 24.1777 65.7952 28.1164 0.0000 0.0000 0.0000
# 3 49.6532 28.1164 134.0582 0.0000 0.0000 0.0000
# 4 0.0000 0.0000 0.0000 26.6274 0.0000 0.0000
# 5 0.0000 0.0000 0.0000 0.0000 -5.8639 0.0000
# 6 0.0000 0.0000 0.0000 0.0000 0.0000 1.7342
#
#
#
# Elastic Compliance Matrix: (Units=1/GPa)
#
#
# Indices 1 2 3 4 5 6 
#
# 1 0.011352 -0.002609 -0.003658 0.000000 0.000000 0.000000
# 2 -0.002609 0.017294 -0.002661 0.000000 0.000000 0.000000
# 3 -0.003658 -0.002661 0.009372 0.000000 0.000000 0.000000
# 4 0.000000 0.000000 0.000000 0.037555 0.000000 0.000000
# 5 0.000000 0.000000 0.000000 0.000000 -0.170534 0.000000
# 6 0.000000 0.000000 0.000000 0.000000 0.000000 0.576639
#
#
# Mechanical properties :
#
#
# Convention : Reuss Voigt Hill
#
# Bulk Modulus (GPa) = 49.59204 57.04320 53.31762
# Shear Modulus (GPa) = 9.87645 18.33601 14.10623
#
# Velocity S-wave (km/s) = 2.22686 3.03420 2.66132
# Velocity P-wave (km/s) = 5.61353 6.39657 6.01780
#
# Compressibility (1/GPa) = 0.02016453
#
# Stress axis : x y z
#
# Youngs Moduli (GPa) = 88.08737 57.82217 106.69754
#
# Poissons Ratio (x) = 0.15084 0.39026
# Poissons Ratio (y) = 0.22979 0.28392
# Poissons Ratio (z) = 0.32219 0.15387
#
# Static dielectric constant tensor:
#      x y z
#    x 3.658990 0.000000 0.000000 
#    y 0.000000 3.524150 0.000000 
#    z 0.000000 0.000000 3.560490 
# 
# 
# High freq. dielectric constant tensor:
#      x y z
#    x 1.777000 0.000000 0.000000 
#    y 0.000000 1.756840 0.000000 
#    z 0.000000 0.000000 1.768720 
# 
# From -- ./inp_files/23054.got.cif
#   From: 2010.03.12/outbox.cif.g09.slc.cpg/sg59_12_cif.got.tgz:23054.got - 2010.04.16 16:29:54.
