data_PCOD8244026
_publ_section_title
;
Structure prediction by ZEFSAII (Michael W. Deem and Ramdas Pophale) SiO2 
 PCOD8244026
Probable space group: P M M N
;
_chemical_formula_sum "Si O2"
_cell_formula_units_Z 48
_cell_length_a 9.199471
_cell_length_b 17.900302
_cell_length_c 16.342192
_cell_angle_alpha 90.000000
_cell_angle_beta 90.000000
_cell_angle_gamma 90.000000
_cell_volume 2691.122835
_symmetry_space_group_name_H-M "P M M N"
_symmetry_group_IT_number 59
_space_group.IT_coordinate_system_code '2'
_symmetry_cell_setting 'orthorhombic'
loop_
_space_group_symop_operation_xyz
x,y,z
1/2-x,1/2-y,z
1/2+x,-y,-z
-x,1/2+y,-z
-x,-y,-z
1/2+x,1/2+y,-z
1/2-x,y,z
x,1/2-y,z
loop_
_atom_site_type_symbol
_atom_site_label
_atom_site_fract_x
_atom_site_fract_y
_atom_site_fract_z
Si Si1 0.583967 0.953356 0.729389
Si Si2 0.579129 0.078666 0.997651
Si Si3 0.922318 0.980915 0.416344
Si Si4 0.081030 0.167617 0.671077
Si Si5 0.585142 0.393891 0.815755
Si Si6 0.582642 0.836587 0.862431
O O1 0.750000 0.953634 0.697215
O O2 0.546412 0.877114 0.776706
O O3 0.476709 0.960936 0.652283
O O4 0.556666 0.019701 0.793757
O O5 0.750000 0.064972 0.010033
O O6 0.546686 0.117878 0.910657
O O7 0.520678 0.134083 0.066335
O O8 0.500000 0.000000 0.000000
O O9 0.750000 0.987978 0.426540
O O10 0.972659 0.896880 0.390962
O O11 0.000000 0.000000 0.500000
O O12 0.250000 0.157331 0.685605
O O13 0.044114 0.250000 0.634979
O O14 0.011064 0.160263 0.760421
O O15 0.750000 0.371521 0.797514
O O16 0.750000 0.852207 0.887071
O O17 0.551109 0.750000 0.848211
#
# Coordination Sequence:
#
# PCOD8244026 Si02
#       6
#     8   8   8   8   8   8
#     4   9  17  34  55  75 102 136 174 216 260 314
#     4  11  21  34  53  77 108 145 188 232 273 319
#     4  10  20  35  57  83 106 135 173 214 260 317
#     4   9  19  35  54  78 107 136 170 214 262 314
#     4   9  18  32  51  75 102 136 176 216 260 314
#     4  10  21  37  55  77 108 146 186 227 274 324
#
# _framework density 17.836421999999999
#
# number of rings (size 3 to 8) (size 9 to 14) (size 15 to 20)
#    0.000    2.333    1.667    1.000    0.000    4.000 
#    0.000    4.167    0.000    5.000    0.000    0.000 
#    0.000    0.000    0.000    0.000    0.000    0.000 
#
# Total GULP energy -595214.030909 kJ/mol
# GULP energy per Si atom -12400.292311 kJ/mol
# Density = 1.779583 g / cm^3
# Si number density = 17.836422 Si / 1000 Ang^3
#
#
#
# Elastic Constant Matrix: (Units=GPa)
#
#
# Indices 1 2 3 4 5 6 
#
# 1 77.1149 48.1398 64.6792 0.0000 0.0000 0.0000
# 2 48.1398 110.7451 63.7913 0.0000 0.0000 0.0000
# 3 64.6792 63.7913 132.4190 0.0000 0.0000 0.0000
# 4 0.0000 0.0000 0.0000 20.7491 0.0000 0.0000
# 5 0.0000 0.0000 0.0000 0.0000 35.9913 0.0000
# 6 0.0000 0.0000 0.0000 0.0000 0.0000 25.0569
#
#
#
# Elastic Compliance Matrix: (Units=1/GPa)
#
#
# Indices 1 2 3 4 5 6 
#
# 1 0.023856 -0.005063 -0.009213 0.000000 0.000000 0.000000
# 2 -0.005063 0.013572 -0.004065 0.000000 0.000000 0.000000
# 3 -0.009213 -0.004065 0.014010 0.000000 0.000000 0.000000
# 4 0.000000 0.000000 0.000000 0.048195 0.000000 0.000000
# 5 0.000000 0.000000 0.000000 0.000000 0.027784 0.000000
# 6 0.000000 0.000000 0.000000 0.000000 0.000000 0.039909
#
#
# Mechanical properties :
#
#
# Convention : Reuss Voigt Hill
#
# Bulk Modulus (GPa) = 67.77143 74.83327 71.30235
# Shear Modulus (GPa) = 23.93171 25.93738 24.93455
#
# Velocity S-wave (km/s) = 3.66694 3.81751 3.74298
# Velocity P-wave (km/s) = 7.48379 7.84076 7.66436
#
# Compressibility (1/GPa) = 0.01475548
#
# Stress axis : x y z
#
# Youngs Moduli (GPa) = 41.91883 73.67983 71.37601
#
# Poissons Ratio (x) = 0.37303 0.65760
# Poissons Ratio (y) = 0.21223 0.29017
# Poissons Ratio (z) = 0.38620 0.29953
#
# Static dielectric constant tensor:
#      x y z
#    x 3.363990 0.000000 0.000000 
#    y 0.000000 3.400330 0.000000 
#    z 0.000000 0.000000 3.310770 
# 
# 
# High freq. dielectric constant tensor:
#      x y z
#    x 1.692970 0.000000 0.000000 
#    y 0.000000 1.683920 0.000000 
#    z 0.000000 0.000000 1.682250 
# 
# From -- ./inp_files/20341.got.cif
#   From: 2010.03.12/outbox.cif.g09.slc.cpg/sg59_11_cif.got.tgz:20341.got - 2010.04.16 16:29:54.
