data_PCOD8244934
_publ_section_title
;
Structure prediction by ZEFSAII (Michael W. Deem and Ramdas Pophale) SiO2 
 PCOD8244934
Probable space group: P M M N
;
_chemical_formula_sum "Si O2"
_cell_formula_units_Z 64
_cell_length_a 8.569692
_cell_length_b 15.450655
_cell_length_c 24.143107
_cell_angle_alpha 90.000000
_cell_angle_beta 90.000000
_cell_angle_gamma 90.000000
_cell_volume 3196.724928
_symmetry_space_group_name_H-M "P M M N"
_symmetry_group_IT_number 59
_space_group.IT_coordinate_system_code '2'
_symmetry_cell_setting 'orthorhombic'
loop_
_space_group_symop_operation_xyz
x,y,z
1/2-x,1/2-y,z
1/2+x,-y,-z
-x,1/2+y,-z
-x,-y,-z
1/2+x,1/2+y,-z
1/2-x,y,z
x,1/2-y,z
loop_
_atom_site_type_symbol
_atom_site_label
_atom_site_fract_x
_atom_site_fract_y
_atom_site_fract_z
Si Si1 0.932380 0.087348 0.059431
Si Si2 0.929277 0.153168 0.176794
Si Si3 0.064146 0.844228 0.175599
Si Si4 0.930715 0.348391 0.447865
Si Si5 0.433707 0.007096 0.370298
Si Si6 0.931859 0.650948 0.434145
Si Si7 0.067322 0.497901 0.245803
Si Si8 0.068468 0.598028 0.060566
O O1 0.750000 0.062190 0.055380
O O2 0.965709 0.150142 0.110986
O O3 0.987805 0.130201 0.000640
O O4 0.032855 0.002345 0.069182
O O5 0.750000 0.128365 0.187628
O O6 0.966330 0.250000 0.197104
O O7 0.034979 0.088958 0.211822
O O8 0.250000 0.854600 0.174048
O O9 0.016001 0.750000 0.199200
O O10 0.993896 0.851685 0.112941
O O11 0.991691 0.919056 0.214617
O O12 0.750000 0.361548 0.462894
O O13 0.962528 0.250000 0.427453
O O14 0.978738 0.414851 0.400500
O O15 0.031298 0.369524 0.502071
O O16 0.250000 0.024336 0.373298
O O17 0.470244 0.913387 0.395839
O O18 0.500013 0.008156 0.307734
O O19 0.750000 0.634753 0.423924
O O20 0.979349 0.750000 0.419811
O O21 0.250000 0.511721 0.250105
O O22 0.250000 0.614150 0.064214
#
# Coordination Sequence:
#
# PCOD8244934 Si02
#       8
#     8   8   8   8   8   8   8   8
#     4   9  17  29  48  75 104 134 168 213 270 327
#     4  10  21  36  54  76 105 141 179 223 277 332
#     4   9  17  31  53  78 102 132 174 223 270 317
#     4  10  21  38  61  88 118 151 186 227 276 329
#     4  11  23  37  57  83 113 151 191 234 280 326
#     4  10  21  38  61  89 121 153 185 224 269 323
#     4  10  22  39  56  77 106 142 186 231 271 316
#     4   9  16  28  50  76 102 133 170 214 266 326
#
# _framework density 20.020491
#
# number of rings (size 3 to 8) (size 9 to 14) (size 15 to 20)
#    0.000    2.250    1.250    1.500    0.000    4.250 
#    0.000    6.250    0.000    1.500    0.000    3.500 
#    0.000    0.000    0.000    0.000    0.000    0.000 
#
# Total GULP energy -793312.311898 kJ/mol
# GULP energy per Si atom -12395.504873 kJ/mol
# Density = 1.997492 g / cm^3
# Si number density = 20.020491 Si / 1000 Ang^3
#
#
#
# Elastic Constant Matrix: (Units=GPa)
#
#
# Indices 1 2 3 4 5 6 
#
# 1 16.1048 5.9145 8.9155 0.0000 0.0000 0.0000
# 2 5.9145 112.0384 61.2464 0.0000 0.0000 0.0000
# 3 8.9155 61.2464 125.2562 0.0000 0.0000 0.0000
# 4 0.0000 0.0000 0.0000 12.3957 0.0000 0.0000
# 5 0.0000 0.0000 0.0000 0.0000 19.0041 0.0000
# 6 0.0000 0.0000 0.0000 0.0000 0.0000 24.6946
#
#
#
# Elastic Compliance Matrix: (Units=1/GPa)
#
#
# Indices 1 2 3 4 5 6 
#
# 1 0.064764 -0.001227 -0.004010 0.000000 0.000000 0.000000
# 2 -0.001227 0.012205 -0.005880 0.000000 0.000000 0.000000
# 3 -0.004010 -0.005880 0.011144 0.000000 0.000000 0.000000
# 4 0.000000 0.000000 0.000000 0.080673 0.000000 0.000000
# 5 0.000000 0.000000 0.000000 0.000000 0.052620 0.000000
# 6 0.000000 0.000000 0.000000 0.000000 0.000000 0.040495
#
#
# Mechanical properties :
#
#
# Convention : Reuss Voigt Hill
#
# Bulk Modulus (GPa) = 15.17944 45.06136 30.12040
# Shear Modulus (GPa) = 16.33481 23.04042 19.68762
#
# Velocity S-wave (km/s) = 2.85950 3.39609 3.13928
# Velocity P-wave (km/s) = 4.30125 6.15909 5.31202
#
# Compressibility (1/GPa) = 0.06587857
#
# Stress axis : x y z
#
# Youngs Moduli (GPa) = 15.44075 81.93447 89.73101
#
# Poissons Ratio (x) = 0.10052 0.35981
# Poissons Ratio (y) = 0.01894 0.52766
# Poissons Ratio (z) = 0.06192 0.48181
#
# Static dielectric constant tensor:
#      x y z
#    x 3.383900 0.000000 0.000000 
#    y 0.000000 3.628690 0.000000 
#    z 0.000000 0.000000 3.921610 
# 
# 
# High freq. dielectric constant tensor:
#      x y z
#    x 1.756020 0.000000 0.000000 
#    y 0.000000 1.780930 0.000000 
#    z 0.000000 0.000000 1.785990 
# 
# From -- ./inp_files/31435.got.cif
#   From: 2010.03.12/outbox.cif.g09.slc.cpg/sg59_16_cif.got.tgz:31435.got - 2010.04.16 16:29:54.
