data_PCOD8244560
_publ_section_title
;
Structure prediction by ZEFSAII (Michael W. Deem and Ramdas Pophale) SiO2 
 PCOD8244560
Probable space group: P M M N
;
_chemical_formula_sum "Si O2"
_cell_formula_units_Z 64
_cell_length_a 23.845193
_cell_length_b 13.714247
_cell_length_c 9.819945
_cell_angle_alpha 90.000000
_cell_angle_beta 90.000000
_cell_angle_gamma 90.000000
_cell_volume 3211.307284
_symmetry_space_group_name_H-M "P M M N"
_symmetry_group_IT_number 59
_space_group.IT_coordinate_system_code '2'
_symmetry_cell_setting 'orthorhombic'
loop_
_space_group_symop_operation_xyz
x,y,z
1/2-x,1/2-y,z
1/2+x,-y,-z
-x,1/2+y,-z
-x,-y,-z
1/2+x,1/2+y,-z
1/2-x,y,z
x,1/2-y,z
loop_
_atom_site_type_symbol
_atom_site_label
_atom_site_fract_x
_atom_site_fract_y
_atom_site_fract_z
Si Si1 0.185791 0.481703 0.321512
Si Si2 0.379793 0.448254 0.811658
Si Si3 0.603884 0.143709 0.308675
Si Si4 0.513593 0.063084 0.831282
Si Si5 0.813540 0.640510 0.419655
Si Si6 0.401490 0.862011 0.375315
Si Si7 0.000521 0.644372 0.886405
Si Si8 0.314489 0.362946 0.053732
O O1 0.250000 0.516644 0.325464
O O2 0.167395 0.431199 0.461421
O O3 0.148012 0.577300 0.303662
O O4 0.176130 0.402711 0.204634
O O5 0.360756 0.557105 0.762489
O O6 0.446624 0.438686 0.813535
O O7 0.354523 0.369798 0.708183
O O8 0.354659 0.427102 0.958968
O O9 0.634986 0.250000 0.300682
O O10 0.591985 0.115219 0.465129
O O11 0.545486 0.153614 0.232083
O O12 0.540180 0.110515 0.697782
O O13 0.537075 0.951255 0.851662
O O14 0.529512 0.125131 0.965917
O O15 0.750000 0.617608 0.372779
O O16 0.818152 0.750000 0.475704
O O17 0.387129 0.750000 0.349280
O O18 0.968080 0.750000 0.892440
O O19 0.250000 0.375516 0.007426
O O20 0.332239 0.250000 0.049181
#
# Coordination Sequence:
#
# PCOD8244560 Si02
#       8
#     8   8   8   8   8   8   8   8
#     4  10  22  41  62  86 116 153 201 248 296 357
#     4  11  21  37  60  90 125 154 199 246 287 356
#     4   9  20  39  60  82 114 159 203 245 296 344
#     4  10  23  37  58  89 123 160 198 242 295 354
#     4  10  20  37  61  87 118 156 196 244 301 353
#     4  11  23  41  62  86 119 158 199 248 304 350
#     4   9  19  37  57  81 116 162 203 239 287 348
#     4  10  22  40  62  88 121 159 195 240 299 357
#
# _framework density 19.929576999999998
#
# number of rings (size 3 to 8) (size 9 to 14) (size 15 to 20)
#    0.000    2.000    1.250    1.500    5.250    6.750 
#    0.000    0.625    0.000    2.250    0.000    0.000 
#    0.000    0.000    0.000    0.000    0.000    0.000 
#
# Total GULP energy -793297.425310 kJ/mol
# GULP energy per Si atom -12395.272270 kJ/mol
# Density = 1.988422 g / cm^3
# Si number density = 19.929577 Si / 1000 Ang^3
#
#
#
# Elastic Constant Matrix: (Units=GPa)
#
#
# Indices 1 2 3 4 5 6 
#
# 1 69.9832 31.1818 34.3499 0.0000 0.0000 0.0000
# 2 31.1818 127.8406 39.6589 0.0000 0.0000 0.0000
# 3 34.3499 39.6589 99.1846 0.0000 0.0000 0.0000
# 4 0.0000 0.0000 0.0000 29.5543 0.0000 0.0000
# 5 0.0000 0.0000 0.0000 0.0000 29.9281 0.0000
# 6 0.0000 0.0000 0.0000 0.0000 0.0000 23.1865
#
#
#
# Elastic Compliance Matrix: (Units=1/GPa)
#
#
# Indices 1 2 3 4 5 6 
#
# 1 0.018061 -0.002814 -0.005130 0.000000 0.000000 0.000000
# 2 -0.002814 0.009368 -0.002771 0.000000 0.000000 0.000000
# 3 -0.005130 -0.002771 0.012967 0.000000 0.000000 0.000000
# 4 0.000000 0.000000 0.000000 0.033836 0.000000 0.000000
# 5 0.000000 0.000000 0.000000 0.000000 0.033413 0.000000
# 6 0.000000 0.000000 0.000000 0.000000 0.000000 0.043128
#
#
# Mechanical properties :
#
#
# Convention : Reuss Voigt Hill
#
# Bulk Modulus (GPa) = 52.72609 56.37663 54.55136
# Shear Modulus (GPa) = 28.00716 29.32164 28.66440
#
# Velocity S-wave (km/s) = 3.75281 3.83987 3.79659
# Velocity P-wave (km/s) = 6.72991 6.92884 6.83010
#
# Compressibility (1/GPa) = 0.01896594
#
# Stress axis : x y z
#
# Youngs Moduli (GPa) = 55.36882 106.74263 77.11949
#
# Poissons Ratio (x) = 0.30036 0.39560
# Poissons Ratio (y) = 0.15580 0.21373
# Poissons Ratio (z) = 0.28403 0.29583
#
# Static dielectric constant tensor:
#      x y z
#    x 3.336690 0.000000 0.000000 
#    y 0.000000 4.197510 0.000000 
#    z 0.000000 0.000000 3.690150 
# 
# 
# High freq. dielectric constant tensor:
#      x y z
#    x 1.745240 0.000000 0.000000 
#    y 0.000000 1.793840 0.000000 
#    z 0.000000 0.000000 1.789430 
# 
# From -- ./inp_files/12211.got.cif
#   From: 2010.03.12/outbox.cif.g09.slc.cpg/sg59_7_cif.got.tgz:12211.got - 2010.04.16 16:29:54.
