data_PCOD8244544
_publ_section_title
;
Structure prediction by ZEFSAII (Michael W. Deem and Ramdas Pophale) SiO2 
 PCOD8244544
Probable space group: P M M N
;
_chemical_formula_sum "Si O2"
_cell_formula_units_Z 64
_cell_length_a 25.600223
_cell_length_b 9.081334
_cell_length_c 14.428172
_cell_angle_alpha 90.000000
_cell_angle_beta 90.000000
_cell_angle_gamma 90.000000
_cell_volume 3354.321672
_symmetry_space_group_name_H-M "P M M N"
_symmetry_group_IT_number 59
_space_group.IT_coordinate_system_code '2'
_symmetry_cell_setting 'orthorhombic'
loop_
_space_group_symop_operation_xyz
x,y,z
1/2-x,1/2-y,z
1/2+x,-y,-z
-x,1/2+y,-z
-x,-y,-z
1/2+x,1/2+y,-z
1/2-x,y,z
x,1/2-y,z
loop_
_atom_site_type_symbol
_atom_site_label
_atom_site_fract_x
_atom_site_fract_y
_atom_site_fract_z
Si Si1 0.688806 0.082894 0.099360
Si Si2 0.191162 0.424308 0.714784
Si Si3 0.024301 0.920423 0.087095
Si Si4 0.596313 0.924361 0.406009
Si Si5 0.810258 0.422701 0.721529
Si Si6 0.358104 0.575729 0.088638
Si Si7 0.497330 0.577341 0.291199
Si Si8 0.099876 0.074734 0.383650
O O1 0.750000 0.076945 0.082768
O O2 0.669745 0.250000 0.115867
O O3 0.671843 0.987930 0.187534
O O4 0.662561 0.010360 0.008439
O O5 0.250000 0.479094 0.690144
O O6 0.189808 0.250000 0.723037
O O7 0.151050 0.482464 0.636667
O O8 0.024769 0.750000 0.061833
O O9 0.082916 0.977878 0.103948
O O10 0.992413 0.951220 0.181853
O O11 0.000000 0.000000 0.000000
O O12 0.595843 0.750000 0.400597
O O13 0.547188 0.984728 0.347045
O O14 0.591110 0.979379 0.510968
O O15 0.750000 0.455609 0.699955
O O16 0.823419 0.250000 0.712178
O O17 0.823645 0.480321 0.824948
O O18 0.844341 0.512857 0.648092
O O19 0.352991 0.750000 0.083237
O O20 0.487357 0.750000 0.309707
O O21 0.446090 0.490162 0.321581
O O22 0.100119 0.250000 0.375944
#
# Coordination Sequence:
#
# PCOD8244544 Si02
#       8
#     8   8   8   8   8   8   8   8
#     4   9  17  30  50  75 102 132 168 214 262 309
#     4   9  18  34  54  76 105 141 179 218 266 328
#     4  10  21  35  54  80 111 144 178 222 273 324
#     4   9  20  36  57  81 105 142 187 227 274 330
#     4  10  20  37  61  84 110 150 194 229 271 335
#     4   9  17  33  54  77 105 140 181 220 264 320
#     4  10  20  39  61  79 107 147 189 227 269 332
#     4  11  22  37  57  84 114 141 178 234 289 329
#
# _framework density 19.079864000000001
#
# number of rings (size 3 to 8) (size 9 to 14) (size 15 to 20)
#    0.000    2.375    1.250    1.125    1.750    2.750 
#    0.000    4.375    0.000    3.000    0.000    0.000 
#    0.000    0.000    0.000    0.000    0.000    0.000 
#
# Total GULP energy -793578.678345 kJ/mol
# GULP energy per Si atom -12399.666849 kJ/mol
# Density = 1.903644 g / cm^3
# Si number density = 19.079864 Si / 1000 Ang^3
#
#
#
# Elastic Constant Matrix: (Units=GPa)
#
#
# Indices 1 2 3 4 5 6 
#
# 1 110.5762 35.8425 63.3343 0.0000 0.0000 0.0000
# 2 35.8425 40.7758 38.1214 0.0000 0.0000 0.0000
# 3 63.3343 38.1214 136.1971 0.0000 0.0000 0.0000
# 4 0.0000 0.0000 0.0000 29.2968 0.0000 0.0000
# 5 0.0000 0.0000 0.0000 0.0000 38.4195 0.0000
# 6 0.0000 0.0000 0.0000 0.0000 0.0000 21.2569
#
#
#
# Elastic Compliance Matrix: (Units=1/GPa)
#
#
# Indices 1 2 3 4 5 6 
#
# 1 0.014240 -0.008569 -0.004224 0.000000 0.000000 0.000000
# 2 -0.008569 0.038372 -0.006756 0.000000 0.000000 0.000000
# 3 -0.004224 -0.006756 0.011197 0.000000 0.000000 0.000000
# 4 0.000000 0.000000 0.000000 0.034133 0.000000 0.000000
# 5 0.000000 0.000000 0.000000 0.000000 0.026028 0.000000
# 6 0.000000 0.000000 0.000000 0.000000 0.000000 0.047044
#
#
# Mechanical properties :
#
#
# Convention : Reuss Voigt Hill
#
# Bulk Modulus (GPa) = 40.46337 62.46062 51.46199
# Shear Modulus (GPa) = 22.89912 27.81137 25.35525
#
# Velocity S-wave (km/s) = 3.46811 3.82203 3.64936
# Velocity P-wave (km/s) = 6.10659 7.23082 6.69235
#
# Compressibility (1/GPa) = 0.02471371
#
# Stress axis : x y z
#
# Youngs Moduli (GPa) = 70.22401 26.06049 89.30737
#
# Poissons Ratio (x) = 0.22330 0.37720
# Poissons Ratio (y) = 0.60172 0.60334
# Poissons Ratio (z) = 0.29660 0.17606
#
# Static dielectric constant tensor:
#      x y z
#    x 3.650650 0.000000 0.000000 
#    y 0.000000 3.179280 0.000000 
#    z 0.000000 0.000000 3.685230 
# 
# 
# High freq. dielectric constant tensor:
#      x y z
#    x 1.748540 0.000000 0.000000 
#    y 0.000000 1.706180 0.000000 
#    z 0.000000 0.000000 1.753040 
# 
# From -- ./inp_files/24691.got.cif
#   From: 2010.03.12/outbox.cif.g09.slc.cpg/sg59_13_cif.got.tgz:24691.got - 2010.04.16 16:29:54.
