data_PCOD8244304
_publ_section_title
;
Structure prediction by ZEFSAII (Michael W. Deem and Ramdas Pophale) SiO2 
 PCOD8244304
Probable space group: P M M N
;
_chemical_formula_sum "Si O2"
_cell_formula_units_Z 64
_cell_length_a 23.390366
_cell_length_b 8.714638
_cell_length_c 14.833529
_cell_angle_alpha 90.000000
_cell_angle_beta 90.000000
_cell_angle_gamma 90.000000
_cell_volume 3023.645375
_symmetry_space_group_name_H-M "P M M N"
_symmetry_group_IT_number 59
_space_group.IT_coordinate_system_code '2'
_symmetry_cell_setting 'orthorhombic'
loop_
_space_group_symop_operation_xyz
x,y,z
1/2-x,1/2-y,z
1/2+x,-y,-z
-x,1/2+y,-z
-x,-y,-z
1/2+x,1/2+y,-z
1/2-x,y,z
x,1/2-y,z
loop_
_atom_site_type_symbol
_atom_site_label
_atom_site_fract_x
_atom_site_fract_y
_atom_site_fract_z
Si Si1 0.147611 0.077906 0.034301
Si Si2 0.995212 0.929632 0.281611
Si Si3 0.634366 0.571831 0.316006
Si Si4 0.311190 0.431696 0.217237
Si Si5 0.183457 0.573381 0.858323
Si Si6 0.896272 0.567743 0.636318
Si Si7 0.815550 0.070083 0.488318
Si Si8 0.520241 0.921609 0.909192
O O1 0.164458 0.250000 0.001928
O O2 0.188407 0.012875 0.113312
O O3 0.087937 0.081580 0.086346
O O4 0.149552 0.964142 0.950109
O O5 0.006004 0.750000 0.277245
O O6 0.932717 0.969250 0.320216
O O7 0.039858 0.002392 0.352844
O O8 0.999990 0.991608 0.180098
O O9 0.644524 0.750000 0.337750
O O10 0.658372 0.536257 0.217480
O O11 0.670173 0.468915 0.385148
O O12 0.250000 0.480713 0.258843
O O13 0.318814 0.250000 0.217720
O O14 0.360577 0.501930 0.279583
O O15 0.250000 0.537694 0.873160
O O16 0.172725 0.750000 0.832659
O O17 0.900323 0.750000 0.636018
O O18 0.863273 0.517150 0.546653
O O19 0.750000 0.017659 0.509560
O O20 0.821779 0.250000 0.504449
O O21 0.494946 0.750000 0.904107
O O22 0.500000 0.000000 0.000000
#
# Coordination Sequence:
#
# PCOD8244304 Si02
#       8
#     8   8   8   8   8   8   8   8
#     4  10  20  36  57  84 119 161 209 254 302 366
#     4  11  24  42  63  92 129 167 211 264 320 378
#     4  11  25  44  67  93 121 163 216 264 315 379
#     4   9  17  32  56  86 119 155 198 248 298 353
#     4  11  24  40  59  89 127 164 206 261 324 382
#     4  11  22  40  66  96 129 168 211 256 308 374
#     4  11  25  45  69  99 132 165 204 257 322 383
#     4  11  22  37  58  87 122 165 216 263 312 374
#
# _framework density 21.166502999999999
#
# number of rings (size 3 to 8) (size 9 to 14) (size 15 to 20)
#    0.000    1.375    1.250    4.125    0.000   11.000 
#    0.000    0.000    0.000    2.250    0.000    0.000 
#    0.000    0.000    0.000    0.000    0.000    0.000 
#
# Total GULP energy -793577.135885 kJ/mol
# GULP energy per Si atom -12399.642748 kJ/mol
# Density = 2.111833 g / cm^3
# Si number density = 21.166503 Si / 1000 Ang^3
#
#
#
# Elastic Constant Matrix: (Units=GPa)
#
#
# Indices 1 2 3 4 5 6 
#
# 1 79.1643 40.7180 25.6976 0.0000 0.0000 0.0000
# 2 40.7180 82.5024 26.4924 0.0000 0.0000 0.0000
# 3 25.6976 26.4924 84.3963 0.0000 0.0000 0.0000
# 4 0.0000 0.0000 0.0000 36.0715 0.0000 0.0000
# 5 0.0000 0.0000 0.0000 0.0000 37.3618 0.0000
# 6 0.0000 0.0000 0.0000 0.0000 0.0000 26.7752
#
#
#
# Elastic Compliance Matrix: (Units=1/GPa)
#
#
# Indices 1 2 3 4 5 6 
#
# 1 0.017553 -0.007726 -0.002920 0.000000 0.000000 0.000000
# 2 -0.007726 0.016880 -0.002946 0.000000 0.000000 0.000000
# 3 -0.002920 -0.002946 0.013663 0.000000 0.000000 0.000000
# 4 0.000000 0.000000 0.000000 0.027723 0.000000 0.000000
# 5 0.000000 0.000000 0.000000 0.000000 0.026765 0.000000
# 6 0.000000 0.000000 0.000000 0.000000 0.000000 0.037348
#
#
# Mechanical properties :
#
#
# Convention : Reuss Voigt Hill
#
# Bulk Modulus (GPa) = 47.81789 47.98655 47.90222
# Shear Modulus (GPa) = 28.72138 30.25202 29.48670
#
# Velocity S-wave (km/s) = 3.68764 3.78463 3.73645
# Velocity P-wave (km/s) = 6.38529 6.46669 6.42612
#
# Compressibility (1/GPa) = 0.02091267
#
# Stress axis : x y z
#
# Youngs Moduli (GPa) = 56.96895 59.24213 73.19196
#
# Poissons Ratio (x) = 0.45769 0.21369
# Poissons Ratio (y) = 0.44013 0.21564
# Poissons Ratio (z) = 0.16633 0.17454
#
# Static dielectric constant tensor:
#      x y z
#    x 3.778050 0.000000 0.000000 
#    y 0.000000 3.849290 0.000000 
#    z 0.000000 0.000000 3.761050 
# 
# 
# High freq. dielectric constant tensor:
#      x y z
#    x 1.844460 0.000000 0.000000 
#    y 0.000000 1.819560 0.000000 
#    z 0.000000 0.000000 1.833980 
# 
# From -- ./inp_files/24716.got.cif
#   From: 2010.03.12/outbox.cif.g09.slc.cpg/sg59_13_cif.got.tgz:24716.got - 2010.04.16 16:29:54.
