data_PCOD8244568
_publ_section_title
;
Structure prediction by ZEFSAII (Michael W. Deem and Ramdas Pophale) SiO2 
 PCOD8244568
Probable space group: P M M N
;
_chemical_formula_sum "Si O2"
_cell_formula_units_Z 48
_cell_length_a 15.713170
_cell_length_b 8.886146
_cell_length_c 16.722586
_cell_angle_alpha 90.000000
_cell_angle_beta 90.000000
_cell_angle_gamma 90.000000
_cell_volume 2334.966702
_symmetry_space_group_name_H-M "P M M N"
_symmetry_group_IT_number 59
_space_group.IT_coordinate_system_code '2'
_symmetry_cell_setting 'orthorhombic'
loop_
_space_group_symop_operation_xyz
x,y,z
1/2-x,1/2-y,z
1/2+x,-y,-z
-x,1/2+y,-z
-x,-y,-z
1/2+x,1/2+y,-z
1/2-x,y,z
x,1/2-y,z
loop_
_atom_site_type_symbol
_atom_site_label
_atom_site_fract_x
_atom_site_fract_y
_atom_site_fract_z
Si Si1 0.750000 0.073241 0.419468
Si Si2 0.750000 0.928340 0.589850
Si Si3 0.653303 0.081385 0.153446
Si Si4 0.347847 0.421889 0.170749
Si Si5 0.082536 0.573503 0.679330
Si Si6 0.909282 0.072769 0.678298
Si Si7 0.409254 0.074138 0.999446
O O1 0.750000 0.250000 0.440898
O O2 0.834096 0.028339 0.370361
O O3 0.750000 0.972775 0.497861
O O4 0.750000 0.750000 0.600639
O O5 0.834839 0.992947 0.629648
O O6 0.750000 0.078210 0.183692
O O7 0.626747 0.250000 0.127656
O O8 0.596129 0.028066 0.227853
O O9 0.643713 0.974290 0.077699
O O10 0.250000 0.437498 0.195324
O O11 0.379217 0.250000 0.181651
O O12 0.402583 0.528590 0.228240
O O13 0.359370 0.474865 0.079402
O O14 0.064348 0.750000 0.671106
O O15 0.001139 0.482413 0.646091
O O16 0.901111 0.250000 0.666760
O O17 0.421326 0.250000 0.996039
O O18 0.500000 0.000000 0.000000
#
# Coordination Sequence:
#
# PCOD8244568 Si02
#       7
#     4   4   8   8   8   8   8
#     4  10  22  44  72  99 128 163 210 261 306 369
#     4  12  26  46  70  95 128 167 204 253 320 383
#     4  10  20  37  61  89 122 165 212 257 310 370
#     4  10  21  39  61  83 116 165 215 261 317 375
#     4  10  21  41  68  96 129 171 212 255 314 376
#     4  12  25  41  65  98 130 164 211 263 314 374
#     4  11  23  37  54  83 121 165 213 262 313 367
#
# _framework density 20.557037999999999
#
# number of rings (size 3 to 8) (size 9 to 14) (size 15 to 20)
#    0.000    1.333    1.667    4.250    0.000    8.333 
#    0.000    0.000    0.000    0.000    0.000    0.000 
#    0.000    0.000    0.000    0.000    0.000    0.000 
#
# Total GULP energy -595375.477809 kJ/mol
# GULP energy per Si atom -12403.655788 kJ/mol
# Density = 2.051025 g / cm^3
# Si number density = 20.557038 Si / 1000 Ang^3
#
#
#
# Elastic Constant Matrix: (Units=GPa)
#
#
# Indices 1 2 3 4 5 6 
#
# 1 145.7879 62.6131 52.9601 0.0000 0.0000 0.0000
# 2 62.6131 114.1807 61.3795 0.0000 0.0000 0.0000
# 3 52.9601 61.3795 116.9798 0.0000 0.0000 0.0000
# 4 0.0000 0.0000 0.0000 34.8494 0.0000 0.0000
# 5 0.0000 0.0000 0.0000 0.0000 17.7168 0.0000
# 6 0.0000 0.0000 0.0000 0.0000 0.0000 30.0117
#
#
#
# Elastic Compliance Matrix: (Units=1/GPa)
#
#
# Indices 1 2 3 4 5 6 
#
# 1 0.009344 -0.003970 -0.002148 0.000000 0.000000 0.000000
# 2 -0.003970 0.013885 -0.005488 0.000000 0.000000 0.000000
# 3 -0.002148 -0.005488 0.012401 0.000000 0.000000 0.000000
# 4 0.000000 0.000000 0.000000 0.028695 0.000000 0.000000
# 5 0.000000 0.000000 0.000000 0.000000 0.056444 0.000000
# 6 0.000000 0.000000 0.000000 0.000000 0.000000 0.033320
#
#
# Mechanical properties :
#
#
# Convention : Reuss Voigt Hill
#
# Bulk Modulus (GPa) = 80.52307 81.20597 80.86452
# Shear Modulus (GPa) = 27.55732 29.84862 28.70297
#
# Velocity S-wave (km/s) = 3.66530 3.81463 3.74071
# Velocity P-wave (km/s) = 7.56096 7.68052 7.62098
#
# Compressibility (1/GPa) = 0.01241880
#
# Stress axis : x y z
#
# Youngs Moduli (GPa) = 107.01695 72.01868 80.64172
#
# Poissons Ratio (x) = 0.28589 0.17318
# Poissons Ratio (y) = 0.42482 0.44260
# Poissons Ratio (z) = 0.22982 0.39527
#
# Static dielectric constant tensor:
#      x y z
#    x 4.010270 0.000000 0.000000 
#    y 0.000000 3.870730 0.000000 
#    z 0.000000 0.000000 3.893960 
# 
# 
# High freq. dielectric constant tensor:
#      x y z
#    x 1.820410 0.000000 0.000000 
#    y 0.000000 1.792810 0.000000 
#    z 0.000000 0.000000 1.805830 
# 
# From -- ./inp_files/27472.got.cif
#   From: 2010.03.12/outbox.cif.g09.slc.cpg/sg59_14_cif.got.tgz:27472.got - 2010.04.16 16:29:54.
