data_PCOD8244716
_publ_section_title
;
Structure prediction by ZEFSAII (Michael W. Deem and Ramdas Pophale) SiO2 
 PCOD8244716
Probable space group: P M M N
;
_chemical_formula_sum "Si O2"
_cell_formula_units_Z 64
_cell_length_a 9.222057
_cell_length_b 14.658220
_cell_length_c 24.535492
_cell_angle_alpha 90.000000
_cell_angle_beta 90.000000
_cell_angle_gamma 90.000000
_cell_volume 3316.681810
_symmetry_space_group_name_H-M "P M M N"
_symmetry_group_IT_number 59
_space_group.IT_coordinate_system_code '2'
_symmetry_cell_setting 'orthorhombic'
loop_
_space_group_symop_operation_xyz
x,y,z
1/2-x,1/2-y,z
1/2+x,-y,-z
-x,1/2+y,-z
-x,-y,-z
1/2+x,1/2+y,-z
1/2-x,y,z
x,1/2-y,z
loop_
_atom_site_type_symbol
_atom_site_label
_atom_site_fract_x
_atom_site_fract_y
_atom_site_fract_z
Si Si1 0.578280 0.648555 0.511526
Si Si2 0.917936 0.857553 0.628959
Si Si3 0.581939 0.498464 0.184111
Si Si4 0.580462 0.643543 0.882877
Si Si5 0.086440 0.641594 0.989771
Si Si6 0.418023 0.145474 0.904894
Si Si7 0.419728 0.497579 0.691767
Si Si8 0.922556 0.646736 0.394069
O O1 0.750000 0.653410 0.514742
O O2 0.514574 0.750000 0.509201
O O3 0.526517 0.604831 0.569119
O O4 0.529843 0.603653 0.453609
O O5 0.750000 0.880524 0.637914
O O6 0.945920 0.750000 0.633619
O O7 0.007921 0.906828 0.675953
O O8 0.750000 0.470833 0.177614
O O9 0.484641 0.411906 0.167773
O O10 0.542983 0.586556 0.148031
O O11 0.544132 0.525678 0.245843
O O12 0.750000 0.623920 0.889002
O O13 0.549613 0.750000 0.872544
O O14 0.501087 0.606951 0.937206
O O15 0.250000 0.603133 0.987017
O O16 0.084925 0.750000 0.990708
O O17 0.008867 0.605423 0.044332
O O18 0.250000 0.137956 0.920872
O O19 0.460406 0.250000 0.891823
O O20 0.250000 0.508003 0.682061
O O21 0.485232 0.416830 0.653940
O O22 0.750000 0.649831 0.390841
O O23 0.982516 0.750000 0.386576
#
# Coordination Sequence:
#
# PCOD8244716 Si02
#       8
#     8   8   8   8   8   8   8   8
#     4   7  11  23  45  72  98 125 161 202 245 299
#     4   9  18  33  52  72  97 132 170 206 249 304
#     4  10  22  37  51  72 103 137 172 209 251 297
#     4  10  21  37  57  79 102 131 169 211 251 294
#     4   9  17  31  54  83 110 133 160 199 251 306
#     4   9  18  34  55  77 103 135 169 205 244 291
#     4  10  21  34  49  74 103 130 168 214 254 294
#     4   8  14  27  49  75 102 131 163 203 251 302
#
# _framework density 19.296393999999999
#
# number of rings (size 3 to 8) (size 9 to 14) (size 15 to 20)
#    0.000    3.000    0.000    2.250    0.000    5.500 
#    0.000    5.000    0.000    0.375    0.000    3.500 
#    0.000    0.000    0.000    0.000    0.000    0.000 
#
# Total GULP energy -793145.743628 kJ/mol
# GULP energy per Si atom -12392.902244 kJ/mol
# Density = 1.925247 g / cm^3
# Si number density = 19.296394 Si / 1000 Ang^3
#
#
#
# Elastic Constant Matrix: (Units=GPa)
#
#
# Indices 1 2 3 4 5 6 
#
# 1 55.0271 24.9021 35.0821 0.0000 0.0000 0.0000
# 2 24.9021 54.4207 30.6313 0.0000 0.0000 0.0000
# 3 35.0821 30.6313 108.8392 0.0000 0.0000 0.0000
# 4 0.0000 0.0000 0.0000 33.9395 0.0000 0.0000
# 5 0.0000 0.0000 0.0000 0.0000 20.5823 0.0000
# 6 0.0000 0.0000 0.0000 0.0000 0.0000 20.1953
#
#
#
# Elastic Compliance Matrix: (Units=1/GPa)
#
#
# Indices 1 2 3 4 5 6 
#
# 1 0.025781 -0.008460 -0.005929 0.000000 0.000000 0.000000
# 2 -0.008460 0.024610 -0.004199 0.000000 0.000000 0.000000
# 3 -0.005929 -0.004199 0.012281 0.000000 0.000000 0.000000
# 4 0.000000 0.000000 0.000000 0.029464 0.000000 0.000000
# 5 0.000000 0.000000 0.000000 0.000000 0.048585 0.000000
# 6 0.000000 0.000000 0.000000 0.000000 0.000000 0.049517
#
#
# Mechanical properties :
#
#
# Convention : Reuss Voigt Hill
#
# Bulk Modulus (GPa) = 39.22244 44.39090 41.80667
# Shear Modulus (GPa) = 21.19417 23.45485 22.32451
#
# Velocity S-wave (km/s) = 3.31773 3.49019 3.40505
# Velocity P-wave (km/s) = 5.92004 6.26870 6.09686
#
# Compressibility (1/GPa) = 0.02549561
#
# Stress axis : x y z
#
# Youngs Moduli (GPa) = 38.78762 40.63377 81.42749
#
# Poissons Ratio (x) = 0.34376 0.48280
# Poissons Ratio (y) = 0.32814 0.34194
# Poissons Ratio (z) = 0.22998 0.17063
#
# Static dielectric constant tensor:
#      x y z
#    x 3.241100 0.000000 0.000000 
#    y 0.000000 3.403690 0.000000 
#    z 0.000000 0.000000 3.757930 
# 
# 
# High freq. dielectric constant tensor:
#      x y z
#    x 1.718930 0.000000 0.000000 
#    y 0.000000 1.739140 0.000000 
#    z 0.000000 0.000000 1.759150 
# 
# From -- ./inp_files/31593.got.cif
#   From: 2010.03.12/outbox.cif.g09.slc.cpg/sg59_16_cif.got.tgz:31593.got - 2010.04.16 16:29:54.
