data_PCOD8244618
_publ_section_title
;
Structure prediction by ZEFSAII (Michael W. Deem and Ramdas Pophale) SiO2 
 PCOD8244618
Probable space group: P M M N
;
_chemical_formula_sum "Si O2"
_cell_formula_units_Z 48
_cell_length_a 14.034428
_cell_length_b 19.415079
_cell_length_c 8.682921
_cell_angle_alpha 90.000000
_cell_angle_beta 90.000000
_cell_angle_gamma 90.000000
_cell_volume 2365.918219
_symmetry_space_group_name_H-M "P M M N"
_symmetry_group_IT_number 59
_space_group.IT_coordinate_system_code '2'
_symmetry_cell_setting 'orthorhombic'
loop_
_space_group_symop_operation_xyz
x,y,z
1/2-x,1/2-y,z
1/2+x,-y,-z
-x,1/2+y,-z
-x,-y,-z
1/2+x,1/2+y,-z
1/2-x,y,z
x,1/2-y,z
loop_
_atom_site_type_symbol
_atom_site_label
_atom_site_fract_x
_atom_site_fract_y
_atom_site_fract_z
Si Si1 0.975925 0.443142 0.626203
Si Si2 0.862913 0.447323 0.927949
Si Si3 0.859101 0.170485 0.454203
Si Si4 0.854932 0.566131 0.162642
Si Si5 0.648493 0.670124 0.902828
Si Si6 0.059778 0.670116 0.869043
O O1 0.907742 0.469752 0.764088
O O2 0.928196 0.375809 0.554748
O O3 0.000000 0.500000 0.500000
O O4 0.078212 0.422750 0.692163
O O5 0.750000 0.440645 0.907870
O O6 0.891743 0.505197 0.051227
O O7 0.907614 0.374896 0.984551
O O8 0.750000 0.154747 0.498199
O O9 0.885338 0.250000 0.485287
O O10 0.872515 0.152759 0.274206
O O11 0.750000 0.547701 0.225518
O O12 0.854946 0.636819 0.070298
O O13 0.750000 0.646729 0.820349
O O14 0.652690 0.750000 0.933922
O O15 0.549656 0.652117 0.815191
O O16 0.068782 0.750000 0.918414
#
# Coordination Sequence:
#
# PCOD8244618 Si02
#       6
#     8   8   8   8   8   8
#     4  12  25  38  60  88 127 166 204 248 308 375
#     4  11  23  39  61  89 122 158 207 260 304 356
#     4  10  23  43  64  90 128 169 205 249 311 376
#     4  10  22  40  62  86 116 157 205 255 303 351
#     4   9  18  34  59  88 114 144 191 250 302 348
#     4  10  20  37  65  93 118 156 205 254 306 361
#
# _framework density 20.288107
#
# number of rings (size 3 to 8) (size 9 to 14) (size 15 to 20)
#    0.000    1.667    1.667    2.500    2.333    5.000 
#    0.000    0.833    0.000    1.000    0.000    0.000 
#    0.000    0.000    0.000    0.000    0.000    0.000 
#
# Total GULP energy -594926.898163 kJ/mol
# GULP energy per Si atom -12394.310378 kJ/mol
# Density = 2.024193 g / cm^3
# Si number density = 20.288107 Si / 1000 Ang^3
#
#
#
# Elastic Constant Matrix: (Units=GPa)
#
#
# Indices 1 2 3 4 5 6 
#
# 1 141.3946 52.6004 56.1904 0.0000 0.0000 0.0000
# 2 52.6004 60.2750 40.0823 0.0000 0.0000 0.0000
# 3 56.1904 40.0823 86.8925 0.0000 0.0000 0.0000
# 4 0.0000 0.0000 0.0000 31.3149 0.0000 0.0000
# 5 0.0000 0.0000 0.0000 0.0000 41.4552 0.0000
# 6 0.0000 0.0000 0.0000 0.0000 0.0000 30.7731
#
#
#
# Elastic Compliance Matrix: (Units=1/GPa)
#
#
# Indices 1 2 3 4 5 6 
#
# 1 0.011361 -0.007254 -0.004000 0.000000 0.000000 0.000000
# 2 -0.007254 0.028563 -0.008485 0.000000 0.000000 0.000000
# 3 -0.004000 -0.008485 0.018009 0.000000 0.000000 0.000000
# 4 0.000000 0.000000 0.000000 0.031934 0.000000 0.000000
# 5 0.000000 0.000000 0.000000 0.000000 0.024122 0.000000
# 6 0.000000 0.000000 0.000000 0.000000 0.000000 0.032496
#
#
# Mechanical properties :
#
#
# Convention : Reuss Voigt Hill
#
# Bulk Modulus (GPa) = 54.18661 65.14537 59.66599
# Shear Modulus (GPa) = 26.02595 30.02126 28.02361
#
# Velocity S-wave (km/s) = 3.58553 3.85092 3.72059
# Velocity P-wave (km/s) = 6.62630 7.20782 6.92317
#
# Compressibility (1/GPa) = 0.01845475
#
# Stress axis : x y z
#
# Youngs Moduli (GPa) = 88.02239 35.00985 55.52647
#
# Poissons Ratio (x) = 0.25396 0.22213
# Poissons Ratio (y) = 0.63851 0.47114
# Poissons Ratio (z) = 0.35213 0.29706
#
# Static dielectric constant tensor:
#      x y z
#    x 4.328360 0.000000 0.000000 
#    y 0.000000 3.745270 0.000000 
#    z 0.000000 0.000000 3.504840 
# 
# 
# High freq. dielectric constant tensor:
#      x y z
#    x 1.823260 0.000000 0.000000 
#    y 0.000000 1.798730 0.000000 
#    z 0.000000 0.000000 1.759120 
# 
# From -- ./inp_files/8984.got.cif
#   From: 2010.03.12/outbox.cif.g09.slc.cpg/sg59_5_cif.got.tgz:8984.got - 2010.04.16 16:29:54.
