data_PCOD8244484
_publ_section_title
;
Structure prediction by ZEFSAII (Michael W. Deem and Ramdas Pophale) SiO2 
 PCOD8244484
Probable space group: P M M N
;
_chemical_formula_sum "Si O2"
_cell_formula_units_Z 64
_cell_length_a 28.908052
_cell_length_b 12.336234
_cell_length_c 9.534681
_cell_angle_alpha 90.000000
_cell_angle_beta 90.000000
_cell_angle_gamma 90.000000
_cell_volume 3400.224509
_symmetry_space_group_name_H-M "P M M N"
_symmetry_group_IT_number 59
_space_group.IT_coordinate_system_code '2'
_symmetry_cell_setting 'orthorhombic'
loop_
_space_group_symop_operation_xyz
x,y,z
1/2-x,1/2-y,z
1/2+x,-y,-z
-x,1/2+y,-z
-x,-y,-z
1/2+x,1/2+y,-z
1/2-x,y,z
x,1/2-y,z
loop_
_atom_site_type_symbol
_atom_site_label
_atom_site_fract_x
_atom_site_fract_y
_atom_site_fract_z
Si Si1 0.800829 0.623763 0.256983
Si Si2 0.972551 0.630099 0.139169
Si Si3 0.889585 0.375455 0.081594
Si Si4 0.301076 0.512447 0.007153
Si Si5 0.103917 0.035627 0.682384
Si Si6 0.801926 0.871454 0.729368
Si Si7 0.052943 0.020729 0.131140
Si Si8 0.896871 0.875816 0.605268
O O1 0.750000 0.591925 0.318926
O O2 0.809321 0.750000 0.270210
O O3 0.842111 0.564016 0.336407
O O4 0.803266 0.590793 0.094621
O O5 0.992187 0.750000 0.163717
O O6 0.923683 0.619565 0.219248
O O7 0.009448 0.543029 0.199082
O O8 0.965461 0.614228 0.972295
O O9 0.902087 0.250000 0.079835
O O10 0.900788 0.419021 0.239913
O O11 0.835942 0.393996 0.042598
O O12 0.918703 0.435463 0.962467
O O13 0.250000 0.565297 0.008214
O O14 0.313731 0.463379 0.157487
O O15 0.084728 0.048305 0.523252
O O16 0.750000 0.889521 0.667196
O O17 0.805062 0.750000 0.794862
O O18 0.840820 0.882560 0.609564
O O19 0.082505 0.076425 0.251931
O O20 0.912340 0.750000 0.585038
#
# Coordination Sequence:
#
# PCOD8244484 Si02
#       8
#     8   8   8   8   8   8   8   8
#     4   9  16  27  47  76 109 142 176 215 263 321
#     4  10  20  37  58  79 106 142 182 230 278 328
#     4  10  20  37  56  76 103 140 187 236 274 317
#     4   9  16  28  48  76 105 136 177 227 272 318
#     4  10  22  36  53  79 112 146 183 221 269 329
#     4   9  17  29  49  79 115 150 177 211 267 329
#     4  10  21  36  57  83 106 137 184 229 280 330
#     4  11  21  35  55  84 119 149 177 217 271 335
#
# _framework density 18.822285000000001
#
# number of rings (size 3 to 8) (size 9 to 14) (size 15 to 20)
#    0.000    2.250    1.250    2.250    0.000    2.750 
#    0.000    3.125    0.000    0.000    0.000    0.000 
#    0.000    0.000    0.000    0.000    0.000    0.000 
#
# Total GULP energy -793022.775329 kJ/mol
# GULP energy per Si atom -12390.980865 kJ/mol
# Density = 1.877944 g / cm^3
# Si number density = 18.822285 Si / 1000 Ang^3
#
#
#
# Elastic Constant Matrix: (Units=GPa)
#
#
# Indices 1 2 3 4 5 6 
#
# 1 75.7901 22.4235 20.1056 0.0000 0.0000 0.0000
# 2 22.4235 87.7827 34.1916 0.0000 0.0000 0.0000
# 3 20.1056 34.1916 84.5851 0.0000 0.0000 0.0000
# 4 0.0000 0.0000 0.0000 18.2420 0.0000 0.0000
# 5 0.0000 0.0000 0.0000 0.0000 13.5047 0.0000
# 6 0.0000 0.0000 0.0000 0.0000 0.0000 18.7719
#
#
#
# Elastic Compliance Matrix: (Units=1/GPa)
#
#
# Indices 1 2 3 4 5 6 
#
# 1 0.014653 -0.002832 -0.002338 0.000000 0.000000 0.000000
# 2 -0.002832 0.014068 -0.005013 0.000000 0.000000 0.000000
# 3 -0.002338 -0.005013 0.014405 0.000000 0.000000 0.000000
# 4 0.000000 0.000000 0.000000 0.054819 0.000000 0.000000
# 5 0.000000 0.000000 0.000000 0.000000 0.074048 0.000000
# 6 0.000000 0.000000 0.000000 0.000000 0.000000 0.053271
#
#
# Mechanical properties :
#
#
# Convention : Reuss Voigt Hill
#
# Bulk Modulus (GPa) = 43.94083 44.62214 44.28149
# Shear Modulus (GPa) = 19.74594 21.53286 20.63940
#
# Velocity S-wave (km/s) = 3.24245 3.38599 3.31500
# Velocity P-wave (km/s) = 6.11668 6.24861 6.18300
#
# Compressibility (1/GPa) = 0.02275788
#
# Stress axis : x y z
#
# Youngs Moduli (GPa) = 68.24767 71.08335 69.42172
#
# Poissons Ratio (x) = 0.20132 0.16231
# Poissons Ratio (y) = 0.19329 0.34804
# Poissons Ratio (z) = 0.15956 0.35637
#
# Static dielectric constant tensor:
#      x y z
#    x 3.745660 0.000000 0.000000 
#    y 0.000000 3.155030 0.000000 
#    z 0.000000 0.000000 3.282790 
# 
# 
# High freq. dielectric constant tensor:
#      x y z
#    x 1.746030 0.000000 0.000000 
#    y 0.000000 1.699690 0.000000 
#    z 0.000000 0.000000 1.714920 
# 
# From -- ./inp_files/13200.got.cif
#   From: 2010.03.12/outbox.cif.g09.slc.cpg/sg59_7_cif.got.tgz:13200.got - 2010.04.16 16:29:54.
