data_PCOD8244510
_publ_section_title
;
Structure prediction by ZEFSAII (Michael W. Deem and Ramdas Pophale) SiO2 
 PCOD8244510
Probable space group: P M M N
;
_chemical_formula_sum "Si O2"
_cell_formula_units_Z 48
_cell_length_a 14.647382
_cell_length_b 9.029576
_cell_length_c 19.579189
_cell_angle_alpha 90.000000
_cell_angle_beta 90.000000
_cell_angle_gamma 90.000000
_cell_volume 2589.536664
_symmetry_space_group_name_H-M "P M M N"
_symmetry_group_IT_number 59
_space_group.IT_coordinate_system_code '2'
_symmetry_cell_setting 'orthorhombic'
loop_
_space_group_symop_operation_xyz
x,y,z
1/2-x,1/2-y,z
1/2+x,-y,-z
-x,1/2+y,-z
-x,-y,-z
1/2+x,1/2+y,-z
1/2-x,y,z
x,1/2-y,z
loop_
_atom_site_type_symbol
_atom_site_label
_atom_site_fract_x
_atom_site_fract_y
_atom_site_fract_z
Si Si1 0.647689 0.078177 0.417934
Si Si2 0.931183 0.424323 0.812715
Si Si3 0.750000 0.574904 0.020511
Si Si4 0.553885 0.923919 0.060409
Si Si5 0.854170 0.923093 0.553972
Si Si6 0.516016 0.577125 0.675718
Si Si7 0.250000 0.073373 0.135131
O O1 0.750000 0.022942 0.400372
O O2 0.645683 0.250000 0.435690
O O3 0.585084 0.044166 0.352687
O O4 0.608641 0.998117 0.485080
O O5 0.910769 0.250000 0.812529
O O6 0.971188 0.474808 0.740893
O O7 0.838553 0.511655 0.827054
O O8 0.007993 0.466975 0.868173
O O9 0.750000 0.750000 0.018045
O O10 0.840881 0.518568 0.059678
O O11 0.750000 0.515298 0.942770
O O12 0.550237 0.750000 0.046687
O O13 0.500000 0.000000 0.000000
O O14 0.750000 0.970187 0.567761
O O15 0.865584 0.750000 0.542923
O O16 0.911664 0.975359 0.618995
O O17 0.529176 0.750000 0.694517
O O18 0.250000 0.250000 0.140424
#
# Coordination Sequence:
#
# PCOD8244510 Si02
#       7
#     8   8   4   8   8   8   4
#     4   9  18  34  55  78 105 140 183 233 281 325
#     4  11  24  38  55  85 119 145 180 234 281 323
#     4   9  18  35  61  85 105 142 185 222 271 333
#     4  10  20  37  59  83 112 143 184 230 274 327
#     4   9  18  32  52  79 105 134 179 229 274 329
#     4  10  21  36  54  76 108 150 188 220 271 341
#     4  11  21  37  63  85 109 150 185 216 273 345
#
# _framework density 18.536134000000001
#
# number of rings (size 3 to 8) (size 9 to 14) (size 15 to 20)
#    0.000    2.167    1.667    1.250    1.167    2.000 
#    1.500    0.417    0.000    0.000    0.000    0.000 
#    0.000    0.000    0.000    0.000    0.000    0.000 
#
# Total GULP energy -595253.217823 kJ/mol
# GULP energy per Si atom -12401.108705 kJ/mol
# Density = 1.849394 g / cm^3
# Si number density = 18.536134 Si / 1000 Ang^3
#
#
#
# Elastic Constant Matrix: (Units=GPa)
#
#
# Indices 1 2 3 4 5 6 
#
# 1 138.7257 38.9151 74.3483 0.0000 0.0000 0.0000
# 2 38.9151 50.6045 49.5747 0.0000 0.0000 0.0000
# 3 74.3483 49.5747 136.8107 0.0000 0.0000 0.0000
# 4 0.0000 0.0000 0.0000 33.0904 0.0000 0.0000
# 5 0.0000 0.0000 0.0000 0.0000 27.0222 0.0000
# 6 0.0000 0.0000 0.0000 0.0000 0.0000 18.6639
#
#
#
# Elastic Compliance Matrix: (Units=1/GPa)
#
#
# Indices 1 2 3 4 5 6 
#
# 1 0.010646 -0.003906 -0.004370 0.000000 0.000000 0.000000
# 2 -0.003906 0.032069 -0.009498 0.000000 0.000000 0.000000
# 3 -0.004370 -0.009498 0.013126 0.000000 0.000000 0.000000
# 4 0.000000 0.000000 0.000000 0.030220 0.000000 0.000000
# 5 0.000000 0.000000 0.000000 0.000000 0.037007 0.000000
# 6 0.000000 0.000000 0.000000 0.000000 0.000000 0.053579
#
#
# Mechanical properties :
#
#
# Convention : Reuss Voigt Hill
#
# Bulk Modulus (GPa) = 49.27679 72.42410 60.85045
# Shear Modulus (GPa) = 22.83511 26.64216 24.73864
#
# Velocity S-wave (km/s) = 3.51369 3.79530 3.65720
# Velocity P-wave (km/s) = 6.56530 7.63953 7.12270
#
# Compressibility (1/GPa) = 0.02029353
#
# Stress axis : x y z
#
# Youngs Moduli (GPa) = 93.92914 31.18229 76.18357
#
# Poissons Ratio (x) = 0.12179 0.33295
# Poissons Ratio (y) = 0.36685 0.72361
# Poissons Ratio (z) = 0.41051 0.29618
#
# Static dielectric constant tensor:
#      x y z
#    x 3.778870 0.000000 0.000000 
#    y 0.000000 3.286150 0.000000 
#    z 0.000000 0.000000 3.401170 
# 
# 
# High freq. dielectric constant tensor:
#      x y z
#    x 1.735110 0.000000 0.000000 
#    y 0.000000 1.707740 0.000000 
#    z 0.000000 0.000000 1.713610 
# 
# From -- ./inp_files/25586.got.cif
#   From: 2010.03.12/outbox.cif.g09.slc.cpg/sg59_13_cif.got.tgz:25586.got - 2010.04.16 16:29:54.
