data_PCOD8244035
_publ_section_title
;
Structure prediction by ZEFSAII (Michael W. Deem and Ramdas Pophale) SiO2 
 PCOD8244035
Probable space group: P M M N
;
_chemical_formula_sum "Si O2"
_cell_formula_units_Z 64
_cell_length_a 29.016912
_cell_length_b 8.856208
_cell_length_c 12.466594
_cell_angle_alpha 90.000000
_cell_angle_beta 90.000000
_cell_angle_gamma 90.000000
_cell_volume 3203.662935
_symmetry_space_group_name_H-M "P M M N"
_symmetry_group_IT_number 59
_space_group.IT_coordinate_system_code '2'
_symmetry_cell_setting 'orthorhombic'
loop_
_space_group_symop_operation_xyz
x,y,z
1/2-x,1/2-y,z
1/2+x,-y,-z
-x,1/2+y,-z
-x,-y,-z
1/2+x,1/2+y,-z
1/2-x,y,z
x,1/2-y,z
loop_
_atom_site_type_symbol
_atom_site_label
_atom_site_fract_x
_atom_site_fract_y
_atom_site_fract_z
Si Si1 0.629551 0.428149 0.882375
Si Si2 0.804199 0.574418 0.047436
Si Si3 0.699661 0.571724 0.284802
Si Si4 0.431477 0.580333 0.490850
Si Si5 0.839422 0.574261 0.501605
Si Si6 0.997477 0.921384 0.665351
Si Si7 0.971217 0.927054 0.903202
Si Si8 0.800995 0.072575 0.702299
O O1 0.620631 0.250000 0.879235
O O2 0.580558 0.509483 0.894270
O O3 0.657261 0.487067 0.777228
O O4 0.663615 0.466370 0.978999
O O5 0.750000 0.537981 0.030686
O O6 0.813565 0.750000 0.020615
O O7 0.820368 0.533046 0.168069
O O8 0.750000 0.498087 0.296889
O O9 0.704124 0.750000 0.294538
O O10 0.668770 0.508583 0.381802
O O11 0.413270 0.750000 0.471608
O O12 0.391765 0.460701 0.471131
O O13 0.452013 0.565590 0.611323
O O14 0.467589 0.544221 0.397357
O O15 0.829826 0.750000 0.508859
O O16 0.805054 0.496980 0.584708
O O17 0.978701 0.750000 0.648837
O O18 0.998354 0.960949 0.791842
O O19 0.967814 0.750000 0.925983
O O20 0.000000 0.000000 0.000000
O O21 0.750000 0.028451 0.748025
O O22 0.805231 0.250000 0.692538
#
# Coordination Sequence:
#
# PCOD8244035 Si02
#       8
#     8   8   8   8   8   8   8   8
#     4  11  23  39  59  84 115 150 190 236 287 343
#     4   9  18  35  59  84 111 146 190 238 287 341
#     4   8  16  32  52  75 105 140 177 220 269 318
#     4  10  20  35  57  83 111 143 179 224 277 328
#     4  11  21  33  53  82 114 147 185 225 268 324
#     4   9  20  39  60  82 108 139 180 228 275 328
#     4  11  24  42  62  85 115 149 188 236 289 344
#     4  10  22  39  58  83 118 157 193 233 283 336
#
# _framework density 19.977132000000001
#
# number of rings (size 3 to 8) (size 9 to 14) (size 15 to 20)
#    0.000    2.125    0.000    3.750    0.000    7.000 
#    0.000    3.750    0.000    1.500    0.000    0.000 
#    0.000    0.000    0.000    0.000    0.000    0.000 
#
# Total GULP energy -793263.454307 kJ/mol
# GULP energy per Si atom -12394.741474 kJ/mol
# Density = 1.993166 g / cm^3
# Si number density = 19.977132 Si / 1000 Ang^3
#
#
#
# Elastic Constant Matrix: (Units=GPa)
#
#
# Indices 1 2 3 4 5 6 
#
# 1 94.5351 37.7853 47.8859 0.0000 0.0000 0.0000
# 2 37.7853 40.1082 40.4845 0.0000 0.0000 0.0000
# 3 47.8859 40.4845 137.5030 0.0000 0.0000 0.0000
# 4 0.0000 0.0000 0.0000 30.1991 0.0000 0.0000
# 5 0.0000 0.0000 0.0000 0.0000 23.8431 0.0000
# 6 0.0000 0.0000 0.0000 0.0000 0.0000 25.0615
#
#
#
# Elastic Compliance Matrix: (Units=1/GPa)
#
#
# Indices 1 2 3 4 5 6 
#
# 1 0.017255 -0.014499 -0.001740 0.000000 0.000000 0.000000
# 2 -0.014499 0.047659 -0.008983 0.000000 0.000000 0.000000
# 3 -0.001740 -0.008983 0.010523 0.000000 0.000000 0.000000
# 4 0.000000 0.000000 0.000000 0.033114 0.000000 0.000000
# 5 0.000000 0.000000 0.000000 0.000000 0.041941 0.000000
# 6 0.000000 0.000000 0.000000 0.000000 0.000000 0.039902
#
#
# Mechanical properties :
#
#
# Convention : Reuss Voigt Hill
#
# Bulk Modulus (GPa) = 40.01080 58.27307 49.14193
# Shear Modulus (GPa) = 20.06683 25.55344 22.81014
#
# Velocity S-wave (km/s) = 3.17281 3.58038 3.38274
# Velocity P-wave (km/s) = 5.78741 6.80627 6.31741
#
# Compressibility (1/GPa) = 0.02499325
#
# Stress axis : x y z
#
# Youngs Moduli (GPa) = 57.95535 20.98257 95.02714
#
# Poissons Ratio (x) = 0.30422 0.16536
# Poissons Ratio (y) = 0.84029 0.85360
# Poissons Ratio (z) = 0.10085 0.18848
#
# Static dielectric constant tensor:
#      x y z
#    x 3.767290 0.000000 0.000000 
#    y 0.000000 3.443270 0.000000 
#    z 0.000000 0.000000 3.946950 
# 
# 
# High freq. dielectric constant tensor:
#      x y z
#    x 1.774940 0.000000 0.000000 
#    y 0.000000 1.767540 0.000000 
#    z 0.000000 0.000000 1.790750 
# 
# From -- ./inp_files/19338.got.cif
#   From: 2010.03.12/outbox.cif.g09.slc.cpg/sg59_10_cif.got.tgz:19338.got - 2010.04.16 16:29:54.
