data_PCOD8244428
_publ_section_title
;
Structure prediction by ZEFSAII (Michael W. Deem and Ramdas Pophale) SiO2 
 PCOD8244428
Probable space group: P M M N
;
_chemical_formula_sum "Si O2"
_cell_formula_units_Z 56
_cell_length_a 19.064443
_cell_length_b 8.793316
_cell_length_c 16.479864
_cell_angle_alpha 90.000000
_cell_angle_beta 90.000000
_cell_angle_gamma 90.000000
_cell_volume 2762.678990
_symmetry_space_group_name_H-M "P M M N"
_symmetry_group_IT_number 59
_space_group.IT_coordinate_system_code '2'
_symmetry_cell_setting 'orthorhombic'
loop_
_space_group_symop_operation_xyz
x,y,z
1/2-x,1/2-y,z
1/2+x,-y,-z
-x,1/2+y,-z
-x,-y,-z
1/2+x,1/2+y,-z
1/2-x,y,z
x,1/2-y,z
loop_
_atom_site_type_symbol
_atom_site_label
_atom_site_fract_x
_atom_site_fract_y
_atom_site_fract_z
Si Si1 0.550156 0.928318 0.240166
Si Si2 0.924843 0.575946 0.500282
Si Si3 0.168427 0.073031 0.020100
Si Si4 0.828823 0.930047 0.356904
Si Si5 0.049750 0.570468 0.931763
Si Si6 0.832854 0.421784 0.814080
Si Si7 0.577771 0.575260 0.681988
O O1 0.545433 0.750000 0.222930
O O2 0.626803 0.972395 0.275939
O O3 0.530240 0.016360 0.158199
O O4 0.492686 0.976474 0.306804
O O5 0.936786 0.750000 0.475734
O O6 0.869673 0.503351 0.436029
O O7 0.893541 0.558369 0.590527
O O8 0.000000 0.500000 0.500000
O O9 0.250000 0.042617 0.006688
O O10 0.149638 0.250000 0.018137
O O11 0.141055 0.005379 0.104877
O O12 0.128880 0.986376 0.947963
O O13 0.750000 0.000134 0.350997
O O14 0.822884 0.750000 0.365377
O O15 0.044018 0.750000 0.936402
O O16 0.000000 0.500000 0.000000
O O17 0.750000 0.422434 0.809520
O O18 0.862605 0.250000 0.814443
O O19 0.860309 0.513933 0.737805
O O20 0.560955 0.750000 0.703010
#
# Coordination Sequence:
#
# PCOD8244428 Si02
#       7
#     8   8   8   8   8   8   8
#     4  11  22  38  61  86 116 157 199 247 302 358
#     4  10  20  36  60  87 116 154 197 244 293 349
#     4  10  21  39  62  86 115 152 195 242 296 358
#     4   9  19  37  61  89 119 155 200 247 295 351
#     4  12  25  41  61  87 121 155 199 252 301 359
#     4  10  21  37  57  83 117 155 195 241 295 352
#     4  11  22  35  57  87 119 155 196 242 294 354
#
# _framework density 20.270178999999999
#
# number of rings (size 3 to 8) (size 9 to 14) (size 15 to 20)
#    0.000    1.571    1.429    3.857    0.000    3.429 
#    0.000    2.857    0.000    3.429    0.000    0.000 
#    0.000    0.000    0.000    0.000    0.000    0.000 
#
# Total GULP energy -694478.806448 kJ/mol
# GULP energy per Si atom -12401.407258 kJ/mol
# Density = 2.022404 g / cm^3
# Si number density = 20.270179 Si / 1000 Ang^3
#
#
#
# Elastic Constant Matrix: (Units=GPa)
#
#
# Indices 1 2 3 4 5 6 
#
# 1 82.0357 27.5182 42.6530 0.0000 0.0000 0.0000
# 2 27.5182 100.9788 41.9626 0.0000 0.0000 0.0000
# 3 42.6530 41.9626 102.9121 0.0000 0.0000 0.0000
# 4 0.0000 0.0000 0.0000 28.6196 0.0000 0.0000
# 5 0.0000 0.0000 0.0000 0.0000 34.6526 0.0000
# 6 0.0000 0.0000 0.0000 0.0000 0.0000 30.5045
#
#
#
# Elastic Compliance Matrix: (Units=1/GPa)
#
#
# Indices 1 2 3 4 5 6 
#
# 1 0.015839 -0.001912 -0.005785 0.000000 0.000000 0.000000
# 2 -0.001912 0.012154 -0.004163 0.000000 0.000000 0.000000
# 3 -0.005785 -0.004163 0.013812 0.000000 0.000000 0.000000
# 4 0.000000 0.000000 0.000000 0.034941 0.000000 0.000000
# 5 0.000000 0.000000 0.000000 0.000000 0.028858 0.000000
# 6 0.000000 0.000000 0.000000 0.000000 0.000000 0.032782
#
#
# Mechanical properties :
#
#
# Convention : Reuss Voigt Hill
#
# Bulk Modulus (GPa) = 55.29630 56.68823 55.99227
# Shear Modulus (GPa) = 29.73783 30.34153 30.03968
#
# Velocity S-wave (km/s) = 3.83439 3.87312 3.85381
# Velocity P-wave (km/s) = 6.85144 6.93025 6.89096
#
# Compressibility (1/GPa) = 0.01808439
#
# Stress axis : x y z
#
# Youngs Moduli (GPa) = 63.13509 82.27515 72.39961
#
# Poissons Ratio (x) = 0.15734 0.41882
# Poissons Ratio (y) = 0.12074 0.30142
# Poissons Ratio (z) = 0.36523 0.34254
#
# Static dielectric constant tensor:
#      x y z
#    x 3.832260 0.000000 0.000000 
#    y 0.000000 3.666690 0.000000 
#    z 0.000000 0.000000 3.956470 
# 
# 
# High freq. dielectric constant tensor:
#      x y z
#    x 1.794250 0.000000 0.000000 
#    y 0.000000 1.784000 0.000000 
#    z 0.000000 0.000000 1.799930 
# 
# From -- ./inp_files/24249.got.cif
#   From: 2010.03.12/outbox.cif.g09.slc.cpg/sg59_13_cif.got.tgz:24249.got - 2010.04.16 16:29:54.
