data_PCOD8244038
_publ_section_title
;
Structure prediction by ZEFSAII (Michael W. Deem and Ramdas Pophale) SiO2 
 PCOD8244038
Probable space group: P M M N
;
_chemical_formula_sum "Si O2"
_cell_formula_units_Z 64
_cell_length_a 8.689647
_cell_length_b 14.643125
_cell_length_c 26.220136
_cell_angle_alpha 90.000000
_cell_angle_beta 90.000000
_cell_angle_gamma 90.000000
_cell_volume 3336.344162
_symmetry_space_group_name_H-M "P M M N"
_symmetry_group_IT_number 59
_space_group.IT_coordinate_system_code '2'
_symmetry_cell_setting 'orthorhombic'
loop_
_space_group_symop_operation_xyz
x,y,z
1/2-x,1/2-y,z
1/2+x,-y,-z
-x,1/2+y,-z
-x,-y,-z
1/2+x,1/2+y,-z
1/2-x,y,z
x,1/2-y,z
loop_
_atom_site_type_symbol
_atom_site_label
_atom_site_fract_x
_atom_site_fract_y
_atom_site_fract_z
Si Si1 0.068086 0.501532 0.324783
Si Si2 0.567898 0.644643 0.870659
Si Si3 0.924587 0.649422 0.598864
Si Si4 0.421623 0.147707 0.607086
Si Si5 0.430912 0.900702 0.496688
Si Si6 0.932654 0.355364 0.869358
Si Si7 0.431429 0.499050 0.211653
Si Si8 0.567709 0.998924 0.055909
O O1 0.250000 0.494357 0.320783
O O2 0.003898 0.418474 0.359173
O O3 0.993879 0.497224 0.268142
O O4 0.022775 0.594858 0.351845
O O5 0.750000 0.638612 0.879205
O O6 0.512430 0.750000 0.868252
O O7 0.519738 0.593013 0.818373
O O8 0.486776 0.592024 0.916853
O O9 0.750000 0.619918 0.584457
O O10 0.926884 0.750000 0.623286
O O11 0.026919 0.652000 0.548169
O O12 0.250000 0.105209 0.603342
O O13 0.413760 0.250000 0.627747
O O14 0.497805 0.149705 0.551626
O O15 0.250000 0.904306 0.489383
O O16 0.500000 0.000000 0.500000
O O17 0.750000 0.360657 0.876129
O O18 0.988669 0.250000 0.866341
O O19 0.985851 0.409696 0.818362
O O20 0.008682 0.406538 0.917088
O O21 0.250000 0.502461 0.217152
O O22 0.750000 0.997081 0.054140
O O23 0.500000 0.000000 0.000000
#
# Coordination Sequence:
#
# PCOD8244038 Si02
#       8
#     8   8   8   8   8   8   8   8
#     4  10  20  35  57  83 112 146 182 224 272 324
#     4   9  18  35  59  84 112 148 190 233 277 327
#     4  10  21  36  54  80 113 145 178 219 267 320
#     4  11  24  40  57  79 109 144 181 224 273 325
#     4  12  23  37  59  82 106 139 177 220 273 330
#     4   9  18  35  58  82 111 148 189 234 281 326
#     4   8  16  32  55  84 112 141 183 230 275 321
#     4  11  22  36  55  81 116 152 188 232 278 329
#
# _framework density 19.182673999999999
#
# number of rings (size 3 to 8) (size 9 to 14) (size 15 to 20)
#    0.000    2.000    1.250    3.750    0.000    4.750 
#    0.000    6.250    0.000    0.000    0.000    3.500 
#    0.000    0.000    0.000    0.000    0.000    0.000 
#
# Total GULP energy -793516.058096 kJ/mol
# GULP energy per Si atom -12398.688408 kJ/mol
# Density = 1.913901 g / cm^3
# Si number density = 19.182674 Si / 1000 Ang^3
#
#
#
# Elastic Constant Matrix: (Units=GPa)
#
#
# Indices 1 2 3 4 5 6 
#
# 1 39.9971 22.5572 23.4931 0.0000 0.0000 0.0000
# 2 22.5572 151.7255 67.9089 0.0000 0.0000 0.0000
# 3 23.4931 67.9089 169.7362 0.0000 0.0000 0.0000
# 4 0.0000 0.0000 0.0000 6.6908 0.0000 0.0000
# 5 0.0000 0.0000 0.0000 0.0000 22.6787 0.0000
# 6 0.0000 0.0000 0.0000 0.0000 0.0000 23.5153
#
#
#
# Elastic Compliance Matrix: (Units=1/GPa)
#
#
# Indices 1 2 3 4 5 6 
#
# 1 0.028284 -0.002988 -0.002719 0.000000 0.000000 0.000000
# 2 -0.002988 0.008344 -0.002925 0.000000 0.000000 0.000000
# 3 -0.002719 -0.002925 0.007438 0.000000 0.000000 0.000000
# 4 0.000000 0.000000 0.000000 0.149458 0.000000 0.000000
# 5 0.000000 0.000000 0.000000 0.000000 0.044094 0.000000
# 6 0.000000 0.000000 0.000000 0.000000 0.000000 0.042525
#
#
# Mechanical properties :
#
#
# Convention : Reuss Voigt Hill
#
# Bulk Modulus (GPa) = 37.31037 65.48635 51.39836
# Shear Modulus (GPa) = 16.32158 27.07694 21.69926
#
# Velocity S-wave (km/s) = 2.92010 3.76111 3.36697
# Velocity P-wave (km/s) = 5.55532 7.28517 6.47824
#
# Compressibility (1/GPa) = 0.02680220
#
# Stress axis : x y z
#
# Youngs Moduli (GPa) = 35.35542 119.84459 134.44366
#
# Poissons Ratio (x) = 0.35808 0.36561
# Poissons Ratio (y) = 0.10564 0.39322
# Poissons Ratio (z) = 0.09615 0.35052
#
# Static dielectric constant tensor:
#      x y z
#    x 3.403540 0.000000 0.000000 
#    y 0.000000 3.650250 0.000000 
#    z 0.000000 0.000000 3.739400 
# 
# 
# High freq. dielectric constant tensor:
#      x y z
#    x 1.728200 0.000000 0.000000 
#    y 0.000000 1.755140 0.000000 
#    z 0.000000 0.000000 1.745080 
# 
# From -- ./inp_files/31652.got.cif
#   From: 2010.03.12/outbox.cif.g09.slc.cpg/sg59_16_cif.got.tgz:31652.got - 2010.04.16 16:29:54.
