data_PCOD8244249
_publ_section_title
;
Structure prediction by ZEFSAII (Michael W. Deem and Ramdas Pophale) SiO2 
 PCOD8244249
Probable space group: P M M N
;
_chemical_formula_sum "Si O2"
_cell_formula_units_Z 48
_cell_length_a 8.951769
_cell_length_b 9.360279
_cell_length_c 28.903337
_cell_angle_alpha 90.000000
_cell_angle_beta 90.000000
_cell_angle_gamma 90.000000
_cell_volume 2421.841111
_symmetry_space_group_name_H-M "P M M N"
_symmetry_group_IT_number 59
_space_group.IT_coordinate_system_code '2'
_symmetry_cell_setting 'orthorhombic'
loop_
_space_group_symop_operation_xyz
x,y,z
1/2-x,1/2-y,z
1/2+x,-y,-z
-x,1/2+y,-z
-x,-y,-z
1/2+x,1/2+y,-z
1/2-x,y,z
x,1/2-y,z
loop_
_atom_site_type_symbol
_atom_site_label
_atom_site_fract_x
_atom_site_fract_y
_atom_site_fract_z
Si Si1 0.581055 0.091729 0.203109
Si Si2 0.573436 0.581946 0.626952
Si Si3 0.927436 0.917594 0.457492
Si Si4 0.426027 0.082910 0.709397
Si Si5 0.075214 0.035968 0.108605
Si Si6 0.424974 0.750000 0.066295
Si Si7 0.574561 0.750000 0.967529
O O1 0.750000 0.058693 0.189233
O O2 0.564983 0.250000 0.225502
O O3 0.489532 0.090902 0.156233
O O4 0.527056 0.972729 0.239753
O O5 0.750000 0.562433 0.620062
O O6 0.530517 0.750000 0.625200
O O7 0.486181 0.494022 0.588192
O O8 0.523169 0.512291 0.674893
O O9 0.750000 0.932875 0.460181
O O10 0.973373 0.750000 0.457778
O O11 0.000000 0.000000 0.500000
O O12 0.250000 0.057787 0.700117
O O13 0.467218 0.250000 0.704776
O O14 0.250000 0.057835 0.113486
O O15 0.019090 0.116602 0.062772
O O16 0.023319 0.876701 0.099249
O O17 0.250000 0.750000 0.056402
O O18 0.499169 0.750000 0.016789
O O19 0.750000 0.750000 0.976294
#
# Coordination Sequence:
#
# PCOD8244249 Si02
#       7
#     8   8   8   8   8   4   4
#     4  10  21  37  58  84 112 146 189 233 282 342
#     4  11  24  41  62  91 125 162 207 253 300 359
#     4  11  24  41  63  93 128 167 212 260 309 361
#     4  10  22  40  62  89 120 153 194 245 298 355
#     4  10  21  37  55  79 111 144 181 226 278 336
#     4  10  22  36  54  80 110 142 180 226 277 334
#     4  10  20  36  56  78 106 144 184 226 273 330
#
# _framework density 19.819631000000001
#
# number of rings (size 3 to 8) (size 9 to 14) (size 15 to 20)
#    0.000    1.667    0.833    3.000    1.167    9.667 
#    0.000    0.000    0.000    0.000    0.000    0.000 
#    0.000    0.000    0.000    0.000    0.000    0.000 
#
# Total GULP energy -595073.260478 kJ/mol
# GULP energy per Si atom -12397.359593 kJ/mol
# Density = 1.977452 g / cm^3
# Si number density = 19.819631 Si / 1000 Ang^3
#
#
#
# Elastic Constant Matrix: (Units=GPa)
#
#
# Indices 1 2 3 4 5 6 
#
# 1 56.5133 50.0510 37.9895 0.0000 0.0000 0.0000
# 2 50.0510 155.2884 50.3599 0.0000 0.0000 0.0000
# 3 37.9895 50.3599 108.6776 0.0000 0.0000 0.0000
# 4 0.0000 0.0000 0.0000 46.5374 0.0000 0.0000
# 5 0.0000 0.0000 0.0000 0.0000 37.3717 0.0000
# 6 0.0000 0.0000 0.0000 0.0000 0.0000 18.2123
#
#
#
# Elastic Compliance Matrix: (Units=1/GPa)
#
#
# Indices 1 2 3 4 5 6 
#
# 1 0.028365 -0.006975 -0.006683 0.000000 0.000000 0.000000
# 2 -0.006975 0.009294 -0.001868 0.000000 0.000000 0.000000
# 3 -0.006683 -0.001868 0.012403 0.000000 0.000000 0.000000
# 4 0.000000 0.000000 0.000000 0.021488 0.000000 0.000000
# 5 0.000000 0.000000 0.000000 0.000000 0.026758 0.000000
# 6 0.000000 0.000000 0.000000 0.000000 0.000000 0.054908
#
#
# Mechanical properties :
#
#
# Convention : Reuss Voigt Hill
#
# Bulk Modulus (GPa) = 52.60660 66.36444 59.48552
# Shear Modulus (GPa) = 26.23219 32.56287 29.39753
#
# Velocity S-wave (km/s) = 3.64200 4.05774 3.85548
# Velocity P-wave (km/s) = 6.65476 7.45054 7.06387
#
# Compressibility (1/GPa) = 0.01900902
#
# Stress axis : x y z
#
# Youngs Moduli (GPa) = 35.25490 107.60054 80.62245
#
# Poissons Ratio (x) = 0.75051 0.53881
# Poissons Ratio (y) = 0.24590 0.15063
# Poissons Ratio (z) = 0.23561 0.20104
#
# Static dielectric constant tensor:
#      x y z
#    x 3.531680 0.000000 0.000000 
#    y 0.000000 3.985710 0.000000 
#    z 0.000000 0.000000 3.741670 
# 
# 
# High freq. dielectric constant tensor:
#      x y z
#    x 1.765120 0.000000 0.000000 
#    y 0.000000 1.795180 0.000000 
#    z 0.000000 0.000000 1.782770 
# 
# From -- ./inp_files/32959.got.cif
#   From: 2010.03.12/outbox.cif.g09.slc.cpg/sg59_17_cif.got.tgz:32959.got - 2010.04.16 16:29:54.
