data_PCOD8244429
_publ_section_title
;
Structure prediction by ZEFSAII (Michael W. Deem and Ramdas Pophale) SiO2 
 PCOD8244429
Probable space group: P M M N
;
_chemical_formula_sum "Si O2"
_cell_formula_units_Z 64
_cell_length_a 8.933340
_cell_length_b 18.970520
_cell_length_c 20.035178
_cell_angle_alpha 90.000000
_cell_angle_beta 90.000000
_cell_angle_gamma 90.000000
_cell_volume 3395.363722
_symmetry_space_group_name_H-M "P M M N"
_symmetry_group_IT_number 59
_space_group.IT_coordinate_system_code '2'
_symmetry_cell_setting 'orthorhombic'
loop_
_space_group_symop_operation_xyz
x,y,z
1/2-x,1/2-y,z
1/2+x,-y,-z
-x,1/2+y,-z
-x,-y,-z
1/2+x,1/2+y,-z
1/2-x,y,z
x,1/2-y,z
loop_
_atom_site_type_symbol
_atom_site_label
_atom_site_fract_x
_atom_site_fract_y
_atom_site_fract_z
Si Si1 0.424491 0.919144 0.297070
Si Si2 0.575487 0.446787 0.851937
Si Si3 0.072658 0.574449 0.516447
Si Si4 0.576983 0.667087 0.406002
Si Si5 0.420690 0.830808 0.759746
Si Si6 0.921732 0.608909 0.878037
Si Si7 0.422956 0.428253 0.979757
Si Si8 0.923888 0.924756 0.652733
O O1 0.250000 0.899929 0.302031
O O2 0.478473 0.920310 0.220346
O O3 0.521620 0.860363 0.334257
O O4 0.455729 0.993964 0.331526
O O5 0.750000 0.434662 0.861104
O O6 0.534513 0.528821 0.859474
O O7 0.493916 0.400965 0.910055
O O8 0.250000 0.566915 0.513130
O O9 0.000000 0.500000 0.500000
O O10 0.021283 0.632753 0.463999
O O11 0.021400 0.599325 0.589516
O O12 0.750000 0.646624 0.416023
O O13 0.551778 0.750000 0.408759
O O14 0.250000 0.856280 0.751730
O O15 0.437179 0.750000 0.738136
O O16 0.471573 0.839270 0.836605
O O17 0.529530 0.877722 0.715149
O O18 0.750000 0.623142 0.858022
O O19 0.946091 0.624495 0.957281
O O20 0.250000 0.443351 0.967708
O O21 0.500000 0.500000 0.000000
O O22 0.750000 0.911880 0.637338
#
# Coordination Sequence:
#
# PCOD8244429 Si02
#       8
#     8   8   8   8   8   8   8   8
#     4  10  20  36  60  87 117 152 190 237 289 343
#     4   9  17  31  51  80 112 141 181 231 282 337
#     4  12  24  40  64  92 121 154 193 238 286 340
#     4  11  25  43  63  90 122 156 195 236 284 344
#     4  11  24  38  53  79 114 152 196 243 292 347
#     4   9  17  32  51  73 107 146 187 233 283 340
#     4   9  17  28  45  74 108 140 178 226 280 335
#     4  11  22  39  62  87 115 150 192 238 288 344
#
# _framework density 18.849232000000001
#
# number of rings (size 3 to 8) (size 9 to 14) (size 15 to 20)
#    0.000    1.750    2.500    3.375    0.000    6.000 
#    0.000    0.000    0.000    0.750    0.000    0.000 
#    0.000    0.000    0.000    0.000    0.000    0.000 
#
# Total GULP energy -793637.639745 kJ/mol
# GULP energy per Si atom -12400.588121 kJ/mol
# Density = 1.880633 g / cm^3
# Si number density = 18.849232 Si / 1000 Ang^3
#
#
#
# Elastic Constant Matrix: (Units=GPa)
#
#
# Indices 1 2 3 4 5 6 
#
# 1 112.3956 43.9393 62.2809 0.0000 0.0000 0.0000
# 2 43.9393 58.4864 31.5966 0.0000 0.0000 0.0000
# 3 62.2809 31.5966 143.8247 0.0000 0.0000 0.0000
# 4 0.0000 0.0000 0.0000 19.1651 0.0000 0.0000
# 5 0.0000 0.0000 0.0000 0.0000 40.3999 0.0000
# 6 0.0000 0.0000 0.0000 0.0000 0.0000 24.2515
#
#
#
# Elastic Compliance Matrix: (Units=1/GPa)
#
#
# Indices 1 2 3 4 5 6 
#
# 1 0.014779 -0.008675 -0.004494 0.000000 0.000000 0.000000
# 2 -0.008675 0.024493 -0.001624 0.000000 0.000000 0.000000
# 3 -0.004494 -0.001624 0.009256 0.000000 0.000000 0.000000
# 4 0.000000 0.000000 0.000000 0.052178 0.000000 0.000000
# 5 0.000000 0.000000 0.000000 0.000000 0.024753 0.000000
# 6 0.000000 0.000000 0.000000 0.000000 0.000000 0.041235
#
#
# Mechanical properties :
#
#
# Convention : Reuss Voigt Hill
#
# Bulk Modulus (GPa) = 52.79561 65.59337 59.19449
# Shear Modulus (GPa) = 24.68010 28.55596 26.61803
#
# Velocity S-wave (km/s) = 3.62241 3.89648 3.76194
# Velocity P-wave (km/s) = 6.75026 7.42414 7.09521
#
# Compressibility (1/GPa) = 0.01894097
#
# Stress axis : x y z
#
# Youngs Moduli (GPa) = 67.66503 40.82825 108.04147
#
# Poissons Ratio (x) = 0.35419 0.48552
# Poissons Ratio (y) = 0.58700 0.17548
# Poissons Ratio (z) = 0.30408 0.06631
#
# Static dielectric constant tensor:
#      x y z
#    x 3.572530 0.000000 0.000000 
#    y 0.000000 3.097450 0.000000 
#    z 0.000000 0.000000 3.947750 
# 
# 
# High freq. dielectric constant tensor:
#      x y z
#    x 1.740220 0.000000 0.000000 
#    y 0.000000 1.690310 0.000000 
#    z 0.000000 0.000000 1.752850 
# 
# From -- ./inp_files/29412.got.cif
#   From: 2010.03.12/outbox.cif.g09.slc.cpg/sg59_15_cif.got.tgz:29412.got - 2010.04.16 16:29:54.
