data_PCOD8244113
_publ_section_title
;
Structure prediction by ZEFSAII (Michael W. Deem and Ramdas Pophale) SiO2 
 PCOD8244113
Probable space group: P M M N
;
_chemical_formula_sum "Si O2"
_cell_formula_units_Z 48
_cell_length_a 8.840353
_cell_length_b 13.054213
_cell_length_c 20.778281
_cell_angle_alpha 90.000000
_cell_angle_beta 90.000000
_cell_angle_gamma 90.000000
_cell_volume 2397.893646
_symmetry_space_group_name_H-M "P M M N"
_symmetry_group_IT_number 59
_space_group.IT_coordinate_system_code '2'
_symmetry_cell_setting 'orthorhombic'
loop_
_space_group_symop_operation_xyz
x,y,z
1/2-x,1/2-y,z
1/2+x,-y,-z
-x,1/2+y,-z
-x,-y,-z
1/2+x,1/2+y,-z
1/2-x,y,z
x,1/2-y,z
loop_
_atom_site_type_symbol
_atom_site_label
_atom_site_fract_x
_atom_site_fract_y
_atom_site_fract_z
Si Si1 0.421671 0.544670 0.686442
Si Si2 0.426039 0.941302 0.095060
Si Si3 0.920866 0.566465 0.448118
Si Si4 0.574179 0.250000 0.500680
Si Si5 0.070682 0.135033 0.778439
Si Si6 0.070337 0.250000 0.358000
Si Si7 0.574353 0.366172 0.045828
O O1 0.250000 0.573567 0.706457
O O2 0.422675 0.490836 0.618378
O O3 0.493134 0.459570 0.735177
O O4 0.517184 0.649579 0.682027
O O5 0.250000 0.936849 0.111228
O O6 0.515374 0.880125 0.149166
O O7 0.477973 0.059809 0.091830
O O8 0.466563 0.885298 0.028507
O O9 0.750000 0.595254 0.468154
O O10 0.000000 0.500000 0.500000
O O11 0.027949 0.663222 0.449481
O O12 0.750000 0.250000 0.483814
O O13 0.492150 0.250000 0.431139
O O14 0.250000 0.130013 0.775619
O O15 0.018907 0.250000 0.755283
O O16 0.250000 0.250000 0.361306
O O17 0.750000 0.389326 0.057949
O O18 0.532586 0.250000 0.064065
#
# Coordination Sequence:
#
# PCOD8244113 Si02
#       7
#     8   8   8   4   8   4   8
#     4  10  23  42  64  87 118 157 199 245 299 360
#     4  10  20  35  57  87 121 154 192 243 298 347
#     4  11  22  37  61  89 117 150 193 246 303 361
#     4  12  24  38  58  86 122 158 193 242 301 364
#     4  10  22  41  64  88 116 157 203 242 288 357
#     4  12  24  40  64  88 118 154 199 250 301 362
#     4   9  18  34  57  85 118 156 197 240 291 350
#
# _framework density 20.017569000000002
#
# number of rings (size 3 to 8) (size 9 to 14) (size 15 to 20)
#    0.000    1.667    1.667    3.000    1.167    3.333 
#    1.500    0.000    0.000    0.000    0.000    0.000 
#    0.000    0.000    0.000    0.000    0.000    0.000 
#
# Total GULP energy -594877.117777 kJ/mol
# GULP energy per Si atom -12393.273287 kJ/mol
# Density = 1.997201 g / cm^3
# Si number density = 20.017569 Si / 1000 Ang^3
#
#
#
# Elastic Constant Matrix: (Units=GPa)
#
#
# Indices 1 2 3 4 5 6 
#
# 1 69.6363 48.2700 25.1819 0.0000 0.0000 0.0000
# 2 48.2700 153.4337 30.2112 0.0000 0.0000 0.0000
# 3 25.1819 30.2112 53.3628 0.0000 0.0000 0.0000
# 4 0.0000 0.0000 0.0000 27.4358 0.0000 0.0000
# 5 0.0000 0.0000 0.0000 0.0000 28.1202 0.0000
# 6 0.0000 0.0000 0.0000 0.0000 0.0000 33.3736
#
#
#
# Elastic Compliance Matrix: (Units=1/GPa)
#
#
# Indices 1 2 3 4 5 6 
#
# 1 0.020298 -0.005064 -0.006711 0.000000 0.000000 0.000000
# 2 -0.005064 0.008599 -0.002478 0.000000 0.000000 0.000000
# 3 -0.006711 -0.002478 0.023310 0.000000 0.000000 0.000000
# 4 0.000000 0.000000 0.000000 0.036449 0.000000 0.000000
# 5 0.000000 0.000000 0.000000 0.000000 0.035562 0.000000
# 6 0.000000 0.000000 0.000000 0.000000 0.000000 0.029964
#
#
# Mechanical properties :
#
#
# Convention : Reuss Voigt Hill
#
# Bulk Modulus (GPa) = 42.19694 53.75100 47.97397
# Shear Modulus (GPa) = 26.23467 29.30388 27.76927
#
# Velocity S-wave (km/s) = 3.62412 3.83026 3.72861
# Velocity P-wave (km/s) = 6.21595 6.81699 6.52340
#
# Compressibility (1/GPa) = 0.02369840
#
# Stress axis : x y z
#
# Youngs Moduli (GPa) = 49.26687 116.29770 42.90034
#
# Poissons Ratio (x) = 0.58895 0.28792
# Poissons Ratio (y) = 0.24949 0.10632
# Poissons Ratio (z) = 0.33065 0.28822
#
# Static dielectric constant tensor:
#      x y z
#    x 3.689440 0.000000 0.000000 
#    y 0.000000 4.110170 0.000000 
#    z 0.000000 0.000000 3.412760 
# 
# 
# High freq. dielectric constant tensor:
#      x y z
#    x 1.775190 0.000000 0.000000 
#    y 0.000000 1.803490 0.000000 
#    z 0.000000 0.000000 1.764810 
# 
# From -- ./inp_files/25546.got.cif
#   From: 2010.03.12/outbox.cif.g09.slc.cpg/sg59_13_cif.got.tgz:25546.got - 2010.04.16 16:29:54.
