data_PCOD8244798
_publ_section_title
;
Structure prediction by ZEFSAII (Michael W. Deem and Ramdas Pophale) SiO2 
 PCOD8244798
Probable space group: P M M N
;
_chemical_formula_sum "Si O2"
_cell_formula_units_Z 48
_cell_length_a 9.094992
_cell_length_b 9.263501
_cell_length_c 30.577674
_cell_angle_alpha 90.000000
_cell_angle_beta 90.000000
_cell_angle_gamma 90.000000
_cell_volume 2576.213907
_symmetry_space_group_name_H-M "P M M N"
_symmetry_group_IT_number 59
_space_group.IT_coordinate_system_code '2'
_symmetry_cell_setting 'orthorhombic'
loop_
_space_group_symop_operation_xyz
x,y,z
1/2-x,1/2-y,z
1/2+x,-y,-z
-x,1/2+y,-z
-x,-y,-z
1/2+x,1/2+y,-z
1/2-x,y,z
x,1/2-y,z
loop_
_atom_site_type_symbol
_atom_site_label
_atom_site_fract_x
_atom_site_fract_y
_atom_site_fract_z
Si Si1 0.424524 0.912304 0.865377
Si Si2 0.579799 0.417843 0.790803
Si Si3 0.922978 0.080460 0.539689
Si Si4 0.415844 0.918060 0.962706
Si Si5 0.922085 0.082583 0.383398
Si Si6 0.581846 0.583194 0.705334
O O1 0.250000 0.922979 0.863884
O O2 0.474445 0.750000 0.852748
O O3 0.480987 0.950036 0.914331
O O4 0.492117 0.025937 0.832317
O O5 0.750000 0.453562 0.798300
O O6 0.548788 0.250000 0.785624
O O7 0.523397 0.493485 0.746616
O O8 0.750000 0.049304 0.537942
O O9 0.956645 0.250000 0.536507
O O10 0.000000 0.000000 0.500000
O O11 0.988103 0.019210 0.584369
O O12 0.250000 0.973886 0.964158
O O13 0.425163 0.750000 0.972966
O O14 0.500000 0.000000 0.000000
O O15 0.750000 0.047964 0.387126
O O16 0.954003 0.250000 0.394754
O O17 0.976963 0.044639 0.334984
O O18 0.750000 0.542119 0.693283
O O19 0.569132 0.750000 0.717998
#
# Coordination Sequence:
#
# PCOD8244798 Si02
#       6
#     8   8   8   8   8   8
#     4   9  19  36  55  74 100 136 176 216 259 310
#     4  10  21  35  52  78 110 140 173 217 266 314
#     4  11  24  40  59  84 113 146 184 225 269 317
#     4   9  19  35  53  75 103 134 170 213 260 311
#     4  10  21  37  58  85 114 143 179 222 267 317
#     4   9  18  34  55  77 105 144 184 219 259 310
#
# _framework density 18.631993000000001
#
# number of rings (size 3 to 8) (size 9 to 14) (size 15 to 20)
#    0.000    2.333    0.000    3.000    0.000    8.667 
#    0.000    8.333    0.000    0.000    0.000    0.000 
#    0.000    0.000    0.000    0.000    0.000    0.000 
#
# Total GULP energy -595275.644036 kJ/mol
# GULP energy per Si atom -12401.575917 kJ/mol
# Density = 1.858959 g / cm^3
# Si number density = 18.631993 Si / 1000 Ang^3
#
#
#
# Elastic Constant Matrix: (Units=GPa)
#
#
# Indices 1 2 3 4 5 6 
#
# 1 78.4802 52.5184 60.5125 0.0000 0.0000 0.0000
# 2 52.5184 88.4174 77.1638 0.0000 0.0000 0.0000
# 3 60.5125 77.1638 143.0093 0.0000 0.0000 0.0000
# 4 0.0000 0.0000 0.0000 39.7332 0.0000 0.0000
# 5 0.0000 0.0000 0.0000 0.0000 37.6767 0.0000
# 6 0.0000 0.0000 0.0000 0.0000 0.0000 31.1253
#
#
#
# Elastic Compliance Matrix: (Units=1/GPa)
#
#
# Indices 1 2 3 4 5 6 
#
# 1 0.022503 -0.009557 -0.004365 0.000000 0.000000 0.000000
# 2 -0.009557 0.025434 -0.009680 0.000000 0.000000 0.000000
# 3 -0.004365 -0.009680 0.014063 0.000000 0.000000 0.000000
# 4 0.000000 0.000000 0.000000 0.025168 0.000000 0.000000
# 5 0.000000 0.000000 0.000000 0.000000 0.026542 0.000000
# 6 0.000000 0.000000 0.000000 0.000000 0.000000 0.032128
#
#
# Mechanical properties :
#
#
# Convention : Reuss Voigt Hill
#
# Bulk Modulus (GPa) = 67.58443 76.69959 72.14201
# Shear Modulus (GPa) = 25.25577 29.68785 27.47181
#
# Velocity S-wave (km/s) = 3.68571 3.99605 3.84401
# Velocity P-wave (km/s) = 7.38002 7.90861 7.64888
#
# Compressibility (1/GPa) = 0.01479631
#
# Stress axis : x y z
#
# Youngs Moduli (GPa) = 44.43768 39.31677 71.11015
#
# Poissons Ratio (x) = 0.37575 0.31042
# Poissons Ratio (y) = 0.42469 0.68834
# Poissons Ratio (z) = 0.19399 0.38058
#
# Static dielectric constant tensor:
#      x y z
#    x 3.418940 0.000000 0.000000 
#    y 0.000000 3.398870 0.000000 
#    z 0.000000 0.000000 3.537160 
# 
# 
# High freq. dielectric constant tensor:
#      x y z
#    x 1.719840 0.000000 0.000000 
#    y 0.000000 1.722120 0.000000 
#    z 0.000000 0.000000 1.736750 
# 
# From -- ./inp_files/32774.got.cif
#   From: 2010.03.12/outbox.cif.g09.slc.cpg/sg59_17_cif.got.tgz:32774.got - 2010.04.16 16:29:54.
