data_PCOD8244564
_publ_section_title
;
Structure prediction by ZEFSAII (Michael W. Deem and Ramdas Pophale) SiO2 
 PCOD8244564
Probable space group: P M M N
;
_chemical_formula_sum "Si O2"
_cell_formula_units_Z 56
_cell_length_a 14.503005
_cell_length_b 8.847262
_cell_length_c 22.298202
_cell_angle_alpha 90.000000
_cell_angle_beta 90.000000
_cell_angle_gamma 90.000000
_cell_volume 2861.124331
_symmetry_space_group_name_H-M "P M M N"
_symmetry_group_IT_number 59
_space_group.IT_coordinate_system_code '2'
_symmetry_cell_setting 'orthorhombic'
loop_
_space_group_symop_operation_xyz
x,y,z
1/2-x,1/2-y,z
1/2+x,-y,-z
-x,1/2+y,-z
-x,-y,-z
1/2+x,1/2+y,-z
1/2-x,y,z
x,1/2-y,z
loop_
_atom_site_type_symbol
_atom_site_label
_atom_site_fract_x
_atom_site_fract_y
_atom_site_fract_z
Si Si1 0.993199 0.927531 0.711065
Si Si2 0.644645 0.573786 0.606144
Si Si3 0.750000 0.570394 0.879754
Si Si4 0.434573 0.571645 0.166512
Si Si5 0.359538 0.919764 0.513627
Si Si6 0.141826 0.425099 0.634488
Si Si7 0.054027 0.071907 0.945713
Si Si8 0.750000 0.571002 0.015876
O O1 0.993729 0.750000 0.724992
O O2 0.913841 0.972302 0.663979
O O3 0.975149 0.021020 0.770591
O O4 0.092000 0.978211 0.685781
O O5 0.750000 0.524850 0.618783
O O6 0.637783 0.750000 0.592140
O O7 0.602218 0.489240 0.548254
O O8 0.750000 0.750000 0.877608
O O9 0.838796 0.511246 0.844972
O O10 0.750000 0.507225 0.947830
O O11 0.417881 0.750000 0.165709
O O12 0.509080 0.521217 0.116690
O O13 0.250000 0.923073 0.510809
O O14 0.397325 0.750000 0.521521
O O15 0.393725 0.018510 0.569721
O O16 0.250000 0.454316 0.642319
O O17 0.116424 0.250000 0.641260
O O18 0.049625 0.250000 0.954214
O O19 0.159866 0.013639 0.948358
O O20 0.000000 0.000000 0.000000
O O21 0.750000 0.750000 0.011871
#
# Coordination Sequence:
#
# PCOD8244564 Si02
#       8
#     8   8   4   8   8   8   8   4
#     4  11  24  40  60  84 115 157 202 244 292 352
#     4   9  19  36  56  81 113 150 191 236 289 350
#     4  11  21  37  65  91 119 159 200 235 286 353
#     4  11  24  40  59  89 125 158 196 245 295 351
#     4   9  17  31  55  86 115 145 185 238 296 351
#     4  10  21  39  62  84 111 150 195 246 301 355
#     4  10  20  37  61  88 121 155 195 242 292 345
#     4   9  18  35  61  91 117 153 194 237 292 349
#
# _framework density 19.572725999999999
#
# number of rings (size 3 to 8) (size 9 to 14) (size 15 to 20)
#    0.000    2.000    1.429    1.929    1.000    4.857 
#    1.286    0.357    0.000    0.000    0.000    0.000 
#    0.000    0.000    0.000    0.000    0.000    0.000 
#
# Total GULP energy -694565.383492 kJ/mol
# GULP energy per Si atom -12402.953277 kJ/mol
# Density = 1.952818 g / cm^3
# Si number density = 19.572726 Si / 1000 Ang^3
#
#
#
# Elastic Constant Matrix: (Units=GPa)
#
#
# Indices 1 2 3 4 5 6 
#
# 1 108.3108 32.4266 59.8343 0.0000 0.0000 0.0000
# 2 32.4266 59.7660 38.4024 0.0000 0.0000 0.0000
# 3 59.8343 38.4024 140.3204 0.0000 0.0000 0.0000
# 4 0.0000 0.0000 0.0000 34.7134 0.0000 0.0000
# 5 0.0000 0.0000 0.0000 0.0000 31.0499 0.0000
# 6 0.0000 0.0000 0.0000 0.0000 0.0000 25.3475
#
#
#
# Elastic Compliance Matrix: (Units=1/GPa)
#
#
# Indices 1 2 3 4 5 6 
#
# 1 0.012892 -0.004201 -0.004348 0.000000 0.000000 0.000000
# 2 -0.004201 0.021671 -0.004139 0.000000 0.000000 0.000000
# 3 -0.004348 -0.004139 0.010113 0.000000 0.000000 0.000000
# 4 0.000000 0.000000 0.000000 0.028807 0.000000 0.000000
# 5 0.000000 0.000000 0.000000 0.000000 0.032206 0.000000
# 6 0.000000 0.000000 0.000000 0.000000 0.000000 0.039452
#
#
# Mechanical properties :
#
#
# Convention : Reuss Voigt Hill
#
# Bulk Modulus (GPa) = 51.81330 63.30264 57.55797
# Shear Modulus (GPa) = 28.25628 30.07108 29.16368
#
# Velocity S-wave (km/s) = 3.80367 3.92392 3.86426
# Velocity P-wave (km/s) = 6.76906 7.27612 7.02717
#
# Compressibility (1/GPa) = 0.01930006
#
# Stress axis : x y z
#
# Youngs Moduli (GPa) = 77.56594 46.14435 98.87981
#
# Poissons Ratio (x) = 0.19386 0.42989
# Poissons Ratio (y) = 0.32588 0.40930
# Poissons Ratio (z) = 0.33723 0.19101
#
# Static dielectric constant tensor:
#      x y z
#    x 3.805310 0.000000 0.000000 
#    y 0.000000 3.553970 0.000000 
#    z 0.000000 0.000000 3.584550 
# 
# 
# High freq. dielectric constant tensor:
#      x y z
#    x 1.768820 0.000000 0.000000 
#    y 0.000000 1.760580 0.000000 
#    z 0.000000 0.000000 1.760560 
# 
# From -- ./inp_files/30437.got.cif
#   From: 2010.03.12/outbox.cif.g09.slc.cpg/sg59_16_cif.got.tgz:30437.got - 2010.04.16 16:29:54.
