data_PCOD8244986
_publ_section_title
;
Structure prediction by ZEFSAII (Michael W. Deem and Ramdas Pophale) SiO2 
 PCOD8244986
Probable space group: P M M N
;
_chemical_formula_sum "Si O2"
_cell_formula_units_Z 56
_cell_length_a 8.894892
_cell_length_b 22.571323
_cell_length_c 14.252947
_cell_angle_alpha 90.000000
_cell_angle_beta 90.000000
_cell_angle_gamma 90.000000
_cell_volume 2861.556763
_symmetry_space_group_name_H-M "P M M N"
_symmetry_group_IT_number 59
_space_group.IT_coordinate_system_code '2'
_symmetry_cell_setting 'orthorhombic'
loop_
_space_group_symop_operation_xyz
x,y,z
1/2-x,1/2-y,z
1/2+x,-y,-z
-x,1/2+y,-z
-x,-y,-z
1/2+x,1/2+y,-z
1/2-x,y,z
x,1/2-y,z
loop_
_atom_site_type_symbol
_atom_site_label
_atom_site_fract_x
_atom_site_fract_y
_atom_site_fract_z
Si Si1 0.428716 0.125454 0.198300
Si Si2 0.427407 0.463566 0.360799
Si Si3 0.577651 0.927384 0.435656
Si Si4 0.573029 0.359387 0.861506
Si Si5 0.927339 0.250000 0.978889
Si Si6 0.578124 0.682720 0.319997
Si Si7 0.073086 0.436854 0.004916
Si Si8 0.070157 0.750000 0.811704
O O1 0.250000 0.133885 0.202363
O O2 0.484502 0.076185 0.273689
O O3 0.481867 0.102519 0.094942
O O4 0.504198 0.188274 0.229221
O O5 0.250000 0.468629 0.354541
O O6 0.483559 0.434280 0.458492
O O7 0.492622 0.530491 0.360172
O O8 0.750000 0.946911 0.430734
O O9 0.557109 0.858049 0.411484
O O10 0.750000 0.371436 0.870480
O O11 0.511928 0.305845 0.923838
O O12 0.533096 0.345617 0.755179
O O13 0.479234 0.412889 0.904068
O O14 0.750000 0.250000 0.981096
O O15 0.991962 0.250000 0.082589
O O16 0.750000 0.680531 0.283672
O O17 0.530659 0.750000 0.344737
O O18 0.250000 0.443378 0.010074
O O19 0.000000 0.500000 0.000000
O O20 0.250000 0.750000 0.801053
#
# Coordination Sequence:
#
# PCOD8244986 Si02
#       8
#     8   8   8   8   4   8   8   4
#     4  10  22  39  58  84 115 149 190 233 281 339
#     4   9  19  38  61  85 111 145 188 233 285 343
#     4   9  19  37  60  85 111 145 187 235 289 341
#     4  11  21  37  57  79 109 148 191 230 273 330
#     4   9  18  33  53  76 103 140 184 223 265 317
#     4  10  21  36  54  83 118 150 189 235 285 342
#     4  11  24  39  55  82 117 152 189 233 283 332
#     4  11  21  37  59  82 111 150 192 235 281 331
#
# _framework density 19.569766999999999
#
# number of rings (size 3 to 8) (size 9 to 14) (size 15 to 20)
#    0.000    2.000    2.143    1.071    2.000    1.714 
#    1.286    0.000    0.000    0.000    0.000    0.000 
#    0.000    0.000    0.000    0.000    0.000    0.000 
#
# Total GULP energy -694109.935580 kJ/mol
# GULP energy per Si atom -12394.820278 kJ/mol
# Density = 1.952523 g / cm^3
# Si number density = 19.569767 Si / 1000 Ang^3
#
#
#
# Elastic Constant Matrix: (Units=GPa)
#
#
# Indices 1 2 3 4 5 6 
#
# 1 52.8959 37.4483 21.3825 0.0000 0.0000 0.0000
# 2 37.4483 139.9277 37.6098 0.0000 0.0000 0.0000
# 3 21.3825 37.6098 66.9418 0.0000 0.0000 0.0000
# 4 0.0000 0.0000 0.0000 4.1677 0.0000 0.0000
# 5 0.0000 0.0000 0.0000 0.0000 23.3387 0.0000
# 6 0.0000 0.0000 0.0000 0.0000 0.0000 29.4923
#
#
#
# Elastic Compliance Matrix: (Units=1/GPa)
#
#
# Indices 1 2 3 4 5 6 
#
# 1 0.024618 -0.005271 -0.004902 0.000000 0.000000 0.000000
# 2 -0.005271 0.009546 -0.003680 0.000000 0.000000 0.000000
# 3 -0.004902 -0.003680 0.018572 0.000000 0.000000 0.000000
# 4 0.000000 0.000000 0.000000 0.239942 0.000000 0.000000
# 5 0.000000 0.000000 0.000000 0.000000 0.042847 0.000000
# 6 0.000000 0.000000 0.000000 0.000000 0.000000 0.033907
#
#
# Mechanical properties :
#
#
# Convention : Reuss Voigt Hill
#
# Bulk Modulus (GPa) = 39.95131 50.29406 45.12268
# Shear Modulus (GPa) = 12.33100 22.28804 17.30952
#
# Velocity S-wave (km/s) = 2.51291 3.37842 2.97729
# Velocity P-wave (km/s) = 5.37390 6.40109 5.90985
#
# Compressibility (1/GPa) = 0.02503047
#
# Stress axis : x y z
#
# Youngs Moduli (GPa) = 40.62013 104.75363 53.84567
#
# Poissons Ratio (x) = 0.55214 0.26396
# Poissons Ratio (y) = 0.21410 0.19814
# Poissons Ratio (z) = 0.19913 0.38546
#
# Static dielectric constant tensor:
#      x y z
#    x 3.395780 0.000000 0.000000 
#    y 0.000000 3.649250 0.000000 
#    z 0.000000 0.000000 3.644440 
# 
# 
# High freq. dielectric constant tensor:
#      x y z
#    x 1.750310 0.000000 0.000000 
#    y 0.000000 1.775530 0.000000 
#    z 0.000000 0.000000 1.750780 
# 
# From -- ./inp_files/21093.got.cif
#   From: 2010.03.12/outbox.cif.g09.slc.cpg/sg59_11_cif.got.tgz:21093.got - 2010.04.16 16:29:54.
