data_PCOD8244131
_publ_section_title
;
Structure prediction by ZEFSAII (Michael W. Deem and Ramdas Pophale) SiO2 
 PCOD8244131
Probable space group: P M M N
;
_chemical_formula_sum "Si O2"
_cell_formula_units_Z 48
_cell_length_a 18.552427
_cell_length_b 8.961097
_cell_length_c 15.063440
_cell_angle_alpha 90.000000
_cell_angle_beta 90.000000
_cell_angle_gamma 90.000000
_cell_volume 2504.298375
_symmetry_space_group_name_H-M "P M M N"
_symmetry_group_IT_number 59
_space_group.IT_coordinate_system_code '2'
_symmetry_cell_setting 'orthorhombic'
loop_
_space_group_symop_operation_xyz
x,y,z
1/2-x,1/2-y,z
1/2+x,-y,-z
-x,1/2+y,-z
-x,-y,-z
1/2+x,1/2+y,-z
1/2-x,y,z
x,1/2-y,z
loop_
_atom_site_type_symbol
_atom_site_label
_atom_site_fract_x
_atom_site_fract_y
_atom_site_fract_z
Si Si1 0.578024 0.074945 0.899171
Si Si2 0.416282 0.923856 0.404304
Si Si3 0.166782 0.075590 0.256242
Si Si4 0.587114 0.924128 0.080291
Si Si5 0.563402 0.077458 0.394302
Si Si6 0.666727 0.421175 0.235443
O O1 0.592046 0.250000 0.897951
O O2 0.493771 0.034688 0.889847
O O3 0.618841 0.002034 0.817802
O O4 0.608839 0.009851 0.990783
O O5 0.409286 0.750000 0.382987
O O6 0.406256 0.960131 0.508137
O O7 0.353857 0.010823 0.352379
O O8 0.494394 0.977819 0.370954
O O9 0.250000 0.040573 0.237324
O O10 0.150482 0.250000 0.254988
O O11 0.595642 0.750000 0.061493
O O12 0.641705 0.973105 0.156347
O O13 0.540051 0.250000 0.388657
O O14 0.625561 0.036006 0.325362
O O15 0.750000 0.450661 0.254521
O O16 0.651598 0.250000 0.208636
#
# Coordination Sequence:
#
# PCOD8244131 Si02
#       6
#     8   8   8   8   8   8
#     4  10  21  38  61  85 107 138 182 227 270 322
#     4  10  20  35  58  85 110 141 184 231 276 324
#     4  11  24  39  55  79 113 150 184 223 275 330
#     4  10  21  37  58  84 111 140 177 222 273 325
#     4   9  19  36  58  82 110 145 184 228 274 321
#     4  10  21  36  54  78 109 146 185 222 264 317
#
# _framework density 19.167045000000002
#
# number of rings (size 3 to 8) (size 9 to 14) (size 15 to 20)
#    0.000    2.000    0.000    3.000    0.000    9.000 
#    0.000    1.667    0.000    0.000    0.000    0.000 
#    0.000    0.000    0.000    0.000    0.000    0.000 
#
# Total GULP energy -595475.349724 kJ/mol
# GULP energy per Si atom -12405.736453 kJ/mol
# Density = 1.912342 g / cm^3
# Si number density = 19.167045 Si / 1000 Ang^3
#
#
#
# Elastic Constant Matrix: (Units=GPa)
#
#
# Indices 1 2 3 4 5 6 
#
# 1 54.8398 29.7494 30.8559 0.0000 0.0000 0.0000
# 2 29.7494 78.6134 33.8952 0.0000 0.0000 0.0000
# 3 30.8559 33.8952 91.1338 0.0000 0.0000 0.0000
# 4 0.0000 0.0000 0.0000 34.7912 0.0000 0.0000
# 5 0.0000 0.0000 0.0000 0.0000 11.3443 0.0000
# 6 0.0000 0.0000 0.0000 0.0000 0.0000 30.6294
#
#
#
# Elastic Compliance Matrix: (Units=1/GPa)
#
#
# Indices 1 2 3 4 5 6 
#
# 1 0.025423 -0.007038 -0.005990 0.000000 0.000000 0.000000
# 2 -0.007038 0.017098 -0.003976 0.000000 0.000000 0.000000
# 3 -0.005990 -0.003976 0.014480 0.000000 0.000000 0.000000
# 4 0.000000 0.000000 0.000000 0.028743 0.000000 0.000000
# 5 0.000000 0.000000 0.000000 0.000000 0.088150 0.000000
# 6 0.000000 0.000000 0.000000 0.000000 0.000000 0.032648
#
#
# Mechanical properties :
#
#
# Convention : Reuss Voigt Hill
#
# Bulk Modulus (GPa) = 43.49275 45.95422 44.72348
# Shear Modulus (GPa) = 20.14371 24.02543 22.08457
#
# Velocity S-wave (km/s) = 3.24536 3.54429 3.39811
# Velocity P-wave (km/s) = 6.06497 6.38569 6.22739
#
# Compressibility (1/GPa) = 0.02299234
#
# Stress axis : x y z
#
# Youngs Moduli (GPa) = 39.33398 58.48506 69.06124
#
# Poissons Ratio (x) = 0.41163 0.41368
# Poissons Ratio (y) = 0.27684 0.27461
# Poissons Ratio (z) = 0.23561 0.23256
#
# Static dielectric constant tensor:
#      x y z
#    x 3.423950 0.000000 0.000000 
#    y 0.000000 3.583760 0.000000 
#    z 0.000000 0.000000 3.629160 
# 
# 
# High freq. dielectric constant tensor:
#      x y z
#    x 1.737180 0.000000 0.000000 
#    y 0.000000 1.753680 0.000000 
#    z 0.000000 0.000000 1.757090 
# 
# From -- ./inp_files/20435.got.cif
#   From: 2010.03.12/outbox.cif.g09.slc.cpg/sg59_11_cif.got.tgz:20435.got - 2010.04.16 16:29:54.
