data_PCOD8244226
_publ_section_title
;
Structure prediction by ZEFSAII (Michael W. Deem and Ramdas Pophale) SiO2 
 PCOD8244226
Probable space group: P M M N
;
_chemical_formula_sum "Si O2"
_cell_formula_units_Z 64
_cell_length_a 8.792344
_cell_length_b 23.915485
_cell_length_c 16.719175
_cell_angle_alpha 90.000000
_cell_angle_beta 90.000000
_cell_angle_gamma 90.000000
_cell_volume 3515.593945
_symmetry_space_group_name_H-M "P M M N"
_symmetry_group_IT_number 59
_space_group.IT_coordinate_system_code '2'
_symmetry_cell_setting 'orthorhombic'
loop_
_space_group_symop_operation_xyz
x,y,z
1/2-x,1/2-y,z
1/2+x,-y,-z
-x,1/2+y,-z
-x,-y,-z
1/2+x,1/2+y,-z
1/2-x,y,z
x,1/2-y,z
loop_
_atom_site_type_symbol
_atom_site_label
_atom_site_fract_x
_atom_site_fract_y
_atom_site_fract_z
Si Si1 0.571669 0.186817 0.255240
Si Si2 0.927126 0.314191 0.616313
Si Si3 0.579422 0.683593 0.906781
Si Si4 0.430115 0.977857 0.320525
Si Si5 0.928766 0.085640 0.365283
Si Si6 0.571502 0.587724 0.464788
Si Si7 0.929015 0.127615 0.775377
Si Si8 0.430148 0.685911 0.067949
O O1 0.750000 0.186971 0.240757
O O2 0.514308 0.250000 0.275411
O O3 0.498628 0.162340 0.174341
O O4 0.526997 0.145582 0.327495
O O5 0.750000 0.329713 0.604045
O O6 0.959235 0.250000 0.599283
O O7 0.979860 0.329458 0.705998
O O8 0.027627 0.348112 0.552986
O O9 0.750000 0.660516 0.908342
O O10 0.572470 0.750000 0.907653
O O11 0.494214 0.660651 0.985304
O O12 0.250000 0.987695 0.320656
O O13 0.478449 0.952372 0.405813
O O14 0.479331 0.935176 0.249336
O O15 0.519084 0.035915 0.305434
O O16 0.750000 0.082189 0.382759
O O17 0.023831 0.074942 0.445089
O O18 0.750000 0.577258 0.453707
O O19 0.750000 0.130344 0.784209
O O20 0.999073 0.148276 0.859639
O O21 0.250000 0.682501 0.064018
O O22 0.482977 0.750000 0.081193
#
# Coordination Sequence:
#
# PCOD8244226 Si02
#       8
#     8   8   8   8   8   8   8   8
#     4   9  19  36  56  76  98 126 160 198 243 297
#     4   9  17  31  50  71 100 137 172 206 249 299
#     4   9  17  29  46  71 103 133 159 193 240 289
#     4  10  20  36  55  74  99 131 168 208 251 295
#     4  11  22  36  55  77  98 123 161 207 253 301
#     4  11  22  35  51  73 101 132 169 211 252 294
#     4   8  15  28  48  73  98 129 169 207 240 282
#     4   9  15  25  46  74 101 130 165 200 234 280
#
# _framework density 18.204605000000001
#
# number of rings (size 3 to 8) (size 9 to 14) (size 15 to 20)
#    0.000    2.500    0.000    3.750    0.000    4.750 
#    0.000    4.375    0.000    3.750    0.000    0.000 
#    0.000    0.000    0.000    0.000    0.000    0.000 
#
# Total GULP energy -793441.844621 kJ/mol
# GULP energy per Si atom -12397.528822 kJ/mol
# Density = 1.816317 g / cm^3
# Si number density = 18.204605 Si / 1000 Ang^3
#
#
#
# Elastic Constant Matrix: (Units=GPa)
#
#
# Indices 1 2 3 4 5 6 
#
# 1 41.7376 24.5608 21.4213 0.0000 0.0000 0.0000
# 2 24.5608 86.6719 30.0547 0.0000 0.0000 0.0000
# 3 21.4213 30.0547 74.3024 0.0000 0.0000 0.0000
# 4 0.0000 0.0000 0.0000 19.4209 0.0000 0.0000
# 5 0.0000 0.0000 0.0000 0.0000 16.7275 0.0000
# 6 0.0000 0.0000 0.0000 0.0000 0.0000 24.5172
#
#
#
# Elastic Compliance Matrix: (Units=1/GPa)
#
#
# Indices 1 2 3 4 5 6 
#
# 1 0.031084 -0.006631 -0.006279 0.000000 0.000000 0.000000
# 2 -0.006631 0.014835 -0.004089 0.000000 0.000000 0.000000
# 3 -0.006279 -0.004089 0.016923 0.000000 0.000000 0.000000
# 4 0.000000 0.000000 0.000000 0.051491 0.000000 0.000000
# 5 0.000000 0.000000 0.000000 0.000000 0.059782 0.000000
# 6 0.000000 0.000000 0.000000 0.000000 0.000000 0.040788
#
#
# Mechanical properties :
#
#
# Convention : Reuss Voigt Hill
#
# Bulk Modulus (GPa) = 34.67022 39.42062 37.04542
# Shear Modulus (GPa) = 19.34126 20.57812 19.95969
#
# Velocity S-wave (km/s) = 3.26304 3.36576 3.31480
# Velocity P-wave (km/s) = 5.76911 6.06677 5.91981
#
# Compressibility (1/GPa) = 0.02884320
#
# Stress axis : x y z
#
# Youngs Moduli (GPa) = 32.17080 67.40946 59.09223
#
# Poissons Ratio (x) = 0.44700 0.37106
# Poissons Ratio (y) = 0.21333 0.24162
# Poissons Ratio (z) = 0.20201 0.27562
#
# Static dielectric constant tensor:
#      x y z
#    x 3.233900 0.000000 0.000000 
#    y 0.000000 3.463730 0.000000 
#    z 0.000000 0.000000 3.442990 
# 
# 
# High freq. dielectric constant tensor:
#      x y z
#    x 1.693500 0.000000 0.000000 
#    y 0.000000 1.691000 0.000000 
#    z 0.000000 0.000000 1.697760 
# 
# From -- ./inp_files/21533.got.cif
#   From: 2010.03.12/outbox.cif.g09.slc.cpg/sg59_11_cif.got.tgz:21533.got - 2010.04.16 16:29:54.
