data_PCOD8244328
_publ_section_title
;
Structure prediction by ZEFSAII (Michael W. Deem and Ramdas Pophale) SiO2 
 PCOD8244328
Probable space group: P M M N
;
_chemical_formula_sum "Si O2"
_cell_formula_units_Z 56
_cell_length_a 8.954685
_cell_length_b 18.276749
_cell_length_c 17.501839
_cell_angle_alpha 90.000000
_cell_angle_beta 90.000000
_cell_angle_gamma 90.000000
_cell_volume 2864.395252
_symmetry_space_group_name_H-M "P M M N"
_symmetry_group_IT_number 59
_space_group.IT_coordinate_system_code '2'
_symmetry_cell_setting 'orthorhombic'
loop_
_space_group_symop_operation_xyz
x,y,z
1/2-x,1/2-y,z
1/2+x,-y,-z
-x,1/2+y,-z
-x,-y,-z
1/2+x,1/2+y,-z
1/2-x,y,z
x,1/2-y,z
loop_
_atom_site_type_symbol
_atom_site_label
_atom_site_fract_x
_atom_site_fract_y
_atom_site_fract_z
Si Si1 0.573806 0.922558 0.763523
Si Si2 0.923451 0.423323 0.516458
Si Si3 0.574068 0.165820 0.663095
Si Si4 0.579124 0.335464 0.365847
Si Si5 0.426028 0.169420 0.093987
Si Si6 0.424890 0.431683 0.960452
Si Si7 0.072856 0.073185 0.787041
O O1 0.750000 0.936759 0.766370
O O2 0.535189 0.870049 0.693730
O O3 0.511856 0.885112 0.841133
O O4 0.490755 0.998927 0.750904
O O5 0.750000 0.439655 0.525348
O O6 0.984203 0.384948 0.593527
O O7 0.956951 0.367466 0.448566
O O8 0.000000 0.500000 0.500000
O O9 0.750000 0.156426 0.674762
O O10 0.533196 0.250000 0.645719
O O11 0.491130 0.141650 0.740367
O O12 0.750000 0.352192 0.341735
O O13 0.547436 0.250000 0.369391
O O14 0.250000 0.175210 0.105034
O O15 0.498498 0.250000 0.103133
O O16 0.466636 0.139808 0.009949
O O17 0.250000 0.446940 0.960852
O O18 0.482984 0.419346 0.874555
O O19 0.500000 0.500000 0.000000
O O20 0.250000 0.072954 0.781207
#
# Coordination Sequence:
#
# PCOD8244328 Si02
#       7
#     8   8   8   8   8   8   8
#     4  11  21  35  57  83 114 152 193 236 280 341
#     4  10  21  38  60  85 113 150 195 238 286 344
#     4  10  22  41  63  86 116 156 200 244 291 347
#     4  10  21  37  57  82 115 150 184 231 289 343
#     4   9  18  33  54  80 109 144 185 230 281 336
#     4  10  20  36  58  82 111 149 191 236 284 343
#     4  11  23  37  58  87 117 152 193 239 290 345
#
# _framework density 19.550374000000001
#
# number of rings (size 3 to 8) (size 9 to 14) (size 15 to 20)
#    0.000    1.857    1.429    2.571    0.000    7.429 
#    0.000    1.429    0.000    3.857    0.000    0.000 
#    0.000    0.000    0.000    0.000    0.000    0.000 
#
# Total GULP energy -694548.685879 kJ/mol
# GULP energy per Si atom -12402.655105 kJ/mol
# Density = 1.950588 g / cm^3
# Si number density = 19.550374 Si / 1000 Ang^3
#
#
#
# Elastic Constant Matrix: (Units=GPa)
#
#
# Indices 1 2 3 4 5 6 
#
# 1 43.1564 36.0296 39.4329 0.0000 0.0000 0.0000
# 2 36.0296 118.1781 52.9725 0.0000 0.0000 0.0000
# 3 39.4329 52.9725 137.3316 0.0000 0.0000 0.0000
# 4 0.0000 0.0000 0.0000 37.2757 0.0000 0.0000
# 5 0.0000 0.0000 0.0000 0.0000 28.9272 0.0000
# 6 0.0000 0.0000 0.0000 0.0000 0.0000 24.4097
#
#
#
# Elastic Compliance Matrix: (Units=1/GPa)
#
#
# Indices 1 2 3 4 5 6 
#
# 1 0.036497 -0.007774 -0.007481 0.000000 0.000000 0.000000
# 2 -0.007774 0.011886 -0.002353 0.000000 0.000000 0.000000
# 3 -0.007481 -0.002353 0.010337 0.000000 0.000000 0.000000
# 4 0.000000 0.000000 0.000000 0.026827 0.000000 0.000000
# 5 0.000000 0.000000 0.000000 0.000000 0.034570 0.000000
# 6 0.000000 0.000000 0.000000 0.000000 0.000000 0.040967
#
#
# Mechanical properties :
#
#
# Convention : Reuss Voigt Hill
#
# Bulk Modulus (GPa) = 42.54308 61.72624 52.13466
# Shear Modulus (GPa) = 24.49354 29.47127 26.98240
#
# Velocity S-wave (km/s) = 3.54339 3.88681 3.71906
# Velocity P-wave (km/s) = 6.20877 7.19614 6.72061
#
# Compressibility (1/GPa) = 0.02350558
#
# Stress axis : x y z
#
# Youngs Moduli (GPa) = 27.39937 84.12938 96.73712
#
# Poissons Ratio (x) = 0.65400 0.72370
# Poissons Ratio (y) = 0.21300 0.22760
# Poissons Ratio (z) = 0.20498 0.19794
#
# Static dielectric constant tensor:
#      x y z
#    x 3.366310 0.000000 0.000000 
#    y 0.000000 -0.630150 0.000000 
#    z 0.000000 0.000000 3.821270 
# 
# 
# High freq. dielectric constant tensor:
#      x y z
#    x 1.740090 0.000000 0.000000 
#    y 0.000000 1.770720 0.000000 
#    z 0.000000 0.000000 1.775540 
# 
# From -- ./inp_files/20911.got.cif
#   From: 2010.03.12/outbox.cif.g09.slc.cpg/sg59_11_cif.got.tgz:20911.got - 2010.04.16 16:29:54.
