data_PCOD8244336
_publ_section_title
;
Structure prediction by ZEFSAII (Michael W. Deem and Ramdas Pophale) SiO2 
 PCOD8244336
Probable space group: P M M N
;
_chemical_formula_sum "Si O2"
_cell_formula_units_Z 64
_cell_length_a 8.765596
_cell_length_b 17.988121
_cell_length_c 21.428015
_cell_angle_alpha 90.000000
_cell_angle_beta 90.000000
_cell_angle_gamma 90.000000
_cell_volume 3378.696582
_symmetry_space_group_name_H-M "P M M N"
_symmetry_group_IT_number 59
_space_group.IT_coordinate_system_code '2'
_symmetry_cell_setting 'orthorhombic'
loop_
_space_group_symop_operation_xyz
x,y,z
1/2-x,1/2-y,z
1/2+x,-y,-z
-x,1/2+y,-z
-x,-y,-z
1/2+x,1/2+y,-z
1/2-x,y,z
x,1/2-y,z
loop_
_atom_site_type_symbol
_atom_site_label
_atom_site_fract_x
_atom_site_fract_y
_atom_site_fract_z
Si Si1 0.429391 0.664479 0.625086
Si Si2 0.075662 0.832525 0.867238
Si Si3 0.427961 0.953606 0.185558
Si Si4 0.572943 0.663797 0.269807
Si Si5 0.073924 0.393494 0.250959
Si Si6 0.422446 0.837855 0.397757
Si Si7 0.428898 0.080111 0.490688
Si Si8 0.071525 0.520539 0.934608
O O1 0.250000 0.659381 0.614287
O O2 0.484812 0.750000 0.623384
O O3 0.470099 0.627844 0.690862
O O4 0.510580 0.618490 0.571402
O O5 0.250000 0.843722 0.844822
O O6 0.050002 0.750000 0.895273
O O7 0.035806 0.892639 0.920477
O O8 0.968054 0.841586 0.807385
O O9 0.250000 0.937282 0.178700
O O10 0.512426 0.880841 0.210513
O O11 0.459881 0.021344 0.232861
O O12 0.495147 0.969693 0.117744
O O13 0.750000 0.647795 0.281160
O O14 0.541452 0.750000 0.256296
O O15 0.481675 0.635938 0.330514
O O16 0.250000 0.380706 0.268176
O O17 0.250000 0.867334 0.406801
O O18 0.429530 0.750000 0.403441
O O19 0.531929 0.869899 0.450127
O O20 0.250000 0.071247 0.484466
O O21 0.500000 0.000000 0.500000
O O22 0.250000 0.503925 0.935953
O O23 0.000000 0.500000 0.000000
#
# Coordination Sequence:
#
# PCOD8244336 Si02
#       8
#     8   8   8   8   8   8   8   8
#     4  11  24  41  60  83 114 151 189 231 283 342
#     4   9  18  34  56  82 112 147 188 232 279 334
#     4  10  21  37  58  84 116 152 190 234 284 338
#     4  10  21  37  59  87 116 148 190 239 290 342
#     4  10  21  35  55  85 117 149 186 231 281 336
#     4  10  21  39  62  85 112 147 187 233 287 346
#     4  12  26  42  60  82 111 147 189 238 288 342
#     4  10  20  36  58  83 114 152 193 235 282 338
#
# _framework density 18.942215000000001
#
# number of rings (size 3 to 8) (size 9 to 14) (size 15 to 20)
#    0.000    1.750    0.000    4.125    1.750    7.750 
#    0.000    0.625    0.000    2.250    0.000    0.000 
#    0.000    0.000    0.000    0.000    0.000    0.000 
#
# Total GULP energy -793886.301528 kJ/mol
# GULP energy per Si atom -12404.473461 kJ/mol
# Density = 1.889910 g / cm^3
# Si number density = 18.942215 Si / 1000 Ang^3
#
#
#
# Elastic Constant Matrix: (Units=GPa)
#
#
# Indices 1 2 3 4 5 6 
#
# 1 99.3482 54.2739 48.7394 0.0000 0.0000 0.0000
# 2 54.2739 84.0635 71.2387 0.0000 0.0000 0.0000
# 3 48.7394 71.2387 124.0998 0.0000 0.0000 0.0000
# 4 0.0000 0.0000 0.0000 25.3309 0.0000 0.0000
# 5 0.0000 0.0000 0.0000 0.0000 38.9027 0.0000
# 6 0.0000 0.0000 0.0000 0.0000 0.0000 31.3868
#
#
#
# Elastic Compliance Matrix: (Units=1/GPa)
#
#
# Indices 1 2 3 4 5 6 
#
# 1 0.015579 -0.009489 -0.000671 0.000000 0.000000 0.000000
# 2 -0.009489 0.028945 -0.012889 0.000000 0.000000 0.000000
# 3 -0.000671 -0.012889 0.015720 0.000000 0.000000 0.000000
# 4 0.000000 0.000000 0.000000 0.039477 0.000000 0.000000
# 5 0.000000 0.000000 0.000000 0.000000 0.025705 0.000000
# 6 0.000000 0.000000 0.000000 0.000000 0.000000 0.031861
#
#
# Mechanical properties :
#
#
# Convention : Reuss Voigt Hill
#
# Bulk Modulus (GPa) = 70.69401 72.89060 71.79231
# Shear Modulus (GPa) = 24.02681 28.00804 26.01743
#
# Velocity S-wave (km/s) = 3.56536 3.84943 3.71012
# Velocity P-wave (km/s) = 7.37231 7.63686 7.50575
#
# Compressibility (1/GPa) = 0.01414547
#
# Stress axis : x y z
#
# Youngs Moduli (GPa) = 64.18912 34.54858 63.61217
#
# Poissons Ratio (x) = 0.32785 0.04270
# Poissons Ratio (y) = 0.60912 0.81987
# Poissons Ratio (z) = 0.04308 0.44528
#
# Static dielectric constant tensor:
#      x y z
#    x 3.658850 0.000000 0.000000 
#    y 0.000000 3.574480 0.000000 
#    z 0.000000 0.000000 3.386010 
# 
# 
# High freq. dielectric constant tensor:
#      x y z
#    x 1.752020 0.000000 0.000000 
#    y 0.000000 1.740870 0.000000 
#    z 0.000000 0.000000 1.730440 
# 
# From -- ./inp_files/29363.got.cif
#   From: 2010.03.12/outbox.cif.g09.slc.cpg/sg59_15_cif.got.tgz:29363.got - 2010.04.16 16:29:54.
