data_PCOD8244168
_publ_section_title
;
Structure prediction by ZEFSAII (Michael W. Deem and Ramdas Pophale) SiO2 
 PCOD8244168
Probable space group: P M M N
;
_chemical_formula_sum "Si O2"
_cell_formula_units_Z 64
_cell_length_a 8.846036
_cell_length_b 14.311725
_cell_length_c 24.660925
_cell_angle_alpha 90.000000
_cell_angle_beta 90.000000
_cell_angle_gamma 90.000000
_cell_volume 3122.123279
_symmetry_space_group_name_H-M "P M M N"
_symmetry_group_IT_number 59
_space_group.IT_coordinate_system_code '2'
_symmetry_cell_setting 'orthorhombic'
loop_
_space_group_symop_operation_xyz
x,y,z
1/2-x,1/2-y,z
1/2+x,-y,-z
-x,1/2+y,-z
-x,-y,-z
1/2+x,1/2+y,-z
1/2-x,y,z
x,1/2-y,z
loop_
_atom_site_type_symbol
_atom_site_label
_atom_site_fract_x
_atom_site_fract_y
_atom_site_fract_z
Si Si1 0.571204 0.001994 0.558785
Si Si2 0.073179 0.539348 0.135567
Si Si3 0.081302 0.853262 0.629482
Si Si4 0.925577 0.853847 0.740939
Si Si5 0.426802 0.457462 0.757083
Si Si6 0.572312 0.142616 0.653217
Si Si7 0.074813 0.641728 0.029156
Si Si8 0.926318 0.646137 0.918729
O O1 0.750000 0.988893 0.554995
O O2 0.531015 0.092714 0.596009
O O3 0.500000 0.000000 0.500000
O O4 0.490484 0.913059 0.582950
O O5 0.250000 0.559119 0.143353
O O6 0.009890 0.588331 0.081497
O O7 0.040114 0.427401 0.129621
O O8 0.989096 0.586845 0.187029
O O9 0.250000 0.889585 0.647143
O O10 0.098015 0.750000 0.605509
O O11 0.962049 0.854258 0.677740
O O12 0.750000 0.879369 0.750014
O O13 0.960592 0.750000 0.765222
O O14 0.029699 0.933854 0.766102
O O15 0.250000 0.443107 0.752843
O O16 0.497906 0.412286 0.703350
O O17 0.750000 0.138969 0.663273
O O18 0.514512 0.250000 0.651012
O O19 0.250000 0.619259 0.022411
O O20 0.041333 0.750000 0.038313
O O21 0.995654 0.606562 0.974398
O O22 0.750000 0.652755 0.929040
O O23 0.990463 0.750000 0.903673
#
# Coordination Sequence:
#
# PCOD8244168 Si02
#       8
#     8   8   8   8   8   8   8   8
#     4  11  23  39  63  93 126 162 200 247 301 354
#     4  10  21  36  54  78 112 152 196 241 289 352
#     4  10  20  35  58  88 121 154 189 235 290 347
#     4  10  20  36  60  86 113 150 193 235 287 354
#     4  12  25  39  59  88 122 157 199 252 307 357
#     4  10  23  45  69  89 116 161 210 250 296 356
#     4   9  18  33  54  79 107 143 188 239 295 353
#     4   9  18  33  54  80 110 146 187 235 293 353
#
# _framework density 20.498871000000001
#
# number of rings (size 3 to 8) (size 9 to 14) (size 15 to 20)
#    0.000    1.875    1.250    2.625    0.000    4.750 
#    0.000    3.750    0.000    0.000    0.000    0.000 
#    0.000    0.000    0.000    0.000    0.000    0.000 
#
# Total GULP energy -793205.008629 kJ/mol
# GULP energy per Si atom -12393.828260 kJ/mol
# Density = 2.045222 g / cm^3
# Si number density = 20.498871 Si / 1000 Ang^3
#
#
#
# Elastic Constant Matrix: (Units=GPa)
#
#
# Indices 1 2 3 4 5 6 
#
# 1 63.7402 30.8151 36.1449 0.0000 0.0000 0.0000
# 2 30.8151 69.9083 36.2668 0.0000 0.0000 0.0000
# 3 36.1449 36.2668 108.2592 0.0000 0.0000 0.0000
# 4 0.0000 0.0000 0.0000 19.2649 0.0000 0.0000
# 5 0.0000 0.0000 0.0000 0.0000 35.3706 0.0000
# 6 0.0000 0.0000 0.0000 0.0000 0.0000 24.0640
#
#
#
# Elastic Compliance Matrix: (Units=1/GPa)
#
#
# Indices 1 2 3 4 5 6 
#
# 1 0.021923 -0.007100 -0.004941 0.000000 0.000000 0.000000
# 2 -0.007100 0.019613 -0.004200 0.000000 0.000000 0.000000
# 3 -0.004941 -0.004200 0.012294 0.000000 0.000000 0.000000
# 4 0.000000 0.000000 0.000000 0.051908 0.000000 0.000000
# 5 0.000000 0.000000 0.000000 0.000000 0.028272 0.000000
# 6 0.000000 0.000000 0.000000 0.000000 0.000000 0.041556
#
#
# Mechanical properties :
#
#
# Convention : Reuss Voigt Hill
#
# Bulk Modulus (GPa) = 46.84334 49.81792 48.33063
# Shear Modulus (GPa) = 23.23812 24.98529 24.11171
#
# Velocity S-wave (km/s) = 3.37059 3.49501 3.43336
# Velocity P-wave (km/s) = 6.16840 6.37513 6.27262
#
# Compressibility (1/GPa) = 0.02134775
#
# Stress axis : x y z
#
# Youngs Moduli (GPa) = 45.61376 50.98670 81.34279
#
# Poissons Ratio (x) = 0.36202 0.40191
# Poissons Ratio (y) = 0.32387 0.34162
# Poissons Ratio (z) = 0.22538 0.21413
#
# Static dielectric constant tensor:
#      x y z
#    x 3.870400 0.000000 0.000000 
#    y 0.000000 4.072570 0.000000 
#    z 0.000000 0.000000 3.785520 
# 
# 
# High freq. dielectric constant tensor:
#      x y z
#    x 1.792710 0.000000 0.000000 
#    y 0.000000 1.804530 0.000000 
#    z 0.000000 0.000000 1.804240 
# 
# From -- ./inp_files/31678.got.cif
#   From: 2010.03.12/outbox.cif.g09.slc.cpg/sg59_16_cif.got.tgz:31678.got - 2010.04.16 16:29:54.
