data_PCOD8244975
_publ_section_title
;
Structure prediction by ZEFSAII (Michael W. Deem and Ramdas Pophale) SiO2 
 PCOD8244975
Probable space group: P M M N
;
_chemical_formula_sum "Si O2"
_cell_formula_units_Z 48
_cell_length_a 12.972906
_cell_length_b 9.952030
_cell_length_c 17.191317
_cell_angle_alpha 90.000000
_cell_angle_beta 90.000000
_cell_angle_gamma 90.000000
_cell_volume 2219.515061
_symmetry_space_group_name_H-M "P M M N"
_symmetry_group_IT_number 59
_space_group.IT_coordinate_system_code '2'
_symmetry_cell_setting 'orthorhombic'
loop_
_space_group_symop_operation_xyz
x,y,z
1/2-x,1/2-y,z
1/2+x,-y,-z
-x,1/2+y,-z
-x,-y,-z
1/2+x,1/2+y,-z
1/2-x,y,z
x,1/2-y,z
loop_
_atom_site_type_symbol
_atom_site_label
_atom_site_fract_x
_atom_site_fract_y
_atom_site_fract_z
Si Si1 0.361475 0.400247 0.188225
Si Si2 0.131313 0.402495 0.444038
Si Si3 0.421996 0.891380 0.067593
Si Si4 0.955181 0.905969 0.388028
Si Si5 0.072857 0.903339 0.743106
Si Si6 0.865761 0.000740 0.091375
O O1 0.250000 0.419561 0.229306
O O2 0.375946 0.250000 0.156587
O O3 0.365770 0.489115 0.111223
O O4 0.450051 0.432539 0.249834
O O5 0.250000 0.433377 0.424766
O O6 0.101799 0.250000 0.416235
O O7 0.062172 0.514560 0.402054
O O8 0.116148 0.411613 0.536547
O O9 0.380977 0.750000 0.100770
O O10 0.545738 0.888627 0.082858
O O11 0.392977 0.893704 0.976638
O O12 0.976738 0.750000 0.363995
O O13 0.891677 0.986540 0.320693
O O14 0.095162 0.750000 0.715518
O O15 0.128522 0.925500 0.825255
O O16 0.750000 0.941571 0.081774
#
# Coordination Sequence:
#
# PCOD8244975 Si02
#       6
#     8   8   8   8   8   8
#     4   9  19  36  56  78 108 148 191 234 283 339
#     4   9  19  38  63  86 110 146 186 221 268 331
#     4  10  21  37  58  84 110 139 185 244 293 332
#     4  10  21  37  57  85 119 147 178 228 278 322
#     4  10  21  36  54  79 113 153 191 225 270 332
#     4  10  22  38  56  80 112 150 190 233 282 336
#
# _framework density 21.626346000000002
#
# number of rings (size 3 to 8) (size 9 to 14) (size 15 to 20)
#    0.000    2.333    0.000    1.500    0.000   11.667 
#    0.000    1.667    0.000    0.000    0.000    0.000 
#    0.000    0.000    0.000    0.000    0.000    0.000 
#
# Total GULP energy -594764.913573 kJ/mol
# GULP energy per Si atom -12390.935699 kJ/mol
# Density = 2.157712 g / cm^3
# Si number density = 21.626346 Si / 1000 Ang^3
#
#
#
# Elastic Constant Matrix: (Units=GPa)
#
#
# Indices 1 2 3 4 5 6 
#
# 1 84.9158 0.6927 -0.2702 0.0000 0.0000 0.0000
# 2 0.6927 131.4572 46.9376 0.0000 0.0000 0.0000
# 3 -0.2702 46.9376 82.1206 0.0000 0.0000 0.0000
# 4 0.0000 0.0000 0.0000 2.7532 0.0000 0.0000
# 5 0.0000 0.0000 0.0000 0.0000 9.1345 0.0000
# 6 0.0000 0.0000 0.0000 0.0000 0.0000 14.3758
#
#
#
# Elastic Compliance Matrix: (Units=1/GPa)
#
#
# Indices 1 2 3 4 5 6 
#
# 1 0.011777 -0.000095 0.000093 0.000000 0.000000 0.000000
# 2 -0.000095 0.009558 -0.005464 0.000000 0.000000 0.000000
# 3 0.000093 -0.005464 0.015300 0.000000 0.000000 0.000000
# 4 0.000000 0.000000 0.000000 0.363216 0.000000 0.000000
# 5 0.000000 0.000000 0.000000 0.000000 0.109475 0.000000
# 6 0.000000 0.000000 0.000000 0.000000 0.000000 0.069561
#
#
# Mechanical properties :
#
#
# Convention : Reuss Voigt Hill
#
# Bulk Modulus (GPa) = 38.90328 43.69042 41.29685
# Shear Modulus (GPa) = 8.35577 21.99492 15.17535
#
# Velocity S-wave (km/s) = 1.96776 3.19257 2.65185
# Velocity P-wave (km/s) = 4.81567 5.81690 5.33980
#
# Compressibility (1/GPa) = 0.02570477
#
# Stress axis : x y z
#
# Youngs Moduli (GPa) = 84.90801 104.62071 65.35810
#
# Poissons Ratio (x) = 0.00998 -0.00609
# Poissons Ratio (y) = 0.00810 0.35709
# Poissons Ratio (z) = -0.00792 0.57160
#
# Static dielectric constant tensor:
#      x y z
#    x 3.969460 0.000000 0.000000 
#    y 0.000000 3.862030 0.000000 
#    z 0.000000 0.000000 3.769820 
# 
# 
# High freq. dielectric constant tensor:
#      x y z
#    x 1.844230 0.000000 0.000000 
#    y 0.000000 1.842090 0.000000 
#    z 0.000000 0.000000 1.843820 
# 
# From -- ./inp_files/23165.got.cif
#   From: 2010.03.12/outbox.cif.g09.slc.cpg/sg59_12_cif.got.tgz:23165.got - 2010.04.16 16:29:54.
