data_PCOD8244990
_publ_section_title
;
Structure prediction by ZEFSAII (Michael W. Deem and Ramdas Pophale) SiO2 
 PCOD8244990
Probable space group: P M M N
;
_chemical_formula_sum "Si O2"
_cell_formula_units_Z 64
_cell_length_a 9.152061
_cell_length_b 22.328889
_cell_length_c 17.382502
_cell_angle_alpha 90.000000
_cell_angle_beta 90.000000
_cell_angle_gamma 90.000000
_cell_volume 3552.207353
_symmetry_space_group_name_H-M "P M M N"
_symmetry_group_IT_number 59
_space_group.IT_coordinate_system_code '2'
_symmetry_cell_setting 'orthorhombic'
loop_
_space_group_symop_operation_xyz
x,y,z
1/2-x,1/2-y,z
1/2+x,-y,-z
-x,1/2+y,-z
-x,-y,-z
1/2+x,1/2+y,-z
1/2-x,y,z
x,1/2-y,z
loop_
_atom_site_type_symbol
_atom_site_label
_atom_site_fract_x
_atom_site_fract_y
_atom_site_fract_z
Si Si1 0.082029 0.816178 0.745614
Si Si2 0.084690 0.598535 0.173506
Si Si3 0.919019 0.136336 0.089801
Si Si4 0.917173 0.518774 0.923902
Si Si5 0.921382 0.053914 0.661493
Si Si6 0.918751 0.938954 0.483873
Si Si7 0.082605 0.417048 0.348083
Si Si8 0.581956 0.680912 0.060033
O O1 0.250000 0.822987 0.722785
O O2 0.024033 0.750000 0.721749
O O3 0.063175 0.820322 0.837651
O O4 0.999614 0.868400 0.702013
O O5 0.250000 0.622890 0.164604
O O6 0.072279 0.532938 0.138173
O O7 0.041048 0.591631 0.262523
O O8 0.974485 0.643928 0.133147
O O9 0.750000 0.122084 0.071262
O O10 0.003029 0.075848 0.111980
O O11 0.988137 0.166602 0.015052
O O12 0.750000 0.534450 0.944137
O O13 0.000000 0.500000 0.000000
O O14 0.750000 0.053735 0.643108
O O15 0.004854 0.088751 0.592089
O O16 0.975761 0.984633 0.668293
O O17 0.750000 0.951174 0.465827
O O18 0.935823 0.899339 0.561420
O O19 0.000000 0.000000 0.500000
O O20 0.250000 0.414005 0.322427
O O21 0.750000 0.663826 0.044108
O O22 0.564295 0.750000 0.081372
#
# Coordination Sequence:
#
# PCOD8244990 Si02
#       8
#     8   8   8   8   8   8   8   8
#     4  10  22  37  52  74 104 139 182 226 263 308
#     4  10  21  36  55  78 107 141 173 213 267 318
#     4  11  22  37  56  77 104 140 177 219 269 317
#     4  11  21  34  53  79 108 138 173 215 264 318
#     4   9  18  33  53  81 111 137 170 212 261 318
#     4   9  17  30  50  78 109 138 167 203 250 306
#     4   9  18  33  53  78 108 139 170 209 259 314
#     4  11  24  39  55  75  99 133 180 228 267 310
#
# _framework density 18.016966
#
# number of rings (size 3 to 8) (size 9 to 14) (size 15 to 20)
#    0.000    2.000    1.250    3.375    0.000    7.250 
#    0.000    0.000    0.000    0.750    0.000    0.000 
#    0.000    0.000    0.000    0.000    0.000    0.000 
#
# Total GULP energy -793469.363295 kJ/mol
# GULP energy per Si atom -12397.958801 kJ/mol
# Density = 1.797596 g / cm^3
# Si number density = 18.016966 Si / 1000 Ang^3
#
#
#
# Elastic Constant Matrix: (Units=GPa)
#
#
# Indices 1 2 3 4 5 6 
#
# 1 108.5064 42.4904 54.9262 0.0000 0.0000 0.0000
# 2 42.4904 76.8125 30.0637 0.0000 0.0000 0.0000
# 3 54.9262 30.0637 109.4060 0.0000 0.0000 0.0000
# 4 0.0000 0.0000 0.0000 15.1226 0.0000 0.0000
# 5 0.0000 0.0000 0.0000 0.0000 32.9662 0.0000
# 6 0.0000 0.0000 0.0000 0.0000 0.0000 25.8386
#
#
#
# Elastic Compliance Matrix: (Units=1/GPa)
#
#
# Indices 1 2 3 4 5 6 
#
# 1 0.014289 -0.005711 -0.005605 0.000000 0.000000 0.000000
# 2 -0.005711 0.016870 -0.001769 0.000000 0.000000 0.000000
# 3 -0.005605 -0.001769 0.012440 0.000000 0.000000 0.000000
# 4 0.000000 0.000000 0.000000 0.066126 0.000000 0.000000
# 5 0.000000 0.000000 0.000000 0.000000 0.030334 0.000000
# 6 0.000000 0.000000 0.000000 0.000000 0.000000 0.038702
#
#
# Mechanical properties :
#
#
# Convention : Reuss Voigt Hill
#
# Bulk Modulus (GPa) = 57.36816 61.07615 59.22215
# Shear Modulus (GPa) = 23.72590 25.93512 24.83051
#
# Velocity S-wave (km/s) = 3.63280 3.79817 3.71640
# Velocity P-wave (km/s) = 7.03609 7.29435 7.16639
#
# Compressibility (1/GPa) = 0.01743127
#
# Stress axis : x y z
#
# Youngs Moduli (GPa) = 69.98169 59.27671 80.38599
#
# Poissons Ratio (x) = 0.33852 0.45053
# Poissons Ratio (y) = 0.39966 0.14217
# Poissons Ratio (z) = 0.39222 0.10484
#
# Static dielectric constant tensor:
#      x y z
#    x 3.417400 0.000000 0.000000 
#    y 0.000000 3.140550 0.000000 
#    z 0.000000 0.000000 3.513070 
# 
# 
# High freq. dielectric constant tensor:
#      x y z
#    x 1.705690 0.000000 0.000000 
#    y 0.000000 1.670840 0.000000 
#    z 0.000000 0.000000 1.704470 
# 
# From -- ./inp_files/26313.got.cif
#   From: 2010.03.12/outbox.cif.g09.slc.cpg/sg59_14_cif.got.tgz:26313.got - 2010.04.16 16:29:54.
