data_PCOD8244504
_publ_section_title
;
Structure prediction by ZEFSAII (Michael W. Deem and Ramdas Pophale) SiO2 
 PCOD8244504
Probable space group: P M M N
;
_chemical_formula_sum "Si O2"
_cell_formula_units_Z 44
_cell_length_a 14.444659
_cell_length_b 18.919362
_cell_length_c 8.562187
_cell_angle_alpha 90.000000
_cell_angle_beta 90.000000
_cell_angle_gamma 90.000000
_cell_volume 2339.906422
_symmetry_space_group_name_H-M "P M M N"
_symmetry_group_IT_number 59
_space_group.IT_coordinate_system_code '2'
_symmetry_cell_setting 'orthorhombic'
loop_
_space_group_symop_operation_xyz
x,y,z
1/2-x,1/2-y,z
1/2+x,-y,-z
-x,1/2+y,-z
-x,-y,-z
1/2+x,1/2+y,-z
1/2-x,y,z
x,1/2-y,z
loop_
_atom_site_type_symbol
_atom_site_label
_atom_site_fract_x
_atom_site_fract_y
_atom_site_fract_z
Si Si1 0.250000 0.057945 0.752025
Si Si2 0.617172 0.329551 0.317937
Si Si3 0.097787 0.458363 0.012099
Si Si4 0.410929 0.330953 0.238773
Si Si5 0.250000 0.167160 0.474836
Si Si6 0.750000 0.455479 0.823180
Si Si7 0.750000 0.169504 0.044590
Si Si8 0.250000 0.573032 0.528375
O O1 0.345393 0.055192 0.852009
O O2 0.250000 0.126074 0.639260
O O3 0.250000 0.987799 0.653737
O O4 0.647481 0.250000 0.357555
O O5 0.508428 0.338740 0.323398
O O6 0.658413 0.379692 0.450734
O O7 0.659362 0.349327 0.147877
O O8 0.088546 0.380691 0.087484
O O9 0.157527 0.506305 0.125112
O O10 0.000000 0.500000 0.000000
O O11 0.392887 0.250000 0.182887
O O12 0.337742 0.354322 0.369549
O O13 0.250000 0.250000 0.516251
O O14 0.750000 0.375902 0.887790
O O15 0.750000 0.460074 0.639504
O O16 0.750000 0.250000 0.988126
#
# Coordination Sequence:
#
# PCOD8244504 Si02
#       8
#     4   8   8   8   4   4   4   4
#     4  11  23  37  56  79 107 140 179 224 273 330
#     4   9  18  34  57  81 107 141 178 215 265 326
#     4  11  22  38  58  81 110 144 185 230 274 321
#     4  10  20  37  59  80 106 143 184 223 267 324
#     4  10  22  39  57  80 112 146 184 231 276 320
#     4  11  23  35  52  82 112 143 184 226 269 328
#     4   9  17  33  54  77 108 142 178 224 273 324
#     4  11  20  34  54  80 113 141 171 219 274 332
#
# _framework density 18.804171
#
# number of rings (size 3 to 8) (size 9 to 14) (size 15 to 20)
#    0.000    1.818    0.000    7.364    0.000    2.909 
#    0.000    3.636    0.000    6.545    0.000    0.000 
#    0.000    0.000    0.000    0.000    0.000    0.000 
#
# Total GULP energy -545481.202365 kJ/mol
# GULP energy per Si atom -12397.300054 kJ/mol
# Density = 1.876137 g / cm^3
# Si number density = 18.804171 Si / 1000 Ang^3
#
#
#
# Elastic Constant Matrix: (Units=GPa)
#
#
# Indices 1 2 3 4 5 6 
#
# 1 147.5298 51.5329 57.4258 0.0000 0.0000 0.0000
# 2 51.5329 113.9070 65.9687 0.0000 0.0000 0.0000
# 3 57.4258 65.9687 114.7427 0.0000 0.0000 0.0000
# 4 0.0000 0.0000 0.0000 39.1360 0.0000 0.0000
# 5 0.0000 0.0000 0.0000 0.0000 11.0541 0.0000
# 6 0.0000 0.0000 0.0000 0.0000 0.0000 26.1568
#
#
#
# Elastic Compliance Matrix: (Units=1/GPa)
#
#
# Indices 1 2 3 4 5 6 
#
# 1 0.008751 -0.002133 -0.003153 0.000000 0.000000 0.000000
# 2 -0.002133 0.013681 -0.006798 0.000000 0.000000 0.000000
# 3 -0.003153 -0.006798 0.014202 0.000000 0.000000 0.000000
# 4 0.000000 0.000000 0.000000 0.025552 0.000000 0.000000
# 5 0.000000 0.000000 0.000000 0.000000 0.090464 0.000000
# 6 0.000000 0.000000 0.000000 0.000000 0.000000 0.038231
#
#
# Mechanical properties :
#
#
# Convention : Reuss Voigt Hill
#
# Bulk Modulus (GPa) = 80.22460 80.67047 80.44753
# Shear Modulus (GPa) = 22.80976 28.68619 25.74798
#
# Velocity S-wave (km/s) = 3.48662 3.91003 3.70438
# Velocity P-wave (km/s) = 7.67883 7.96102 7.82120
#
# Compressibility (1/GPa) = 0.01246500
#
# Stress axis : x y z
#
# Youngs Moduli (GPa) = 114.27674 73.09329 70.41327
#
# Poissons Ratio (x) = 0.15588 0.22204
# Poissons Ratio (y) = 0.24371 0.47869
# Poissons Ratio (z) = 0.36036 0.49691
#
# Static dielectric constant tensor:
#      x y z
#    x 3.715020 0.000000 0.000000 
#    y 0.000000 3.722600 0.000000 
#    z 0.000000 0.000000 3.243060 
# 
# 
# High freq. dielectric constant tensor:
#      x y z
#    x 1.742940 0.000000 0.000000 
#    y 0.000000 1.749380 0.000000 
#    z 0.000000 0.000000 1.707940 
# 
# From -- ./inp_files/8957.got.cif
#   From: 2010.03.12/outbox.cif.g09.slc.cpg/sg59_5_cif.got.tgz:8957.got - 2010.04.16 16:29:54.
