data_PCOD8244252
_publ_section_title
;
Structure prediction by ZEFSAII (Michael W. Deem and Ramdas Pophale) SiO2 
 PCOD8244252
Probable space group: P M M N
;
_chemical_formula_sum "Si O2"
_cell_formula_units_Z 48
_cell_length_a 30.991380
_cell_length_b 9.078686
_cell_length_c 9.090122
_cell_angle_alpha 90.000000
_cell_angle_beta 90.000000
_cell_angle_gamma 90.000000
_cell_volume 2557.605886
_symmetry_space_group_name_H-M "P M M N"
_symmetry_group_IT_number 59
_space_group.IT_coordinate_system_code '2'
_symmetry_cell_setting 'orthorhombic'
loop_
_space_group_symop_operation_xyz
x,y,z
1/2-x,1/2-y,z
1/2+x,-y,-z
-x,1/2+y,-z
-x,-y,-z
1/2+x,1/2+y,-z
1/2-x,y,z
x,1/2-y,z
loop_
_atom_site_type_symbol
_atom_site_label
_atom_site_fract_x
_atom_site_fract_y
_atom_site_fract_z
Si Si1 0.419606 0.575806 0.337461
Si Si2 0.664543 0.423664 0.827893
Si Si3 0.502349 0.925499 0.157165
Si Si4 0.250000 0.415322 0.826681
Si Si5 0.250000 0.083147 0.176645
Si Si6 0.578303 0.077176 0.326998
Si Si7 0.333709 0.580039 0.834245
O O1 0.417719 0.750000 0.329831
O O2 0.376166 0.513362 0.262780
O O3 0.461209 0.518328 0.249733
O O4 0.422895 0.522768 0.505089
O O5 0.670503 0.250000 0.806991
O O6 0.707314 0.501535 0.764221
O O7 0.656262 0.465470 0.997881
O O8 0.502960 0.750000 0.140028
O O9 0.544971 0.978843 0.238377
O O10 0.500000 0.000000 0.000000
O O11 0.250000 0.250000 0.767350
O O12 0.293100 0.493072 0.766920
O O13 0.250000 0.424860 0.001676
O O14 0.250000 0.250000 0.234676
O O15 0.566900 0.250000 0.310258
O O16 0.625348 0.042124 0.264532
O O17 0.321263 0.750000 0.826166
#
# Coordination Sequence:
#
# PCOD8244252 Si02
#       7
#     8   8   8   4   4   8   8
#     4   9  19  35  55  78 106 138 174 214 259 310
#     4   9  16  30  51  73  97 132 174 212 251 303
#     4  11  22  37  57  81 107 137 174 217 261 310
#     4   9  17  29  48  73 102 132 170 219 264 303
#     4   9  17  29  46  73 102 128 164 215 264 301
#     4  10  20  36  56  79 107 139 173 214 262 314
#     4   9  17  30  51  75 101 134 174 215 258 308
#
# _framework density 18.767551000000001
#
# number of rings (size 3 to 8) (size 9 to 14) (size 15 to 20)
#    0.000    2.500    0.000    2.500    0.000    5.333 
#    0.000    7.500    0.000    5.000    0.000    0.000 
#    0.000    0.000    0.000    0.000    0.000    0.000 
#
# Total GULP energy -595260.119977 kJ/mol
# GULP energy per Si atom -12401.252500 kJ/mol
# Density = 1.872484 g / cm^3
# Si number density = 18.767551 Si / 1000 Ang^3
#
#
#
# Elastic Constant Matrix: (Units=GPa)
#
#
# Indices 1 2 3 4 5 6 
#
# 1 156.2891 63.4747 75.0875 0.0000 0.0000 0.0000
# 2 63.4747 69.8567 42.6994 0.0000 0.0000 0.0000
# 3 75.0875 42.6994 119.3207 0.0000 0.0000 0.0000
# 4 0.0000 0.0000 0.0000 19.5324 0.0000 0.0000
# 5 0.0000 0.0000 0.0000 0.0000 1.2414 0.0000
# 6 0.0000 0.0000 0.0000 0.0000 0.0000 30.1816
#
#
#
# Elastic Compliance Matrix: (Units=1/GPa)
#
#
# Indices 1 2 3 4 5 6 
#
# 1 0.011836 -0.007938 -0.004608 0.000000 0.000000 0.000000
# 2 -0.007938 0.023647 -0.003467 0.000000 0.000000 0.000000
# 3 -0.004608 -0.003467 0.012521 0.000000 0.000000 0.000000
# 4 0.000000 0.000000 0.000000 0.051197 0.000000 0.000000
# 5 0.000000 0.000000 0.000000 0.000000 0.805529 0.000000
# 6 0.000000 0.000000 0.000000 0.000000 0.000000 0.033133
#
#
# Mechanical properties :
#
#
# Convention : Reuss Voigt Hill
#
# Bulk Modulus (GPa) = 62.58284 78.66552 70.62418
# Shear Modulus (GPa) = 5.12708 21.13809 13.13259
#
# Velocity S-wave (km/s) = 1.65463 3.35970 2.64815
# Velocity P-wave (km/s) = 6.08844 7.55359 6.86024
#
# Compressibility (1/GPa) = 0.01597882
#
# Stress axis : x y z
#
# Youngs Moduli (GPa) = 84.48678 42.28832 79.86682
#
# Poissons Ratio (x) = 0.33570 0.36799
# Poissons Ratio (y) = 0.67070 0.27687
# Poissons Ratio (z) = 0.38928 0.14660
#
# Static dielectric constant tensor:
#      x y z
#    x 3.674080 0.000000 0.000000 
#    y 0.000000 3.304440 0.000000 
#    z 0.000000 0.000000 3.528260 
# 
# 
# High freq. dielectric constant tensor:
#      x y z
#    x 1.746810 0.000000 0.000000 
#    y 0.000000 1.709620 0.000000 
#    z 0.000000 0.000000 1.713670 
# 
# From -- ./inp_files/13019.got.cif
#   From: 2010.03.12/outbox.cif.g09.slc.cpg/sg59_7_cif.got.tgz:13019.got - 2010.04.16 16:29:54.
