data_PCOD8244220
_publ_section_title
;
Structure prediction by ZEFSAII (Michael W. Deem and Ramdas Pophale) SiO2 
 PCOD8244220
Probable space group: P M M N
;
_chemical_formula_sum "Si O2"
_cell_formula_units_Z 48
_cell_length_a 9.260147
_cell_length_b 18.898422
_cell_length_c 15.987190
_cell_angle_alpha 90.000000
_cell_angle_beta 90.000000
_cell_angle_gamma 90.000000
_cell_volume 2797.792875
_symmetry_space_group_name_H-M "P M M N"
_symmetry_group_IT_number 59
_space_group.IT_coordinate_system_code '2'
_symmetry_cell_setting 'orthorhombic'
loop_
_space_group_symop_operation_xyz
x,y,z
1/2-x,1/2-y,z
1/2+x,-y,-z
-x,1/2+y,-z
-x,-y,-z
1/2+x,1/2+y,-z
1/2-x,y,z
x,1/2-y,z
loop_
_atom_site_type_symbol
_atom_site_label
_atom_site_fract_x
_atom_site_fract_y
_atom_site_fract_z
Si Si1 0.080744 0.466763 0.380234
Si Si2 0.080478 0.750000 0.390135
Si Si3 0.421036 0.250000 0.784589
Si Si4 0.416925 0.470493 0.190411
Si Si5 0.418194 0.894557 0.478899
Si Si6 0.912625 0.371430 0.871733
Si Si7 0.415906 0.564386 0.959883
O O1 0.250000 0.454335 0.388839
O O2 0.029580 0.458485 0.284829
O O3 0.038398 0.545295 0.411757
O O4 0.001793 0.407000 0.434547
O O5 0.250000 0.750000 0.367940
O O6 0.036184 0.681196 0.442881
O O7 0.990238 0.750000 0.306148
O O8 0.250000 0.250000 0.776367
O O9 0.470191 0.181151 0.834961
O O10 0.250000 0.450343 0.179590
O O11 0.444023 0.551775 0.166555
O O12 0.509674 0.418777 0.129588
O O13 0.250000 0.897263 0.499546
O O14 0.750000 0.347498 0.846731
O O15 0.926907 0.371555 0.973234
O O16 0.250000 0.543024 0.945146
O O17 0.500000 0.500000 0.000000
#
# Coordination Sequence:
#
# PCOD8244220 Si02
#       7
#     8   4   4   8   8   8   8
#     4   9  17  30  48  72 100 126 155 197 246 287
#     4  10  20  36  54  69  94 131 164 195 236 293
#     4  12  24  32  46  73  98 123 158 197 234 277
#     4   9  17  30  50  73  96 125 159 194 235 284
#     4   9  18  32  50  70  93 126 165 199 235 283
#     4   9  18  33  49  66  95 131 160 188 231 285
#     4   9  17  29  47  70  94 122 154 190 231 273
#
# _framework density 17.156379999999999
#
# number of rings (size 3 to 8) (size 9 to 14) (size 15 to 20)
#    0.000    2.667    0.000    3.250    0.000    7.333 
#    0.000    3.333    0.000    1.000    0.000    3.500 
#    0.000    0.000    0.000    0.000    0.000    0.000 
#
# Total GULP energy -595076.512513 kJ/mol
# GULP energy per Si atom -12397.427344 kJ/mol
# Density = 1.711733 g / cm^3
# Si number density = 17.156380 Si / 1000 Ang^3
#
#
#
# Elastic Constant Matrix: (Units=GPa)
#
#
# Indices 1 2 3 4 5 6 
#
# 1 84.3506 40.9703 71.2755 0.0000 0.0000 0.0000
# 2 40.9703 73.5700 53.3367 0.0000 0.0000 0.0000
# 3 71.2755 53.3367 169.0166 0.0000 0.0000 0.0000
# 4 0.0000 0.0000 0.0000 23.5732 0.0000 0.0000
# 5 0.0000 0.0000 0.0000 0.0000 36.7763 0.0000
# 6 0.0000 0.0000 0.0000 0.0000 0.0000 23.6720
#
#
#
# Elastic Compliance Matrix: (Units=1/GPa)
#
#
# Indices 1 2 3 4 5 6 
#
# 1 0.020714 -0.006746 -0.006607 0.000000 0.000000 0.000000
# 2 -0.006746 0.019822 -0.003410 0.000000 0.000000 0.000000
# 3 -0.006607 -0.003410 0.009779 0.000000 0.000000 0.000000
# 4 0.000000 0.000000 0.000000 0.042421 0.000000 0.000000
# 5 0.000000 0.000000 0.000000 0.000000 0.027191 0.000000
# 6 0.000000 0.000000 0.000000 0.000000 0.000000 0.042244
#
#
# Mechanical properties :
#
#
# Convention : Reuss Voigt Hill
#
# Bulk Modulus (GPa) = 59.56234 73.12245 66.34239
# Shear Modulus (GPa) = 24.83935 27.56127 26.20031
#
# Velocity S-wave (km/s) = 3.80915 4.01243 3.91211
# Velocity P-wave (km/s) = 7.35791 8.01123 7.69151
#
# Compressibility (1/GPa) = 0.01678913
#
# Stress axis : x y z
#
# Youngs Moduli (GPa) = 48.27563 50.44990 102.26197
#
# Poissons Ratio (x) = 0.34033 0.67560
# Poissons Ratio (y) = 0.32567 0.34874
# Poissons Ratio (z) = 0.31894 0.17205
#
# Static dielectric constant tensor:
#      x y z
#    x 3.257460 0.000000 0.000000 
#    y 0.000000 2.998300 0.000000 
#    z 0.000000 0.000000 3.636340 
# 
# 
# High freq. dielectric constant tensor:
#      x y z
#    x 1.661920 0.000000 0.000000 
#    y 0.000000 1.626390 0.000000 
#    z 0.000000 0.000000 1.673190 
# 
# From -- ./inp_files/20558.got.cif
#   From: 2010.03.12/outbox.cif.g09.slc.cpg/sg59_11_cif.got.tgz:20558.got - 2010.04.16 16:29:54.
