data_PCOD8244597
_publ_section_title
;
Structure prediction by ZEFSAII (Michael W. Deem and Ramdas Pophale) SiO2 
 PCOD8244597
Probable space group: P M M N
;
_chemical_formula_sum "Si O2"
_cell_formula_units_Z 64
_cell_length_a 16.472891
_cell_length_b 29.014487
_cell_length_c 6.851125
_cell_angle_alpha 90.000000
_cell_angle_beta 90.000000
_cell_angle_gamma 90.000000
_cell_volume 3274.512197
_symmetry_space_group_name_H-M "P M M N"
_symmetry_group_IT_number 59
_space_group.IT_coordinate_system_code '2'
_symmetry_cell_setting 'orthorhombic'
loop_
_space_group_symop_operation_xyz
x,y,z
1/2-x,1/2-y,z
1/2+x,-y,-z
-x,1/2+y,-z
-x,-y,-z
1/2+x,1/2+y,-z
1/2-x,y,z
x,1/2-y,z
loop_
_atom_site_type_symbol
_atom_site_label
_atom_site_fract_x
_atom_site_fract_y
_atom_site_fract_z
Si Si1 0.656654 0.456750 0.233349
Si Si2 0.560442 0.660517 0.897869
Si Si3 0.546050 0.300661 0.430251
Si Si4 0.157608 0.382520 0.433289
Si Si5 0.655713 0.379812 0.546519
Si Si6 0.557885 0.535324 0.385931
Si Si7 0.600409 0.802305 0.302827
Si Si8 0.945334 0.411567 0.901600
O O1 0.750000 0.454527 0.173790
O O2 0.637134 0.424575 0.418086
O O3 0.634047 0.508361 0.295448
O O4 0.606360 0.443155 0.044512
O O5 0.512617 0.694945 0.755886
O O6 0.632256 0.635195 0.780131
O O7 0.602388 0.688896 0.071502
O O8 0.495551 0.624505 0.974939
O O9 0.585228 0.250000 0.427432
O O10 0.619159 0.336664 0.429331
O O11 0.492149 0.308053 0.624330
O O12 0.250000 0.400998 0.425649
O O13 0.094404 0.423435 0.483557
O O14 0.154888 0.340530 0.588752
O O15 0.750000 0.370704 0.577578
O O16 0.615103 0.385144 0.756616
O O17 0.500000 0.500000 0.500000
O O18 0.507127 0.556033 0.210500
O O19 0.632029 0.750000 0.344818
#
# Coordination Sequence:
#
# PCOD8244597 Si02
#       8
#     8   8   8   8   8   8   8   8
#     4  11  24  40  61  91 125 160 203 257 316 365
#     4  11  20  39  66  92 119 161 209 252 302 367
#     4  10  20  37  62  91 122 157 203 256 304 364
#     4  11  25  43  62  95 134 162 200 262 320 370
#     4  11  22  38  59  87 126 163 202 256 310 365
#     4  12  23  43  66  90 122 166 211 255 302 372
#     4  10  21  40  67  93 121 165 211 253 306 373
#     4  12  21  41  65  89 117 161 214 254 299 364
#
# _framework density 19.544896000000001
#
# number of rings (size 3 to 8) (size 9 to 14) (size 15 to 20)
#    0.000    1.000    5.000    3.000    0.000    1.500 
#    0.000    1.250    0.000    0.000    0.000    0.000 
#    0.000    0.000    0.000    0.000    0.000    0.000 
#
# Total GULP energy -793765.529235 kJ/mol
# GULP energy per Si atom -12402.586394 kJ/mol
# Density = 1.950041 g / cm^3
# Si number density = 19.544896 Si / 1000 Ang^3
#
#
#
# Elastic Constant Matrix: (Units=GPa)
#
#
# Indices 1 2 3 4 5 6 
#
# 1 93.8566 49.3816 43.3745 0.0000 0.0000 0.0000
# 2 49.3816 90.8744 20.2335 0.0000 0.0000 0.0000
# 3 43.3745 20.2335 101.6229 0.0000 0.0000 0.0000
# 4 0.0000 0.0000 0.0000 16.0960 0.0000 0.0000
# 5 0.0000 0.0000 0.0000 0.0000 24.4986 0.0000
# 6 0.0000 0.0000 0.0000 0.0000 0.0000 19.6015
#
#
#
# Elastic Compliance Matrix: (Units=1/GPa)
#
#
# Indices 1 2 3 4 5 6 
#
# 1 0.017785 -0.008344 -0.005930 0.000000 0.000000 0.000000
# 2 -0.008344 0.015430 0.000489 0.000000 0.000000 0.000000
# 3 -0.005930 0.000489 0.012274 0.000000 0.000000 0.000000
# 4 0.000000 0.000000 0.000000 0.062127 0.000000 0.000000
# 5 0.000000 0.000000 0.000000 0.000000 0.040819 0.000000
# 6 0.000000 0.000000 0.000000 0.000000 0.000000 0.051017
#
#
# Mechanical properties :
#
#
# Convention : Reuss Voigt Hill
#
# Bulk Modulus (GPa) = 55.80544 56.92591 56.36568
# Shear Modulus (GPa) = 21.45988 23.59684 22.52836
#
# Velocity S-wave (km/s) = 3.31717 3.47841 3.39875
# Velocity P-wave (km/s) = 6.57920 6.73212 6.65610
#
# Compressibility (1/GPa) = 0.01791940
#
# Stress axis : x y z
#
# Youngs Moduli (GPa) = 56.22686 64.81076 81.47476
#
# Poissons Ratio (x) = 0.54080 0.48312
# Poissons Ratio (y) = 0.46917 -0.03987
# Poissons Ratio (z) = 0.33340 -0.03172
#
# Static dielectric constant tensor:
#      x y z
#    x 3.416340 0.000000 0.000000 
#    y 0.000000 3.573040 0.000000 
#    z 0.000000 0.000000 3.447420 
# 
# 
# High freq. dielectric constant tensor:
#      x y z
#    x 1.754400 0.000000 0.000000 
#    y 0.000000 1.769970 0.000000 
#    z 0.000000 0.000000 1.769040 
# 
# From -- ./inp_files/3032.got.cif
#   From: 2010.03.12/outbox.cif.g09.slc.cpg/sg59_2_cif.got.tgz:3032.got - 2010.04.16 16:29:54.
