data_PCOD8244822
_publ_section_title
;
Structure prediction by ZEFSAII (Michael W. Deem and Ramdas Pophale) SiO2 
 PCOD8244822
Probable space group: P M M N
;
_chemical_formula_sum "Si O2"
_cell_formula_units_Z 64
_cell_length_a 9.124105
_cell_length_b 18.451132
_cell_length_c 20.801162
_cell_angle_alpha 90.000000
_cell_angle_beta 90.000000
_cell_angle_gamma 90.000000
_cell_volume 3501.876990
_symmetry_space_group_name_H-M "P M M N"
_symmetry_group_IT_number 59
_space_group.IT_coordinate_system_code '2'
_symmetry_cell_setting 'orthorhombic'
loop_
_space_group_symop_operation_xyz
x,y,z
1/2-x,1/2-y,z
1/2+x,-y,-z
-x,1/2+y,-z
-x,-y,-z
1/2+x,1/2+y,-z
1/2-x,y,z
x,1/2-y,z
loop_
_atom_site_type_symbol
_atom_site_label
_atom_site_fract_x
_atom_site_fract_y
_atom_site_fract_z
Si Si1 0.419865 0.964240 0.693137
Si Si2 0.917354 0.666320 0.893658
Si Si3 0.419239 0.167635 0.255173
Si Si4 0.920649 0.962179 0.441377
Si Si5 0.423545 0.923185 0.997774
Si Si6 0.420328 0.667026 0.382180
Si Si7 0.421229 0.905724 0.249013
Si Si8 0.575860 0.168843 0.880335
O O1 0.250000 0.964675 0.709801
O O2 0.482303 0.883648 0.700629
O O3 0.451219 0.988811 0.620697
O O4 0.498692 0.017688 0.743116
O O5 0.750000 0.644503 0.909760
O O6 0.944206 0.750000 0.910754
O O7 0.951089 0.651716 0.819294
O O8 0.029686 0.618061 0.933479
O O9 0.250000 0.153185 0.271008
O O10 0.461670 0.250000 0.272117
O O11 0.750000 0.954489 0.456814
O O12 0.985841 0.882038 0.430593
O O13 0.000000 0.000000 0.500000
O O14 0.250000 0.933513 0.998096
O O15 0.478722 0.877332 0.059015
O O16 0.500000 0.000000 0.000000
O O17 0.250000 0.653850 0.397124
O O18 0.465440 0.750000 0.393812
O O19 0.455848 0.647303 0.308426
O O20 0.250000 0.922497 0.243016
O O21 0.483046 0.867801 0.184963
O O22 0.750000 0.172386 0.878352
O O23 0.510956 0.250000 0.885767
#
# Coordination Sequence:
#
# PCOD8244822 Si02
#       8
#     8   8   8   8   8   8   8   8
#     4  10  21  35  53  81 113 140 170 215 265 312
#     4   9  19  37  58  77 100 133 175 224 275 325
#     4   9  19  36  58  81 104 135 178 224 269 323
#     4  10  21  37  56  79 110 147 184 220 260 309
#     4  11  23  36  51  74 105 141 181 226 270 319
#     4   9  17  31  54  83 111 139 176 220 264 313
#     4   9  17  31  54  80 105 138 175 213 260 316
#     4   9  18  33  53  76 101 132 174 220 262 309
#
# _framework density 18.275912000000002
#
# number of rings (size 3 to 8) (size 9 to 14) (size 15 to 20)
#    0.000    2.500    0.000    2.625    1.750    4.750 
#    0.000    2.500    0.000    3.375    0.000    0.000 
#    0.000    0.000    0.000    0.000    0.000    0.000 
#
# Total GULP energy -793774.181797 kJ/mol
# GULP energy per Si atom -12402.721591 kJ/mol
# Density = 1.823432 g / cm^3
# Si number density = 18.275912 Si / 1000 Ang^3
#
#
#
# Elastic Constant Matrix: (Units=GPa)
#
#
# Indices 1 2 3 4 5 6 
#
# 1 75.6422 65.3331 46.1596 0.0000 0.0000 0.0000
# 2 65.3331 151.7932 68.2303 0.0000 0.0000 0.0000
# 3 46.1596 68.2303 77.2000 0.0000 0.0000 0.0000
# 4 0.0000 0.0000 0.0000 31.1301 0.0000 0.0000
# 5 0.0000 0.0000 0.0000 0.0000 28.5476 0.0000
# 6 0.0000 0.0000 0.0000 0.0000 0.0000 32.1268
#
#
#
# Elastic Compliance Matrix: (Units=1/GPa)
#
#
# Indices 1 2 3 4 5 6 
#
# 1 0.024119 -0.006468 -0.008704 0.000000 0.000000 0.000000
# 2 -0.006468 0.012665 -0.007326 0.000000 0.000000 0.000000
# 3 -0.008704 -0.007326 0.024632 0.000000 0.000000 0.000000
# 4 0.000000 0.000000 0.000000 0.032123 0.000000 0.000000
# 5 0.000000 0.000000 0.000000 0.000000 0.035029 0.000000
# 6 0.000000 0.000000 0.000000 0.000000 0.000000 0.031127
#
#
# Mechanical properties :
#
#
# Convention : Reuss Voigt Hill
#
# Bulk Modulus (GPa) = 60.90453 73.78683 67.34568
# Shear Modulus (GPa) = 23.79086 26.68838 25.23962
#
# Velocity S-wave (km/s) = 3.61191 3.82554 3.72026
# Velocity P-wave (km/s) = 7.12684 7.74432 7.44199
#
# Compressibility (1/GPa) = 0.01641914
#
# Stress axis : x y z
#
# Youngs Moduli (GPa) = 41.46182 78.95883 40.59686
#
# Poissons Ratio (x) = 0.51073 0.35337
# Poissons Ratio (y) = 0.26819 0.29740
# Poissons Ratio (z) = 0.36089 0.57843
#
# Static dielectric constant tensor:
#      x y z
#    x 3.228990 0.000000 0.000000 
#    y 0.000000 3.399270 0.000000 
#    z 0.000000 0.000000 3.308070 
# 
# 
# High freq. dielectric constant tensor:
#      x y z
#    x 1.695910 0.000000 0.000000 
#    y 0.000000 1.718290 0.000000 
#    z 0.000000 0.000000 1.701360 
# 
# From -- ./inp_files/29494.got.cif
#   From: 2010.03.12/outbox.cif.g09.slc.cpg/sg59_15_cif.got.tgz:29494.got - 2010.04.16 16:29:54.
