data_PCOD8244595
_publ_section_title
;
Structure prediction by ZEFSAII (Michael W. Deem and Ramdas Pophale) SiO2 
 PCOD8244595
Probable space group: P M M N
;
_chemical_formula_sum "Si O2"
_cell_formula_units_Z 56
_cell_length_a 14.578014
_cell_length_b 8.767627
_cell_length_c 22.219113
_cell_angle_alpha 90.000000
_cell_angle_beta 90.000000
_cell_angle_gamma 90.000000
_cell_volume 2839.926799
_symmetry_space_group_name_H-M "P M M N"
_symmetry_group_IT_number 59
_space_group.IT_coordinate_system_code '2'
_symmetry_cell_setting 'orthorhombic'
loop_
_space_group_symop_operation_xyz
x,y,z
1/2-x,1/2-y,z
1/2+x,-y,-z
-x,1/2+y,-z
-x,-y,-z
1/2+x,1/2+y,-z
1/2-x,y,z
x,1/2-y,z
loop_
_atom_site_type_symbol
_atom_site_label
_atom_site_fract_x
_atom_site_fract_y
_atom_site_fract_z
Si Si1 0.988713 0.927900 0.709772
Si Si2 0.643466 0.428538 0.614856
Si Si3 0.750000 0.569265 0.880332
Si Si4 0.434329 0.570356 0.166289
Si Si5 0.358616 0.918265 0.518417
Si Si6 0.143090 0.425489 0.638090
Si Si7 0.945476 0.930053 0.054794
Si Si8 0.750000 0.569140 0.016673
O O1 0.984343 0.750000 0.724657
O O2 0.911999 0.969148 0.661125
O O3 0.972598 0.024028 0.769462
O O4 0.089168 0.970946 0.685363
O O5 0.750000 0.468554 0.623102
O O6 0.625754 0.250000 0.627282
O O7 0.607561 0.471767 0.547616
O O8 0.750000 0.750000 0.879746
O O9 0.838500 0.511544 0.845140
O O10 0.750000 0.504277 0.948477
O O11 0.418030 0.750000 0.163691
O O12 0.509245 0.516732 0.117132
O O13 0.250000 0.907656 0.514554
O O14 0.397770 0.750000 0.534041
O O15 0.389419 0.035726 0.570066
O O16 0.250000 0.461444 0.646877
O O17 0.119620 0.250000 0.650102
O O18 0.949082 0.750000 0.047529
O O19 0.840166 0.989165 0.052102
O O20 0.000000 0.000000 0.000000
O O21 0.750000 0.750000 0.013275
#
# Coordination Sequence:
#
# PCOD8244595 Si02
#       8
#     8   8   4   8   8   8   8   4
#     4  12  26  41  59  83 117 159 204 248 296 355
#     4   9  19  37  60  86 119 155 194 243 298 356
#     4  11  21  37  65  93 123 159 196 235 288 353
#     4  11  24  41  61  88 123 160 200 245 293 352
#     4   8  15  31  57  87 116 148 187 238 300 358
#     4  10  21  39  63  87 113 149 196 249 302 359
#     4  10  20  37  62  90 122 156 195 241 292 344
#     4   9  18  35  61  93 123 153 188 237 294 347
#
# _framework density 19.718819
#
# number of rings (size 3 to 8) (size 9 to 14) (size 15 to 20)
#    0.000    2.000    1.429    3.214    1.000    2.857 
#    1.286    1.786    0.000    0.000    0.000    0.000 
#    0.000    0.000    0.000    0.000    0.000    0.000 
#
# Total GULP energy -694435.208981 kJ/mol
# GULP energy per Si atom -12400.628732 kJ/mol
# Density = 1.967394 g / cm^3
# Si number density = 19.718819 Si / 1000 Ang^3
#
#
#
# Elastic Constant Matrix: (Units=GPa)
#
#
# Indices 1 2 3 4 5 6 
#
# 1 119.7134 26.6753 56.9395 0.0000 0.0000 0.0000
# 2 26.6753 55.3034 24.2147 0.0000 0.0000 0.0000
# 3 56.9395 24.2147 125.0561 0.0000 0.0000 0.0000
# 4 0.0000 0.0000 0.0000 31.2484 0.0000 0.0000
# 5 0.0000 0.0000 0.0000 0.0000 31.4028 0.0000
# 6 0.0000 0.0000 0.0000 0.0000 0.0000 24.9880
#
#
#
# Elastic Compliance Matrix: (Units=1/GPa)
#
#
# Indices 1 2 3 4 5 6 
#
# 1 0.011242 -0.003476 -0.004446 0.000000 0.000000 0.000000
# 2 -0.003476 0.020832 -0.002451 0.000000 0.000000 0.000000
# 3 -0.004446 -0.002451 0.010495 0.000000 0.000000 0.000000
# 4 0.000000 0.000000 0.000000 0.032002 0.000000 0.000000
# 5 0.000000 0.000000 0.000000 0.000000 0.031844 0.000000
# 6 0.000000 0.000000 0.000000 0.000000 0.000000 0.040019
#
#
# Mechanical properties :
#
#
# Convention : Reuss Voigt Hill
#
# Bulk Modulus (GPa) = 45.82140 57.30355 51.56247
# Shear Modulus (GPa) = 28.66071 30.34407 29.50239
#
# Velocity S-wave (km/s) = 3.81658 3.92706 3.87221
# Velocity P-wave (km/s) = 6.53525 7.04882 6.79689
#
# Compressibility (1/GPa) = 0.02182386
#
# Stress axis : x y z
#
# Youngs Moduli (GPa) = 88.94919 48.00319 95.28196
#
# Poissons Ratio (x) = 0.16687 0.42359
# Poissons Ratio (y) = 0.30920 0.23353
# Poissons Ratio (z) = 0.39544 0.11765
#
# Static dielectric constant tensor:
#      x y z
#    x 3.729080 0.000000 0.000000 
#    y 0.000000 3.511260 0.000000 
#    z 0.000000 0.000000 3.692370 
# 
# 
# High freq. dielectric constant tensor:
#      x y z
#    x 1.774980 0.000000 0.000000 
#    y 0.000000 1.759950 0.000000 
#    z 0.000000 0.000000 1.768290 
# 
# From -- ./inp_files/30441.got.cif
#   From: 2010.03.12/outbox.cif.g09.slc.cpg/sg59_16_cif.got.tgz:30441.got - 2010.04.16 16:29:54.
