data_PCOD8244024
_publ_section_title
;
Structure prediction by ZEFSAII (Michael W. Deem and Ramdas Pophale) SiO2 
 PCOD8244024
Probable space group: P M M N
;
_chemical_formula_sum "Si O2"
_cell_formula_units_Z 48
_cell_length_a 8.511054
_cell_length_b 16.963679
_cell_length_c 16.307088
_cell_angle_alpha 90.000000
_cell_angle_beta 90.000000
_cell_angle_gamma 90.000000
_cell_volume 2354.397601
_symmetry_space_group_name_H-M "P M M N"
_symmetry_group_IT_number 59
_space_group.IT_coordinate_system_code '2'
_symmetry_cell_setting 'orthorhombic'
loop_
_space_group_symop_operation_xyz
x,y,z
1/2-x,1/2-y,z
1/2+x,-y,-z
-x,1/2+y,-z
-x,-y,-z
1/2+x,1/2+y,-z
1/2-x,y,z
x,1/2-y,z
loop_
_atom_site_type_symbol
_atom_site_label
_atom_site_fract_x
_atom_site_fract_y
_atom_site_fract_z
Si Si1 0.064631 0.916863 0.024885
Si Si2 0.571334 0.750000 0.306765
Si Si3 0.066190 0.542848 0.728338
Si Si4 0.563373 0.164308 0.136524
Si Si5 0.067322 0.920260 0.541879
Si Si6 0.568199 0.250000 0.520031
Si Si7 0.432837 0.887542 0.207750
O O1 0.250000 0.921835 0.027615
O O2 0.003401 0.892512 0.114528
O O3 0.005014 0.856779 0.955134
O O4 0.000000 0.000000 0.000000
O O5 0.750000 0.750000 0.338923
O O6 0.453762 0.750000 0.382934
O O7 0.541850 0.824948 0.251158
O O8 0.250000 0.522759 0.741457
O O9 0.001636 0.605266 0.794384
O O10 0.034601 0.576351 0.638393
O O11 0.958333 0.467437 0.742419
O O12 0.750000 0.164440 0.138438
O O13 0.495155 0.250000 0.158005
O O14 0.250000 0.920924 0.520220
O O15 0.995711 0.834345 0.513069
O O16 0.000000 0.000000 0.500000
O O17 0.750000 0.250000 0.495592
O O18 0.250000 0.863242 0.211006
#
# Coordination Sequence:
#
# PCOD8244024 Si02
#       7
#     8   4   8   8   8   4   8
#     4  10  20  35  57  82 113 153 196 239 288 343
#     4  12  26  42  62  87 116 152 199 246 293 353
#     4  10  20  36  60  88 117 152 198 243 289 352
#     4   9  18  32  55  84 114 149 192 241 285 336
#     4  10  22  38  60  88 118 153 194 243 299 358
#     4  10  22  42  64  89 122 156 193 246 307 363
#     4  11  23  38  59  87 121 158 196 242 297 351
#
# _framework density 20.387381999999999
#
# number of rings (size 3 to 8) (size 9 to 14) (size 15 to 20)
#    0.000    1.833    1.667    2.250    2.333    4.667 
#    0.000    0.000    0.000    1.500    0.000    0.000 
#    0.000    0.000    0.000    0.000    0.000    0.000 
#
# Total GULP energy -594988.435502 kJ/mol
# GULP energy per Si atom -12395.592406 kJ/mol
# Density = 2.034098 g / cm^3
# Si number density = 20.387382 Si / 1000 Ang^3
#
#
#
# Elastic Constant Matrix: (Units=GPa)
#
#
# Indices 1 2 3 4 5 6 
#
# 1 25.0958 16.1412 16.4460 0.0000 0.0000 0.0000
# 2 16.1412 171.4407 60.9619 0.0000 0.0000 0.0000
# 3 16.4460 60.9619 137.6333 0.0000 0.0000 0.0000
# 4 0.0000 0.0000 0.0000 99.9547 0.0000 0.0000
# 5 0.0000 0.0000 0.0000 0.0000 23.3885 0.0000
# 6 0.0000 0.0000 0.0000 0.0000 0.0000 57.5804
#
#
#
# Elastic Compliance Matrix: (Units=1/GPa)
#
#
# Indices 1 2 3 4 5 6 
#
# 1 0.044272 -0.002715 -0.004088 0.000000 0.000000 0.000000
# 2 -0.002715 0.007090 -0.002816 0.000000 0.000000 0.000000
# 3 -0.004088 -0.002816 0.009001 0.000000 0.000000 0.000000
# 4 0.000000 0.000000 0.000000 0.010005 0.000000 0.000000
# 5 0.000000 0.000000 0.000000 0.000000 0.042756 0.000000
# 6 0.000000 0.000000 0.000000 0.000000 0.000000 0.017367
#
#
# Mechanical properties :
#
#
# Convention : Reuss Voigt Hill
#
# Bulk Modulus (GPa) = 24.31507 57.91866 41.11687
# Shear Modulus (GPa) = 30.59290 52.22609 41.40950
#
# Velocity S-wave (km/s) = 3.87793 5.06680 4.51170
# Velocity P-wave (km/s) = 5.65717 7.91838 6.88129
#
# Compressibility (1/GPa) = 0.04112676
#
# Stress axis : x y z
#
# Youngs Moduli (GPa) = 22.58752 141.04752 111.09409
#
# Poissons Ratio (x) = 0.38290 0.45412
# Poissons Ratio (y) = 0.06132 0.31283
# Poissons Ratio (z) = 0.09233 0.39718
#
# Static dielectric constant tensor:
#      x y z
#    x 3.398340 0.000000 0.000000 
#    y 0.000000 4.222420 0.000000 
#    z 0.000000 0.000000 -4.665650 
# 
# 
# High freq. dielectric constant tensor:
#      x y z
#    x 1.762210 0.000000 0.000000 
#    y 0.000000 1.811760 0.000000 
#    z 0.000000 0.000000 1.812910 
# 
# From -- ./inp_files/20603.got.cif
#   From: 2010.03.12/outbox.cif.g09.slc.cpg/sg59_11_cif.got.tgz:20603.got - 2010.04.16 16:29:54.
