data_PCOD8244673
_publ_section_title
;
Structure prediction by ZEFSAII (Michael W. Deem and Ramdas Pophale) SiO2 
 PCOD8244673
Probable space group: P M M N
;
_chemical_formula_sum "Si O2"
_cell_formula_units_Z 48
_cell_length_a 14.537619
_cell_length_b 8.683982
_cell_length_c 19.515727
_cell_angle_alpha 90.000000
_cell_angle_beta 90.000000
_cell_angle_gamma 90.000000
_cell_volume 2463.751670
_symmetry_space_group_name_H-M "P M M N"
_symmetry_group_IT_number 59
_space_group.IT_coordinate_system_code '2'
_symmetry_cell_setting 'orthorhombic'
loop_
_space_group_symop_operation_xyz
x,y,z
1/2-x,1/2-y,z
1/2+x,-y,-z
-x,1/2+y,-z
-x,-y,-z
1/2+x,1/2+y,-z
1/2-x,y,z
x,1/2-y,z
loop_
_atom_site_type_symbol
_atom_site_label
_atom_site_fract_x
_atom_site_fract_y
_atom_site_fract_z
Si Si1 0.354547 0.429260 0.916845
Si Si2 0.444987 0.071323 0.319735
Si Si3 0.750000 0.926884 0.618758
Si Si4 0.250000 0.569234 0.527451
Si Si5 0.857644 0.427202 0.940649
Si Si6 0.558537 0.930814 0.438313
Si Si7 0.009414 0.070386 0.165950
O O1 0.250000 0.472314 0.898066
O O2 0.365650 0.250000 0.932339
O O3 0.417123 0.478639 0.853208
O O4 0.388684 0.520338 0.983879
O O5 0.468193 0.250000 0.332587
O O6 0.338649 0.036198 0.335518
O O7 0.462466 0.021000 0.242075
O O8 0.510330 0.968540 0.366790
O O9 0.750000 0.750000 0.593378
O O10 0.750000 0.035896 0.553182
O O11 0.250000 0.750000 0.539561
O O12 0.339323 0.498601 0.563351
O O13 0.750000 0.455277 0.931024
O O14 0.885787 0.250000 0.931145
O O15 0.907381 0.528810 0.884046
O O16 0.564339 0.750000 0.449785
O O17 0.500000 0.000000 0.500000
O O18 0.988595 0.250000 0.161014
#
# Coordination Sequence:
#
# PCOD8244673 Si02
#       7
#     8   8   4   4   8   8   8
#     4  10  21  39  62  85 113 154 202 252 300 353
#     4  10  23  41  62  90 124 163 201 245 297 358
#     4  10  20  38  64  90 122 159 200 245 296 356
#     4  12  24  40  66  96 122 157 204 253 304 360
#     4  10  21  37  59  88 120 155 197 248 297 351
#     4  12  24  41  65  93 125 161 203 253 302 358
#     4  11  23  38  60  88 121 160 197 241 298 359
#
# _framework density 19.482482999999998
#
# number of rings (size 3 to 8) (size 9 to 14) (size 15 to 20)
#    0.000    1.333    1.667    4.250    1.167    3.333 
#    1.500    0.000    0.000    0.000    0.000    0.000 
#    0.000    0.000    0.000    0.000    0.000    0.000 
#
# Total GULP energy -595517.774977 kJ/mol
# GULP energy per Si atom -12406.620312 kJ/mol
# Density = 1.943814 g / cm^3
# Si number density = 19.482483 Si / 1000 Ang^3
#
#
#
# Elastic Constant Matrix: (Units=GPa)
#
#
# Indices 1 2 3 4 5 6 
#
# 1 140.3124 50.8751 66.5159 0.0000 0.0000 0.0000
# 2 50.8751 92.9294 33.8954 0.0000 0.0000 0.0000
# 3 66.5159 33.8954 115.5645 0.0000 0.0000 0.0000
# 4 0.0000 0.0000 0.0000 33.8504 0.0000 0.0000
# 5 0.0000 0.0000 0.0000 0.0000 21.5007 0.0000
# 6 0.0000 0.0000 0.0000 0.0000 0.0000 33.2336
#
#
#
# Elastic Compliance Matrix: (Units=1/GPa)
#
#
# Indices 1 2 3 4 5 6 
#
# 1 0.011090 -0.004191 -0.005154 0.000000 0.000000 0.000000
# 2 -0.004191 0.013634 -0.001586 0.000000 0.000000 0.000000
# 3 -0.005154 -0.001586 0.012085 0.000000 0.000000 0.000000
# 4 0.000000 0.000000 0.000000 0.029542 0.000000 0.000000
# 5 0.000000 0.000000 0.000000 0.000000 0.046510 0.000000
# 6 0.000000 0.000000 0.000000 0.000000 0.000000 0.030090
#
#
# Mechanical properties :
#
#
# Convention : Reuss Voigt Hill
#
# Bulk Modulus (GPa) = 66.90902 72.37546 69.64224
# Shear Modulus (GPa) = 29.44716 30.88494 30.16605
#
# Velocity S-wave (km/s) = 3.89198 3.98586 3.93920
# Velocity P-wave (km/s) = 7.39016 7.64280 7.51754
#
# Compressibility (1/GPa) = 0.01494567
#
# Stress axis : x y z
#
# Youngs Moduli (GPa) = 90.17266 73.34512 82.74867
#
# Poissons Ratio (x) = 0.30742 0.42646
# Poissons Ratio (y) = 0.37796 0.13128
# Poissons Ratio (z) = 0.46472 0.11636
#
# Static dielectric constant tensor:
#      x y z
#    x 3.759000 0.000000 0.000000 
#    y 0.000000 3.783260 0.000000 
#    z 0.000000 0.000000 3.508930 
# 
# 
# High freq. dielectric constant tensor:
#      x y z
#    x 1.774810 0.000000 0.000000 
#    y 0.000000 1.767430 0.000000 
#    z 0.000000 0.000000 1.751780 
# 
# From -- ./inp_files/27459.got.cif
#   From: 2010.03.12/outbox.cif.g09.slc.cpg/sg59_14_cif.got.tgz:27459.got - 2010.04.16 16:29:54.
