data_PCOD8244207
_publ_section_title
;
Structure prediction by ZEFSAII (Michael W. Deem and Ramdas Pophale) SiO2 
 PCOD8244207
Probable space group: P M M N
;
_chemical_formula_sum "Si O2"
_cell_formula_units_Z 32
_cell_length_a 9.686404
_cell_length_b 10.121054
_cell_length_c 17.220432
_cell_angle_alpha 90.000000
_cell_angle_beta 90.000000
_cell_angle_gamma 90.000000
_cell_volume 1688.232913
_symmetry_space_group_name_H-M "P M M N"
_symmetry_group_IT_number 59
_space_group.IT_coordinate_system_code '2'
_symmetry_cell_setting 'orthorhombic'
loop_
_space_group_symop_operation_xyz
x,y,z
1/2-x,1/2-y,z
1/2+x,-y,-z
-x,1/2+y,-z
-x,-y,-z
1/2+x,1/2+y,-z
1/2-x,y,z
x,1/2-y,z
loop_
_atom_site_type_symbol
_atom_site_label
_atom_site_fract_x
_atom_site_fract_y
_atom_site_fract_z
Si Si1 0.750000 0.599664 0.600291
Si Si2 0.916064 0.750000 0.906481
Si Si3 0.908641 0.016509 0.162853
Si Si4 0.750000 0.096485 0.457055
Si Si5 0.962844 0.401157 0.327637
Si Si6 0.912327 0.750000 0.084678
O O1 0.750000 0.750000 0.566885
O O2 0.750000 0.496173 0.531149
O O3 0.622644 0.574995 0.656931
O O4 0.750000 0.750000 0.895349
O O5 0.982882 0.623668 0.866414
O O6 0.962104 0.750000 0.996015
O O7 0.750000 0.045718 0.136217
O O8 0.913231 0.008474 0.256380
O O9 0.966573 0.879671 0.128520
O O10 0.750000 0.250000 0.483331
O O11 0.616178 0.061025 0.406319
O O12 0.929148 0.250000 0.304926
O O13 0.750000 0.750000 0.088795
#
# Coordination Sequence:
#
# PCOD8244207 Si02
#       6
#     4   4   8   4   8   4
#     4  10  22  38  56  82 115 149 186 242 291 345
#     4  11  23  37  65  91 118 155 201 246 298 357
#     4  11  21  39  64  87 120 160 203 242 295 353
#     4  10  20  38  58  84 113 147 192 236 281 355
#     4  10  20  35  60  84 113 149 198 234 285 348
#     4   9  22  41  57  91 126 153 195 254 296 347
#
# _framework density 18.954730000000001
#
# number of rings (size 3 to 8) (size 9 to 14) (size 15 to 20)
#    0.000    1.750    2.500    1.875    1.750    0.000 
#    4.500    1.875    0.000    0.000    0.000    0.000 
#    0.000    0.000    0.000    0.000    0.000    0.000 
#
# Total GULP energy -396825.673580 kJ/mol
# GULP energy per Si atom -12400.802299 kJ/mol
# Density = 1.891159 g / cm^3
# Si number density = 18.954730 Si / 1000 Ang^3
#
#
#
# Elastic Constant Matrix: (Units=GPa)
#
#
# Indices 1 2 3 4 5 6 
#
# 1 108.0361 36.1797 20.9201 0.0000 0.0000 0.0000
# 2 36.1797 112.7831 56.0542 0.0000 0.0000 0.0000
# 3 20.9201 56.0542 97.1330 0.0000 0.0000 0.0000
# 4 0.0000 0.0000 0.0000 25.2758 0.0000 0.0000
# 5 0.0000 0.0000 0.0000 0.0000 -48.2607 0.0000
# 6 0.0000 0.0000 0.0000 0.0000 0.0000 6.0878
#
#
#
# Elastic Compliance Matrix: (Units=1/GPa)
#
#
# Indices 1 2 3 4 5 6 
#
# 1 0.010384 -0.003112 -0.000440 0.000000 0.000000 0.000000
# 2 -0.003112 0.013365 -0.007043 0.000000 0.000000 0.000000
# 3 -0.000440 -0.007043 0.014454 0.000000 0.000000 0.000000
# 4 0.000000 0.000000 0.000000 0.039563 0.000000 0.000000
# 5 0.000000 0.000000 0.000000 0.000000 -0.020721 0.000000
# 6 0.000000 0.000000 0.000000 0.000000 0.000000 0.164262
#
#
# Mechanical properties :
#
#
# Convention : Reuss Voigt Hill
#
# Bulk Modulus (GPa) = 58.77933 60.47336 59.62634
# Shear Modulus (GPa) = 20.14761 10.27380 15.21071
#
# Velocity S-wave (km/s) = 3.26380 2.33065 2.83587
# Velocity P-wave (km/s) = 6.72911 6.26226 6.49988
#
# Compressibility (1/GPa) = 0.01701278
#
# Stress axis : x y z
#
# Youngs Moduli (GPa) = 96.30535 74.82164 69.18406
#
# Poissons Ratio (x) = 0.23285 0.03047
# Poissons Ratio (y) = 0.29971 0.48723
# Poissons Ratio (z) = 0.04242 0.52694
#
# Static dielectric constant tensor:
#      x y z
#    x 3.694060 0.000000 0.000000 
#    y 0.000000 4.525610 0.000000 
#    z 0.000000 0.000000 3.536960 
# 
# 
# High freq. dielectric constant tensor:
#      x y z
#    x 1.742510 0.000000 0.000000 
#    y 0.000000 1.723930 0.000000 
#    z 0.000000 0.000000 1.741920 
# 
# From -- ./inp_files/19690.got.cif
#   From: 2010.03.12/outbox.cif.g09.slc.cpg/sg59_10_cif.got.tgz:19690.got - 2010.04.16 16:29:54.
