data_PCOD8244512
_publ_section_title
;
Structure prediction by ZEFSAII (Michael W. Deem and Ramdas Pophale) SiO2 
 PCOD8244512
Probable space group: P M M N
;
_chemical_formula_sum "Si O2"
_cell_formula_units_Z 48
_cell_length_a 8.939785
_cell_length_b 15.753780
_cell_length_c 16.811616
_cell_angle_alpha 90.000000
_cell_angle_beta 90.000000
_cell_angle_gamma 90.000000
_cell_volume 2367.670767
_symmetry_space_group_name_H-M "P M M N"
_symmetry_group_IT_number 59
_space_group.IT_coordinate_system_code '2'
_symmetry_cell_setting 'orthorhombic'
loop_
_space_group_symop_operation_xyz
x,y,z
1/2-x,1/2-y,z
1/2+x,-y,-z
-x,1/2+y,-z
-x,-y,-z
1/2+x,1/2+y,-z
1/2-x,y,z
x,1/2-y,z
loop_
_atom_site_type_symbol
_atom_site_label
_atom_site_fract_x
_atom_site_fract_y
_atom_site_fract_z
Si Si1 0.073097 0.750000 0.089672
Si Si2 0.422170 0.097569 0.820405
Si Si3 0.075186 0.908587 0.808284
Si Si4 0.427541 0.750000 0.910773
Si Si5 0.574107 0.090879 0.498142
Si Si6 0.582527 0.846887 0.350786
Si Si7 0.579392 0.846890 0.656391
O O1 0.250000 0.750000 0.089966
O O2 0.021714 0.836214 0.131760
O O3 0.008384 0.750000 0.000074
O O4 0.250000 0.123124 0.834018
O O5 0.460825 0.098801 0.726600
O O6 0.454240 0.000725 0.848595
O O7 0.250000 0.895836 0.790078
O O8 0.014210 0.835054 0.866771
O O9 0.989362 0.905483 0.724731
O O10 0.250000 0.750000 0.912395
O O11 0.750000 0.082142 0.489079
O O12 0.536052 0.138315 0.579822
O O13 0.511624 0.144390 0.424849
O O14 0.500000 0.000000 0.500000
O O15 0.750000 0.870810 0.380815
O O16 0.575917 0.750000 0.323143
O O17 0.750000 0.874781 0.641079
O O18 0.568426 0.750000 0.685006
#
# Coordination Sequence:
#
# PCOD8244512 Si02
#       7
#     4   8   8   4   8   8   8
#     4  11  23  39  61  88 125 164 199 251 310 369
#     4  10  21  39  63  91 119 158 206 253 306 366
#     4  10  20  38  66  91 121 164 208 252 303 365
#     4   9  20  39  61  92 127 160 201 249 306 367
#     4  12  25  39  57  84 119 159 207 254 300 358
#     4  10  20  37  59  83 117 155 197 253 308 358
#     4  11  23  39  60  89 125 161 202 252 304 359
#
# _framework density 20.273088999999999
#
# number of rings (size 3 to 8) (size 9 to 14) (size 15 to 20)
#    0.000    1.500    1.667    3.750    0.000    6.667 
#    0.000    1.667    0.000    0.000    0.000    0.000 
#    0.000    0.000    0.000    0.000    0.000    0.000 
#
# Total GULP energy -595357.004372 kJ/mol
# GULP energy per Si atom -12403.270924 kJ/mol
# Density = 2.022695 g / cm^3
# Si number density = 20.273089 Si / 1000 Ang^3
#
#
#
# Elastic Constant Matrix: (Units=GPa)
#
#
# Indices 1 2 3 4 5 6 
#
# 1 108.1036 42.2082 49.7195 0.0000 0.0000 0.0000
# 2 42.2082 128.2208 51.5103 0.0000 0.0000 0.0000
# 3 49.7195 51.5103 113.3019 0.0000 0.0000 0.0000
# 4 0.0000 0.0000 0.0000 19.1994 0.0000 0.0000
# 5 0.0000 0.0000 0.0000 0.0000 25.6147 0.0000
# 6 0.0000 0.0000 0.0000 0.0000 0.0000 27.8055
#
#
#
# Elastic Compliance Matrix: (Units=1/GPa)
#
#
# Indices 1 2 3 4 5 6 
#
# 1 0.012104 -0.002264 -0.004282 0.000000 0.000000 0.000000
# 2 -0.002264 0.009965 -0.003537 0.000000 0.000000 0.000000
# 3 -0.004282 -0.003537 0.012313 0.000000 0.000000 0.000000
# 4 0.000000 0.000000 0.000000 0.052085 0.000000 0.000000
# 5 0.000000 0.000000 0.000000 0.000000 0.039040 0.000000
# 6 0.000000 0.000000 0.000000 0.000000 0.000000 0.035964
#
#
# Mechanical properties :
#
#
# Convention : Reuss Voigt Hill
#
# Bulk Modulus (GPa) = 70.34423 70.72247 70.53335
# Shear Modulus (GPa) = 26.82744 28.26981 27.54863
#
# Velocity S-wave (km/s) = 3.64167 3.73828 3.69029
# Velocity P-wave (km/s) = 7.24265 7.32077 7.28182
#
# Compressibility (1/GPa) = 0.01421581
#
# Stress axis : x y z
#
# Youngs Moduli (GPa) = 82.61836 100.34865 81.21455
#
# Poissons Ratio (x) = 0.22720 0.34777
# Poissons Ratio (y) = 0.18706 0.28725
# Poissons Ratio (z) = 0.35378 0.35493
#
# Static dielectric constant tensor:
#      x y z
#    x 3.853080 0.000000 0.000000 
#    y 0.000000 3.781420 0.000000 
#    z 0.000000 0.000000 3.745340 
# 
# 
# High freq. dielectric constant tensor:
#      x y z
#    x 1.779610 0.000000 0.000000 
#    y 0.000000 1.807570 0.000000 
#    z 0.000000 0.000000 1.786120 
# 
# From -- ./inp_files/25540.got.cif
#   From: 2010.03.12/outbox.cif.g09.slc.cpg/sg59_13_cif.got.tgz:25540.got - 2010.04.16 16:29:54.
