data_PCOD8244317
_publ_section_title
;
Structure prediction by ZEFSAII (Michael W. Deem and Ramdas Pophale) SiO2 
 PCOD8244317
Probable space group: P M M N
;
_chemical_formula_sum "Si O2"
_cell_formula_units_Z 48
_cell_length_a 8.871421
_cell_length_b 20.084296
_cell_length_c 14.443508
_cell_angle_alpha 90.000000
_cell_angle_beta 90.000000
_cell_angle_gamma 90.000000
_cell_volume 2573.490024
_symmetry_space_group_name_H-M "P M M N"
_symmetry_group_IT_number 59
_space_group.IT_coordinate_system_code '2'
_symmetry_cell_setting 'orthorhombic'
loop_
_space_group_symop_operation_xyz
x,y,z
1/2-x,1/2-y,z
1/2+x,-y,-z
-x,1/2+y,-z
-x,-y,-z
1/2+x,1/2+y,-z
1/2-x,y,z
x,1/2-y,z
loop_
_atom_site_type_symbol
_atom_site_label
_atom_site_fract_x
_atom_site_fract_y
_atom_site_fract_z
Si Si1 0.077534 0.826156 0.937286
Si Si2 0.574718 0.442663 0.559213
Si Si3 0.427553 0.061796 0.947456
Si Si4 0.925545 0.472475 0.762442
Si Si5 0.077150 0.674073 0.573594
Si Si6 0.075408 0.128379 0.242646
O O1 0.250000 0.850516 0.943377
O O2 0.062305 0.750000 0.969176
O O3 0.022937 0.832229 0.831785
O O4 0.974986 0.869710 0.004640
O O5 0.500000 0.500000 0.500000
O O6 0.750000 0.459553 0.560351
O O7 0.515274 0.443714 0.664606
O O8 0.538720 0.370740 0.515736
O O9 0.250000 0.054022 0.953943
O O10 0.479585 0.064278 0.841326
O O11 0.500000 0.000000 0.000000
O O12 0.750000 0.457055 0.778409
O O13 0.958814 0.550630 0.766569
O O14 0.250000 0.662933 0.604971
O O15 0.047374 0.750000 0.544284
O O16 0.968175 0.653679 0.656282
O O17 0.250000 0.144104 0.225436
#
# Coordination Sequence:
#
# PCOD8244317 Si02
#       6
#     8   8   8   8   8   8
#     4  11  24  41  61  86 118 155 194 238 291 351
#     4  10  20  36  58  81 112 149 191 238 281 336
#     4  12  24  39  62  88 117 154 194 241 289 345
#     4  10  21  37  57  86 118 149 192 243 289 340
#     4  10  21  36  55  82 116 153 191 234 286 343
#     4  11  21  34  57  87 120 154 188 236 291 344
#
# _framework density 18.651714999999999
#
# number of rings (size 3 to 8) (size 9 to 14) (size 15 to 20)
#    0.000    1.333    3.333    3.000    0.000    5.000 
#    0.000    0.833    0.000    3.000    0.000    0.000 
#    0.000    0.000    0.000    0.000    0.000    0.000 
#
# Total GULP energy -595449.593566 kJ/mol
# GULP energy per Si atom -12405.199866 kJ/mol
# Density = 1.860926 g / cm^3
# Si number density = 18.651715 Si / 1000 Ang^3
#
#
#
# Elastic Constant Matrix: (Units=GPa)
#
#
# Indices 1 2 3 4 5 6 
#
# 1 92.0893 47.8392 54.9617 0.0000 0.0000 0.0000
# 2 47.8392 79.6330 44.2598 0.0000 0.0000 0.0000
# 3 54.9617 44.2598 140.2864 0.0000 0.0000 0.0000
# 4 0.0000 0.0000 0.0000 28.5951 0.0000 0.0000
# 5 0.0000 0.0000 0.0000 0.0000 30.1665 0.0000
# 6 0.0000 0.0000 0.0000 0.0000 0.0000 23.5222
#
#
#
# Elastic Compliance Matrix: (Units=1/GPa)
#
#
# Indices 1 2 3 4 5 6 
#
# 1 0.017733 -0.008236 -0.004349 0.000000 0.000000 0.000000
# 2 -0.008236 0.019053 -0.002784 0.000000 0.000000 0.000000
# 3 -0.004349 -0.002784 0.009711 0.000000 0.000000 0.000000
# 4 0.000000 0.000000 0.000000 0.034971 0.000000 0.000000
# 5 0.000000 0.000000 0.000000 0.000000 0.033149 0.000000
# 6 0.000000 0.000000 0.000000 0.000000 0.000000 0.042513
#
#
# Mechanical properties :
#
#
# Convention : Reuss Voigt Hill
#
# Bulk Modulus (GPa) = 63.46074 67.34778 65.40426
# Shear Modulus (GPa) = 25.89041 27.45328 26.67184
#
# Velocity S-wave (km/s) = 3.72976 3.84068 3.78563
# Velocity P-wave (km/s) = 7.25576 7.47357 7.36547
#
# Compressibility (1/GPa) = 0.01575777
#
# Stress axis : x y z
#
# Youngs Moduli (GPa) = 56.39146 52.48553 102.97953
#
# Poissons Ratio (x) = 0.43227 0.44787
# Poissons Ratio (y) = 0.46443 0.28674
# Poissons Ratio (z) = 0.24526 0.14614
#
# Static dielectric constant tensor:
#      x y z
#    x 3.519260 0.000000 0.000000 
#    y 0.000000 3.339750 0.000000 
#    z 0.000000 0.000000 3.705740 
# 
# 
# High freq. dielectric constant tensor:
#      x y z
#    x 1.727790 0.000000 0.000000 
#    y 0.000000 1.721060 0.000000 
#    z 0.000000 0.000000 1.727580 
# 
# From -- ./inp_files/20479.got.cif
#   From: 2010.03.12/outbox.cif.g09.slc.cpg/sg59_11_cif.got.tgz:20479.got - 2010.04.16 16:29:54.
