data_PCOD8244263
_publ_section_title
;
Structure prediction by ZEFSAII (Michael W. Deem and Ramdas Pophale) SiO2 
 PCOD8244263
Probable space group: P M M N
;
_chemical_formula_sum "Si O2"
_cell_formula_units_Z 48
_cell_length_a 16.117815
_cell_length_b 8.867252
_cell_length_c 17.917531
_cell_angle_alpha 90.000000
_cell_angle_beta 90.000000
_cell_angle_gamma 90.000000
_cell_volume 2560.786562
_symmetry_space_group_name_H-M "P M M N"
_symmetry_group_IT_number 59
_space_group.IT_coordinate_system_code '2'
_symmetry_cell_setting 'orthorhombic'
loop_
_space_group_symop_operation_xyz
x,y,z
1/2-x,1/2-y,z
1/2+x,-y,-z
-x,1/2+y,-z
-x,-y,-z
1/2+x,1/2+y,-z
1/2-x,y,z
x,1/2-y,z
loop_
_atom_site_type_symbol
_atom_site_label
_atom_site_fract_x
_atom_site_fract_y
_atom_site_fract_z
Si Si1 0.077155 0.425944 0.777163
Si Si2 0.750000 0.573654 0.289177
Si Si3 0.155170 0.423782 0.162153
Si Si4 0.750000 0.070519 0.448497
Si Si5 0.561240 0.922897 0.691427
Si Si6 0.912539 0.928703 0.524158
Si Si7 0.484451 0.926606 0.078833
O O1 0.061578 0.250000 0.778176
O O2 0.172116 0.467946 0.762638
O O3 0.023052 0.488097 0.708637
O O4 0.048156 0.490806 0.857848
O O5 0.750000 0.750000 0.312694
O O6 0.750000 0.470027 0.361614
O O7 0.250000 0.464001 0.151496
O O8 0.135674 0.250000 0.143108
O O9 0.130905 0.460879 0.247350
O O10 0.107648 0.530828 0.104757
O O11 0.750000 0.250000 0.459014
O O12 0.833859 0.002460 0.483550
O O13 0.534798 0.750000 0.692871
O O14 0.598798 0.965931 0.611496
O O15 0.913360 0.750000 0.507553
O O16 0.000000 0.000000 0.500000
O O17 0.493915 0.750000 0.068992
O O18 0.500000 0.000000 0.000000
#
# Coordination Sequence:
#
# PCOD8244263 Si02
#       7
#     8   4   8   4   8   8   8
#     4   9  19  35  57  82 108 143 185 229 279 331
#     4  10  20  38  60  80 105 142 191 240 285 334
#     4   9  18  34  57  82 106 139 182 224 273 329
#     4  12  26  40  56  84 119 156 199 244 295 350
#     4   9  19  34  56  80 107 143 185 229 277 334
#     4  11  23  39  59  84 117 155 196 244 297 349
#     4  10  20  36  56  81 115 147 180 221 270 327
#
# _framework density 18.744240999999999
#
# number of rings (size 3 to 8) (size 9 to 14) (size 15 to 20)
#    0.000    2.167    0.000    2.750    1.167    5.667 
#    1.500    0.000    0.000    0.000    0.000    0.000 
#    0.000    0.000    0.000    0.000    0.000    0.000 
#
# Total GULP energy -595168.913724 kJ/mol
# GULP energy per Si atom -12399.352369 kJ/mol
# Density = 1.870158 g / cm^3
# Si number density = 18.744241 Si / 1000 Ang^3
#
#
#
# Elastic Constant Matrix: (Units=GPa)
#
#
# Indices 1 2 3 4 5 6 
#
# 1 142.3566 53.2812 66.6360 0.0000 0.0000 0.0000
# 2 53.2812 71.5206 51.4002 0.0000 0.0000 0.0000
# 3 66.6360 51.4002 130.8946 0.0000 0.0000 0.0000
# 4 0.0000 0.0000 0.0000 29.8193 0.0000 0.0000
# 5 0.0000 0.0000 0.0000 0.0000 14.6454 0.0000
# 6 0.0000 0.0000 0.0000 0.0000 0.0000 32.4567
#
#
#
# Elastic Compliance Matrix: (Units=1/GPa)
#
#
# Indices 1 2 3 4 5 6 
#
# 1 0.010626 -0.005612 -0.003206 0.000000 0.000000 0.000000
# 2 -0.005612 0.022443 -0.005956 0.000000 0.000000 0.000000
# 3 -0.003206 -0.005956 0.011610 0.000000 0.000000 0.000000
# 4 0.000000 0.000000 0.000000 0.033535 0.000000 0.000000
# 5 0.000000 0.000000 0.000000 0.000000 0.068281 0.000000
# 6 0.000000 0.000000 0.000000 0.000000 0.000000 0.030810
#
#
# Mechanical properties :
#
#
# Convention : Reuss Voigt Hill
#
# Bulk Modulus (GPa) = 66.08525 76.37852 71.23189
# Shear Modulus (GPa) = 23.59633 26.94791 25.27212
#
# Velocity S-wave (km/s) = 3.55189 3.79577 3.67585
# Velocity P-wave (km/s) = 7.22178 7.74898 7.49002
#
# Compressibility (1/GPa) = 0.01513197
#
# Stress axis : x y z
#
# Youngs Moduli (GPa) = 94.11257 44.55651 86.12907
#
# Poissons Ratio (x) = 0.25006 0.27609
# Poissons Ratio (y) = 0.52817 0.51300
# Poissons Ratio (z) = 0.30168 0.26539
#
# Static dielectric constant tensor:
#      x y z
#    x 3.715150 0.000000 0.000000 
#    y 0.000000 3.492460 0.000000 
#    z 0.000000 0.000000 3.769700 
# 
# 
# High freq. dielectric constant tensor:
#      x y z
#    x 1.731750 0.000000 0.000000 
#    y 0.000000 1.726680 0.000000 
#    z 0.000000 0.000000 1.732880 
# 
# From -- ./inp_files/27480.got.cif
#   From: 2010.03.12/outbox.cif.g09.slc.cpg/sg59_14_cif.got.tgz:27480.got - 2010.04.16 16:29:54.
