data_PCOD8244366
_publ_section_title
;
Structure prediction by ZEFSAII (Michael W. Deem and Ramdas Pophale) SiO2 
 PCOD8244366
Probable space group: P M M N
;
_chemical_formula_sum "Si O2"
_cell_formula_units_Z 56
_cell_length_a 19.223169
_cell_length_b 8.908158
_cell_length_c 16.591926
_cell_angle_alpha 90.000000
_cell_angle_beta 90.000000
_cell_angle_gamma 90.000000
_cell_volume 2841.251627
_symmetry_space_group_name_H-M "P M M N"
_symmetry_group_IT_number 59
_space_group.IT_coordinate_system_code '2'
_symmetry_cell_setting 'orthorhombic'
loop_
_space_group_symop_operation_xyz
x,y,z
1/2-x,1/2-y,z
1/2+x,-y,-z
-x,1/2+y,-z
-x,-y,-z
1/2+x,1/2+y,-z
1/2-x,y,z
x,1/2-y,z
loop_
_atom_site_type_symbol
_atom_site_label
_atom_site_fract_x
_atom_site_fract_y
_atom_site_fract_z
Si Si1 0.553697 0.927378 0.437737
Si Si2 0.330156 0.428613 0.867737
Si Si3 0.831238 0.422864 0.528558
Si Si4 0.439924 0.424941 0.742255
Si Si5 0.330563 0.079260 0.310894
Si Si6 0.074424 0.921879 0.999644
Si Si7 0.416351 0.580976 0.183003
O O1 0.543465 0.750000 0.441242
O O2 0.545122 0.993231 0.346695
O O3 0.500000 0.000000 0.500000
O O4 0.631352 0.974121 0.462834
O O5 0.250000 0.482931 0.864060
O O6 0.335093 0.250000 0.875808
O O7 0.369777 0.484994 0.786284
O O8 0.368484 0.497709 0.944759
O O9 0.750000 0.452389 0.517880
O O10 0.851673 0.250000 0.516508
O O11 0.856719 0.472617 0.617123
O O12 0.430233 0.250000 0.728618
O O13 0.503132 0.462789 0.802433
O O14 0.250000 0.054347 0.294197
O O15 0.347487 0.250000 0.334710
O O16 0.369014 0.036561 0.229420
O O17 0.065197 0.750000 0.971661
O O18 0.103706 0.930918 0.090015
O O19 0.000000 0.000000 0.000000
O O20 0.402876 0.750000 0.215093
#
# Coordination Sequence:
#
# PCOD8244366 Si02
#       7
#     8   8   8   8   8   8   8
#     4  11  22  36  59  88 118 152 197 250 299 353
#     4  10  21  40  64  88 119 158 199 245 299 356
#     4  10  21  38  58  79 111 155 196 238 294 355
#     4   9  19  37  58  83 113 150 196 240 287 347
#     4  10  21  36  55  83 116 147 189 243 292 346
#     4  11  22  38  62  88 118 155 197 244 293 350
#     4  10  20  36  59  83 113 151 191 234 286 351
#
# _framework density 19.709624000000002
#
# number of rings (size 3 to 8) (size 9 to 14) (size 15 to 20)
#    0.000    1.857    1.429    2.571    0.000    5.429 
#    0.000    6.429    0.000    0.000    0.000    0.000 
#    0.000    0.000    0.000    0.000    0.000    0.000 
#
# Total GULP energy -694390.651485 kJ/mol
# GULP energy per Si atom -12399.833062 kJ/mol
# Density = 1.966476 g / cm^3
# Si number density = 19.709624 Si / 1000 Ang^3
#
#
#
# Elastic Constant Matrix: (Units=GPa)
#
#
# Indices 1 2 3 4 5 6 
#
# 1 99.7368 41.0399 63.9989 0.0000 0.0000 0.0000
# 2 41.0399 56.4900 30.4675 0.0000 0.0000 0.0000
# 3 63.9989 30.4675 131.3694 0.0000 0.0000 0.0000
# 4 0.0000 0.0000 0.0000 31.6632 0.0000 0.0000
# 5 0.0000 0.0000 0.0000 0.0000 37.7459 0.0000
# 6 0.0000 0.0000 0.0000 0.0000 0.0000 33.9888
#
#
#
# Elastic Compliance Matrix: (Units=1/GPa)
#
#
# Indices 1 2 3 4 5 6 
#
# 1 0.018291 -0.009695 -0.006662 0.000000 0.000000 0.000000
# 2 -0.009695 0.025372 -0.001161 0.000000 0.000000 0.000000
# 3 -0.006662 -0.001161 0.011127 0.000000 0.000000 0.000000
# 4 0.000000 0.000000 0.000000 0.031582 0.000000 0.000000
# 5 0.000000 0.000000 0.000000 0.000000 0.026493 0.000000
# 6 0.000000 0.000000 0.000000 0.000000 0.000000 0.029421
#
#
# Mechanical properties :
#
#
# Convention : Reuss Voigt Hill
#
# Bulk Modulus (GPa) = 50.62541 62.06763 56.34652
# Shear Modulus (GPa) = 27.18761 30.81890 29.00326
#
# Velocity S-wave (km/s) = 3.71807 3.95859 3.84021
# Velocity P-wave (km/s) = 6.64631 7.24246 6.95078
#
# Compressibility (1/GPa) = 0.01975293
#
# Stress axis : x y z
#
# Youngs Moduli (GPa) = 54.67288 39.41366 89.87131
#
# Poissons Ratio (x) = 0.38211 0.59873
# Poissons Ratio (y) = 0.53005 0.10437
# Poissons Ratio (z) = 0.36424 0.04577
#
# Static dielectric constant tensor:
#      x y z
#    x 3.632210 0.000000 0.000000 
#    y 0.000000 3.510770 0.000000 
#    z 0.000000 0.000000 3.807610 
# 
# 
# High freq. dielectric constant tensor:
#      x y z
#    x 1.770360 0.000000 0.000000 
#    y 0.000000 1.757230 0.000000 
#    z 0.000000 0.000000 1.774940 
# 
# From -- ./inp_files/24306.got.cif
#   From: 2010.03.12/outbox.cif.g09.slc.cpg/sg59_13_cif.got.tgz:24306.got - 2010.04.16 16:29:54.
