data_PCOD8244819
_publ_section_title
;
Structure prediction by ZEFSAII (Michael W. Deem and Ramdas Pophale) SiO2 
 PCOD8244819
Probable space group: P M M N
;
_chemical_formula_sum "Si O2"
_cell_formula_units_Z 48
_cell_length_a 9.464036
_cell_length_b 7.763368
_cell_length_c 33.992090
_cell_angle_alpha 90.000000
_cell_angle_beta 90.000000
_cell_angle_gamma 90.000000
_cell_volume 2497.493834
_symmetry_space_group_name_H-M "P M M N"
_symmetry_group_IT_number 59
_space_group.IT_coordinate_system_code '2'
_symmetry_cell_setting 'orthorhombic'
loop_
_space_group_symop_operation_xyz
x,y,z
1/2-x,1/2-y,z
1/2+x,-y,-z
-x,1/2+y,-z
-x,-y,-z
1/2+x,1/2+y,-z
1/2-x,y,z
x,1/2-y,z
loop_
_atom_site_type_symbol
_atom_site_label
_atom_site_fract_x
_atom_site_fract_y
_atom_site_fract_z
Si Si1 0.591960 0.048147 0.962629
Si Si2 0.596056 0.047827 0.463892
Si Si3 0.083204 0.250000 0.251169
Si Si4 0.416557 0.947980 0.622202
Si Si5 0.588784 0.441301 0.693949
Si Si6 0.587459 0.250000 0.171743
Si Si7 0.413014 0.449222 0.888133
O O1 0.750000 0.965188 0.964692
O O2 0.607490 0.250000 0.960622
O O3 0.510308 0.984474 0.923846
O O4 0.500000 0.000000 0.000000
O O5 0.750000 0.965565 0.471861
O O6 0.611897 0.250000 0.460246
O O7 0.538248 0.983716 0.421432
O O8 0.500000 0.000000 0.500000
O O9 0.250000 0.250000 0.244193
O O10 0.032378 0.419654 0.274730
O O11 0.009963 0.250000 0.209441
O O12 0.250000 0.973022 0.627873
O O13 0.460564 0.750000 0.628025
O O14 0.498341 0.058859 0.654225
O O15 0.750000 0.485366 0.682772
O O16 0.576110 0.250000 0.712587
O O17 0.750000 0.250000 0.184965
O O18 0.552732 0.424504 0.147916
O O19 0.250000 0.468783 0.901298
O O20 0.445352 0.250000 0.876326
#
# Coordination Sequence:
#
# PCOD8244819 Si02
#       7
#     8   8   4   8   8   4   8
#     4  10  21  35  53  80 113 149 190 236 284 333
#     4   9  19  34  50  72 104 141 181 224 268 318
#     4  10  22  40  58  82 116 146 178 228 282 334
#     4   9  18  34  55  77 105 142 182 227 277 327
#     4  10  21  37  58  84 112 144 183 225 274 333
#     4  10  22  38  60  86 110 146 190 230 280 340
#     4   9  19  37  57  79 112 148 185 234 284 330
#
# _framework density 19.219266999999999
#
# number of rings (size 3 to 8) (size 9 to 14) (size 15 to 20)
#    0.000    2.500    0.833    1.500    1.167    5.000 
#    0.000    5.000    0.000    0.000    0.000    0.000 
#    0.000    0.000    0.000    0.000    0.000    0.000 
#
# Total GULP energy -595038.943453 kJ/mol
# GULP energy per Si atom -12396.644655 kJ/mol
# Density = 1.917552 g / cm^3
# Si number density = 19.219267 Si / 1000 Ang^3
#
#
#
# Elastic Constant Matrix: (Units=GPa)
#
#
# Indices 1 2 3 4 5 6 
#
# 1 90.5945 33.4484 78.3823 0.0000 0.0000 0.0000
# 2 33.4484 86.2207 55.5518 0.0000 0.0000 0.0000
# 3 78.3823 55.5518 158.7937 0.0000 0.0000 0.0000
# 4 0.0000 0.0000 0.0000 26.5750 0.0000 0.0000
# 5 0.0000 0.0000 0.0000 0.0000 42.5156 0.0000
# 6 0.0000 0.0000 0.0000 0.0000 0.0000 21.0945
#
#
#
# Elastic Compliance Matrix: (Units=1/GPa)
#
#
# Indices 1 2 3 4 5 6 
#
# 1 0.019470 -0.001757 -0.008996 0.000000 0.000000 0.000000
# 2 -0.001757 0.015132 -0.004426 0.000000 0.000000 0.000000
# 3 -0.008996 -0.004426 0.012286 0.000000 0.000000 0.000000
# 4 0.000000 0.000000 0.000000 0.037629 0.000000 0.000000
# 5 0.000000 0.000000 0.000000 0.000000 0.023521 0.000000
# 6 0.000000 0.000000 0.000000 0.000000 0.000000 0.047406
#
#
# Mechanical properties :
#
#
# Convention : Reuss Voigt Hill
#
# Bulk Modulus (GPa) = 60.49774 74.48600 67.49187
# Shear Modulus (GPa) = 26.13516 29.25211 27.69363
#
# Velocity S-wave (km/s) = 3.69160 3.90554 3.80008
# Velocity P-wave (km/s) = 7.05100 7.69270 7.37883
#
# Compressibility (1/GPa) = 0.01652954
#
# Stress axis : x y z
#
# Youngs Moduli (GPa) = 51.36010 66.08669 81.39023
#
# Poissons Ratio (x) = 0.11613 0.73219
# Poissons Ratio (y) = 0.09025 0.36025
# Poissons Ratio (z) = 0.46204 0.29251
#
# Static dielectric constant tensor:
#      x y z
#    x 3.547600 0.000000 0.000000 
#    y 0.000000 3.769000 0.000000 
#    z 0.000000 0.000000 2.298360 
# 
# 
# High freq. dielectric constant tensor:
#      x y z
#    x 1.744360 0.000000 0.000000 
#    y 0.000000 1.750040 0.000000 
#    z 0.000000 0.000000 1.741150 
# 
# From -- ./inp_files/32942.got.cif
#   From: 2010.03.12/outbox.cif.g09.slc.cpg/sg59_17_cif.got.tgz:32942.got - 2010.04.16 16:29:54.
