data_PCOD8244933
_publ_section_title
;
Structure prediction by ZEFSAII (Michael W. Deem and Ramdas Pophale) SiO2 
 PCOD8244933
Probable space group: P M M N
;
_chemical_formula_sum "Si O2"
_cell_formula_units_Z 64
_cell_length_a 9.257919
_cell_length_b 30.864108
_cell_length_c 11.534239
_cell_angle_alpha 90.000000
_cell_angle_beta 90.000000
_cell_angle_gamma 90.000000
_cell_volume 3295.763600
_symmetry_space_group_name_H-M "P M M N"
_symmetry_group_IT_number 59
_space_group.IT_coordinate_system_code '2'
_symmetry_cell_setting 'orthorhombic'
loop_
_space_group_symop_operation_xyz
x,y,z
1/2-x,1/2-y,z
1/2+x,-y,-z
-x,1/2+y,-z
-x,-y,-z
1/2+x,1/2+y,-z
1/2-x,y,z
x,1/2-y,z
loop_
_atom_site_type_symbol
_atom_site_label
_atom_site_fract_x
_atom_site_fract_y
_atom_site_fract_z
Si Si1 0.411960 0.301332 0.674869
Si Si2 0.418529 0.018209 0.673786
Si Si3 0.082639 0.370895 0.041409
Si Si4 0.584049 0.557219 0.564853
Si Si5 0.586468 0.642560 0.695746
Si Si6 0.420188 0.800382 0.096493
Si Si7 0.087785 0.698778 0.545237
Si Si8 0.079594 0.038189 0.932295
O O1 0.250000 0.321210 0.681742
O O2 0.403275 0.250000 0.669728
O O3 0.504221 0.315976 0.785303
O O4 0.491097 0.319108 0.560665
O O5 0.250000 0.008676 0.674500
O O6 0.461645 0.051172 0.569877
O O7 0.466670 0.037698 0.797237
O O8 0.495020 0.972670 0.652186
O O9 0.250000 0.361203 0.011930
O O10 0.056561 0.376732 0.177882
O O11 0.030327 0.415201 0.981225
O O12 0.986115 0.330022 0.004017
O O13 0.750000 0.544467 0.583235
O O14 0.554047 0.606298 0.599627
O O15 0.750000 0.659772 0.686855
O O16 0.479655 0.682028 0.665991
O O17 0.250000 0.808080 0.108091
O O18 0.454126 0.750000 0.069011
O O19 0.250000 0.681135 0.530174
O O20 0.087622 0.750000 0.549387
O O21 0.250000 0.031574 0.949560
O O22 0.000000 0.000000 0.000000
#
# Coordination Sequence:
#
# PCOD8244933 Si02
#       8
#     8   8   8   8   8   8   8   8
#     4   9  17  32  56  82 107 138 176 218 269 328
#     4   9  18  33  55  82 109 138 173 215 264 318
#     4  10  22  38  55  79 110 145 190 237 279 332
#     4   9  18  34  55  80 110 140 173 216 266 319
#     4  10  21  36  54  76 104 141 183 227 275 325
#     4  10  21  37  57  82 113 147 184 229 280 332
#     4  10  21  36  54  78 108 140 177 224 275 326
#     4  10  21  37  57  82 112 146 185 229 276 327
#
# _framework density 19.418869000000001
#
# number of rings (size 3 to 8) (size 9 to 14) (size 15 to 20)
#    0.000    2.375    0.000    1.875    0.000    7.500 
#    0.000    5.000    0.000    0.000    0.000    0.000 
#    0.000    0.000    0.000    0.000    0.000    0.000 
#
# Total GULP energy -793652.066646 kJ/mol
# GULP energy per Si atom -12400.813541 kJ/mol
# Density = 1.937467 g / cm^3
# Si number density = 19.418869 Si / 1000 Ang^3
#
#
#
# Elastic Constant Matrix: (Units=GPa)
#
#
# Indices 1 2 3 4 5 6 
#
# 1 98.8538 47.9255 56.0048 0.0000 0.0000 0.0000
# 2 47.9255 70.1570 49.9697 0.0000 0.0000 0.0000
# 3 56.0048 49.9697 119.4398 0.0000 0.0000 0.0000
# 4 0.0000 0.0000 0.0000 32.1207 0.0000 0.0000
# 5 0.0000 0.0000 0.0000 0.0000 31.3441 0.0000
# 6 0.0000 0.0000 0.0000 0.0000 0.0000 32.1227
#
#
#
# Elastic Compliance Matrix: (Units=1/GPa)
#
#
# Indices 1 2 3 4 5 6 
#
# 1 0.016553 -0.008233 -0.004317 0.000000 0.000000 0.000000
# 2 -0.008233 0.024399 -0.006347 0.000000 0.000000 0.000000
# 3 -0.004317 -0.006347 0.013052 0.000000 0.000000 0.000000
# 4 0.000000 0.000000 0.000000 0.031133 0.000000 0.000000
# 5 0.000000 0.000000 0.000000 0.000000 0.031904 0.000000
# 6 0.000000 0.000000 0.000000 0.000000 0.000000 0.031131
#
#
# Mechanical properties :
#
#
# Convention : Reuss Voigt Hill
#
# Bulk Modulus (GPa) = 61.69304 66.25007 63.97156
# Shear Modulus (GPa) = 26.12749 28.08755 27.10752
#
# Velocity S-wave (km/s) = 3.67204 3.80729 3.74028
# Velocity P-wave (km/s) = 7.05813 7.31558 7.18800
#
# Compressibility (1/GPa) = 0.01620928
#
# Stress axis : x y z
#
# Youngs Moduli (GPa) = 60.41092 40.98605 76.61461
#
# Poissons Ratio (x) = 0.33743 0.33078
# Poissons Ratio (y) = 0.49735 0.48629
# Poissons Ratio (z) = 0.26082 0.26015
#
# Static dielectric constant tensor:
#      x y z
#    x 3.621700 0.000000 0.000000 
#    y 0.000000 3.331890 0.000000 
#    z 0.000000 0.000000 3.695320 
# 
# 
# High freq. dielectric constant tensor:
#      x y z
#    x 1.756150 0.000000 0.000000 
#    y 0.000000 1.741050 0.000000 
#    z 0.000000 0.000000 1.763830 
# 
# From -- ./inp_files/15048.got.cif
#   From: 2010.03.12/outbox.cif.g09.slc.cpg/sg59_8_cif.got.tgz:15048.got - 2010.04.16 16:29:54.
