data_PCOD8244187
_publ_section_title
;
Structure prediction by ZEFSAII (Michael W. Deem and Ramdas Pophale) SiO2 
 PCOD8244187
Probable space group: P M M N
;
_chemical_formula_sum "Si O2"
_cell_formula_units_Z 48
_cell_length_a 9.089113
_cell_length_b 21.534250
_cell_length_c 12.208954
_cell_angle_alpha 90.000000
_cell_angle_beta 90.000000
_cell_angle_gamma 90.000000
_cell_volume 2389.624767
_symmetry_space_group_name_H-M "P M M N"
_symmetry_group_IT_number 59
_space_group.IT_coordinate_system_code '2'
_symmetry_cell_setting 'orthorhombic'
loop_
_space_group_symop_operation_xyz
x,y,z
1/2-x,1/2-y,z
1/2+x,-y,-z
-x,1/2+y,-z
-x,-y,-z
1/2+x,1/2+y,-z
1/2-x,y,z
x,1/2-y,z
loop_
_atom_site_type_symbol
_atom_site_label
_atom_site_fract_x
_atom_site_fract_y
_atom_site_fract_z
Si Si1 0.580316 0.433714 0.010433
Si Si2 0.075396 0.681843 0.129717
Si Si3 0.081310 0.584291 0.739637
Si Si4 0.414533 0.988217 0.389194
Si Si5 0.416399 0.320061 0.410305
Si Si6 0.084975 0.844084 0.371154
O O1 0.750000 0.446253 0.980158
O O2 0.565122 0.405557 0.131624
O O3 0.500000 0.500000 0.000000
O O4 0.510579 0.378415 0.934897
O O5 0.250000 0.675910 0.122994
O O6 0.026433 0.750000 0.081467
O O7 0.023816 0.681452 0.256137
O O8 0.250000 0.577846 0.702782
O O9 0.996325 0.521518 0.710407
O O10 0.014000 0.641401 0.673533
O O11 0.250000 0.014930 0.401842
O O12 0.411683 0.917262 0.359092
O O13 0.500000 0.000000 0.500000
O O14 0.250000 0.345907 0.411664
O O15 0.420234 0.250000 0.367539
O O16 0.478171 0.322481 0.533066
O O17 0.250000 0.819056 0.394936
#
# Coordination Sequence:
#
# PCOD8244187 Si02
#       6
#     8   8   8   8   8   8
#     4  10  22  40  63  90 119 155 200 250 303 358
#     4   9  18  35  60  88 116 151 199 251 302 355
#     4  11  23  38  58  86 117 154 198 240 292 356
#     4  11  21  34  56  86 119 153 191 237 293 356
#     4  11  24  39  56  81 115 155 195 240 297 355
#     4  10  20  35  59  87 115 150 191 239 297 360
#
# _framework density 20.086836000000002
#
# number of rings (size 3 to 8) (size 9 to 14) (size 15 to 20)
#    0.000    1.667    1.667    3.000    0.000    6.000 
#    0.000    2.500    0.000    1.500    0.000    0.000 
#    0.000    0.000    0.000    0.000    0.000    0.000 
#
# Total GULP energy -595077.253626 kJ/mol
# GULP energy per Si atom -12397.442784 kJ/mol
# Density = 2.004112 g / cm^3
# Si number density = 20.086836 Si / 1000 Ang^3
#
#
#
# Elastic Constant Matrix: (Units=GPa)
#
#
# Indices 1 2 3 4 5 6 
#
# 1 110.8925 39.1762 41.4788 0.0000 0.0000 0.0000
# 2 39.1762 140.9957 45.7514 0.0000 0.0000 0.0000
# 3 41.4788 45.7514 91.2631 0.0000 0.0000 0.0000
# 4 0.0000 0.0000 0.0000 20.4245 0.0000 0.0000
# 5 0.0000 0.0000 0.0000 0.0000 23.1758 0.0000
# 6 0.0000 0.0000 0.0000 0.0000 0.0000 24.9021
#
#
#
# Elastic Compliance Matrix: (Units=1/GPa)
#
#
# Indices 1 2 3 4 5 6 
#
# 1 0.011213 -0.001746 -0.004221 0.000000 0.000000 0.000000
# 2 -0.001746 0.008742 -0.003589 0.000000 0.000000 0.000000
# 3 -0.004221 -0.003589 0.014675 0.000000 0.000000 0.000000
# 4 0.000000 0.000000 0.000000 0.048961 0.000000 0.000000
# 5 0.000000 0.000000 0.000000 0.000000 0.043148 0.000000
# 6 0.000000 0.000000 0.000000 0.000000 0.000000 0.040157
#
#
# Mechanical properties :
#
#
# Convention : Reuss Voigt Hill
#
# Bulk Modulus (GPa) = 64.44006 66.21824 65.32915
# Shear Modulus (GPa) = 26.15304 28.15015 27.15159
#
# Velocity S-wave (km/s) = 3.61224 3.74762 3.68055
# Velocity P-wave (km/s) = 7.03904 7.19470 7.11730
#
# Compressibility (1/GPa) = 0.01551830
#
# Stress axis : x y z
#
# Youngs Moduli (GPa) = 89.17834 114.38866 68.14280
#
# Poissons Ratio (x) = 0.19972 0.28765
# Poissons Ratio (y) = 0.15570 0.24456
# Poissons Ratio (z) = 0.37644 0.41054
#
# Static dielectric constant tensor:
#      x y z
#    x 3.603000 0.000000 0.000000 
#    y 0.000000 3.851800 0.000000 
#    z 0.000000 0.000000 3.510960 
# 
# 
# High freq. dielectric constant tensor:
#      x y z
#    x 1.766620 0.000000 0.000000 
#    y 0.000000 1.803530 0.000000 
#    z 0.000000 0.000000 1.782980 
# 
# From -- ./inp_files/14391.got.cif
#   From: 2010.03.12/outbox.cif.g09.slc.cpg/sg59_8_cif.got.tgz:14391.got - 2010.04.16 16:29:54.
