data_PCOD8244265
_publ_section_title
;
Structure prediction by ZEFSAII (Michael W. Deem and Ramdas Pophale) SiO2 
 PCOD8244265
Probable space group: P M M N
;
_chemical_formula_sum "Si O2"
_cell_formula_units_Z 48
_cell_length_a 8.511359
_cell_length_b 15.401605
_cell_length_c 19.130914
_cell_angle_alpha 90.000000
_cell_angle_beta 90.000000
_cell_angle_gamma 90.000000
_cell_volume 2507.844529
_symmetry_space_group_name_H-M "P M M N"
_symmetry_group_IT_number 59
_space_group.IT_coordinate_system_code '2'
_symmetry_cell_setting 'orthorhombic'
loop_
_space_group_symop_operation_xyz
x,y,z
1/2-x,1/2-y,z
1/2+x,-y,-z
-x,1/2+y,-z
-x,-y,-z
1/2+x,1/2+y,-z
1/2-x,y,z
x,1/2-y,z
loop_
_atom_site_type_symbol
_atom_site_label
_atom_site_fract_x
_atom_site_fract_y
_atom_site_fract_z
Si Si1 0.566738 0.750000 0.798553
Si Si2 0.431094 0.491423 0.661643
Si Si3 0.562992 0.750000 0.954143
Si Si4 0.430241 0.848013 0.433849
Si Si5 0.432372 0.150755 0.417946
Si Si6 0.565037 0.937235 0.793240
Si Si7 0.064341 0.571697 0.948856
O O1 0.750000 0.750000 0.812017
O O2 0.494016 0.750000 0.875583
O O3 0.520849 0.840611 0.761317
O O4 0.250000 0.468476 0.653251
O O5 0.530400 0.414316 0.627638
O O6 0.466782 0.584132 0.627032
O O7 0.476263 0.494518 0.743742
O O8 0.750000 0.750000 0.962702
O O9 0.490694 0.838170 0.985591
O O10 0.250000 0.860595 0.456685
O O11 0.460312 0.750000 0.406741
O O12 0.538554 0.868231 0.500465
O O13 0.250000 0.135527 0.401025
O O14 0.481601 0.250000 0.399502
O O15 0.750000 0.954540 0.789318
O O16 0.511355 0.944749 0.872929
O O17 0.250000 0.567417 0.942065
O O18 0.000000 0.500000 0.000000
#
# Coordination Sequence:
#
# PCOD8244265 Si02
#       7
#     4   8   4   8   8   8   8
#     4   7  14  29  51  75 105 141 174 213 266 325
#     4  12  24  36  54  82 116 149 185 229 281 338
#     4   9  17  33  55  83 113 147 186 227 274 327
#     4  10  21  39  61  81 104 141 190 238 283 332
#     4  10  21  37  57  82 113 148 186 229 280 332
#     4  10  20  36  56  82 114 149 189 231 281 335
#     4  11  21  36  59  87 118 153 192 233 282 337
#
# _framework density 19.139942000000001
#
# number of rings (size 3 to 8) (size 9 to 14) (size 15 to 20)
#    0.000    1.833    0.000    6.250    1.167    2.000 
#    0.000    0.833    1.833    0.000    0.000    0.000 
#    0.000    0.000    0.000    0.000    0.000    0.000 
#
# Total GULP energy -595027.854938 kJ/mol
# GULP energy per Si atom -12396.413645 kJ/mol
# Density = 1.909638 g / cm^3
# Si number density = 19.139942 Si / 1000 Ang^3
#
#
#
# Elastic Constant Matrix: (Units=GPa)
#
#
# Indices 1 2 3 4 5 6 
#
# 1 83.4676 25.8183 14.9183 0.0000 0.0000 0.0000
# 2 25.8183 104.4556 45.7884 0.0000 0.0000 0.0000
# 3 14.9183 45.7884 67.0341 0.0000 0.0000 0.0000
# 4 0.0000 0.0000 0.0000 30.5484 0.0000 0.0000
# 5 0.0000 0.0000 0.0000 0.0000 30.6406 0.0000
# 6 0.0000 0.0000 0.0000 0.0000 0.0000 28.4077
#
#
#
# Elastic Compliance Matrix: (Units=1/GPa)
#
#
# Indices 1 2 3 4 5 6 
#
# 1 0.013019 -0.002780 -0.000998 0.000000 0.000000 0.000000
# 2 -0.002780 0.014259 -0.009121 0.000000 0.000000 0.000000
# 3 -0.000998 -0.009121 0.021370 0.000000 0.000000 0.000000
# 4 0.000000 0.000000 0.000000 0.032735 0.000000 0.000000
# 5 0.000000 0.000000 0.000000 0.000000 0.032636 0.000000
# 6 0.000000 0.000000 0.000000 0.000000 0.000000 0.035202
#
#
# Mechanical properties :
#
#
# Convention : Reuss Voigt Hill
#
# Bulk Modulus (GPa) = 43.76545 47.55637 45.66091
# Shear Modulus (GPa) = 27.37678 29.14816 28.26247
#
# Velocity S-wave (km/s) = 3.78610 3.90666 3.84685
# Velocity P-wave (km/s) = 6.48293 6.72681 6.60600
#
# Compressibility (1/GPa) = 0.02284908
#
# Stress axis : x y z
#
# Youngs Moduli (GPa) = 76.81002 70.13189 46.79437
#
# Poissons Ratio (x) = 0.19499 0.04671
# Poissons Ratio (y) = 0.21356 0.42681
# Poissons Ratio (z) = 0.07667 0.63967
#
# Static dielectric constant tensor:
#      x y z
#    x 3.540660 0.000000 0.000000 
#    y 0.000000 3.715240 0.000000 
#    z 0.000000 0.000000 3.288500 
# 
# 
# High freq. dielectric constant tensor:
#      x y z
#    x 1.751010 0.000000 0.000000 
#    y 0.000000 1.745830 0.000000 
#    z 0.000000 0.000000 1.723960 
# 
# From -- ./inp_files/25514.got.cif
#   From: 2010.03.12/outbox.cif.g09.slc.cpg/sg59_13_cif.got.tgz:25514.got - 2010.04.16 16:29:54.
