data_PCOD8244705
_publ_section_title
;
Structure prediction by ZEFSAII (Michael W. Deem and Ramdas Pophale) SiO2 
 PCOD8244705
Probable space group: P M M N
;
_chemical_formula_sum "Si O2"
_cell_formula_units_Z 48
_cell_length_a 15.350039
_cell_length_b 9.135607
_cell_length_c 17.325703
_cell_angle_alpha 90.000000
_cell_angle_beta 90.000000
_cell_angle_gamma 90.000000
_cell_volume 2429.616662
_symmetry_space_group_name_H-M "P M M N"
_symmetry_group_IT_number 59
_space_group.IT_coordinate_system_code '2'
_symmetry_cell_setting 'orthorhombic'
loop_
_space_group_symop_operation_xyz
x,y,z
1/2-x,1/2-y,z
1/2+x,-y,-z
-x,1/2+y,-z
-x,-y,-z
1/2+x,1/2+y,-z
1/2-x,y,z
x,1/2-y,z
loop_
_atom_site_type_symbol
_atom_site_label
_atom_site_fract_x
_atom_site_fract_y
_atom_site_fract_z
Si Si1 0.350366 0.410932 0.333098
Si Si2 0.006482 0.075769 0.081850
Si Si3 0.349412 0.579034 0.807686
Si Si4 0.646948 0.079285 0.815291
Si Si5 0.149826 0.090070 0.660742
Si Si6 0.090597 0.423563 0.497661
O O1 0.250000 0.388625 0.317800
O O2 0.395884 0.250000 0.324228
O O3 0.385178 0.524294 0.269190
O O4 0.362721 0.476016 0.419125
O O5 0.016845 0.250000 0.073929
O O6 0.916540 0.033946 0.125373
O O7 0.092404 0.011994 0.122602
O O8 0.000000 0.000000 0.000000
O O9 0.250000 0.526768 0.828052
O O10 0.349360 0.750000 0.793991
O O11 0.388123 0.511872 0.728141
O O12 0.750000 0.052140 0.829246
O O13 0.624371 0.250000 0.822434
O O14 0.250000 0.107862 0.678833
O O15 0.104137 0.250000 0.665037
O O16 0.139906 0.022529 0.574892
O O17 0.082808 0.250000 0.497306
O O18 0.000000 0.500000 0.500000
#
# Coordination Sequence:
#
# PCOD8244705 Si02
#       6
#     8   8   8   8   8   8
#     4   9  18  35  57  78 106 148 194 238 286 340
#     4  11  24  41  63  91 121 154 191 235 291 355
#     4   9  20  39  61  85 115 151 189 232 285 343
#     4  10  22  40  62  88 119 155 196 244 296 347
#     4   9  18  34  55  78 106 144 189 234 279 329
#     4  10  21  33  48  76 111 148 188 233 282 332
#
# _framework density 19.756202999999999
#
# number of rings (size 3 to 8) (size 9 to 14) (size 15 to 20)
#    0.000    2.333    0.000    1.500    2.333    6.333 
#    0.000    1.667    0.000    5.000    0.000    0.000 
#    0.000    0.000    0.000    0.000    0.000    0.000 
#
# Total GULP energy -594845.884111 kJ/mol
# GULP energy per Si atom -12392.622586 kJ/mol
# Density = 1.971124 g / cm^3
# Si number density = 19.756203 Si / 1000 Ang^3
#
#
#
# Elastic Constant Matrix: (Units=GPa)
#
#
# Indices 1 2 3 4 5 6 
#
# 1 70.7185 44.9354 57.1934 0.0000 0.0000 0.0000
# 2 44.9354 72.1021 73.3846 0.0000 0.0000 0.0000
# 3 57.1934 73.3846 191.9512 0.0000 0.0000 0.0000
# 4 0.0000 0.0000 0.0000 35.4541 0.0000 0.0000
# 5 0.0000 0.0000 0.0000 0.0000 33.8057 0.0000
# 6 0.0000 0.0000 0.0000 0.0000 0.0000 28.6895
#
#
#
# Elastic Compliance Matrix: (Units=1/GPa)
#
#
# Indices 1 2 3 4 5 6 
#
# 1 0.024042 -0.012592 -0.002349 0.000000 0.000000 0.000000
# 2 -0.012592 0.029299 -0.007449 0.000000 0.000000 0.000000
# 3 -0.002349 -0.007449 0.008758 0.000000 0.000000 0.000000
# 4 0.000000 0.000000 0.000000 0.028205 0.000000 0.000000
# 5 0.000000 0.000000 0.000000 0.000000 0.029581 0.000000
# 6 0.000000 0.000000 0.000000 0.000000 0.000000 0.034856
#
#
# Mechanical properties :
#
#
# Convention : Reuss Voigt Hill
#
# Bulk Modulus (GPa) = 57.74822 76.19984 66.97403
# Shear Modulus (GPa) = 24.35535 30.20710 27.28122
#
# Velocity S-wave (km/s) = 3.51493 3.91448 3.72007
# Velocity P-wave (km/s) = 6.76512 7.68665 7.24056
#
# Compressibility (1/GPa) = 0.01731655
#
# Stress axis : x y z
#
# Youngs Moduli (GPa) = 41.59411 34.13137 114.18736
#
# Poissons Ratio (x) = 0.42979 0.26827
# Poissons Ratio (y) = 0.52376 0.85060
# Poissons Ratio (z) = 0.09772 0.25425
#
# Static dielectric constant tensor:
#      x y z
#    x 3.592600 0.000000 0.000000 
#    y 0.000000 3.740480 0.000000 
#    z 0.000000 0.000000 3.606130 
# 
# 
# High freq. dielectric constant tensor:
#      x y z
#    x 1.763000 0.000000 0.000000 
#    y 0.000000 1.764760 0.000000 
#    z 0.000000 0.000000 1.778110 
# 
# From -- ./inp_files/25493.got.cif
#   From: 2010.03.12/outbox.cif.g09.slc.cpg/sg59_13_cif.got.tgz:25493.got - 2010.04.16 16:29:54.
