data_PCOD8244153
_publ_section_title
;
Structure prediction by ZEFSAII (Michael W. Deem and Ramdas Pophale) SiO2 
 PCOD8244153
Probable space group: P M M N
;
_chemical_formula_sum "Si O2"
_cell_formula_units_Z 48
_cell_length_a 18.803009
_cell_length_b 14.344994
_cell_length_c 8.230941
_cell_angle_alpha 90.000000
_cell_angle_beta 90.000000
_cell_angle_gamma 90.000000
_cell_volume 2220.123907
_symmetry_space_group_name_H-M "P M M N"
_symmetry_group_IT_number 59
_space_group.IT_coordinate_system_code '2'
_symmetry_cell_setting 'orthorhombic'
loop_
_space_group_symop_operation_xyz
x,y,z
1/2-x,1/2-y,z
1/2+x,-y,-z
-x,1/2+y,-z
-x,-y,-z
1/2+x,1/2+y,-z
1/2-x,y,z
x,1/2-y,z
loop_
_atom_site_type_symbol
_atom_site_label
_atom_site_fract_x
_atom_site_fract_y
_atom_site_fract_z
Si Si1 0.976863 0.361030 0.613679
Si Si2 0.750000 0.355642 0.399998
Si Si3 0.105179 0.638880 0.065957
Si Si4 0.250000 0.349832 0.856221
Si Si5 0.636585 0.853303 0.414250
Si Si6 0.250000 0.467425 0.404492
Si Si7 0.250000 0.529020 0.065865
Si Si8 0.096085 0.857720 0.711132
O O1 0.970773 0.250000 0.616277
O O2 0.939345 0.398866 0.778807
O O3 0.941481 0.404018 0.447806
O O4 0.058370 0.394669 0.618178
O O5 0.750000 0.250000 0.468146
O O6 0.750000 0.422665 0.554523
O O7 0.818883 0.376309 0.290017
O O8 0.113435 0.750000 0.071327
O O9 0.182380 0.594822 0.070570
O O10 0.069202 0.609117 0.890683
O O11 0.250000 0.250000 0.957807
O O12 0.321968 0.347259 0.753542
O O13 0.250000 0.452292 0.927212
O O14 0.631136 0.750000 0.493150
O O15 0.677947 0.920336 0.534867
O O16 0.250000 0.457483 0.214440
O O17 0.078876 0.750000 0.693070
#
# Coordination Sequence:
#
# PCOD8244153 Si02
#       8
#     8   4   8   4   8   4   4   8
#     4   9  18  37  62  89 123 160 203 246 299 367
#     4  10  20  35  58  86 119 161 202 238 295 365
#     4  10  21  37  60  94 132 164 198 240 295 374
#     4   9  21  42  65  81 110 158 208 258 311 358
#     4   9  20  42  67  87 113 159 204 253 311 359
#     4  11  23  37  63  90 116 152 205 256 304 353
#     4  12  24  38  58  93 125 157 203 252 308 352
#     4   9  18  33  57  87 118 162 202 238 291 349
#
# _framework density 21.620415999999999
#
# number of rings (size 3 to 8) (size 9 to 14) (size 15 to 20)
#    0.000    2.333    0.000    2.500    4.667    4.000 
#    3.000    4.167    0.000    0.000    0.000    0.000 
#    0.000    0.000    0.000    0.000    0.000    0.000 
#
# Total GULP energy -594661.673816 kJ/mol
# GULP energy per Si atom -12388.784871 kJ/mol
# Density = 2.157121 g / cm^3
# Si number density = 21.620416 Si / 1000 Ang^3
#
#
#
# Elastic Constant Matrix: (Units=GPa)
#
#
# Indices 1 2 3 4 5 6 
#
# 1 161.3737 24.4269 78.6523 0.0000 0.0000 0.0000
# 2 24.4269 59.4153 24.2230 0.0000 0.0000 0.0000
# 3 78.6523 24.2230 163.0714 0.0000 0.0000 0.0000
# 4 0.0000 0.0000 0.0000 19.6874 0.0000 0.0000
# 5 0.0000 0.0000 0.0000 0.0000 5.2737 0.0000
# 6 0.0000 0.0000 0.0000 0.0000 0.0000 5.3563
#
#
#
# Elastic Compliance Matrix: (Units=1/GPa)
#
#
# Indices 1 2 3 4 5 6 
#
# 1 0.008297 -0.001894 -0.003720 0.000000 0.000000 0.000000
# 2 -0.001894 0.018348 -0.001812 0.000000 0.000000 0.000000
# 3 -0.003720 -0.001812 0.008196 0.000000 0.000000 0.000000
# 4 0.000000 0.000000 0.000000 0.050794 0.000000 0.000000
# 5 0.000000 0.000000 0.000000 0.000000 0.189620 0.000000
# 6 0.000000 0.000000 0.000000 0.000000 0.000000 0.186696
#
#
# Mechanical properties :
#
#
# Convention : Reuss Voigt Hill
#
# Bulk Modulus (GPa) = 50.03028 70.94052 60.48540
# Shear Modulus (GPa) = 10.34198 23.16736 16.75467
#
# Velocity S-wave (km/s) = 2.18948 3.27701 2.78681
# Velocity P-wave (km/s) = 5.43896 6.87033 6.19612
#
# Compressibility (1/GPa) = 0.01998790
#
# Stress axis : x y z
#
# Youngs Moduli (GPa) = 120.52873 54.50147 122.01381
#
# Poissons Ratio (x) = 0.10324 0.45393
# Poissons Ratio (y) = 0.22831 0.22107
# Poissons Ratio (z) = 0.44840 0.09875
#
# Static dielectric constant tensor:
#      x y z
#    x 3.862400 0.000000 0.000000 
#    y 0.000000 3.814420 0.000000 
#    z 0.000000 0.000000 4.182500 
# 
# 
# High freq. dielectric constant tensor:
#      x y z
#    x 1.842460 0.000000 0.000000 
#    y 0.000000 1.842040 0.000000 
#    z 0.000000 0.000000 1.844050 
# 
# From -- ./inp_files/10292.got.cif
#   From: 2010.03.12/outbox.cif.g09.slc.cpg/sg59_6_cif.got.tgz:10292.got - 2010.04.16 16:29:54.
