data_PCOD8244386
_publ_section_title
;
Structure prediction by ZEFSAII (Michael W. Deem and Ramdas Pophale) SiO2 
 PCOD8244386
Probable space group: P M M N
;
_chemical_formula_sum "Si O2"
_cell_formula_units_Z 56
_cell_length_a 9.172023
_cell_length_b 22.741054
_cell_length_c 13.182670
_cell_angle_alpha 90.000000
_cell_angle_beta 90.000000
_cell_angle_gamma 90.000000
_cell_volume 2749.660692
_symmetry_space_group_name_H-M "P M M N"
_symmetry_group_IT_number 59
_space_group.IT_coordinate_system_code '2'
_symmetry_cell_setting 'orthorhombic'
loop_
_space_group_symop_operation_xyz
x,y,z
1/2-x,1/2-y,z
1/2+x,-y,-z
-x,1/2+y,-z
-x,-y,-z
1/2+x,1/2+y,-z
1/2-x,y,z
x,1/2-y,z
loop_
_atom_site_type_symbol
_atom_site_label
_atom_site_fract_x
_atom_site_fract_y
_atom_site_fract_z
Si Si1 0.084679 0.816787 0.082739
Si Si2 0.923575 0.250000 0.287635
Si Si3 0.914060 0.544039 0.568679
Si Si4 0.413734 0.358629 0.586927
Si Si5 0.578367 0.250000 0.518043
Si Si6 0.423337 0.033863 0.203516
Si Si7 0.579392 0.914690 0.202919
Si Si8 0.917609 0.353439 0.144042
O O1 0.250000 0.833780 0.113980
O O2 0.049864 0.750000 0.115817
O O3 0.971321 0.859030 0.138134
O O4 0.066077 0.820767 0.962378
O O5 0.750000 0.250000 0.284638
O O6 0.984491 0.250000 0.402934
O O7 0.978760 0.308851 0.230230
O O8 0.750000 0.520448 0.572082
O O9 0.924858 0.608353 0.520232
O O10 0.976734 0.546437 0.681818
O O11 0.000000 0.500000 0.500000
O O12 0.250000 0.334353 0.603780
O O13 0.526111 0.305569 0.582452
O O14 0.455411 0.402335 0.678755
O O15 0.750000 0.250000 0.514761
O O16 0.250000 0.031433 0.190346
O O17 0.486797 0.087349 0.137945
O O18 0.491531 0.972259 0.166674
O O19 0.750000 0.925530 0.184288
O O20 0.750000 0.370571 0.166196
#
# Coordination Sequence:
#
# PCOD8244386 Si02
#       8
#     8   4   8   8   4   8   8   8
#     4  10  22  42  67  92 117 152 198 251 305 354
#     4   9  18  37  62  91 120 152 199 245 292 359
#     4  10  20  36  59  85 117 157 198 239 287 343
#     4  10  22  40  58  82 120 161 198 238 291 351
#     4  11  23  35  56  89 120 154 197 243 288 341
#     4  11  23  38  60  93 126 156 197 249 299 349
#     4  11  24  41  62  86 118 162 205 245 296 356
#     4  10  20  39  67  91 119 157 195 241 303 366
#
# _framework density 20.366150000000001
#
# number of rings (size 3 to 8) (size 9 to 14) (size 15 to 20)
#    0.000    1.714    2.143    1.929    1.000    3.714 
#    0.000    1.071    0.000    0.000    0.000    0.000 
#    0.000    0.000    0.000    0.000    0.000    0.000 
#
# Total GULP energy -694578.716350 kJ/mol
# GULP energy per Si atom -12403.191363 kJ/mol
# Density = 2.031980 g / cm^3
# Si number density = 20.366150 Si / 1000 Ang^3
#
#
#
# Elastic Constant Matrix: (Units=GPa)
#
#
# Indices 1 2 3 4 5 6 
#
# 1 83.0358 53.5188 20.9738 0.0000 0.0000 0.0000
# 2 53.5188 128.5957 18.7449 0.0000 0.0000 0.0000
# 3 20.9738 18.7449 39.2653 0.0000 0.0000 0.0000
# 4 0.0000 0.0000 0.0000 34.3201 0.0000 0.0000
# 5 0.0000 0.0000 0.0000 0.0000 28.7163 0.0000
# 6 0.0000 0.0000 0.0000 0.0000 0.0000 35.0316
#
#
#
# Elastic Compliance Matrix: (Units=1/GPa)
#
#
# Indices 1 2 3 4 5 6 
#
# 1 0.017853 -0.006492 -0.006437 0.000000 0.000000 0.000000
# 2 -0.006492 0.010718 -0.001649 0.000000 0.000000 0.000000
# 3 -0.006437 -0.001649 0.029694 0.000000 0.000000 0.000000
# 4 0.000000 0.000000 0.000000 0.029137 0.000000 0.000000
# 5 0.000000 0.000000 0.000000 0.000000 0.034823 0.000000
# 6 0.000000 0.000000 0.000000 0.000000 0.000000 0.028546
#
#
# Mechanical properties :
#
#
# Convention : Reuss Voigt Hill
#
# Bulk Modulus (GPa) = 34.35411 48.59689 41.47550
# Shear Modulus (GPa) = 26.36700 30.12423 28.24562
#
# Velocity S-wave (km/s) = 3.60203 3.85012 3.72814
# Velocity P-wave (km/s) = 5.84845 6.60893 6.24028
#
# Compressibility (1/GPa) = 0.02910860
#
# Stress axis : x y z
#
# Youngs Moduli (GPa) = 56.01283 93.29716 33.67729
#
# Poissons Ratio (x) = 0.60566 0.21679
# Poissons Ratio (y) = 0.36362 0.05554
# Poissons Ratio (z) = 0.36057 0.15387
#
# Static dielectric constant tensor:
#      x y z
#    x 3.681930 0.000000 0.000000 
#    y 0.000000 3.649910 0.000000 
#    z 0.000000 0.000000 3.784230 
# 
# 
# High freq. dielectric constant tensor:
#      x y z
#    x 1.784710 0.000000 0.000000 
#    y 0.000000 1.802350 0.000000 
#    z 0.000000 0.000000 1.794940 
# 
# From -- ./inp_files/21158.got.cif
#   From: 2010.03.12/outbox.cif.g09.slc.cpg/sg59_11_cif.got.tgz:21158.got - 2010.04.16 16:29:54.
