data_PCOD8244551
_publ_section_title
;
Structure prediction by ZEFSAII (Michael W. Deem and Ramdas Pophale) SiO2 
 PCOD8244551
Probable space group: P M M N
;
_chemical_formula_sum "Si O2"
_cell_formula_units_Z 48
_cell_length_a 13.919053
_cell_length_b 19.855482
_cell_length_c 8.518809
_cell_angle_alpha 90.000000
_cell_angle_beta 90.000000
_cell_angle_gamma 90.000000
_cell_volume 2354.339038
_symmetry_space_group_name_H-M "P M M N"
_symmetry_group_IT_number 59
_space_group.IT_coordinate_system_code '2'
_symmetry_cell_setting 'orthorhombic'
loop_
_space_group_symop_operation_xyz
x,y,z
1/2-x,1/2-y,z
1/2+x,-y,-z
-x,1/2+y,-z
-x,-y,-z
1/2+x,1/2+y,-z
1/2-x,y,z
x,1/2-y,z
loop_
_atom_site_type_symbol
_atom_site_label
_atom_site_fract_x
_atom_site_fract_y
_atom_site_fract_z
Si Si1 0.642475 0.984627 0.651888
Si Si2 0.363239 0.868227 0.392178
Si Si3 0.460478 0.675474 0.701479
Si Si4 0.970105 0.571628 0.930411
Si Si5 0.465946 0.176105 0.806142
Si Si6 0.140391 0.351628 0.496382
O O1 0.750000 0.007168 0.680320
O O2 0.613105 0.946507 0.810012
O O3 0.630764 0.933191 0.507076
O O4 0.592365 0.055520 0.611704
O O5 0.250000 0.859988 0.356081
O O6 0.384142 0.839396 0.564362
O O7 0.424879 0.830740 0.258603
O O8 0.437505 0.750000 0.771519
O O9 0.450379 0.616607 0.834320
O O10 0.568847 0.679116 0.633036
O O11 0.000000 0.500000 0.000000
O O12 0.934638 0.619209 0.070556
O O13 0.458295 0.250000 0.884950
O O14 0.388783 0.173009 0.667182
O O15 0.250000 0.329272 0.458990
#
# Coordination Sequence:
#
# PCOD8244551 Si02
#       6
#     8   8   8   8   8   8
#     4   9  19  36  58  86 112 146 194 236 278 335
#     4  10  20  37  61  86 113 146 192 242 286 330
#     4  10  22  37  58  85 114 148 189 231 281 340
#     4  11  22  38  58  78 114 156 186 227 282 335
#     4  11  23  36  57  88 117 149 189 231 284 342
#     4   9  19  35  59  86 114 144 187 237 282 331
#
# _framework density 20.387886999999999
#
# number of rings (size 3 to 8) (size 9 to 14) (size 15 to 20)
#    0.000    2.000    1.667    2.500    2.333    5.333 
#    0.000    1.667    0.000    5.000    0.000    0.000 
#    0.000    0.000    0.000    0.000    0.000    0.000 
#
# Total GULP energy -594652.642287 kJ/mol
# GULP energy per Si atom -12388.596714 kJ/mol
# Density = 2.034148 g / cm^3
# Si number density = 20.387887 Si / 1000 Ang^3
#
#
#
# Elastic Constant Matrix: (Units=GPa)
#
#
# Indices 1 2 3 4 5 6 
#
# 1 72.7965 12.1455 5.6107 0.0000 0.0000 0.0000
# 2 12.1455 179.9467 46.6609 0.0000 0.0000 0.0000
# 3 5.6107 46.6609 72.8999 0.0000 0.0000 0.0000
# 4 0.0000 0.0000 0.0000 29.6365 0.0000 0.0000
# 5 0.0000 0.0000 0.0000 0.0000 14.7301 0.0000
# 6 0.0000 0.0000 0.0000 0.0000 0.0000 19.6602
#
#
#
# Elastic Compliance Matrix: (Units=1/GPa)
#
#
# Indices 1 2 3 4 5 6 
#
# 1 0.013913 -0.000793 -0.000563 0.000000 0.000000 0.000000
# 2 -0.000793 0.006708 -0.004233 0.000000 0.000000 0.000000
# 3 -0.000563 -0.004233 0.016470 0.000000 0.000000 0.000000
# 4 0.000000 0.000000 0.000000 0.033742 0.000000 0.000000
# 5 0.000000 0.000000 0.000000 0.000000 0.067888 0.000000
# 6 0.000000 0.000000 0.000000 0.000000 0.000000 0.050864
#
#
# Mechanical properties :
#
#
# Convention : Reuss Voigt Hill
#
# Bulk Modulus (GPa) = 38.59055 50.49749 44.54402
# Shear Modulus (GPa) = 23.87764 30.22044 27.04904
#
# Velocity S-wave (km/s) = 3.42595 3.85421 3.64637
# Velocity P-wave (km/s) = 5.88377 6.68047 6.29474
#
# Compressibility (1/GPa) = 0.02591308
#
# Stress axis : x y z
#
# Youngs Moduli (GPa) = 71.87712 149.06940 60.71639
#
# Poissons Ratio (x) = 0.11821 0.03420
# Poissons Ratio (y) = 0.05700 0.25700
# Poissons Ratio (z) = 0.04048 0.63097
#
# Static dielectric constant tensor:
#      x y z
#    x 3.451600 0.000000 0.000000 
#    y 0.000000 4.160970 0.000000 
#    z 0.000000 0.000000 3.699460 
# 
# 
# High freq. dielectric constant tensor:
#      x y z
#    x 1.769570 0.000000 0.000000 
#    y 0.000000 1.827970 0.000000 
#    z 0.000000 0.000000 1.779310 
# 
# From -- ./inp_files/9228.got.cif
#   From: 2010.03.12/outbox.cif.g09.slc.cpg/sg59_5_cif.got.tgz:9228.got - 2010.04.16 16:29:54.
