data_PCOD8244025
_publ_section_title
;
Structure prediction by ZEFSAII (Michael W. Deem and Ramdas Pophale) SiO2 
 PCOD8244025
Probable space group: P M M N
;
_chemical_formula_sum "Si O2"
_cell_formula_units_Z 48
_cell_length_a 8.898578
_cell_length_b 17.872454
_cell_length_c 16.021616
_cell_angle_alpha 90.000000
_cell_angle_beta 90.000000
_cell_angle_gamma 90.000000
_cell_volume 2548.068612
_symmetry_space_group_name_H-M "P M M N"
_symmetry_group_IT_number 59
_space_group.IT_coordinate_system_code '2'
_symmetry_cell_setting 'orthorhombic'
loop_
_space_group_symop_operation_xyz
x,y,z
1/2-x,1/2-y,z
1/2+x,-y,-z
-x,1/2+y,-z
-x,-y,-z
1/2+x,1/2+y,-z
1/2-x,y,z
x,1/2-y,z
loop_
_atom_site_type_symbol
_atom_site_label
_atom_site_fract_x
_atom_site_fract_y
_atom_site_fract_z
Si Si1 0.925934 0.250000 0.103727
Si Si2 0.077185 0.963817 0.124760
Si Si3 0.429092 0.750000 0.708779
Si Si4 0.420620 0.112670 0.022421
Si Si5 0.073512 0.963082 0.312114
Si Si6 0.425552 0.836623 0.438469
Si Si7 0.928381 0.883388 0.607741
O O1 0.750000 0.250000 0.110072
O O2 0.991560 0.250000 0.197136
O O3 0.975888 0.321844 0.053872
O O4 0.250000 0.936438 0.122330
O O5 0.008294 0.962198 0.218170
O O6 0.063045 0.046892 0.089224
O O7 0.976353 0.909273 0.069371
O O8 0.250000 0.750000 0.701382
O O9 0.492029 0.676315 0.666079
O O10 0.250000 0.140161 0.015288
O O11 0.250000 0.972334 0.304388
O O12 0.030323 0.885482 0.357480
O O13 0.013474 0.034535 0.364138
O O14 0.250000 0.845721 0.460716
O O15 0.465461 0.750000 0.420642
O O16 0.523691 0.869114 0.513174
O O17 0.750000 0.874838 0.615449
#
# Coordination Sequence:
#
# PCOD8244025 Si02
#       7
#     4   8   4   8   8   8   8
#     4  11  23  37  55  82 111 144 185 229 274 333
#     4   9  18  36  58  80 110 147 189 228 270 330
#     4  11  23  37  55  82 115 144 181 233 284 333
#     4  10  20  35  57  82 114 149 180 226 283 332
#     4   9  19  35  56  83 110 146 193 232 268 325
#     4  10  20  36  56  78 112 150 185 228 278 327
#     4  11  21  35  57  82 112 147 186 229 278 332
#
# _framework density 18.837797999999999
#
# number of rings (size 3 to 8) (size 9 to 14) (size 15 to 20)
#    0.000    2.000    0.833    3.000    0.000    3.333 
#    1.500    3.333    0.000    0.000    0.000    0.000 
#    0.000    0.000    0.000    0.000    0.000    0.000 
#
# Total GULP energy -595274.988375 kJ/mol
# GULP energy per Si atom -12401.562258 kJ/mol
# Density = 1.879492 g / cm^3
# Si number density = 18.837798 Si / 1000 Ang^3
#
#
#
# Elastic Constant Matrix: (Units=GPa)
#
#
# Indices 1 2 3 4 5 6 
#
# 1 47.9380 25.8511 32.4057 0.0000 0.0000 0.0000
# 2 25.8511 103.0876 81.9451 0.0000 0.0000 0.0000
# 3 32.4057 81.9451 143.9264 0.0000 0.0000 0.0000
# 4 0.0000 0.0000 0.0000 17.0205 0.0000 0.0000
# 5 0.0000 0.0000 0.0000 0.0000 16.5212 0.0000
# 6 0.0000 0.0000 0.0000 0.0000 0.0000 30.5868
#
#
#
# Elastic Compliance Matrix: (Units=1/GPa)
#
#
# Indices 1 2 3 4 5 6 
#
# 1 0.025207 -0.003306 -0.003793 0.000000 0.000000 0.000000
# 2 -0.003306 0.018154 -0.009592 0.000000 0.000000 0.000000
# 3 -0.003793 -0.009592 0.013263 0.000000 0.000000 0.000000
# 4 0.000000 0.000000 0.000000 0.058753 0.000000 0.000000
# 5 0.000000 0.000000 0.000000 0.000000 0.060528 0.000000
# 6 0.000000 0.000000 0.000000 0.000000 0.000000 0.032694
#
#
# Mechanical properties :
#
#
# Convention : Reuss Voigt Hill
#
# Bulk Modulus (GPa) = 43.02439 63.92842 53.47641
# Shear Modulus (GPa) = 20.02172 23.14237 21.58205
#
# Velocity S-wave (km/s) = 3.26367 3.50881 3.38846
# Velocity P-wave (km/s) = 6.09024 7.10110 6.61501
#
# Compressibility (1/GPa) = 0.02324263
#
# Stress axis : x y z
#
# Youngs Moduli (GPa) = 39.67117 55.08419 75.39661
#
# Poissons Ratio (x) = 0.18210 0.28601
# Poissons Ratio (y) = 0.13114 0.72319
# Poissons Ratio (z) = 0.15049 0.52835
#
# Static dielectric constant tensor:
#      x y z
#    x 3.366680 0.000000 0.000000 
#    y 0.000000 3.593760 0.000000 
#    z 0.000000 0.000000 3.687310 
# 
# 
# High freq. dielectric constant tensor:
#      x y z
#    x 1.719490 0.000000 0.000000 
#    y 0.000000 1.736140 0.000000 
#    z 0.000000 0.000000 1.740940 
# 
# From -- ./inp_files/20489.got.cif
#   From: 2010.03.12/outbox.cif.g09.slc.cpg/sg59_11_cif.got.tgz:20489.got - 2010.04.16 16:29:54.
