data_PCOD8244082
_publ_section_title
;
Structure prediction by ZEFSAII (Michael W. Deem and Ramdas Pophale) SiO2 
 PCOD8244082
Probable space group: P M M N
;
_chemical_formula_sum "Si O2"
_cell_formula_units_Z 48
_cell_length_a 13.888410
_cell_length_b 8.774276
_cell_length_c 20.596494
_cell_angle_alpha 90.000000
_cell_angle_beta 90.000000
_cell_angle_gamma 90.000000
_cell_volume 2509.904053
_symmetry_space_group_name_H-M "P M M N"
_symmetry_group_IT_number 59
_space_group.IT_coordinate_system_code '2'
_symmetry_cell_setting 'orthorhombic'
loop_
_space_group_symop_operation_xyz
x,y,z
1/2-x,1/2-y,z
1/2+x,-y,-z
-x,1/2+y,-z
-x,-y,-z
1/2+x,1/2+y,-z
1/2-x,y,z
x,1/2-y,z
loop_
_atom_site_type_symbol
_atom_site_label
_atom_site_fract_x
_atom_site_fract_y
_atom_site_fract_z
Si Si1 0.854914 0.569903 0.395806
Si Si2 0.360440 0.071484 0.215923
Si Si3 0.637066 0.578633 0.539746
Si Si4 0.968061 0.429377 0.903045
Si Si5 0.950689 0.072674 0.660516
Si Si6 0.358887 0.930295 0.968659
O O1 0.750000 0.503197 0.374583
O O2 0.846300 0.750000 0.402713
O O3 0.884796 0.511648 0.467721
O O4 0.935657 0.527476 0.342479
O O5 0.250000 0.018097 0.209222
O O6 0.370279 0.250000 0.204022
O O7 0.425097 0.983930 0.164378
O O8 0.398227 0.031606 0.287095
O O9 0.750000 0.584137 0.551819
O O10 0.594813 0.750000 0.549489
O O11 0.592103 0.459999 0.589989
O O12 0.978471 0.250000 0.901577
O O13 0.074549 0.498862 0.912528
O O14 0.897929 0.483907 0.961083
O O15 0.936277 0.250000 0.678006
O O16 0.250000 0.991200 0.960508
O O17 0.362608 0.750000 0.962494
#
# Coordination Sequence:
#
# PCOD8244082 Si02
#       6
#     8   8   8   8   8   8
#     4   8  16  32  52  73  98 130 168 209 257 314
#     4  11  24  40  56  74 102 142 180 213 259 321
#     4   9  17  31  51  73 100 134 167 203 255 317
#     4  10  20  35  57  85 114 143 179 223 266 306
#     4  11  21  32  51  77 102 131 170 218 264 305
#     4   9  18  34  57  85 117 149 179 215 260 310
#
# _framework density 19.124237000000001
#
# number of rings (size 3 to 8) (size 9 to 14) (size 15 to 20)
#    0.000    2.333    0.000    4.000    0.000    5.333 
#    0.000    1.667    0.000    7.000    0.000    0.000 
#    0.000    0.000    0.000    0.000    0.000    0.000 
#
# Total GULP energy -595151.311637 kJ/mol
# GULP energy per Si atom -12398.985659 kJ/mol
# Density = 1.908071 g / cm^3
# Si number density = 19.124237 Si / 1000 Ang^3
#
#
#
# Elastic Constant Matrix: (Units=GPa)
#
#
# Indices 1 2 3 4 5 6 
#
# 1 126.9279 26.0094 47.1730 0.0000 0.0000 0.0000
# 2 26.0094 24.5839 9.7154 0.0000 0.0000 0.0000
# 3 47.1730 9.7154 47.8554 0.0000 0.0000 0.0000
# 4 0.0000 0.0000 0.0000 29.3460 0.0000 0.0000
# 5 0.0000 0.0000 0.0000 0.0000 30.3778 0.0000
# 6 0.0000 0.0000 0.0000 0.0000 0.0000 25.5416
#
#
#
# Elastic Compliance Matrix: (Units=1/GPa)
#
#
# Indices 1 2 3 4 5 6 
#
# 1 0.014602 -0.010612 -0.012239 0.000000 0.000000 0.000000
# 2 -0.010612 0.051937 -0.000084 0.000000 0.000000 0.000000
# 3 -0.012239 -0.000084 0.032978 0.000000 0.000000 0.000000
# 4 0.000000 0.000000 0.000000 0.034076 0.000000 0.000000
# 5 0.000000 0.000000 0.000000 0.000000 0.032919 0.000000
# 6 0.000000 0.000000 0.000000 0.000000 0.000000 0.039152
#
#
# Mechanical properties :
#
#
# Convention : Reuss Voigt Hill
#
# Bulk Modulus (GPa) = 18.64017 40.57364 29.60690
# Shear Modulus (GPa) = 18.55875 24.81770 21.68823
#
# Velocity S-wave (km/s) = 3.11855 3.60628 3.37125
# Velocity P-wave (km/s) = 4.76815 6.21307 5.53793
#
# Compressibility (1/GPa) = 0.05364758
#
# Stress axis : x y z
#
# Youngs Moduli (GPa) = 68.48549 19.25411 30.32336
#
# Poissons Ratio (x) = 0.20432 0.37113
# Poissons Ratio (y) = 0.72673 0.00254
# Poissons Ratio (z) = 0.83820 0.00161
#
# Static dielectric constant tensor:
#      x y z
#    x 3.903580 0.000000 0.000000 
#    y 0.000000 3.332180 0.000000 
#    z 0.000000 0.000000 3.337470 
# 
# 
# High freq. dielectric constant tensor:
#      x y z
#    x 1.756590 0.000000 0.000000 
#    y 0.000000 1.729500 0.000000 
#    z 0.000000 0.000000 1.726100 
# 
# From -- ./inp_files/25461.got.cif
#   From: 2010.03.12/outbox.cif.g09.slc.cpg/sg59_13_cif.got.tgz:25461.got - 2010.04.16 16:29:54.
