data_PCOD8244023
_publ_section_title
;
Structure prediction by ZEFSAII (Michael W. Deem and Ramdas Pophale) SiO2 
 PCOD8244023
Probable space group: P M M N
;
_chemical_formula_sum "Si O2"
_cell_formula_units_Z 64
_cell_length_a 8.740149
_cell_length_b 20.094825
_cell_length_c 17.530571
_cell_angle_alpha 90.000000
_cell_angle_beta 90.000000
_cell_angle_gamma 90.000000
_cell_volume 3078.925120
_symmetry_space_group_name_H-M "P M M N"
_symmetry_group_IT_number 59
_space_group.IT_coordinate_system_code '2'
_symmetry_cell_setting 'orthorhombic'
loop_
_space_group_symop_operation_xyz
x,y,z
1/2-x,1/2-y,z
1/2+x,-y,-z
-x,1/2+y,-z
-x,-y,-z
1/2+x,1/2+y,-z
1/2-x,y,z
x,1/2-y,z
loop_
_atom_site_type_symbol
_atom_site_label
_atom_site_fract_x
_atom_site_fract_y
_atom_site_fract_z
Si Si1 0.930166 0.325095 0.240243
Si Si2 0.582285 0.561425 0.681667
Si Si3 0.569993 0.174178 0.630945
Si Si4 0.931195 0.960726 0.428596
Si Si5 0.069571 0.599615 0.913044
Si Si6 0.921895 0.177470 0.942125
Si Si7 0.572196 0.857745 0.209046
Si Si8 0.916456 0.011107 0.834377
O O1 0.750000 0.328818 0.251052
O O2 0.991501 0.250000 0.247373
O O3 0.976917 0.352072 0.156761
O O4 0.001485 0.366655 0.311609
O O5 0.750000 0.566839 0.640925
O O6 0.477036 0.505301 0.643482
O O7 0.607823 0.541052 0.767977
O O8 0.750000 0.161243 0.626481
O O9 0.530835 0.250000 0.601790
O O10 0.491619 0.115668 0.580116
O O11 0.519764 0.169634 0.718697
O O12 0.750000 0.956721 0.435842
O O13 0.000000 0.000000 0.500000
O O14 0.250000 0.589770 0.914041
O O15 0.988964 0.527928 0.905653
O O16 0.010952 0.628462 0.993721
O O17 0.750000 0.156443 0.918390
O O18 0.920763 0.250000 0.980212
O O19 0.026478 0.181171 0.867188
O O20 0.750000 0.848424 0.227106
O O21 0.534304 0.934115 0.194101
O O22 0.750000 0.041235 0.857749
#
# Coordination Sequence:
#
# PCOD8244023 Si02
#       8
#     8   8   8   8   8   8   8   8
#     4   9  17  31  54  84 117 155 203 258 314 371
#     4  10  20  36  59  87 121 158 202 250 298 359
#     4  11  24  44  70  99 132 168 207 253 306 367
#     4  12  25  43  70 100 132 167 204 246 296 359
#     4   9  18  33  54  79 110 150 202 257 314 375
#     4  10  21  37  55  76 108 153 201 254 318 380
#     4  12  24  37  58  86 118 157 204 257 310 366
#     4  10  20  35  57  82 113 152 196 248 307 367
#
# _framework density 20.786473999999998
#
# number of rings (size 3 to 8) (size 9 to 14) (size 15 to 20)
#    0.000    1.625    1.250    4.125    0.000    6.500 
#    0.000    0.625    0.000    6.000    0.000    0.000 
#    0.000    0.000    0.000    0.000    0.000    0.000 
#
# Total GULP energy -793173.323436 kJ/mol
# GULP energy per Si atom -12393.333179 kJ/mol
# Density = 2.073916 g / cm^3
# Si number density = 20.786474 Si / 1000 Ang^3
#
#
#
# Elastic Constant Matrix: (Units=GPa)
#
#
# Indices 1 2 3 4 5 6 
#
# 1 107.8646 54.2478 35.9439 0.0000 0.0000 0.0000
# 2 54.2478 138.9070 45.5770 0.0000 0.0000 0.0000
# 3 35.9439 45.5770 77.7515 0.0000 0.0000 0.0000
# 4 0.0000 0.0000 0.0000 -26.3884 0.0000 0.0000
# 5 0.0000 0.0000 0.0000 0.0000 27.0131 0.0000
# 6 0.0000 0.0000 0.0000 0.0000 0.0000 7.0807
#
#
#
# Elastic Compliance Matrix: (Units=1/GPa)
#
#
# Indices 1 2 3 4 5 6 
#
# 1 0.012280 -0.003631 -0.003548 0.000000 0.000000 0.000000
# 2 -0.003631 0.009987 -0.004176 0.000000 0.000000 0.000000
# 3 -0.003548 -0.004176 0.016949 0.000000 0.000000 0.000000
# 4 0.000000 0.000000 0.000000 -0.037895 0.000000 0.000000
# 5 0.000000 0.000000 0.000000 0.000000 0.037019 0.000000
# 6 0.000000 0.000000 0.000000 0.000000 0.000000 0.141228
#
#
# Mechanical properties :
#
#
# Convention : Reuss Voigt Hill
#
# Bulk Modulus (GPa) = 60.58384 66.22893 63.40639
# Shear Modulus (GPa) = 24.06384 14.12470 19.09427
#
# Velocity S-wave (km/s) = 3.40614 2.60958 3.03411
# Velocity P-wave (km/s) = 6.68417 6.40395 6.54556
#
# Compressibility (1/GPa) = 0.01650605
#
# Stress axis : x y z
#
# Youngs Moduli (GPa) = 81.43641 100.12678 58.99896
#
# Poissons Ratio (x) = 0.36360 0.20933
# Poissons Ratio (y) = 0.29573 0.24636
# Poissons Ratio (z) = 0.28894 0.41810
#
# Static dielectric constant tensor:
#      x y z
#    x 3.917560 0.000000 0.000000 
#    y 0.000000 4.004420 0.000000 
#    z 0.000000 0.000000 3.616640 
# 
# 
# High freq. dielectric constant tensor:
#      x y z
#    x 1.812560 0.000000 0.000000 
#    y 0.000000 1.827420 0.000000 
#    z 0.000000 0.000000 1.791860 
# 
# From -- ./inp_files/26251.got.cif
#   From: 2010.03.12/outbox.cif.g09.slc.cpg/sg59_14_cif.got.tgz:26251.got - 2010.04.16 16:29:54.
