data_PCOD8244685
_publ_section_title
;
Structure prediction by ZEFSAII (Michael W. Deem and Ramdas Pophale) SiO2 
 PCOD8244685
Probable space group: P M M N
;
_chemical_formula_sum "Si O2"
_cell_formula_units_Z 48
_cell_length_a 7.727631
_cell_length_b 18.828238
_cell_length_c 16.118463
_cell_angle_alpha 90.000000
_cell_angle_beta 90.000000
_cell_angle_gamma 90.000000
_cell_volume 2345.198901
_symmetry_space_group_name_H-M "P M M N"
_symmetry_group_IT_number 59
_space_group.IT_coordinate_system_code '2'
_symmetry_cell_setting 'orthorhombic'
loop_
_space_group_symop_operation_xyz
x,y,z
1/2-x,1/2-y,z
1/2+x,-y,-z
-x,1/2+y,-z
-x,-y,-z
1/2+x,1/2+y,-z
1/2-x,y,z
x,1/2-y,z
loop_
_atom_site_type_symbol
_atom_site_label
_atom_site_fract_x
_atom_site_fract_y
_atom_site_fract_z
Si Si1 0.548990 0.061812 0.229901
Si Si2 0.551821 0.591596 0.300032
Si Si3 0.945228 0.929025 0.953009
Si Si4 0.449372 0.081038 0.511487
Si Si5 0.552197 0.172013 0.360974
Si Si6 0.750000 0.332731 0.794407
Si Si7 0.750000 0.333488 0.986887
O O1 0.750000 0.073692 0.208393
O O2 0.443457 0.056536 0.145088
O O3 0.469732 0.124889 0.286984
O O4 0.521853 0.991034 0.282908
O O5 0.750000 0.613353 0.279826
O O6 0.506096 0.606143 0.395713
O O7 0.425449 0.637306 0.243901
O O8 0.750000 0.908073 0.980273
O O9 0.076044 0.865422 0.973436
O O10 0.000000 0.000000 0.000000
O O11 0.250000 0.090109 0.491487
O O12 0.548403 0.132429 0.448992
O O13 0.500000 0.000000 0.500000
O O14 0.750000 0.182296 0.337261
O O15 0.461855 0.250000 0.365552
O O16 0.750000 0.250000 0.778478
O O17 0.750000 0.352520 0.890548
O O18 0.750000 0.250000 0.004876
#
# Coordination Sequence:
#
# PCOD8244685 Si02
#       7
#     8   8   8   8   8   4   4
#     4  10  20  39  63  96 130 171 218 269 322 381
#     4  10  23  40  65  95 129 168 216 270 322 382
#     4  12  24  42  70 102 133 174 222 276 334 399
#     4  11  22  38  61  89 124 166 210 264 318 376
#     4  10  22  39  61  91 130 173 213 260 319 380
#     4  11  26  44  68  95 122 168 217 265 334 392
#     4  11  26  48  68  99 140 172 215 277 340 408
#
# _framework density 20.467347
#
# number of rings (size 3 to 8) (size 9 to 14) (size 15 to 20)
#    0.000    1.333    3.333    1.500    3.500    5.000 
#    0.000    3.333    0.000    0.000    0.000    0.000 
#    0.000    0.000    0.000    0.000    0.000    0.000 
#
# Total GULP energy -595271.963493 kJ/mol
# GULP energy per Si atom -12401.499239 kJ/mol
# Density = 2.042076 g / cm^3
# Si number density = 20.467347 Si / 1000 Ang^3
#
#
#
# Elastic Constant Matrix: (Units=GPa)
#
#
# Indices 1 2 3 4 5 6 
#
# 1 103.2298 34.3239 40.7801 0.0000 0.0000 0.0000
# 2 34.3239 107.1207 67.8052 0.0000 0.0000 0.0000
# 3 40.7801 67.8052 134.8910 0.0000 0.0000 0.0000
# 4 0.0000 0.0000 0.0000 34.0406 0.0000 0.0000
# 5 0.0000 0.0000 0.0000 0.0000 30.7544 0.0000
# 6 0.0000 0.0000 0.0000 0.0000 0.0000 26.4717
#
#
#
# Elastic Compliance Matrix: (Units=1/GPa)
#
#
# Indices 1 2 3 4 5 6 
#
# 1 0.011327 -0.002144 -0.002347 0.000000 0.000000 0.000000
# 2 -0.002144 0.014097 -0.006438 0.000000 0.000000 0.000000
# 3 -0.002347 -0.006438 0.011359 0.000000 0.000000 0.000000
# 4 0.000000 0.000000 0.000000 0.029377 0.000000 0.000000
# 5 0.000000 0.000000 0.000000 0.000000 0.032516 0.000000
# 6 0.000000 0.000000 0.000000 0.000000 0.000000 0.037776
#
#
# Mechanical properties :
#
#
# Convention : Reuss Voigt Hill
#
# Bulk Modulus (GPa) = 66.99760 70.11777 68.55768
# Shear Modulus (GPa) = 30.62126 31.74214 31.18170
#
# Velocity S-wave (km/s) = 3.87215 3.94238 3.90742
# Velocity P-wave (km/s) = 7.26611 7.41996 7.34344
#
# Compressibility (1/GPa) = 0.01492591
#
# Stress axis : x y z
#
# Youngs Moduli (GPa) = 88.28430 70.93462 88.03544
#
# Poissons Ratio (x) = 0.15209 0.20659
# Poissons Ratio (y) = 0.18929 0.56678
# Poissons Ratio (z) = 0.20717 0.45669
#
# Static dielectric constant tensor:
#      x y z
#    x 3.792970 0.000000 0.000000 
#    y 0.000000 4.504030 0.000000 
#    z 0.000000 0.000000 3.835040 
# 
# 
# High freq. dielectric constant tensor:
#      x y z
#    x 1.801230 0.000000 0.000000 
#    y 0.000000 1.795370 0.000000 
#    z 0.000000 0.000000 1.813580 
# 
# From -- ./inp_files/20574.got.cif
#   From: 2010.03.12/outbox.cif.g09.slc.cpg/sg59_11_cif.got.tgz:20574.got - 2010.04.16 16:29:54.
