data_PCOD8244323
_publ_section_title
;
Structure prediction by ZEFSAII (Michael W. Deem and Ramdas Pophale) SiO2 
 PCOD8244323
Probable space group: P M M N
;
_chemical_formula_sum "Si O2"
_cell_formula_units_Z 40
_cell_length_a 9.443607
_cell_length_b 9.320478
_cell_length_c 23.221442
_cell_angle_alpha 90.000000
_cell_angle_beta 90.000000
_cell_angle_gamma 90.000000
_cell_volume 2043.926508
_symmetry_space_group_name_H-M "P M M N"
_symmetry_group_IT_number 59
_space_group.IT_coordinate_system_code '2'
_symmetry_cell_setting 'orthorhombic'
loop_
_space_group_symop_operation_xyz
x,y,z
1/2-x,1/2-y,z
1/2+x,-y,-z
-x,1/2+y,-z
-x,-y,-z
1/2+x,1/2+y,-z
1/2-x,y,z
x,1/2-y,z
loop_
_atom_site_type_symbol
_atom_site_label
_atom_site_fract_x
_atom_site_fract_y
_atom_site_fract_z
Si Si1 0.750000 0.413921 0.582169
Si Si2 0.914187 0.082846 0.837084
Si Si3 0.958832 0.584305 0.366595
Si Si4 0.085336 0.418216 0.951183
Si Si5 0.250000 0.414326 0.534629
Si Si6 0.592336 0.084239 0.253805
O O1 0.750000 0.250000 0.562362
O O2 0.621864 0.450548 0.624214
O O3 0.750000 0.499594 0.523663
O O4 0.750000 0.041983 0.848509
O O5 0.928830 0.250000 0.822323
O O6 0.009102 0.041070 0.891764
O O7 0.973702 0.995159 0.783418
O O8 0.929257 0.750000 0.349616
O O9 0.886201 0.546784 0.427218
O O10 0.900354 0.483133 0.316999
O O11 0.250000 0.467070 0.949332
O O12 0.073896 0.250000 0.963759
O O13 0.000000 0.500000 0.000000
O O14 0.250000 0.250000 0.516060
O O15 0.750000 0.067726 0.226467
O O16 0.549040 0.250000 0.258427
#
# Coordination Sequence:
#
# PCOD8244323 Si02
#       6
#     4   8   8   8   4   8
#     4  10  22  36  56  84 114 146 185 234 289 348
#     4  10  22  40  63  89 118 156 200 245 295 352
#     4  10  21  38  58  82 113 150 192 236 287 351
#     4  10  21  38  62  92 125 163 205 246 292 345
#     4  10  20  36  58  82 110 150 191 232 285 344
#     4  11  24  40  59  85 116 152 195 245 299 350
#
# _framework density 19.570174999999999
#
# number of rings (size 3 to 8) (size 9 to 14) (size 15 to 20)
#    0.000    1.800    1.000    2.400    1.400    6.000 
#    0.000    0.000    0.000    0.000    0.000    0.000 
#    0.000    0.000    0.000    0.000    0.000    0.000 
#
# Total GULP energy -496049.933369 kJ/mol
# GULP energy per Si atom -12401.248334 kJ/mol
# Density = 1.952563 g / cm^3
# Si number density = 19.570175 Si / 1000 Ang^3
#
#
#
# Elastic Constant Matrix: (Units=GPa)
#
#
# Indices 1 2 3 4 5 6 
#
# 1 148.9011 46.0059 43.0660 0.0000 0.0000 0.0000
# 2 46.0059 75.3565 53.9137 0.0000 0.0000 0.0000
# 3 43.0660 53.9137 93.7741 0.0000 0.0000 0.0000
# 4 0.0000 0.0000 0.0000 41.9209 0.0000 0.0000
# 5 0.0000 0.0000 0.0000 0.0000 8.4250 0.0000
# 6 0.0000 0.0000 0.0000 0.0000 0.0000 37.7390
#
#
#
# Elastic Compliance Matrix: (Units=1/GPa)
#
#
# Indices 1 2 3 4 5 6 
#
# 1 0.008407 -0.004027 -0.001546 0.000000 0.000000 0.000000
# 2 -0.004027 0.024471 -0.012220 0.000000 0.000000 0.000000
# 3 -0.001546 -0.012220 0.018400 0.000000 0.000000 0.000000
# 4 0.000000 0.000000 0.000000 0.023854 0.000000 0.000000
# 5 0.000000 0.000000 0.000000 0.000000 0.118695 0.000000
# 6 0.000000 0.000000 0.000000 0.000000 0.000000 0.026498
#
#
# Mechanical properties :
#
#
# Convention : Reuss Voigt Hill
#
# Bulk Modulus (GPa) = 63.72366 67.11143 65.41755
# Shear Modulus (GPa) = 19.14669 29.28673 24.21671
#
# Velocity S-wave (km/s) = 3.13127 3.87266 3.52153
# Velocity P-wave (km/s) = 6.76058 7.37318 7.07351
#
# Compressibility (1/GPa) = 0.01569276
#
# Stress axis : x y z
#
# Youngs Moduli (GPa) = 118.94735 40.86401 54.34868
#
# Poissons Ratio (x) = 0.16454 0.08402
# Poissons Ratio (y) = 0.47894 0.66415
# Poissons Ratio (z) = 0.18389 0.49937
#
# Static dielectric constant tensor:
#      x y z
#    x 3.969480 0.000000 0.000000 
#    y 0.000000 3.481910 0.000000 
#    z 0.000000 0.000000 3.411990 
# 
# 
# High freq. dielectric constant tensor:
#      x y z
#    x 1.785020 0.000000 0.000000 
#    y 0.000000 1.754560 0.000000 
#    z 0.000000 0.000000 1.760980 
# 
# From -- ./inp_files/32433.got.cif
#   From: 2010.03.12/outbox.cif.g09.slc.cpg/sg59_17_cif.got.tgz:32433.got - 2010.04.16 16:29:54.
