data_PCOD8244056
_publ_section_title
;
Structure prediction by ZEFSAII (Michael W. Deem and Ramdas Pophale) SiO2 
 PCOD8244056
Probable space group: P M M N
;
_chemical_formula_sum "Si O2"
_cell_formula_units_Z 40
_cell_length_a 9.026558
_cell_length_b 9.006372
_cell_length_c 25.878266
_cell_angle_alpha 90.000000
_cell_angle_beta 90.000000
_cell_angle_gamma 90.000000
_cell_volume 2103.813467
_symmetry_space_group_name_H-M "P M M N"
_symmetry_group_IT_number 59
_space_group.IT_coordinate_system_code '2'
_symmetry_cell_setting 'orthorhombic'
loop_
_space_group_symop_operation_xyz
x,y,z
1/2-x,1/2-y,z
1/2+x,-y,-z
-x,1/2+y,-z
-x,-y,-z
1/2+x,1/2+y,-z
1/2-x,y,z
x,1/2-y,z
loop_
_atom_site_type_symbol
_atom_site_label
_atom_site_fract_x
_atom_site_fract_y
_atom_site_fract_z
Si Si1 0.925936 0.416942 0.746989
Si Si2 0.079991 0.575202 0.952529
Si Si3 0.576773 0.576162 0.643560
Si Si4 0.577450 0.577359 0.848973
Si Si5 0.575733 0.922655 0.451818
O O1 0.750000 0.417408 0.748928
O O2 0.988202 0.250000 0.741777
O O3 0.979529 0.513611 0.698384
O O4 0.986791 0.489568 0.799643
O O5 0.250000 0.526730 0.952674
O O6 0.059188 0.750000 0.957996
O O7 0.008010 0.518664 0.899265
O O8 0.000000 0.500000 0.000000
O O9 0.750000 0.542792 0.634688
O O10 0.543541 0.750000 0.641609
O O11 0.483149 0.494629 0.600291
O O12 0.750000 0.544963 0.857815
O O13 0.547379 0.750000 0.838828
O O14 0.750000 0.948082 0.455799
O O15 0.534022 0.750000 0.452187
O O16 0.500000 0.000000 0.500000
#
# Coordination Sequence:
#
# PCOD8244056 Si02
#       5
#     8   8   8   8   8
#     4   9  17  30  51  79 108 139 177 220 265 313
#     4  10  21  36  54  77 105 138 177 220 267 320
#     4  10  20  35  57  84 112 144 183 223 264 314
#     4   9  17  31  51  74 102 137 176 218 264 315
#     4  11  24  40  58  82 111 143 181 224 270 321
#
# _framework density 19.013090999999999
#
# number of rings (size 3 to 8) (size 9 to 14) (size 15 to 20)
#    0.000    2.200    0.000    3.000    0.000    9.600 
#    0.000    3.000    0.000    3.600    0.000    0.000 
#    0.000    0.000    0.000    0.000    0.000    0.000 
#
# Total GULP energy -496114.617820 kJ/mol
# GULP energy per Si atom -12402.865446 kJ/mol
# Density = 1.896982 g / cm^3
# Si number density = 19.013091 Si / 1000 Ang^3
#
#
#
# Elastic Constant Matrix: (Units=GPa)
#
#
# Indices 1 2 3 4 5 6 
#
# 1 69.2853 56.4266 68.2227 0.0000 0.0000 0.0000
# 2 56.4266 117.8670 87.3169 0.0000 0.0000 0.0000
# 3 68.2227 87.3169 198.9920 0.0000 0.0000 0.0000
# 4 0.0000 0.0000 0.0000 44.1988 0.0000 0.0000
# 5 0.0000 0.0000 0.0000 0.0000 33.7242 0.0000
# 6 0.0000 0.0000 0.0000 0.0000 0.0000 24.2144
#
#
#
# Elastic Compliance Matrix: (Units=1/GPa)
#
#
# Indices 1 2 3 4 5 6 
#
# 1 0.026973 -0.008982 -0.005306 0.000000 0.000000 0.000000
# 2 -0.008982 0.015561 -0.003749 0.000000 0.000000 0.000000
# 3 -0.005306 -0.003749 0.008489 0.000000 0.000000 0.000000
# 4 0.000000 0.000000 0.000000 0.022625 0.000000 0.000000
# 5 0.000000 0.000000 0.000000 0.000000 0.029652 0.000000
# 6 0.000000 0.000000 0.000000 0.000000 0.000000 0.041298
#
#
# Mechanical properties :
#
#
# Convention : Reuss Voigt Hill
#
# Bulk Modulus (GPa) = 66.89086 90.00851 78.44968
# Shear Modulus (GPa) = 26.93159 32.03936 29.48547
#
# Velocity S-wave (km/s) = 3.76769 4.10948 3.94229
# Velocity P-wave (km/s) = 7.36106 8.36422 7.87862
#
# Compressibility (1/GPa) = 0.01494973
#
# Stress axis : x y z
#
# Youngs Moduli (GPa) = 37.07441 64.26237 117.79272
#
# Poissons Ratio (x) = 0.57719 0.62503
# Poissons Ratio (y) = 0.33300 0.44159
# Poissons Ratio (z) = 0.19672 0.24091
#
# Static dielectric constant tensor:
#      x y z
#    x 3.122000 0.000000 0.000000 
#    y 0.000000 3.605340 0.000000 
#    z 0.000000 0.000000 3.826170 
# 
# 
# High freq. dielectric constant tensor:
#      x y z
#    x 1.715990 0.000000 0.000000 
#    y 0.000000 1.745240 0.000000 
#    z 0.000000 0.000000 1.759240 
# 
# From -- ./inp_files/31124.got.cif
#   From: 2010.03.12/outbox.cif.g09.slc.cpg/sg59_16_cif.got.tgz:31124.got - 2010.04.16 16:29:54.
