data_PCOD8244706
_publ_section_title
;
Structure prediction by ZEFSAII (Michael W. Deem and Ramdas Pophale) SiO2 
 PCOD8244706
Probable space group: P M M N
;
_chemical_formula_sum "Si O2"
_cell_formula_units_Z 64
_cell_length_a 17.319041
_cell_length_b 13.847184
_cell_length_c 13.721762
_cell_angle_alpha 90.000000
_cell_angle_beta 90.000000
_cell_angle_gamma 90.000000
_cell_volume 3290.752241
_symmetry_space_group_name_H-M "P M M N"
_symmetry_group_IT_number 59
_space_group.IT_coordinate_system_code '2'
_symmetry_cell_setting 'orthorhombic'
loop_
_space_group_symop_operation_xyz
x,y,z
1/2-x,1/2-y,z
1/2+x,-y,-z
-x,1/2+y,-z
-x,-y,-z
1/2+x,1/2+y,-z
1/2-x,y,z
x,1/2-y,z
loop_
_atom_site_type_symbol
_atom_site_label
_atom_site_fract_x
_atom_site_fract_y
_atom_site_fract_z
Si Si1 0.029343 0.859560 0.671316
Si Si2 0.663060 0.364037 0.460555
Si Si3 0.554250 0.506760 0.819108
Si Si4 0.928424 0.861220 0.148057
Si Si5 0.835801 0.035522 0.654644
Si Si6 0.336712 0.364673 0.663889
Si Si7 0.617595 0.641088 0.548577
Si Si8 0.339715 0.360642 0.046885
O O1 0.037151 0.750000 0.708992
O O2 0.110949 0.899487 0.630167
O O3 0.002875 0.921558 0.762784
O O4 0.971699 0.864697 0.579039
O O5 0.750000 0.400723 0.441133
O O6 0.658054 0.250000 0.469209
O O7 0.631680 0.405111 0.562775
O O8 0.502793 0.427916 0.876607
O O9 0.607854 0.446554 0.744994
O O10 0.608228 0.567753 0.890272
O O11 0.955837 0.750000 0.156097
O O12 0.891147 0.900409 0.248441
O O13 0.863821 0.872112 0.065235
O O14 0.750000 0.069630 0.683892
O O15 0.833510 0.922275 0.625074
O O16 0.250000 0.406138 0.675589
O O17 0.334275 0.250000 0.666855
O O18 0.372131 0.400494 0.560859
O O19 0.649891 0.750000 0.555365
O O20 0.250000 0.389711 0.057669
O O21 0.352556 0.250000 0.081728
#
# Coordination Sequence:
#
# PCOD8244706 Si02
#       8
#     8   8   8   8   8   8   8   8
#     4   9  19  34  52  76 107 142 185 229 270 322
#     4   9  19  35  51  67  99 150 196 228 258 301
#     4  11  22  35  57  84 115 139 178 222 281 326
#     4  10  22  37  56  83 111 145 182 221 273 335
#     4  10  21  33  49  75 107 143 185 221 257 314
#     4   9  17  30  48  73 106 142 181 224 271 324
#     4   9  18  30  48  74 107 142 174 222 280 324
#     4  10  21  41  66  86 108 138 175 225 284 341
#
# _framework density 19.448440999999999
#
# number of rings (size 3 to 8) (size 9 to 14) (size 15 to 20)
#    0.000    2.375    0.000    1.875    3.500    4.250 
#    0.000    0.625    0.000    1.125    0.000    0.000 
#    0.000    0.000    0.000    0.000    0.000    0.000 
#
# Total GULP energy -793562.984938 kJ/mol
# GULP energy per Si atom -12399.421640 kJ/mol
# Density = 1.940418 g / cm^3
# Si number density = 19.448441 Si / 1000 Ang^3
#
#
#
# Elastic Constant Matrix: (Units=GPa)
#
#
# Indices 1 2 3 4 5 6 
#
# 1 96.0950 39.8292 34.7702 0.0000 0.0000 0.0000
# 2 39.8292 49.4236 23.6283 0.0000 0.0000 0.0000
# 3 34.7702 23.6283 70.1274 0.0000 0.0000 0.0000
# 4 0.0000 0.0000 0.0000 27.9966 0.0000 0.0000
# 5 0.0000 0.0000 0.0000 0.0000 24.6237 0.0000
# 6 0.0000 0.0000 0.0000 0.0000 0.0000 27.3963
#
#
#
# Elastic Compliance Matrix: (Units=1/GPa)
#
#
# Indices 1 2 3 4 5 6 
#
# 1 0.016724 -0.011340 -0.004471 0.000000 0.000000 0.000000
# 2 -0.011340 0.031808 -0.005094 0.000000 0.000000 0.000000
# 3 -0.004471 -0.005094 0.018193 0.000000 0.000000 0.000000
# 4 0.000000 0.000000 0.000000 0.035719 0.000000 0.000000
# 5 0.000000 0.000000 0.000000 0.000000 0.040611 0.000000
# 6 0.000000 0.000000 0.000000 0.000000 0.000000 0.036501
#
#
# Mechanical properties :
#
#
# Convention : Reuss Voigt Hill
#
# Bulk Modulus (GPa) = 40.13919 45.78906 42.96413
# Shear Modulus (GPa) = 21.77011 23.83122 22.80067
#
# Velocity S-wave (km/s) = 3.34934 3.50430 3.42770
# Velocity P-wave (km/s) = 5.97001 6.32206 6.14855
#
# Compressibility (1/GPa) = 0.02491331
#
# Stress axis : x y z
#
# Youngs Moduli (GPa) = 59.79258 31.43911 54.96559
#
# Poissons Ratio (x) = 0.35653 0.24577
# Poissons Ratio (y) = 0.67806 0.28002
# Poissons Ratio (z) = 0.26735 0.16016
#
# Static dielectric constant tensor:
#      x y z
#    x 3.654940 0.000000 0.000000 
#    y 0.000000 3.486640 0.000000 
#    z 0.000000 0.000000 3.421360 
# 
# 
# High freq. dielectric constant tensor:
#      x y z
#    x 1.759670 0.000000 0.000000 
#    y 0.000000 1.753230 0.000000 
#    z 0.000000 0.000000 1.739890 
# 
# From -- ./inp_files/17816.got.cif
#   From: 2010.03.12/outbox.cif.g09.slc.cpg/sg59_9_cif.got.tgz:17816.got - 2010.04.16 16:29:54.
