data_PCOD8244998
_publ_section_title
;
Structure prediction by ZEFSAII (Michael W. Deem and Ramdas Pophale) SiO2 
 PCOD8244998
Probable space group: P M M N
;
_chemical_formula_sum "Si O2"
_cell_formula_units_Z 64
_cell_length_a 14.367939
_cell_length_b 9.050462
_cell_length_c 26.045825
_cell_angle_alpha 90.000000
_cell_angle_beta 90.000000
_cell_angle_gamma 90.000000
_cell_volume 3386.907556
_symmetry_space_group_name_H-M "P M M N"
_symmetry_group_IT_number 59
_space_group.IT_coordinate_system_code '2'
_symmetry_cell_setting 'orthorhombic'
loop_
_space_group_symop_operation_xyz
x,y,z
1/2-x,1/2-y,z
1/2+x,-y,-z
-x,1/2+y,-z
-x,-y,-z
1/2+x,1/2+y,-z
1/2-x,y,z
x,1/2-y,z
loop_
_atom_site_type_symbol
_atom_site_label
_atom_site_fract_x
_atom_site_fract_y
_atom_site_fract_z
Si Si1 0.143729 0.419651 0.770294
Si Si2 0.995432 0.922205 0.579276
Si Si3 0.356358 0.921032 0.137043
Si Si4 0.640196 0.081779 0.128143
Si Si5 0.642565 0.078733 0.507260
Si Si6 0.492209 0.076440 0.945659
Si Si7 0.993798 0.422837 0.686459
Si Si8 0.859568 0.580592 0.760172
O O1 0.250000 0.457226 0.756476
O O2 0.131705 0.250000 0.787220
O O3 0.106847 0.518605 0.817156
O O4 0.084360 0.457451 0.720345
O O5 0.980959 0.750000 0.589827
O O6 0.086501 0.953779 0.544940
O O7 0.901735 0.982863 0.552825
O O8 0.013083 0.005568 0.631912
O O9 0.250000 0.960917 0.123659
O O10 0.368024 0.750000 0.151642
O O11 0.416491 0.963505 0.087471
O O12 0.393133 0.012775 0.185746
O O13 0.750000 0.068080 0.122986
O O14 0.605951 0.250000 0.123543
O O15 0.598423 0.985493 0.082452
O O16 0.750000 0.032211 0.499349
O O17 0.633953 0.250000 0.522639
O O18 0.481198 0.250000 0.953646
O O19 0.500000 0.000000 0.000000
O O20 0.975719 0.250000 0.679670
O O21 0.903753 0.493840 0.712744
O O22 0.750000 0.561919 0.754268
O O23 0.891174 0.750000 0.758392
#
# Coordination Sequence:
#
# PCOD8244998 Si02
#       8
#     8   8   8   8   8   8   8   8
#     4   9  19  36  56  79 108 142 180 219 262 317
#     4  10  21  36  55  82 112 141 178 223 268 314
#     4   9  19  37  58  78 104 139 176 215 264 323
#     4  10  21  37  57  80 107 141 180 222 269 321
#     4   9  19  38  61  81 105 141 182 222 267 319
#     4  11  23  37  55  80 108 140 178 221 271 324
#     4  11  22  35  54  80 112 148 180 216 264 315
#     4  10  21  36  55  80 108 139 177 220 265 314
#
# _framework density 18.896294000000001
#
# number of rings (size 3 to 8) (size 9 to 14) (size 15 to 20)
#    0.000    2.125    0.000    2.625    0.000    8.750 
#    0.000    1.250    0.000    0.000    0.000    0.000 
#    0.000    0.000    0.000    0.000    0.000    0.000 
#
# Total GULP energy -793901.883398 kJ/mol
# GULP energy per Si atom -12404.716928 kJ/mol
# Density = 1.885328 g / cm^3
# Si number density = 18.896294 Si / 1000 Ang^3
#
#
#
# Elastic Constant Matrix: (Units=GPa)
#
#
# Indices 1 2 3 4 5 6 
#
# 1 87.8771 52.7013 54.9647 0.0000 0.0000 0.0000
# 2 52.7013 115.4105 80.2236 0.0000 0.0000 0.0000
# 3 54.9647 80.2236 148.7707 0.0000 0.0000 0.0000
# 4 0.0000 0.0000 0.0000 41.8453 0.0000 0.0000
# 5 0.0000 0.0000 0.0000 0.0000 18.5597 0.0000
# 6 0.0000 0.0000 0.0000 0.0000 0.0000 28.0141
#
#
#
# Elastic Compliance Matrix: (Units=1/GPa)
#
#
# Indices 1 2 3 4 5 6 
#
# 1 0.016612 -0.005310 -0.003274 0.000000 0.000000 0.000000
# 2 -0.005310 0.015557 -0.006427 0.000000 0.000000 0.000000
# 3 -0.003274 -0.006427 0.011397 0.000000 0.000000 0.000000
# 4 0.000000 0.000000 0.000000 0.023898 0.000000 0.000000
# 5 0.000000 0.000000 0.000000 0.000000 0.053880 0.000000
# 6 0.000000 0.000000 0.000000 0.000000 0.000000 0.035696
#
#
# Mechanical properties :
#
#
# Convention : Reuss Voigt Hill
#
# Bulk Modulus (GPa) = 73.83467 80.87083 77.35275
# Shear Modulus (GPa) = 26.09916 28.62841 27.36379
#
# Velocity S-wave (km/s) = 3.72045 3.89656 3.80952
# Velocity P-wave (km/s) = 7.59040 7.94571 7.77009
#
# Compressibility (1/GPa) = 0.01354377
#
# Stress axis : x y z
#
# Youngs Moduli (GPa) = 60.19847 64.27937 87.74006
#
# Poissons Ratio (x) = 0.34130 0.28727
# Poissons Ratio (y) = 0.31964 0.56393
# Poissons Ratio (z) = 0.19710 0.41314
#
# Static dielectric constant tensor:
#      x y z
#    x 1.014810 0.000000 0.000000 
#    y 0.000000 3.621290 0.000000 
#    z 0.000000 0.000000 3.453280 
# 
# 
# High freq. dielectric constant tensor:
#      x y z
#    x 1.740880 0.000000 0.000000 
#    y 0.000000 1.743600 0.000000 
#    z 0.000000 0.000000 1.731570 
# 
# From -- ./inp_files/31484.got.cif
#   From: 2010.03.12/outbox.cif.g09.slc.cpg/sg59_16_cif.got.tgz:31484.got - 2010.04.16 16:29:54.
