data_PCOD8244053
_publ_section_title
;
Structure prediction by ZEFSAII (Michael W. Deem and Ramdas Pophale) SiO2 
 PCOD8244053
Probable space group: P M M N
;
_chemical_formula_sum "Si O2"
_cell_formula_units_Z 48
_cell_length_a 19.139723
_cell_length_b 9.125325
_cell_length_c 15.114863
_cell_angle_alpha 90.000000
_cell_angle_beta 90.000000
_cell_angle_gamma 90.000000
_cell_volume 2639.904426
_symmetry_space_group_name_H-M "P M M N"
_symmetry_group_IT_number 59
_space_group.IT_coordinate_system_code '2'
_symmetry_cell_setting 'orthorhombic'
loop_
_space_group_symop_operation_xyz
x,y,z
1/2-x,1/2-y,z
1/2+x,-y,-z
-x,1/2+y,-z
-x,-y,-z
1/2+x,1/2+y,-z
1/2-x,y,z
x,1/2-y,z
loop_
_atom_site_type_symbol
_atom_site_label
_atom_site_fract_x
_atom_site_fract_y
_atom_site_fract_z
Si Si1 0.331786 0.420961 0.599811
Si Si2 0.929844 0.077541 0.531321
Si Si3 0.067042 0.578700 0.264782
Si Si4 0.168262 0.418682 0.134451
Si Si5 0.086678 0.424317 0.773066
Si Si6 0.827837 0.575474 0.062298
O O1 0.250000 0.452405 0.605434
O O2 0.347909 0.250000 0.583448
O O3 0.363213 0.513981 0.519619
O O4 0.366587 0.476549 0.690656
O O5 0.937344 0.250000 0.514240
O O6 0.917332 0.041863 0.633765
O O7 0.000000 0.000000 0.500000
O O8 0.067300 0.750000 0.247125
O O9 0.127200 0.510209 0.206230
O O10 0.991469 0.513112 0.237653
O O11 0.250000 0.443026 0.150607
O O12 0.147825 0.250000 0.146097
O O13 0.147779 0.473822 0.035655
O O14 0.086107 0.250000 0.775556
O O15 0.119444 0.488069 0.863898
O O16 0.750000 0.515199 0.082180
O O17 0.825588 0.750000 0.065765
#
# Coordination Sequence:
#
# PCOD8244053 Si02
#       6
#     8   8   8   8   8   8
#     4  10  20  35  57  84 111 141 180 222 265 319
#     4  11  22  38  57  77 107 143 180 223 271 323
#     4  10  21  35  53  77 105 138 174 214 264 321
#     4   9  19  35  53  76 105 136 177 223 261 305
#     4   9  16  30  51  78 109 138 173 215 259 314
#     4   8  14  27  50  77 104 137 174 215 261 305
#
# _framework density 18.182476000000001
#
# number of rings (size 3 to 8) (size 9 to 14) (size 15 to 20)
#    0.000    2.500    1.667    2.000    0.000    5.333 
#    0.000    3.333    0.000    1.000    0.000    2.333 
#    0.000    0.000    0.000    0.000    0.000    0.000 
#
# Total GULP energy -595157.365219 kJ/mol
# GULP energy per Si atom -12399.111775 kJ/mol
# Density = 1.814109 g / cm^3
# Si number density = 18.182476 Si / 1000 Ang^3
#
#
#
# Elastic Constant Matrix: (Units=GPa)
#
#
# Indices 1 2 3 4 5 6 
#
# 1 90.1094 29.3210 79.3593 0.0000 0.0000 0.0000
# 2 29.3210 33.1862 51.5661 0.0000 0.0000 0.0000
# 3 79.3593 51.5661 163.5393 0.0000 0.0000 0.0000
# 4 0.0000 0.0000 0.0000 23.4036 0.0000 0.0000
# 5 0.0000 0.0000 0.0000 0.0000 42.5602 0.0000
# 6 0.0000 0.0000 0.0000 0.0000 0.0000 28.0782
#
#
#
# Elastic Compliance Matrix: (Units=1/GPa)
#
#
# Indices 1 2 3 4 5 6 
#
# 1 0.019799 -0.005027 -0.008022 0.000000 0.000000 0.000000
# 2 -0.005027 0.060354 -0.016591 0.000000 0.000000 0.000000
# 3 -0.008022 -0.016591 0.015239 0.000000 0.000000 0.000000
# 4 0.000000 0.000000 0.000000 0.042728 0.000000 0.000000
# 5 0.000000 0.000000 0.000000 0.000000 0.023496 0.000000
# 6 0.000000 0.000000 0.000000 0.000000 0.000000 0.035615
#
#
# Mechanical properties :
#
#
# Convention : Reuss Voigt Hill
#
# Bulk Modulus (GPa) = 27.69242 67.48084 47.58663
# Shear Modulus (GPa) = 18.61849 27.24763 22.93306
#
# Velocity S-wave (km/s) = 3.20344 3.87533 3.55529
# Velocity P-wave (km/s) = 5.38015 7.56425 6.56369
#
# Compressibility (1/GPa) = 0.03611096
#
# Stress axis : x y z
#
# Youngs Moduli (GPa) = 50.50807 16.56879 65.62073
#
# Poissons Ratio (x) = 0.08329 0.52644
# Poissons Ratio (y) = 0.25391 1.08871
# Poissons Ratio (z) = 0.40520 0.27489
#
# Static dielectric constant tensor:
#      x y z
#    x 3.482880 0.000000 0.000000 
#    y 0.000000 3.034090 0.000000 
#    z 0.000000 0.000000 3.624610 
# 
# 
# High freq. dielectric constant tensor:
#      x y z
#    x 1.710380 0.000000 0.000000 
#    y 0.000000 1.664900 0.000000 
#    z 0.000000 0.000000 1.719020 
# 
# From -- ./inp_files/20385.got.cif
#   From: 2010.03.12/outbox.cif.g09.slc.cpg/sg59_11_cif.got.tgz:20385.got - 2010.04.16 16:29:54.
