data_PCOD8244307
_publ_section_title
;
Structure prediction by ZEFSAII (Michael W. Deem and Ramdas Pophale) SiO2 
 PCOD8244307
Probable space group: P M M N
;
_chemical_formula_sum "Si O2"
_cell_formula_units_Z 64
_cell_length_a 14.285563
_cell_length_b 23.450700
_cell_length_c 9.827205
_cell_angle_alpha 90.000000
_cell_angle_beta 90.000000
_cell_angle_gamma 90.000000
_cell_volume 3292.177083
_symmetry_space_group_name_H-M "P M M N"
_symmetry_group_IT_number 59
_space_group.IT_coordinate_system_code '2'
_symmetry_cell_setting 'orthorhombic'
loop_
_space_group_symop_operation_xyz
x,y,z
1/2-x,1/2-y,z
1/2+x,-y,-z
-x,1/2+y,-z
-x,-y,-z
1/2+x,1/2+y,-z
1/2-x,y,z
x,1/2-y,z
loop_
_atom_site_type_symbol
_atom_site_label
_atom_site_fract_x
_atom_site_fract_y
_atom_site_fract_z
Si Si1 0.639276 0.515138 0.539148
Si Si2 0.973911 0.116015 0.862195
Si Si3 0.356439 0.815548 0.651537
Si Si4 0.142651 0.050419 0.757001
Si Si5 0.861054 0.388817 0.603004
Si Si6 0.504361 0.815897 0.877773
Si Si7 0.144503 0.985431 0.019346
Si Si8 0.641290 0.589391 0.787557
O O1 0.750000 0.511710 0.539403
O O2 0.603282 0.530197 0.388812
O O3 0.601525 0.453354 0.584234
O O4 0.604077 0.562422 0.646062
O O5 0.909099 0.136504 0.737914
O O6 0.078077 0.101853 0.809151
O O7 0.930003 0.061140 0.936628
O O8 0.980231 0.167838 0.967541
O O9 0.250000 0.832411 0.685415
O O10 0.365726 0.750000 0.607621
O O11 0.394915 0.852531 0.526189
O O12 0.413422 0.829005 0.787463
O O13 0.250000 0.072789 0.748554
O O14 0.137125 0.995914 0.857628
O O15 0.750000 0.384975 0.621555
O O16 0.533496 0.750000 0.871979
O O17 0.589970 0.851770 0.817840
O O18 0.250000 0.966033 0.060857
O O19 0.120381 0.045192 0.091518
O O20 0.750000 0.604143 0.777176
#
# Coordination Sequence:
#
# PCOD8244307 Si02
#       8
#     8   8   8   8   8   8   8   8
#     4   9  19  35  56  88 122 147 184 236 293 358
#     4  12  23  35  59  86 122 156 196 244 296 345
#     4   9  21  42  62  80 111 156 202 248 295 348
#     4  10  22  36  53  84 123 160 193 231 290 360
#     4  10  21  37  59  90 120 152 192 238 298 362
#     4  11  26  42  59  86 116 155 210 251 288 344
#     4  10  20  36  57  88 124 154 186 232 296 363
#     4  10  20  39  64  87 121 154 187 242 301 356
#
# _framework density 19.440023
#
# number of rings (size 3 to 8) (size 9 to 14) (size 15 to 20)
#    0.000    1.875    2.500    0.750    3.500    2.250 
#    0.000    0.000    0.000    0.000    0.000    0.000 
#    0.000    0.000    0.000    0.000    0.000    0.000 
#
# Total GULP energy -793803.007805 kJ/mol
# GULP energy per Si atom -12403.171997 kJ/mol
# Density = 1.939578 g / cm^3
# Si number density = 19.440023 Si / 1000 Ang^3
#
#
#
# Elastic Constant Matrix: (Units=GPa)
#
#
# Indices 1 2 3 4 5 6 
#
# 1 70.8693 35.7111 37.3247 0.0000 0.0000 0.0000
# 2 35.7111 90.7319 49.6586 0.0000 0.0000 0.0000
# 3 37.3247 49.6586 149.6429 0.0000 0.0000 0.0000
# 4 0.0000 0.0000 0.0000 30.6270 0.0000 0.0000
# 5 0.0000 0.0000 0.0000 0.0000 28.6369 0.0000
# 6 0.0000 0.0000 0.0000 0.0000 0.0000 24.6576
#
#
#
# Elastic Compliance Matrix: (Units=1/GPa)
#
#
# Indices 1 2 3 4 5 6 
#
# 1 0.018439 -0.005792 -0.002677 0.000000 0.000000 0.000000
# 2 -0.005792 0.015287 -0.003628 0.000000 0.000000 0.000000
# 3 -0.002677 -0.003628 0.008554 0.000000 0.000000 0.000000
# 4 0.000000 0.000000 0.000000 0.032651 0.000000 0.000000
# 5 0.000000 0.000000 0.000000 0.000000 0.034920 0.000000
# 6 0.000000 0.000000 0.000000 0.000000 0.000000 0.040555
#
#
# Mechanical properties :
#
#
# Convention : Reuss Voigt Hill
#
# Bulk Modulus (GPa) = 55.29316 61.84811 58.57063
# Shear Modulus (GPa) = 27.68085 29.35429 28.51757
#
# Velocity S-wave (km/s) = 3.77757 3.89008 3.83424
# Velocity P-wave (km/s) = 6.89430 7.21532 7.05664
#
# Compressibility (1/GPa) = 0.01808542
#
# Stress axis : x y z
#
# Youngs Moduli (GPa) = 54.23249 65.41499 116.90011
#
# Poissons Ratio (x) = 0.37890 0.31295
# Poissons Ratio (y) = 0.31413 0.42414
# Poissons Ratio (z) = 0.14518 0.23734
#
# Static dielectric constant tensor:
#      x y z
#    x 3.558880 0.000000 0.000000 
#    y 0.000000 3.277350 0.000000 
#    z 0.000000 0.000000 3.845080 
# 
# 
# High freq. dielectric constant tensor:
#      x y z
#    x 1.762640 0.000000 0.000000 
#    y 0.000000 1.722780 0.000000 
#    z 0.000000 0.000000 1.774560 
# 
# From -- ./inp_files/9627.got.cif
#   From: 2010.03.12/outbox.cif.g09.slc.cpg/sg59_5_cif.got.tgz:9627.got - 2010.04.16 16:29:54.
