data_PCOD8244011
_publ_section_title
;
Structure prediction by ZEFSAII (Michael W. Deem and Ramdas Pophale) SiO2 
 PCOD8244011
Probable space group: P M M N
;
_chemical_formula_sum "Si O2"
_cell_formula_units_Z 64
_cell_length_a 23.088840
_cell_length_b 13.916273
_cell_length_c 9.422237
_cell_angle_alpha 90.000000
_cell_angle_beta 90.000000
_cell_angle_gamma 90.000000
_cell_volume 3027.464630
_symmetry_space_group_name_H-M "P M M N"
_symmetry_group_IT_number 59
_space_group.IT_coordinate_system_code '2'
_symmetry_cell_setting 'orthorhombic'
loop_
_space_group_symop_operation_xyz
x,y,z
1/2-x,1/2-y,z
1/2+x,-y,-z
-x,1/2+y,-z
-x,-y,-z
1/2+x,1/2+y,-z
1/2-x,y,z
x,1/2-y,z
loop_
_atom_site_type_symbol
_atom_site_label
_atom_site_fract_x
_atom_site_fract_y
_atom_site_fract_z
Si Si1 0.520580 0.944275 0.859924
Si Si2 0.083536 0.553269 0.682234
Si Si3 0.375772 0.144379 0.743926
Si Si4 0.398883 0.524724 0.368892
Si Si5 0.316594 0.637119 0.854574
Si Si6 0.315198 0.359008 0.464117
Si Si7 0.184159 0.552278 0.150405
Si Si8 0.862766 0.856535 0.935976
O O1 0.465948 0.894970 0.777694
O O2 0.568197 0.866912 0.908030
O O3 0.547905 0.013246 0.739296
O O4 0.500000 0.000000 0.000000
O O5 0.077330 0.438612 0.710161
O O6 0.078170 0.574198 0.513526
O O7 0.146732 0.589110 0.729473
O O8 0.406132 0.250000 0.734585
O O9 0.322434 0.137941 0.634479
O O10 0.348953 0.128474 0.898832
O O11 0.366317 0.423387 0.398287
O O12 0.352252 0.592075 0.285269
O O13 0.250000 0.607052 0.831975
O O14 0.325079 0.750000 0.849267
O O15 0.339736 0.599120 0.006085
O O16 0.250000 0.396573 0.428402
O O17 0.323476 0.250000 0.408099
O O18 0.250000 0.580761 0.175038
O O19 0.174676 0.436280 0.146774
O O20 0.843584 0.750000 0.886471
#
# Coordination Sequence:
#
# PCOD8244011 Si02
#       8
#     8   8   8   8   8   8   8   8
#     4  11  21  38  57  80 114 159 203 243 290 346
#     4  11  20  38  63  87 115 154 198 244 297 363
#     4   9  17  31  53  86 122 154 187 229 282 340
#     4  10  22  35  56  86 118 153 195 247 299 344
#     4  10  22  41  64  87 114 151 199 255 308 357
#     4   9  18  32  52  82 125 168 196 222 274 352
#     4  10  20  37  58  86 122 161 197 235 294 362
#     4  10  20  35  56  88 123 155 195 242 289 342
#
# _framework density 21.139800999999999
#
# number of rings (size 3 to 8) (size 9 to 14) (size 15 to 20)
#    0.000    2.000    2.500    1.500    0.000    5.750 
#    0.000    1.875    0.000    4.500    0.000    0.000 
#    0.000    0.000    0.000    0.000    0.000    0.000 
#
# Total GULP energy -793108.291480 kJ/mol
# GULP energy per Si atom -12392.317054 kJ/mol
# Density = 2.109169 g / cm^3
# Si number density = 21.139801 Si / 1000 Ang^3
#
#
#
# Elastic Constant Matrix: (Units=GPa)
#
#
# Indices 1 2 3 4 5 6 
#
# 1 86.1139 7.7597 45.1550 0.0000 0.0000 0.0000
# 2 7.7597 42.4142 11.9276 0.0000 0.0000 0.0000
# 3 45.1550 11.9276 159.2973 0.0000 0.0000 0.0000
# 4 0.0000 0.0000 0.0000 11.3068 0.0000 0.0000
# 5 0.0000 0.0000 0.0000 0.0000 37.6063 0.0000
# 6 0.0000 0.0000 0.0000 0.0000 0.0000 19.3499
#
#
#
# Elastic Compliance Matrix: (Units=1/GPa)
#
#
# Indices 1 2 3 4 5 6 
#
# 1 0.013726 -0.001448 -0.003783 0.000000 0.000000 0.000000
# 2 -0.001448 0.024237 -0.001404 0.000000 0.000000 0.000000
# 3 -0.003783 -0.001404 0.007455 0.000000 0.000000 0.000000
# 4 0.000000 0.000000 0.000000 0.088443 0.000000 0.000000
# 5 0.000000 0.000000 0.000000 0.000000 0.026591 0.000000
# 6 0.000000 0.000000 0.000000 0.000000 0.000000 0.051680
#
#
# Mechanical properties :
#
#
# Convention : Reuss Voigt Hill
#
# Bulk Modulus (GPa) = 31.10508 46.39000 38.74754
# Shear Modulus (GPa) = 21.17590 28.51812 24.84701
#
# Velocity S-wave (km/s) = 3.16841 3.67689 3.43208
# Velocity P-wave (km/s) = 5.30387 6.32598 5.83734
#
# Compressibility (1/GPa) = 0.03214909
#
# Stress axis : x y z
#
# Youngs Moduli (GPa) = 72.85235 41.25957 134.13914
#
# Poissons Ratio (x) = 0.05973 0.50739
# Poissons Ratio (y) = 0.10546 0.18839
# Poissons Ratio (z) = 0.27557 0.05795
#
# Static dielectric constant tensor:
#      x y z
#    x 3.748690 0.000000 0.000000 
#    y 0.000000 3.575480 0.000000 
#    z 0.000000 0.000000 4.225040 
# 
# 
# High freq. dielectric constant tensor:
#      x y z
#    x 1.816490 0.000000 0.000000 
#    y 0.000000 1.788980 0.000000 
#    z 0.000000 0.000000 1.854310 
# 
# From -- ./inp_files/12248.got.cif
#   From: 2010.03.12/outbox.cif.g09.slc.cpg/sg59_7_cif.got.tgz:12248.got - 2010.04.16 16:29:54.
