data_PCOD8244696
_publ_section_title
;
Structure prediction by ZEFSAII (Michael W. Deem and Ramdas Pophale) SiO2 
 PCOD8244696
Probable space group: P M M N
;
_chemical_formula_sum "Si O2"
_cell_formula_units_Z 48
_cell_length_a 10.037418
_cell_length_b 8.737800
_cell_length_c 27.703882
_cell_angle_alpha 90.000000
_cell_angle_beta 90.000000
_cell_angle_gamma 90.000000
_cell_volume 2429.767613
_symmetry_space_group_name_H-M "P M M N"
_symmetry_group_IT_number 59
_space_group.IT_coordinate_system_code '2'
_symmetry_cell_setting 'orthorhombic'
loop_
_space_group_symop_operation_xyz
x,y,z
1/2-x,1/2-y,z
1/2+x,-y,-z
-x,1/2+y,-z
-x,-y,-z
1/2+x,1/2+y,-z
1/2-x,y,z
x,1/2-y,z
loop_
_atom_site_type_symbol
_atom_site_label
_atom_site_fract_x
_atom_site_fract_y
_atom_site_fract_z
Si Si1 0.750000 0.428884 0.196754
Si Si2 0.499071 0.070133 0.354832
Si Si3 0.250000 0.430237 0.696477
Si Si4 0.250000 0.578239 0.309177
Si Si5 0.402572 0.570390 0.039279
Si Si6 0.503135 0.930423 0.145083
Si Si7 0.750000 0.419151 0.803605
Si Si8 0.597104 0.930631 0.539578
O O1 0.750000 0.250000 0.206160
O O2 0.750000 0.504403 0.249595
O O3 0.872562 0.476038 0.163773
O O4 0.524820 0.250000 0.350203
O O5 0.466248 0.021407 0.409468
O O6 0.624920 0.980508 0.335086
O O7 0.375974 0.021464 0.322711
O O8 0.250000 0.250000 0.701917
O O9 0.250000 0.750000 0.332257
O O10 0.250000 0.594315 0.252761
O O11 0.250000 0.505813 0.036077
O O12 0.397590 0.750000 0.031303
O O13 0.469454 0.529140 0.090166
O O14 0.500000 0.500000 0.000000
O O15 0.529432 0.750000 0.152969
O O16 0.383101 0.998772 0.177402
O O17 0.750000 0.250000 0.827923
O O18 0.750000 0.993002 0.535283
O O19 0.599351 0.750000 0.533614
O O20 0.500000 0.000000 0.500000
#
# Coordination Sequence:
#
# PCOD8244696 Si02
#       8
#     4   8   4   4   8   8   4   8
#     4  12  26  42  61  92 129 167 207 253 313 378
#     4  11  23  43  65  90 129 170 207 259 322 378
#     4  12  26  44  65  94 127 166 217 266 311 380
#     4  11  21  35  62  97 124 159 209 257 310 375
#     4  10  22  40  63  91 123 162 206 255 312 372
#     4  10  20  40  65  88 120 162 206 255 309 368
#     4   9  18  35  62  89 114 148 197 252 300 357
#     4  10  23  43  65  93 127 166 208 257 316 377
#
# _framework density 19.754975999999999
#
# number of rings (size 3 to 8) (size 9 to 14) (size 15 to 20)
#    0.000    1.500    1.667    3.250    2.333    4.000 
#    0.000    1.250    0.000    0.000    0.000    0.000 
#    0.000    0.000    0.000    0.000    0.000    0.000 
#
# Total GULP energy -595115.636467 kJ/mol
# GULP energy per Si atom -12398.242426 kJ/mol
# Density = 1.971001 g / cm^3
# Si number density = 19.754976 Si / 1000 Ang^3
#
#
#
# Elastic Constant Matrix: (Units=GPa)
#
#
# Indices 1 2 3 4 5 6 
#
# 1 197.8223 56.4959 89.8560 0.0000 0.0000 0.0000
# 2 56.4959 78.8826 54.5372 0.0000 0.0000 0.0000
# 3 89.8560 54.5372 143.1046 0.0000 0.0000 0.0000
# 4 0.0000 0.0000 0.0000 35.0836 0.0000 0.0000
# 5 0.0000 0.0000 0.0000 0.0000 40.7336 0.0000
# 6 0.0000 0.0000 0.0000 0.0000 0.0000 10.6568
#
#
#
# Elastic Compliance Matrix: (Units=1/GPa)
#
#
# Indices 1 2 3 4 5 6 
#
# 1 0.007526 -0.002882 -0.003627 0.000000 0.000000 0.000000
# 2 -0.002882 0.018316 -0.005170 0.000000 0.000000 0.000000
# 3 -0.003627 -0.005170 0.011236 0.000000 0.000000 0.000000
# 4 0.000000 0.000000 0.000000 0.028503 0.000000 0.000000
# 5 0.000000 0.000000 0.000000 0.000000 0.024550 0.000000
# 6 0.000000 0.000000 0.000000 0.000000 0.000000 0.093837
#
#
# Mechanical properties :
#
#
# Convention : Reuss Voigt Hill
#
# Bulk Modulus (GPa) = 72.89665 91.28755 82.09210
# Shear Modulus (GPa) = 23.59612 31.88949 27.74281
#
# Velocity S-wave (km/s) = 3.45982 4.02213 3.75152
# Velocity P-wave (km/s) = 7.27605 8.23895 7.77243
#
# Compressibility (1/GPa) = 0.01371805
#
# Stress axis : x y z
#
# Youngs Moduli (GPa) = 132.87885 54.59680 89.00189
#
# Poissons Ratio (x) = 0.15737 0.32280
# Poissons Ratio (y) = 0.38300 0.46018
# Poissons Ratio (z) = 0.48194 0.28229
#
# Static dielectric constant tensor:
#      x y z
#    x 2.450800 0.000000 0.000000 
#    y 0.000000 3.665890 0.000000 
#    z 0.000000 0.000000 3.763750 
# 
# 
# High freq. dielectric constant tensor:
#      x y z
#    x 1.792560 0.000000 0.000000 
#    y 0.000000 1.757580 0.000000 
#    z 0.000000 0.000000 1.784410 
# 
# From -- ./inp_files/33124.got.cif
#   From: 2010.03.12/outbox.cif.g09.slc.cpg/sg59_17_cif.got.tgz:33124.got - 2010.04.16 16:29:54.
