data_PCOD8244084
_publ_section_title
;
Structure prediction by ZEFSAII (Michael W. Deem and Ramdas Pophale) SiO2 
 PCOD8244084
Probable space group: P M M N
;
_chemical_formula_sum "Si O2"
_cell_formula_units_Z 40
_cell_length_a 8.900974
_cell_length_b 25.194745
_cell_length_c 9.189844
_cell_angle_alpha 90.000000
_cell_angle_beta 90.000000
_cell_angle_gamma 90.000000
_cell_volume 2060.893924
_symmetry_space_group_name_H-M "P M M N"
_symmetry_group_IT_number 59
_space_group.IT_coordinate_system_code '2'
_symmetry_cell_setting 'orthorhombic'
loop_
_space_group_symop_operation_xyz
x,y,z
1/2-x,1/2-y,z
1/2+x,-y,-z
-x,1/2+y,-z
-x,-y,-z
1/2+x,1/2+y,-z
1/2-x,y,z
x,1/2-y,z
loop_
_atom_site_type_symbol
_atom_site_label
_atom_site_fract_x
_atom_site_fract_y
_atom_site_fract_z
Si Si1 0.573200 0.750000 0.667460
Si Si2 0.422263 0.558984 0.639490
Si Si3 0.928289 0.750000 0.335888
Si Si4 0.576444 0.344060 0.162646
Si Si5 0.072719 0.652429 0.171039
Si Si6 0.424434 0.061996 0.657794
O O1 0.750000 0.750000 0.671991
O O2 0.514984 0.750000 0.501955
O O3 0.517525 0.802363 0.746632
O O4 0.250000 0.562733 0.586215
O O5 0.454098 0.597240 0.775194
O O6 0.527330 0.576490 0.506222
O O7 0.459704 0.499485 0.691240
O O8 0.750000 0.750000 0.324244
O O9 0.990889 0.697853 0.260343
O O10 0.750000 0.328190 0.176153
O O11 0.523680 0.342816 0.996320
O O12 0.250000 0.658472 0.190307
O O13 0.020848 0.595297 0.227905
O O14 0.250000 0.076096 0.675971
#
# Coordination Sequence:
#
# PCOD8244084 Si02
#       6
#     4   8   4   8   8   8
#     4  11  24  39  58  84 110 139 180 229 278 328
#     4   9  19  37  59  82 111 148 189 233 278 325
#     4  11  24  41  60  84 112 143 184 231 278 330
#     4  10  22  39  58  81 111 147 186 226 272 330
#     4  11  23  38  57  83 114 148 185 225 274 332
#     4  10  20  35  57  85 114 146 187 232 277 327
#
# _framework density 19.409054000000001
#
# number of rings (size 3 to 8) (size 9 to 14) (size 15 to 20)
#    0.000    1.800    0.000    3.600    0.000   11.200 
#    0.000    0.000    0.000    0.000    0.000    0.000 
#    0.000    0.000    0.000    0.000    0.000    0.000 
#
# Total GULP energy -496214.966548 kJ/mol
# GULP energy per Si atom -12405.374164 kJ/mol
# Density = 1.936488 g / cm^3
# Si number density = 19.409054 Si / 1000 Ang^3
#
#
#
# Elastic Constant Matrix: (Units=GPa)
#
#
# Indices 1 2 3 4 5 6 
#
# 1 64.9047 42.4290 58.1728 0.0000 0.0000 0.0000
# 2 42.4290 120.8616 82.7274 0.0000 0.0000 0.0000
# 3 58.1728 82.7274 166.7928 0.0000 0.0000 0.0000
# 4 0.0000 0.0000 0.0000 6.1582 0.0000 0.0000
# 5 0.0000 0.0000 0.0000 0.0000 29.3046 0.0000
# 6 0.0000 0.0000 0.0000 0.0000 0.0000 33.4246
#
#
#
# Elastic Compliance Matrix: (Units=1/GPa)
#
#
# Indices 1 2 3 4 5 6 
#
# 1 0.023637 -0.004020 -0.006250 0.000000 0.000000 0.000000
# 2 -0.004020 0.013210 -0.005150 0.000000 0.000000 0.000000
# 3 -0.006250 -0.005150 0.010730 0.000000 0.000000 0.000000
# 4 0.000000 0.000000 0.000000 0.162386 0.000000 0.000000
# 5 0.000000 0.000000 0.000000 0.000000 0.034124 0.000000
# 6 0.000000 0.000000 0.000000 0.000000 0.000000 0.029918
#
#
# Mechanical properties :
#
#
# Convention : Reuss Voigt Hill
#
# Bulk Modulus (GPa) = 59.74862 79.91304 69.83083
# Shear Modulus (GPa) = 16.10700 25.05948 20.58324
#
# Velocity S-wave (km/s) = 2.88387 3.59712 3.26006
# Velocity P-wave (km/s) = 6.47609 7.64950 7.08712
#
# Compressibility (1/GPa) = 0.01673679
#
# Stress axis : x y z
#
# Youngs Moduli (GPa) = 42.30688 75.69879 93.19863
#
# Poissons Ratio (x) = 0.30429 0.58251
# Poissons Ratio (y) = 0.17006 0.47999
# Poissons Ratio (z) = 0.26442 0.38986
#
# Static dielectric constant tensor:
#      x y z
#    x 3.585530 0.000000 0.000000 
#    y 0.000000 3.686960 0.000000 
#    z 0.000000 0.000000 3.626090 
# 
# 
# High freq. dielectric constant tensor:
#      x y z
#    x 1.760490 0.000000 0.000000 
#    y 0.000000 1.770320 0.000000 
#    z 0.000000 0.000000 1.758050 
# 
# From -- ./inp_files/5934.got.cif
#   From: 2010.03.12/outbox.cif.g09.slc.cpg/sg59_3_cif.got.tgz:5934.got - 2010.04.16 16:29:54.
