data_PCOD8244796
_publ_section_title
;
Structure prediction by ZEFSAII (Michael W. Deem and Ramdas Pophale) SiO2 
 PCOD8244796
Probable space group: P M M N
;
_chemical_formula_sum "Si O2"
_cell_formula_units_Z 64
_cell_length_a 24.559880
_cell_length_b 9.008326
_cell_length_c 15.024653
_cell_angle_alpha 90.000000
_cell_angle_beta 90.000000
_cell_angle_gamma 90.000000
_cell_volume 3324.105397
_symmetry_space_group_name_H-M "P M M N"
_symmetry_group_IT_number 59
_space_group.IT_coordinate_system_code '2'
_symmetry_cell_setting 'orthorhombic'
loop_
_space_group_symop_operation_xyz
x,y,z
1/2-x,1/2-y,z
1/2+x,-y,-z
-x,1/2+y,-z
-x,-y,-z
1/2+x,1/2+y,-z
1/2-x,y,z
x,1/2-y,z
loop_
_atom_site_type_symbol
_atom_site_label
_atom_site_fract_x
_atom_site_fract_y
_atom_site_fract_z
Si Si1 0.464320 0.912498 0.932822
Si Si2 0.623671 0.922113 0.287780
Si Si3 0.605570 0.574996 0.779625
Si Si4 0.358083 0.587571 0.043324
Si Si5 0.007756 0.420534 0.763961
Si Si6 0.186980 0.576537 0.554929
Si Si7 0.310815 0.925485 0.866881
Si Si8 0.187604 0.422199 0.373628
O O1 0.489609 0.750000 0.909007
O O2 0.461388 0.018035 0.849095
O O3 0.406459 0.888330 0.974722
O O4 0.500000 0.000000 0.000000
O O5 0.639568 0.750000 0.284118
O O6 0.557874 0.938809 0.305582
O O7 0.651450 0.997765 0.371342
O O8 0.645324 0.994388 0.196140
O O9 0.599522 0.750000 0.785362
O O10 0.625572 0.519785 0.876173
O O11 0.547826 0.509859 0.745873
O O12 0.650950 0.526199 0.708956
O O13 0.341679 0.750000 0.082953
O O14 0.313523 0.525022 0.972632
O O15 0.990434 0.250000 0.776887
O O16 0.250000 0.540132 0.573037
O O17 0.174983 0.750000 0.558210
O O18 0.169323 0.516418 0.458667
O O19 0.250000 0.964891 0.833278
O O20 0.321748 0.750000 0.859804
O O21 0.250000 0.455076 0.347319
O O22 0.178737 0.250000 0.396350
#
# Coordination Sequence:
#
# PCOD8244796 Si02
#       8
#     8   8   8   8   8   8   8   8
#     4  11  20  32  53  77 105 144 190 238 282 325
#     4  11  23  37  57  84 115 151 189 231 283 339
#     4  11  23  37  59  87 114 149 191 235 284 336
#     4  10  21  35  52  77 111 150 189 233 281 330
#     4  11  23  37  54  80 115 153 193 235 279 333
#     4  10  21  38  63  92 116 144 185 231 281 338
#     4  10  21  37  55  78 112 152 193 237 285 337
#     4   9  20  41  65  88 115 145 182 232 286 339
#
# _framework density 19.253298999999998
#
# number of rings (size 3 to 8) (size 9 to 14) (size 15 to 20)
#    0.000    1.625    2.500    2.250    0.000    6.500 
#    0.000    0.625    0.000    0.000    0.000    0.000 
#    0.000    0.000    0.000    0.000    0.000    0.000 
#
# Total GULP energy -793051.114155 kJ/mol
# GULP energy per Si atom -12391.423659 kJ/mol
# Density = 1.920948 g / cm^3
# Si number density = 19.253299 Si / 1000 Ang^3
#
#
#
# Elastic Constant Matrix: (Units=GPa)
#
#
# Indices 1 2 3 4 5 6 
#
# 1 102.0027 53.2922 63.8852 0.0000 0.0000 0.0000
# 2 53.2922 96.8082 56.4810 0.0000 0.0000 0.0000
# 3 63.8852 56.4810 109.9091 0.0000 0.0000 0.0000
# 4 0.0000 0.0000 0.0000 29.0756 0.0000 0.0000
# 5 0.0000 0.0000 0.0000 0.0000 31.5399 0.0000
# 6 0.0000 0.0000 0.0000 0.0000 0.0000 25.7852
#
#
#
# Elastic Compliance Matrix: (Units=1/GPa)
#
#
# Indices 1 2 3 4 5 6 
#
# 1 0.017038 -0.005143 -0.007260 0.000000 0.000000 0.000000
# 2 -0.005143 0.016306 -0.005390 0.000000 0.000000 0.000000
# 3 -0.007260 -0.005390 0.016088 0.000000 0.000000 0.000000
# 4 0.000000 0.000000 0.000000 0.034393 0.000000 0.000000
# 5 0.000000 0.000000 0.000000 0.000000 0.031706 0.000000
# 6 0.000000 0.000000 0.000000 0.000000 0.000000 0.038782
#
#
# Mechanical properties :
#
#
# Convention : Reuss Voigt Hill
#
# Bulk Modulus (GPa) = 72.22755 72.89300 72.56027
# Shear Modulus (GPa) = 25.70502 26.28426 25.99464
#
# Velocity S-wave (km/s) = 3.65786 3.69885 3.67841
# Velocity P-wave (km/s) = 7.44552 7.49561 7.47061
#
# Compressibility (1/GPa) = 0.01384513
#
# Stress axis : x y z
#
# Youngs Moduli (GPa) = 58.69194 61.32865 62.15748
#
# Poissons Ratio (x) = 0.31544 0.45128
# Poissons Ratio (y) = 0.30188 0.33500
# Poissons Ratio (z) = 0.42612 0.33054
#
# Static dielectric constant tensor:
#      x y z
#    x 3.658360 0.000000 0.000000 
#    y 0.000000 3.623080 0.000000 
#    z 0.000000 0.000000 3.453820 
# 
# 
# High freq. dielectric constant tensor:
#      x y z
#    x 1.755640 0.000000 0.000000 
#    y 0.000000 1.756600 0.000000 
#    z 0.000000 0.000000 1.735250 
# 
# From -- ./inp_files/24701.got.cif
#   From: 2010.03.12/outbox.cif.g09.slc.cpg/sg59_13_cif.got.tgz:24701.got - 2010.04.16 16:29:54.
