data_PCOD8244863
_publ_section_title
;
Structure prediction by ZEFSAII (Michael W. Deem and Ramdas Pophale) SiO2 
 PCOD8244863
Probable space group: P M M N
;
_chemical_formula_sum "Si O2"
_cell_formula_units_Z 48
_cell_length_a 13.780771
_cell_length_b 9.255511
_cell_length_c 20.984459
_cell_angle_alpha 90.000000
_cell_angle_beta 90.000000
_cell_angle_gamma 90.000000
_cell_volume 2676.527404
_symmetry_space_group_name_H-M "P M M N"
_symmetry_group_IT_number 59
_space_group.IT_coordinate_system_code '2'
_symmetry_cell_setting 'orthorhombic'
loop_
_space_group_symop_operation_xyz
x,y,z
1/2-x,1/2-y,z
1/2+x,-y,-z
-x,1/2+y,-z
-x,-y,-z
1/2+x,1/2+y,-z
1/2-x,y,z
x,1/2-y,z
loop_
_atom_site_type_symbol
_atom_site_label
_atom_site_fract_x
_atom_site_fract_y
_atom_site_fract_z
Si Si1 0.637357 0.081548 0.723667
Si Si2 0.550313 0.418861 0.590907
Si Si3 0.449809 0.079721 0.156708
Si Si4 0.644216 0.079357 0.099206
Si Si5 0.364290 0.588899 0.041421
Si Si6 0.641549 0.582406 0.477190
O O1 0.750000 0.045042 0.712969
O O2 0.622176 0.250000 0.737743
O O3 0.577194 0.030615 0.661818
O O4 0.596631 0.994025 0.782582
O O5 0.570176 0.250000 0.583059
O O6 0.621349 0.496693 0.541735
O O7 0.437535 0.459124 0.576927
O O8 0.433642 0.250000 0.162187
O O9 0.564334 0.038039 0.152298
O O10 0.400441 0.025353 0.092586
O O11 0.750000 0.013485 0.118147
O O12 0.654392 0.250000 0.093443
O O13 0.609715 0.026360 0.028995
O O14 0.250000 0.601176 0.047802
O O15 0.408981 0.750000 0.052931
O O16 0.750000 0.544567 0.452187
O O17 0.632609 0.750000 0.494445
#
# Coordination Sequence:
#
# PCOD8244863 Si02
#       6
#     8   8   8   8   8   8
#     4  10  21  36  51  67  94 133 167 192 227 281
#     4   9  18  33  52  73  98 131 168 197 225 275
#     4  11  21  31  48  73  97 122 156 201 244 278
#     4   8  16  32  51  69  91 122 158 194 238 292
#     4   9  17  31  51  71  93 124 157 189 234 293
#     4   9  17  30  51  79 106 127 151 194 248 285
#
# _framework density 17.933686000000002
#
# number of rings (size 3 to 8) (size 9 to 14) (size 15 to 20)
#    0.000    2.667    0.000    3.000    0.000    4.333 
#    0.000    1.667    0.000    5.000    0.000    0.000 
#    0.000    0.000    0.000    0.000    0.000    0.000 
#
# Total GULP energy -594990.664042 kJ/mol
# GULP energy per Si atom -12395.638834 kJ/mol
# Density = 1.789287 g / cm^3
# Si number density = 17.933686 Si / 1000 Ang^3
#
#
#
# Elastic Constant Matrix: (Units=GPa)
#
#
# Indices 1 2 3 4 5 6 
#
# 1 107.5649 40.1194 64.5129 0.0000 0.0000 0.0000
# 2 40.1194 44.9831 39.3353 0.0000 0.0000 0.0000
# 3 64.5129 39.3353 64.3974 0.0000 0.0000 0.0000
# 4 0.0000 0.0000 0.0000 9.7056 0.0000 0.0000
# 5 0.0000 0.0000 0.0000 0.0000 26.4967 0.0000
# 6 0.0000 0.0000 0.0000 0.0000 0.0000 21.7074
#
#
#
# Elastic Compliance Matrix: (Units=1/GPa)
#
#
# Indices 1 2 3 4 5 6 
#
# 1 0.023303 -0.000793 -0.022861 0.000000 0.000000 0.000000
# 2 -0.000793 0.047746 -0.028369 0.000000 0.000000 0.000000
# 3 -0.022861 -0.028369 0.055759 0.000000 0.000000 0.000000
# 4 0.000000 0.000000 0.000000 0.103033 0.000000 0.000000
# 5 0.000000 0.000000 0.000000 0.000000 0.037741 0.000000
# 6 0.000000 0.000000 0.000000 0.000000 0.000000 0.046067
#
#
# Mechanical properties :
#
#
# Convention : Reuss Voigt Hill
#
# Bulk Modulus (GPa) = 43.93424 56.09786 50.01605
# Shear Modulus (GPa) = 11.75690 16.44713 14.10201
#
# Velocity S-wave (km/s) = 2.56320 3.03166 2.80722
# Velocity P-wave (km/s) = 5.77160 6.60328 6.20140
#
# Compressibility (1/GPa) = 0.02276129
#
# Stress axis : x y z
#
# Youngs Moduli (GPa) = 42.91207 20.94438 17.93445
#
# Poissons Ratio (x) = 0.01662 0.40999
# Poissons Ratio (y) = 0.03405 0.50878
# Poissons Ratio (z) = 0.98100 0.59417
#
# Static dielectric constant tensor:
#      x y z
#    x 3.731030 0.000000 0.000000 
#    y 0.000000 3.313400 0.000000 
#    z 0.000000 0.000000 3.255440 
# 
# 
# High freq. dielectric constant tensor:
#      x y z
#    x 1.706960 0.000000 0.000000 
#    y 0.000000 1.678840 0.000000 
#    z 0.000000 0.000000 1.678020 
# 
# From -- ./inp_files/27375.got.cif
#   From: 2010.03.12/outbox.cif.g09.slc.cpg/sg59_14_cif.got.tgz:27375.got - 2010.04.16 16:29:54.
