data_PCOD8244517
_publ_section_title
;
Structure prediction by ZEFSAII (Michael W. Deem and Ramdas Pophale) SiO2 
 PCOD8244517
Probable space group: P M M N
;
_chemical_formula_sum "Si O2"
_cell_formula_units_Z 64
_cell_length_a 19.524115
_cell_length_b 8.997287
_cell_length_c 18.735445
_cell_angle_alpha 90.000000
_cell_angle_beta 90.000000
_cell_angle_gamma 90.000000
_cell_volume 3291.144448
_symmetry_space_group_name_H-M "P M M N"
_symmetry_group_IT_number 59
_space_group.IT_coordinate_system_code '2'
_symmetry_cell_setting 'orthorhombic'
loop_
_space_group_symop_operation_xyz
x,y,z
1/2-x,1/2-y,z
1/2+x,-y,-z
-x,1/2+y,-z
-x,-y,-z
1/2+x,1/2+y,-z
1/2-x,y,z
x,1/2-y,z
loop_
_atom_site_type_symbol
_atom_site_label
_atom_site_fract_x
_atom_site_fract_y
_atom_site_fract_z
Si Si1 0.825113 0.916630 0.677014
Si Si2 0.326702 0.583596 0.043021
Si Si3 0.051001 0.921034 0.944739
Si Si4 0.379596 0.083194 0.175500
Si Si5 0.982650 0.575255 0.198827
Si Si6 0.922305 0.075511 0.579589
Si Si7 0.436390 0.073884 0.643340
Si Si8 0.829722 0.073054 0.449102
O O1 0.750000 0.962713 0.648818
O O2 0.843692 0.750000 0.650617
O O3 0.822973 0.921752 0.762666
O O4 0.881174 0.031710 0.650118
O O5 0.250000 0.556352 0.016638
O O6 0.336618 0.750000 0.074662
O O7 0.344907 0.464029 0.102424
O O8 0.372565 0.561485 0.973499
O O9 0.028036 0.750000 0.938423
O O10 0.054128 0.994011 0.866832
O O11 0.000000 0.000000 0.000000
O O12 0.409282 0.250000 0.166327
O O13 0.438625 0.970189 0.197688
O O14 0.976124 0.750000 0.187331
O O15 0.950497 0.527134 0.274857
O O16 0.924336 0.250000 0.573213
O O17 0.878323 0.010220 0.513212
O O18 0.000775 0.018390 0.590912
O O19 0.428116 0.250000 0.636690
O O20 0.365146 0.994992 0.621396
O O21 0.750000 0.019935 0.456423
O O22 0.831744 0.250000 0.445334
#
# Coordination Sequence:
#
# PCOD8244517 Si02
#       8
#     8   8   8   8   8   8   8   8
#     4  10  21  34  49  78 119 157 192 231 279 340
#     4  10  22  39  58  82 114 152 192 235 285 344
#     4  11  22  37  60  87 117 153 193 237 287 338
#     4  11  21  34  55  82 116 154 191 235 288 343
#     4  11  22  38  59  86 117 149 196 244 287 346
#     4  10  20  37  59  85 116 151 192 236 286 344
#     4  10  22  39  61  87 116 152 195 243 292 346
#     4  10  22  39  60  87 117 151 194 242 293 350
#
# _framework density 19.446123
#
# number of rings (size 3 to 8) (size 9 to 14) (size 15 to 20)
#    0.000    1.625    2.500    2.250    0.000    4.750 
#    0.000    0.625    0.000    2.250    0.000    0.000 
#    0.000    0.000    0.000    0.000    0.000    0.000 
#
# Total GULP energy -793343.552672 kJ/mol
# GULP energy per Si atom -12395.993010 kJ/mol
# Density = 1.940186 g / cm^3
# Si number density = 19.446123 Si / 1000 Ang^3
#
#
#
# Elastic Constant Matrix: (Units=GPa)
#
#
# Indices 1 2 3 4 5 6 
#
# 1 126.3430 34.1644 63.9958 0.0000 0.0000 0.0000
# 2 34.1644 47.8734 38.8845 0.0000 0.0000 0.0000
# 3 63.9958 38.8845 107.3998 0.0000 0.0000 0.0000
# 4 0.0000 0.0000 0.0000 31.5874 0.0000 0.0000
# 5 0.0000 0.0000 0.0000 0.0000 29.5309 0.0000
# 6 0.0000 0.0000 0.0000 0.0000 0.0000 28.1932
#
#
#
# Elastic Compliance Matrix: (Units=1/GPa)
#
#
# Indices 1 2 3 4 5 6 
#
# 1 0.011816 -0.003844 -0.005649 0.000000 0.000000 0.000000
# 2 -0.003844 0.030841 -0.008875 0.000000 0.000000 0.000000
# 3 -0.005649 -0.008875 0.015890 0.000000 0.000000 0.000000
# 4 0.000000 0.000000 0.000000 0.031658 0.000000 0.000000
# 5 0.000000 0.000000 0.000000 0.000000 0.033863 0.000000
# 6 0.000000 0.000000 0.000000 0.000000 0.000000 0.035470
#
#
# Mechanical properties :
#
#
# Convention : Reuss Voigt Hill
#
# Bulk Modulus (GPa) = 45.85034 61.74507 53.79771
# Shear Modulus (GPa) = 24.56475 27.50041 26.03258
#
# Velocity S-wave (km/s) = 3.55804 3.76464 3.66280
# Velocity P-wave (km/s) = 6.36466 7.12162 6.75375
#
# Compressibility (1/GPa) = 0.02181009
#
# Stress axis : x y z
#
# Youngs Moduli (GPa) = 84.63336 32.42481 62.93133
#
# Poissons Ratio (x) = 0.12464 0.35549
# Poissons Ratio (y) = 0.32533 0.55854
# Poissons Ratio (z) = 0.47808 0.28779
#
# Static dielectric constant tensor:
#      x y z
#    x 3.655290 0.000000 0.000000 
#    y 0.000000 3.519580 0.000000 
#    z 0.000000 0.000000 3.615600 
# 
# 
# High freq. dielectric constant tensor:
#      x y z
#    x 1.754980 0.000000 0.000000 
#    y 0.000000 1.754890 0.000000 
#    z 0.000000 0.000000 1.754750 
# 
# From -- ./inp_files/28171.got.cif
#   From: 2010.03.12/outbox.cif.g09.slc.cpg/sg59_15_cif.got.tgz:28171.got - 2010.04.16 16:29:54.
