data_PCOD8244843
_publ_section_title
;
Structure prediction by ZEFSAII (Michael W. Deem and Ramdas Pophale) SiO2 
 PCOD8244843
Probable space group: P M M N
;
_chemical_formula_sum "Si O2"
_cell_formula_units_Z 64
_cell_length_a 14.276445
_cell_length_b 15.836858
_cell_length_c 12.058112
_cell_angle_alpha 90.000000
_cell_angle_beta 90.000000
_cell_angle_gamma 90.000000
_cell_volume 2726.267163
_symmetry_space_group_name_H-M "P M M N"
_symmetry_group_IT_number 59
_space_group.IT_coordinate_system_code '2'
_symmetry_cell_setting 'orthorhombic'
loop_
_space_group_symop_operation_xyz
x,y,z
1/2-x,1/2-y,z
1/2+x,-y,-z
-x,1/2+y,-z
-x,-y,-z
1/2+x,1/2+y,-z
1/2-x,y,z
x,1/2-y,z
loop_
_atom_site_type_symbol
_atom_site_label
_atom_site_fract_x
_atom_site_fract_y
_atom_site_fract_z
Si Si1 0.643937 0.617810 0.685793
Si Si2 0.855221 0.005094 0.507631
Si Si3 0.358853 0.152817 0.649647
Si Si4 0.355105 0.849281 0.814133
Si Si5 0.478902 0.156988 0.858582
Si Si6 0.543755 0.343573 0.404867
Si Si7 0.146426 0.118482 0.057981
Si Si8 0.145378 0.924108 0.040467
O O1 0.750000 0.653917 0.666531
O O2 0.641386 0.521188 0.638254
O O3 0.567497 0.668614 0.613596
O O4 0.614448 0.624875 0.813905
O O5 0.750000 0.034353 0.474427
O O6 0.883232 0.918224 0.442234
O O7 0.927241 0.083545 0.492793
O O8 0.250000 0.151682 0.678483
O O9 0.387951 0.250000 0.613720
O O10 0.412068 0.123800 0.761088
O O11 0.250000 0.883431 0.798210
O O12 0.358384 0.750000 0.824754
O O13 0.413566 0.879870 0.708974
O O14 0.397263 0.886955 0.926711
O O15 0.515048 0.250000 0.829410
O O16 0.424233 0.164235 0.975699
O O17 0.571590 0.099103 0.863802
O O18 0.583497 0.250000 0.437974
O O19 0.250000 0.158804 0.046235
O O20 0.150253 0.022372 0.022442
O O21 0.250000 0.888071 0.067002
#
# Coordination Sequence:
#
# PCOD8244843 Si02
#       8
#     8   8   8   8   8   8   8   8
#     4  10  23  42  61  86 120 164 212 253 300 366
#     4  10  22  41  67  92 122 163 205 258 316 366
#     4   9  20  38  61  92 125 158 203 255 309 370
#     4   9  18  33  54  84 122 157 195 247 303 362
#     4  11  22  36  58  89 123 159 198 249 310 368
#     4  11  23  38  61  95 126 158 203 259 318 372
#     4  10  22  38  59  86 118 159 204 249 300 365
#     4  10  21  35  55  84 117 158 201 243 295 362
#
# _framework density 23.475322999999999
#
# number of rings (size 3 to 8) (size 9 to 14) (size 15 to 20)
#    0.000    2.000    0.000    2.625    3.500    4.500 
#    0.000    2.500    0.000    0.750    0.000    7.000 
#    0.000    0.000    0.000    0.000    0.000    0.000 
#
# Total GULP energy -793081.584143 kJ/mol
# GULP energy per Si atom -12391.899752 kJ/mol
# Density = 2.342189 g / cm^3
# Si number density = 23.475323 Si / 1000 Ang^3
#
#
#
# Elastic Constant Matrix: (Units=GPa)
#
#
# Indices 1 2 3 4 5 6 
#
# 1 76.2664 18.3940 21.5599 0.0000 0.0000 0.0000
# 2 18.3940 65.9602 9.8374 0.0000 0.0000 0.0000
# 3 21.5599 9.8374 65.0457 0.0000 0.0000 0.0000
# 4 0.0000 0.0000 0.0000 5.8529 0.0000 0.0000
# 5 0.0000 0.0000 0.0000 0.0000 27.2605 0.0000
# 6 0.0000 0.0000 0.0000 0.0000 0.0000 18.7506
#
#
#
# Elastic Compliance Matrix: (Units=1/GPa)
#
#
# Indices 1 2 3 4 5 6 
#
# 1 0.015251 -0.003580 -0.004514 0.000000 0.000000 0.000000
# 2 -0.003580 0.016351 -0.001286 0.000000 0.000000 0.000000
# 3 -0.004514 -0.001286 0.017064 0.000000 0.000000 0.000000
# 4 0.000000 0.000000 0.000000 0.170855 0.000000 0.000000
# 5 0.000000 0.000000 0.000000 0.000000 0.036683 0.000000
# 6 0.000000 0.000000 0.000000 0.000000 0.000000 0.053332
#
#
# Mechanical properties :
#
#
# Convention : Reuss Voigt Hill
#
# Bulk Modulus (GPa) = 33.43729 34.09501 33.76615
# Shear Modulus (GPa) = 14.78131 20.87152 17.82642
#
# Velocity S-wave (km/s) = 2.51201 2.98499 2.75865
# Velocity P-wave (km/s) = 4.76320 5.14154 4.95599
#
# Compressibility (1/GPa) = 0.02990673
#
# Stress axis : x y z
#
# Youngs Moduli (GPa) = 65.56798 61.15909 58.60134
#
# Poissons Ratio (x) = 0.21894 0.26451
# Poissons Ratio (y) = 0.23473 0.07538
# Poissons Ratio (z) = 0.29596 0.07867
#
# Static dielectric constant tensor:
#      x y z
#    x 4.449130 0.000000 0.000000 
#    y 0.000000 4.043860 0.000000 
#    z 0.000000 0.000000 4.181150 
# 
# 
# High freq. dielectric constant tensor:
#      x y z
#    x 1.938880 0.000000 0.000000 
#    y 0.000000 1.916300 0.000000 
#    z 0.000000 0.000000 1.918260 
# 
# From -- ./inp_files/17206.got.cif
#   From: 2010.03.12/outbox.cif.g09.slc.cpg/sg59_9_cif.got.tgz:17206.got - 2010.04.16 16:29:54.
