data_PCOD8244068
_publ_section_title
;
Structure prediction by ZEFSAII (Michael W. Deem and Ramdas Pophale) SiO2 
 PCOD8244068
Probable space group: P M M N
;
_chemical_formula_sum "Si O2"
_cell_formula_units_Z 56
_cell_length_a 13.870978
_cell_length_b 8.831645
_cell_length_c 22.166658
_cell_angle_alpha 90.000000
_cell_angle_beta 90.000000
_cell_angle_gamma 90.000000
_cell_volume 2715.494374
_symmetry_space_group_name_H-M "P M M N"
_symmetry_group_IT_number 59
_space_group.IT_coordinate_system_code '2'
_symmetry_cell_setting 'orthorhombic'
loop_
_space_group_symop_operation_xyz
x,y,z
1/2-x,1/2-y,z
1/2+x,-y,-z
-x,1/2+y,-z
-x,-y,-z
1/2+x,1/2+y,-z
1/2-x,y,z
x,1/2-y,z
loop_
_atom_site_type_symbol
_atom_site_label
_atom_site_fract_x
_atom_site_fract_y
_atom_site_fract_z
Si Si1 0.500555 0.428921 0.065391
Si Si2 0.857827 0.074070 0.271537
Si Si3 0.639972 0.571749 0.827233
Si Si4 0.047648 0.926537 0.291572
Si Si5 0.359481 0.924833 0.525200
Si Si6 0.358341 0.416991 0.851905
Si Si7 0.946406 0.925681 0.588783
O O1 0.510039 0.250000 0.060114
O O2 0.411348 0.473907 0.109656
O O3 0.595318 0.504588 0.091248
O O4 0.500000 0.500000 0.000000
O O5 0.750000 0.035392 0.294950
O O6 0.881916 0.250000 0.282448
O O7 0.867866 0.037153 0.201368
O O8 0.935836 0.969727 0.304211
O O9 0.750000 0.513840 0.830418
O O10 0.634919 0.750000 0.817533
O O11 0.587054 0.498844 0.769906
O O12 0.063856 0.750000 0.286675
O O13 0.096900 0.988584 0.352493
O O14 0.250000 0.957487 0.548930
O O15 0.370326 0.750000 0.506055
O O16 0.439669 0.962850 0.576240
O O17 0.380328 0.026528 0.467095
O O18 0.250000 0.389271 0.870918
O O19 0.403580 0.250000 0.835580
O O20 0.932025 0.750000 0.600964
#
# Coordination Sequence:
#
# PCOD8244068 Si02
#       7
#     8   8   8   8   8   8   8
#     4  11  23  39  62  89 120 157 198 248 305 360
#     4  10  20  35  57  84 115 152 192 236 292 357
#     4  10  23  44  66  87 116 158 206 253 303 359
#     4  12  24  38  60  89 124 161 201 251 305 359
#     4   9  19  38  62  87 118 156 200 250 301 352
#     4  10  20  35  57  85 116 149 187 234 290 351
#     4  10  21  37  59  88 121 159 203 247 298 358
#
# _framework density 20.622396999999999
#
# number of rings (size 3 to 8) (size 9 to 14) (size 15 to 20)
#    0.000    1.714    1.429    3.000    0.000    5.143 
#    0.000    2.857    0.000    0.000    0.000    0.000 
#    0.000    0.000    0.000    0.000    0.000    0.000 
#
# Total GULP energy -694072.236919 kJ/mol
# GULP energy per Si atom -12394.147088 kJ/mol
# Density = 2.057546 g / cm^3
# Si number density = 20.622397 Si / 1000 Ang^3
#
#
#
# Elastic Constant Matrix: (Units=GPa)
#
#
# Indices 1 2 3 4 5 6 
#
# 1 72.3731 31.8597 31.3608 0.0000 0.0000 0.0000
# 2 31.8597 75.6918 41.9675 0.0000 0.0000 0.0000
# 3 31.3608 41.9675 105.9091 0.0000 0.0000 0.0000
# 4 0.0000 0.0000 0.0000 35.8109 0.0000 0.0000
# 5 0.0000 0.0000 0.0000 0.0000 14.8229 0.0000
# 6 0.0000 0.0000 0.0000 0.0000 0.0000 26.8779
#
#
#
# Elastic Compliance Matrix: (Units=1/GPa)
#
#
# Indices 1 2 3 4 5 6 
#
# 1 0.017639 -0.005804 -0.002923 0.000000 0.000000 0.000000
# 2 -0.005804 0.018841 -0.005747 0.000000 0.000000 0.000000
# 3 -0.002923 -0.005747 0.012585 0.000000 0.000000 0.000000
# 4 0.000000 0.000000 0.000000 0.027924 0.000000 0.000000
# 5 0.000000 0.000000 0.000000 0.000000 0.067463 0.000000
# 6 0.000000 0.000000 0.000000 0.000000 0.000000 0.037205
#
#
# Mechanical properties :
#
#
# Convention : Reuss Voigt Hill
#
# Bulk Modulus (GPa) = 49.71088 51.59444 50.65266
# Shear Modulus (GPa) = 23.00840 25.42140 24.21490
#
# Velocity S-wave (km/s) = 3.34383 3.51480 3.43038
# Velocity P-wave (km/s) = 6.25027 6.44552 6.34865
#
# Compressibility (1/GPa) = 0.02011632
#
# Stress axis : x y z
#
# Youngs Moduli (GPa) = 56.69303 53.07594 79.45871
#
# Poissons Ratio (x) = 0.30803 0.23228
# Poissons Ratio (y) = 0.32902 0.45668
# Poissons Ratio (z) = 0.16573 0.30505
#
# Static dielectric constant tensor:
#      x y z
#    x 4.017320 0.000000 0.000000 
#    y 0.000000 3.865900 0.000000 
#    z 0.000000 0.000000 3.683430 
# 
# 
# High freq. dielectric constant tensor:
#      x y z
#    x 1.804120 0.000000 0.000000 
#    y 0.000000 1.810030 0.000000 
#    z 0.000000 0.000000 1.806490 
# 
# From -- ./inp_files/30322.got.cif
#   From: 2010.03.12/outbox.cif.g09.slc.cpg/sg59_16_cif.got.tgz:30322.got - 2010.04.16 16:29:54.
