data_PCOD8244279
_publ_section_title
;
Structure prediction by ZEFSAII (Michael W. Deem and Ramdas Pophale) SiO2 
 PCOD8244279
Probable space group: P M M N
;
_chemical_formula_sum "Si O2"
_cell_formula_units_Z 48
_cell_length_a 30.857812
_cell_length_b 8.910031
_cell_length_c 9.326292
_cell_angle_alpha 90.000000
_cell_angle_beta 90.000000
_cell_angle_gamma 90.000000
_cell_volume 2564.208601
_symmetry_space_group_name_H-M "P M M N"
_symmetry_group_IT_number 59
_space_group.IT_coordinate_system_code '2'
_symmetry_cell_setting 'orthorhombic'
loop_
_space_group_symop_operation_xyz
x,y,z
1/2-x,1/2-y,z
1/2+x,-y,-z
-x,1/2+y,-z
-x,-y,-z
1/2+x,1/2+y,-z
1/2-x,y,z
x,1/2-y,z
loop_
_atom_site_type_symbol
_atom_site_label
_atom_site_fract_x
_atom_site_fract_y
_atom_site_fract_z
Si Si1 0.250000 0.929153 0.161878
Si Si2 0.921948 0.573359 0.330831
Si Si3 0.497802 0.928155 0.845144
Si Si4 0.832391 0.075537 0.666338
Si Si5 0.832972 0.074450 0.335022
Si Si6 0.420940 0.074060 0.340820
Si Si7 0.250000 0.928189 0.837901
O O1 0.250000 0.750000 0.168544
O O2 0.292766 0.991500 0.241287
O O3 0.250000 0.989803 0.999688
O O4 0.927246 0.750000 0.305403
O O5 0.955137 0.484007 0.233496
O O6 0.874126 0.521597 0.284665
O O7 0.930501 0.526637 0.495492
O O8 0.496507 0.750000 0.858036
O O9 0.539514 0.983471 0.755827
O O10 0.500000 0.000000 0.000000
O O11 0.837989 0.250000 0.696977
O O12 0.822095 0.043123 0.500613
O O13 0.876859 0.999221 0.716759
O O14 0.842311 0.250000 0.308194
O O15 0.792700 0.013457 0.242951
O O16 0.414715 0.250000 0.329090
O O17 0.250000 0.750000 0.834621
#
# Coordination Sequence:
#
# PCOD8244279 Si02
#       7
#     4   8   8   8   8   8   4
#     4   9  17  29  46  73 102 130 168 213 254 297
#     4  10  20  36  57  80 105 136 174 218 263 311
#     4  11  23  38  55  78 108 141 174 213 261 315
#     4   9  17  30  51  75 100 131 170 212 256 305
#     4   9  17  31  51  75 101 133 171 213 259 307
#     4   9  20  37  56  78 105 135 172 217 264 310
#     4   9  17  29  48  73 102 134 172 215 258 305
#
# _framework density 18.719225000000002
#
# number of rings (size 3 to 8) (size 9 to 14) (size 15 to 20)
#    0.000    2.500    0.000    2.000    0.000    5.333 
#    0.000    2.500    0.000    5.000    0.000    0.000 
#    0.000    0.000    0.000    0.000    0.000    0.000 
#
# Total GULP energy -595310.616489 kJ/mol
# GULP energy per Si atom -12402.304510 kJ/mol
# Density = 1.867662 g / cm^3
# Si number density = 18.719225 Si / 1000 Ang^3
#
#
#
# Elastic Constant Matrix: (Units=GPa)
#
#
# Indices 1 2 3 4 5 6 
#
# 1 174.4869 40.8401 98.9553 0.0000 0.0000 0.0000
# 2 40.8401 39.1609 34.3940 0.0000 0.0000 0.0000
# 3 98.9553 34.3940 120.6913 0.0000 0.0000 0.0000
# 4 0.0000 0.0000 0.0000 22.6923 0.0000 0.0000
# 5 0.0000 0.0000 0.0000 0.0000 11.4519 0.0000
# 6 0.0000 0.0000 0.0000 0.0000 0.0000 31.6756
#
#
#
# Elastic Compliance Matrix: (Units=1/GPa)
#
#
# Indices 1 2 3 4 5 6 
#
# 1 0.011375 -0.004897 -0.007931 0.000000 0.000000 0.000000
# 2 -0.004897 0.036169 -0.006292 0.000000 0.000000 0.000000
# 3 -0.007931 -0.006292 0.016581 0.000000 0.000000 0.000000
# 4 0.000000 0.000000 0.000000 0.044068 0.000000 0.000000
# 5 0.000000 0.000000 0.000000 0.000000 0.087321 0.000000
# 6 0.000000 0.000000 0.000000 0.000000 0.000000 0.031570
#
#
# Mechanical properties :
#
#
# Convention : Reuss Voigt Hill
#
# Bulk Modulus (GPa) = 38.63232 75.85756 57.24494
# Shear Modulus (GPa) = 18.25127 23.84061 21.04594
#
# Velocity S-wave (km/s) = 3.12589 3.57261 3.35669
# Velocity P-wave (km/s) = 5.80610 7.59144 6.75799
#
# Compressibility (1/GPa) = 0.02588506
#
# Stress axis : x y z
#
# Youngs Moduli (GPa) = 87.91095 27.64794 60.30928
#
# Poissons Ratio (x) = 0.13540 0.47831
# Poissons Ratio (y) = 0.43054 0.37946
# Poissons Ratio (z) = 0.69721 0.17396
#
# Static dielectric constant tensor:
#      x y z
#    x 3.658800 0.000000 0.000000 
#    y 0.000000 3.224030 0.000000 
#    z 0.000000 0.000000 3.793120 
# 
# 
# High freq. dielectric constant tensor:
#      x y z
#    x 1.741880 0.000000 0.000000 
#    y 0.000000 1.705420 0.000000 
#    z 0.000000 0.000000 1.724720 
# 
# From -- ./inp_files/12994.got.cif
#   From: 2010.03.12/outbox.cif.g09.slc.cpg/sg59_7_cif.got.tgz:12994.got - 2010.04.16 16:29:54.
