data_PCOD8244873
_publ_section_title
;
Structure prediction by ZEFSAII (Michael W. Deem and Ramdas Pophale) SiO2 
 PCOD8244873
Probable space group: P M M N
;
_chemical_formula_sum "Si O2"
_cell_formula_units_Z 56
_cell_length_a 22.769870
_cell_length_b 7.933585
_cell_length_c 16.848150
_cell_angle_alpha 90.000000
_cell_angle_beta 90.000000
_cell_angle_gamma 90.000000
_cell_volume 3043.562683
_symmetry_space_group_name_H-M "P M M N"
_symmetry_group_IT_number 59
_space_group.IT_coordinate_system_code '2'
_symmetry_cell_setting 'orthorhombic'
loop_
_space_group_symop_operation_xyz
x,y,z
1/2-x,1/2-y,z
1/2+x,-y,-z
-x,1/2+y,-z
-x,-y,-z
1/2+x,1/2+y,-z
1/2-x,y,z
x,1/2-y,z
loop_
_atom_site_type_symbol
_atom_site_label
_atom_site_fract_x
_atom_site_fract_y
_atom_site_fract_z
Si Si1 0.124878 0.057716 0.855762
Si Si2 0.183771 0.054791 0.020528
Si Si3 0.315767 0.053133 0.300711
Si Si4 0.608721 0.436948 0.841339
Si Si5 0.819606 0.936505 0.519473
Si Si6 0.006891 0.939595 0.910070
Si Si7 0.680587 0.250000 0.420847
Si Si8 0.680239 0.250000 0.237485
O O1 0.143027 0.250000 0.831369
O O2 0.146967 0.010644 0.943033
O O3 0.152816 0.922545 0.796153
O O4 0.054270 0.047268 0.860244
O O5 0.250000 0.999277 0.003367
O O6 0.178931 0.250000 0.042960
O O7 0.160388 0.950532 0.094577
O O8 0.250000 0.978719 0.285792
O O9 0.313778 0.250000 0.283235
O O10 0.336346 0.015963 0.390399
O O11 0.364319 0.970920 0.244729
O O12 0.582670 0.250000 0.842729
O O13 0.554934 0.558282 0.863802
O O14 0.750000 0.927917 0.511784
O O15 0.845039 0.750000 0.497180
O O16 0.845839 0.080766 0.461743
O O17 0.030397 0.750000 0.912169
O O18 0.000000 0.000000 0.000000
O O19 0.750000 0.250000 0.433134
O O20 0.663144 0.250000 0.329481
O O21 0.750000 0.250000 0.223006
#
# Coordination Sequence:
#
# PCOD8244873 Si02
#       8
#     8   8   8   8   8   8   4   4
#     4  11  23  41  60  82 112 151 195 241 290 338
#     4  10  21  36  52  72 105 151 190 226 281 340
#     4   9  18  33  51  76 116 156 187 227 283 341
#     4  12  24  33  49  81 111 145 192 238 283 332
#     4   8  15  29  51  78 112 152 185 220 273 338
#     4  12  23  40  60  79 106 145 197 250 289 335
#     4   9  18  32  54  83 115 147 187 227 272 343
#     4  11  24  40  60  91 121 151 188 235 292 347
#
# _framework density 18.39949
#
# number of rings (size 3 to 8) (size 9 to 14) (size 15 to 20)
#    0.000    1.714    2.143    4.286    2.000    3.714 
#    0.000    1.429    0.000    0.000    0.000    1.000 
#    0.000    0.000    0.000    0.000    0.000    0.000 
#
# Total GULP energy -694348.606303 kJ/mol
# GULP energy per Si atom -12399.082255 kJ/mol
# Density = 1.835761 g / cm^3
# Si number density = 18.399490 Si / 1000 Ang^3
#
#
#
# Elastic Constant Matrix: (Units=GPa)
#
#
# Indices 1 2 3 4 5 6 
#
# 1 75.3820 24.0724 31.7255 0.0000 0.0000 0.0000
# 2 24.0724 115.0193 63.1551 0.0000 0.0000 0.0000
# 3 31.7255 63.1551 112.0629 0.0000 0.0000 0.0000
# 4 0.0000 0.0000 0.0000 30.5657 0.0000 0.0000
# 5 0.0000 0.0000 0.0000 0.0000 6.7767 0.0000
# 6 0.0000 0.0000 0.0000 0.0000 0.0000 22.4234
#
#
#
# Elastic Compliance Matrix: (Units=1/GPa)
#
#
# Indices 1 2 3 4 5 6 
#
# 1 0.015170 -0.001183 -0.003628 0.000000 0.000000 0.000000
# 2 -0.001183 0.012682 -0.006813 0.000000 0.000000 0.000000
# 3 -0.003628 -0.006813 0.013790 0.000000 0.000000 0.000000
# 4 0.000000 0.000000 0.000000 0.032716 0.000000 0.000000
# 5 0.000000 0.000000 0.000000 0.000000 0.147564 0.000000
# 6 0.000000 0.000000 0.000000 0.000000 0.000000 0.044596
#
#
# Mechanical properties :
#
#
# Convention : Reuss Voigt Hill
#
# Bulk Modulus (GPa) = 54.36038 60.04111 57.20075
# Shear Modulus (GPa) = 16.89769 24.18724 20.54247
#
# Velocity S-wave (km/s) = 3.03376 3.62962 3.34499
# Velocity P-wave (km/s) = 6.47150 7.09001 6.78780
#
# Compressibility (1/GPa) = 0.01839575
#
# Stress axis : x y z
#
# Youngs Moduli (GPa) = 65.91754 78.84953 72.51607
#
# Poissons Ratio (x) = 0.09327 0.26310
# Poissons Ratio (y) = 0.07797 0.49402
# Poissons Ratio (z) = 0.23916 0.53716
#
# Static dielectric constant tensor:
#      x y z
#    x 3.189420 0.000000 0.000000 
#    y 0.000000 3.710150 0.000000 
#    z 0.000000 0.000000 3.318780 
# 
# 
# High freq. dielectric constant tensor:
#      x y z
#    x 1.684760 0.000000 0.000000 
#    y 0.000000 1.728130 0.000000 
#    z 0.000000 0.000000 1.699010 
# 
# From -- ./inp_files/24334.got.cif
#   From: 2010.03.12/outbox.cif.g09.slc.cpg/sg59_13_cif.got.tgz:24334.got - 2010.04.16 16:29:54.
