data_PCOD8244515
_publ_section_title
;
Structure prediction by ZEFSAII (Michael W. Deem and Ramdas Pophale) SiO2 
 PCOD8244515
Probable space group: P M M N
;
_chemical_formula_sum "Si O2"
_cell_formula_units_Z 48
_cell_length_a 9.077891
_cell_length_b 18.807132
_cell_length_c 14.945538
_cell_angle_alpha 90.000000
_cell_angle_beta 90.000000
_cell_angle_gamma 90.000000
_cell_volume 2551.638167
_symmetry_space_group_name_H-M "P M M N"
_symmetry_group_IT_number 59
_space_group.IT_coordinate_system_code '2'
_symmetry_cell_setting 'orthorhombic'
loop_
_space_group_symop_operation_xyz
x,y,z
1/2-x,1/2-y,z
1/2+x,-y,-z
-x,1/2+y,-z
-x,-y,-z
1/2+x,1/2+y,-z
1/2-x,y,z
x,1/2-y,z
loop_
_atom_site_type_symbol
_atom_site_label
_atom_site_fract_x
_atom_site_fract_y
_atom_site_fract_z
Si Si1 0.579245 0.832766 0.901699
Si Si2 0.422986 0.831653 0.561018
Si Si3 0.078521 0.167909 0.619410
Si Si4 0.080237 0.408650 0.280086
Si Si5 0.918607 0.072136 0.757848
Si Si6 0.922873 0.070229 0.964665
O O1 0.750000 0.848569 0.921999
O O2 0.547364 0.750000 0.889152
O O3 0.528675 0.872652 0.812020
O O4 0.482928 0.860906 0.983921
O O5 0.250000 0.841674 0.551572
O O6 0.466885 0.750000 0.579976
O O7 0.495721 0.858754 0.469350
O O8 0.479954 0.879667 0.641104
O O9 0.250000 0.154542 0.604458
O O10 0.042412 0.250000 0.638514
O O11 0.024760 0.123853 0.704107
O O12 0.250000 0.389508 0.299648
O O13 0.054104 0.492190 0.274012
O O14 0.750000 0.094578 0.741129
O O15 0.960862 0.080359 0.861117
O O16 0.750000 0.061862 0.980434
O O17 0.000000 0.000000 0.000000
#
# Coordination Sequence:
#
# PCOD8244515 Si02
#       6
#     8   8   8   8   8   8
#     4  10  21  38  60  87 120 156 195 241 292 346
#     4  10  21  37  58  85 117 152 191 237 289 341
#     4  10  22  40  61  85 113 149 194 239 287 345
#     4  10  20  37  59  84 116 154 194 234 284 346
#     4  10  22  39  60  85 114 151 193 237 288 344
#     4  11  22  39  61  84 116 155 197 241 290 348
#
# _framework density 18.811444000000002
#
# number of rings (size 3 to 8) (size 9 to 14) (size 15 to 20)
#    0.000    1.833    1.667    2.000    0.000    7.000 
#    0.000    3.333    0.000    0.000    0.000    0.000 
#    0.000    0.000    0.000    0.000    0.000    0.000 
#
# Total GULP energy -595489.230165 kJ/mol
# GULP energy per Si atom -12406.025628 kJ/mol
# Density = 1.876863 g / cm^3
# Si number density = 18.811444 Si / 1000 Ang^3
#
#
#
# Elastic Constant Matrix: (Units=GPa)
#
#
# Indices 1 2 3 4 5 6 
#
# 1 89.4995 44.2626 72.4197 0.0000 0.0000 0.0000
# 2 44.2626 74.2665 57.4265 0.0000 0.0000 0.0000
# 3 72.4197 57.4265 140.6479 0.0000 0.0000 0.0000
# 4 0.0000 0.0000 0.0000 -90.6248 0.0000 0.0000
# 5 0.0000 0.0000 0.0000 0.0000 39.6209 0.0000
# 6 0.0000 0.0000 0.0000 0.0000 0.0000 33.8354
#
#
#
# Elastic Compliance Matrix: (Units=1/GPa)
#
#
# Indices 1 2 3 4 5 6 
#
# 1 0.020850 -0.006028 -0.008274 0.000000 0.000000 0.000000
# 2 -0.006028 0.021421 -0.005642 0.000000 0.000000 0.000000
# 3 -0.008274 -0.005642 0.013674 0.000000 0.000000 0.000000
# 4 0.000000 0.000000 0.000000 -0.011035 0.000000 0.000000
# 5 0.000000 0.000000 0.000000 0.000000 0.025239 0.000000
# 6 0.000000 0.000000 0.000000 0.000000 0.000000 0.029555
#
#
# Mechanical properties :
#
#
# Convention : Reuss Voigt Hill
#
# Bulk Modulus (GPa) = 62.28511 72.51460 67.39986
# Shear Modulus (GPa) = 34.49591 5.25333 19.87462
#
# Velocity S-wave (km/s) = 4.28690 1.67293 3.25394
# Velocity P-wave (km/s) = 7.59510 6.50872 7.07280
#
# Compressibility (1/GPa) = 0.01605520
#
# Stress axis : x y z
#
# Youngs Moduli (GPa) = 47.96209 46.68403 73.13172
#
# Poissons Ratio (x) = 0.28143 0.60511
# Poissons Ratio (y) = 0.28913 0.41261
# Poissons Ratio (z) = 0.39685 0.26339
#
# Static dielectric constant tensor:
#      x y z
#    x 3.565000 0.000000 0.000000 
#    y 0.000000 3.438820 0.000000 
#    z 0.000000 0.000000 4.395880 
# 
# 
# High freq. dielectric constant tensor:
#      x y z
#    x 1.734280 0.000000 0.000000 
#    y 0.000000 1.733220 0.000000 
#    z 0.000000 0.000000 1.740580 
# 
# From -- ./inp_files/20312.got.cif
#   From: 2010.03.12/outbox.cif.g09.slc.cpg/sg59_11_cif.got.tgz:20312.got - 2010.04.16 16:29:54.
