data_PCOD8244054
_publ_section_title
;
Structure prediction by ZEFSAII (Michael W. Deem and Ramdas Pophale) SiO2 
 PCOD8244054
Probable space group: P M M N
;
_chemical_formula_sum "Si O2"
_cell_formula_units_Z 56
_cell_length_a 23.221064
_cell_length_b 9.103289
_cell_length_c 13.676188
_cell_angle_alpha 90.000000
_cell_angle_beta 90.000000
_cell_angle_gamma 90.000000
_cell_volume 2890.982801
_symmetry_space_group_name_H-M "P M M N"
_symmetry_group_IT_number 59
_space_group.IT_coordinate_system_code '2'
_symmetry_cell_setting 'orthorhombic'
loop_
_space_group_symop_operation_xyz
x,y,z
1/2-x,1/2-y,z
1/2+x,-y,-z
-x,1/2+y,-z
-x,-y,-z
1/2+x,1/2+y,-z
1/2-x,y,z
x,1/2-y,z
loop_
_atom_site_type_symbol
_atom_site_label
_atom_site_fract_x
_atom_site_fract_y
_atom_site_fract_z
Si Si1 0.626509 0.425147 0.569800
Si Si2 0.250000 0.923698 0.358355
Si Si3 0.592012 0.076134 0.356130
Si Si4 0.034605 0.075268 0.291458
Si Si5 0.314821 0.580680 0.798823
Si Si6 0.333107 0.084740 0.999216
Si Si7 0.539904 0.913225 0.928596
Si Si8 0.250000 0.575426 0.136548
O O1 0.621654 0.250000 0.579052
O O2 0.692055 0.479969 0.588119
O O3 0.607950 0.483420 0.463279
O O4 0.584099 0.496753 0.647733
O O5 0.250000 0.750000 0.359093
O O6 0.250000 0.981364 0.247509
O O7 0.594913 0.250000 0.356073
O O8 0.528118 0.021946 0.328303
O O9 0.639493 0.016862 0.279369
O O10 0.042216 0.250000 0.301397
O O11 0.042124 0.019332 0.180133
O O12 0.250000 0.567447 0.755591
O O13 0.328901 0.750000 0.824607
O O14 0.318963 0.485609 0.895746
O O15 0.307994 0.250000 0.001105
O O16 0.399959 0.086589 0.017770
O O17 0.306239 0.987902 0.084918
O O18 0.514477 0.750000 0.918171
O O19 0.500000 0.000000 0.000000
O O20 0.250000 0.750000 0.128699
#
# Coordination Sequence:
#
# PCOD8244054 Si02
#       8
#     8   4   8   8   8   8   8   4
#     4  10  20  36  58  83 110 144 185 232 282 329
#     4   9  20  35  54  81 110 136 175 231 278 321
#     4   9  19  34  57  84 111 143 184 234 280 327
#     4  10  20  37  56  80 114 149 186 230 279 333
#     4  10  20  35  57  84 111 147 192 231 278 341
#     4  11  22  36  54  80 112 146 182 228 282 329
#     4  10  22  37  56  81 112 149 186 230 284 336
#     4  11  21  35  54  77 104 144 185 221 268 327
#
# _framework density 19.370574000000001
#
# number of rings (size 3 to 8) (size 9 to 14) (size 15 to 20)
#    0.000    2.000    0.714    2.786    1.000    2.857 
#    0.000    2.500    0.000    0.000    0.000    0.000 
#    0.000    0.000    0.000    0.000    0.000    0.000 
#
# Total GULP energy -694387.681827 kJ/mol
# GULP energy per Si atom -12399.780033 kJ/mol
# Density = 1.932649 g / cm^3
# Si number density = 19.370574 Si / 1000 Ang^3
#
#
#
# Elastic Constant Matrix: (Units=GPa)
#
#
# Indices 1 2 3 4 5 6 
#
# 1 146.2307 29.8824 60.7344 0.0000 0.0000 0.0000
# 2 29.8824 53.0401 25.9009 0.0000 0.0000 0.0000
# 3 60.7344 25.9009 114.3927 0.0000 0.0000 0.0000
# 4 0.0000 0.0000 0.0000 15.0874 0.0000 0.0000
# 5 0.0000 0.0000 0.0000 0.0000 37.5920 0.0000
# 6 0.0000 0.0000 0.0000 0.0000 0.0000 24.2631
#
#
#
# Elastic Compliance Matrix: (Units=1/GPa)
#
#
# Indices 1 2 3 4 5 6 
#
# 1 0.009219 -0.003152 -0.004181 0.000000 0.000000 0.000000
# 2 -0.003152 0.022275 -0.003370 0.000000 0.000000 0.000000
# 3 -0.004181 -0.003370 0.011725 0.000000 0.000000 0.000000
# 4 0.000000 0.000000 0.000000 0.066280 0.000000 0.000000
# 5 0.000000 0.000000 0.000000 0.000000 0.026601 0.000000
# 6 0.000000 0.000000 0.000000 0.000000 0.000000 0.041215
#
#
# Mechanical properties :
#
#
# Convention : Reuss Voigt Hill
#
# Bulk Modulus (GPa) = 45.84498 60.74433 53.29465
# Shear Modulus (GPa) = 24.27264 28.53155 26.40210
#
# Velocity S-wave (km/s) = 3.54371 3.84204 3.69589
# Velocity P-wave (km/s) = 6.36102 7.14905 6.76651
#
# Compressibility (1/GPa) = 0.02181264
#
# Stress axis : x y z
#
# Youngs Moduli (GPa) = 108.46940 44.89276 85.29043
#
# Poissons Ratio (x) = 0.14152 0.35660
# Poissons Ratio (y) = 0.34193 0.28742
# Poissons Ratio (z) = 0.45351 0.15129
#
# Static dielectric constant tensor:
#      x y z
#    x 3.830510 0.000000 0.000000 
#    y 0.000000 3.414590 0.000000 
#    z 0.000000 0.000000 3.546980 
# 
# 
# High freq. dielectric constant tensor:
#      x y z
#    x 1.773060 0.000000 0.000000 
#    y 0.000000 1.725470 0.000000 
#    z 0.000000 0.000000 1.765520 
# 
# From -- ./inp_files/24421.got.cif
#   From: 2010.03.12/outbox.cif.g09.slc.cpg/sg59_13_cif.got.tgz:24421.got - 2010.04.16 16:29:54.
