data_PCOD8244090
_publ_section_title
;
Structure prediction by ZEFSAII (Michael W. Deem and Ramdas Pophale) SiO2 
 PCOD8244090
Probable space group: P M M N
;
_chemical_formula_sum "Si O2"
_cell_formula_units_Z 56
_cell_length_a 9.110811
_cell_length_b 14.461192
_cell_length_c 22.078629
_cell_angle_alpha 90.000000
_cell_angle_beta 90.000000
_cell_angle_gamma 90.000000
_cell_volume 2908.929739
_symmetry_space_group_name_H-M "P M M N"
_symmetry_group_IT_number 59
_space_group.IT_coordinate_system_code '2'
_symmetry_cell_setting 'orthorhombic'
loop_
_space_group_symop_operation_xyz
x,y,z
1/2-x,1/2-y,z
1/2+x,-y,-z
-x,1/2+y,-z
-x,-y,-z
1/2+x,1/2+y,-z
1/2-x,y,z
x,1/2-y,z
loop_
_atom_site_type_symbol
_atom_site_label
_atom_site_fract_x
_atom_site_fract_y
_atom_site_fract_z
Si Si1 0.079100 0.856357 0.481915
Si Si2 0.579420 0.081803 0.159319
Si Si3 0.421461 0.460661 0.412837
Si Si4 0.416142 0.906692 0.121761
Si Si5 0.918993 0.478157 0.293543
Si Si6 0.920882 0.250000 0.971634
Si Si7 0.076378 0.250000 0.098608
Si Si8 0.086918 0.852446 0.255619
O O1 0.250000 0.861691 0.498568
O O2 0.036893 0.750000 0.463354
O O3 0.989021 0.887904 0.540352
O O4 0.043169 0.931209 0.428906
O O5 0.750000 0.100471 0.146000
O O6 0.548349 0.075243 0.231101
O O7 0.480101 0.162474 0.134730
O O8 0.531637 0.989914 0.123763
O O9 0.250000 0.442391 0.411280
O O10 0.487867 0.434164 0.347680
O O11 0.250000 0.944595 0.113391
O O12 0.460744 0.841138 0.066415
O O13 0.427509 0.848396 0.183270
O O14 0.750000 0.473463 0.311545
O O15 0.963923 0.584730 0.285754
O O16 0.750000 0.250000 0.989484
O O17 0.019123 0.250000 0.030605
O O18 0.250000 0.250000 0.097468
O O19 0.250000 0.889057 0.273714
O O20 0.063618 0.750000 0.281504
#
# Coordination Sequence:
#
# PCOD8244090 Si02
#       8
#     8   8   8   8   8   4   4   8
#     4   9  19  37  59  82 113 152 188 227 276 325
#     4  10  22  41  61  81 111 150 189 235 289 339
#     4  10  20  35  57  85 115 147 188 233 276 328
#     4   9  17  33  58  86 113 145 184 226 276 337
#     4  10  21  36  55  81 112 149 189 230 281 335
#     4  10  20  36  60  88 118 150 185 228 281 344
#     4  12  26  42  60  82 108 144 191 242 291 338
#     4   9  16  29  51  79 111 146 183 226 278 331
#
# _framework density 19.251066000000002
#
# number of rings (size 3 to 8) (size 9 to 14) (size 15 to 20)
#    0.000    2.286    0.714    1.929    0.000    4.571 
#    1.286    1.429    0.000    0.000    0.000    0.000 
#    0.000    0.000    0.000    0.000    0.000    0.000 
#
# Total GULP energy -694324.789617 kJ/mol
# GULP energy per Si atom -12398.656957 kJ/mol
# Density = 1.920725 g / cm^3
# Si number density = 19.251066 Si / 1000 Ang^3
#
#
#
# Elastic Constant Matrix: (Units=GPa)
#
#
# Indices 1 2 3 4 5 6 
#
# 1 98.8883 42.4769 60.1717 0.0000 0.0000 0.0000
# 2 42.4769 78.9392 29.9237 0.0000 0.0000 0.0000
# 3 60.1717 29.9237 98.8899 0.0000 0.0000 0.0000
# 4 0.0000 0.0000 0.0000 21.0916 0.0000 0.0000
# 5 0.0000 0.0000 0.0000 0.0000 33.2570 0.0000
# 6 0.0000 0.0000 0.0000 0.0000 0.0000 31.5734
#
#
#
# Elastic Compliance Matrix: (Units=1/GPa)
#
#
# Indices 1 2 3 4 5 6 
#
# 1 0.018571 -0.006449 -0.009348 0.000000 0.000000 0.000000
# 2 -0.006449 0.016549 -0.001083 0.000000 0.000000 0.000000
# 3 -0.009348 -0.001083 0.016128 0.000000 0.000000 0.000000
# 4 0.000000 0.000000 0.000000 0.047412 0.000000 0.000000
# 5 0.000000 0.000000 0.000000 0.000000 0.030069 0.000000
# 6 0.000000 0.000000 0.000000 0.000000 0.000000 0.031672
#
#
# Mechanical properties :
#
#
# Convention : Reuss Voigt Hill
#
# Bulk Modulus (GPa) = 57.18837 60.20692 58.69764
# Shear Modulus (GPa) = 25.00090 26.79406 25.89748
#
# Velocity S-wave (km/s) = 3.60762 3.73476 3.67174
# Velocity P-wave (km/s) = 6.86472 7.06685 6.96652
#
# Compressibility (1/GPa) = 0.01748607
#
# Stress axis : x y z
#
# Youngs Moduli (GPa) = 53.84736 60.42651 62.00262
#
# Poissons Ratio (x) = 0.38971 0.57963
# Poissons Ratio (y) = 0.34728 0.06718
# Poissons Ratio (z) = 0.50339 0.06547
#
# Static dielectric constant tensor:
#      x y z
#    x 3.520020 0.000000 0.000000 
#    y 0.000000 4.232480 0.000000 
#    z 0.000000 0.000000 3.492860 
# 
# 
# High freq. dielectric constant tensor:
#      x y z
#    x 1.750520 0.000000 0.000000 
#    y 0.000000 1.741040 0.000000 
#    z 0.000000 0.000000 1.746490 
# 
# From -- ./inp_files/29249.got.cif
#   From: 2010.03.12/outbox.cif.g09.slc.cpg/sg59_15_cif.got.tgz:29249.got - 2010.04.16 16:29:54.
