data_PCOD8244738
_publ_section_title
;
Structure prediction by ZEFSAII (Michael W. Deem and Ramdas Pophale) SiO2 
 PCOD8244738
Probable space group: P M M N
;
_chemical_formula_sum "Si O2"
_cell_formula_units_Z 48
_cell_length_a 9.466812
_cell_length_b 13.889861
_cell_length_c 20.406223
_cell_angle_alpha 90.000000
_cell_angle_beta 90.000000
_cell_angle_gamma 90.000000
_cell_volume 2683.269416
_symmetry_space_group_name_H-M "P M M N"
_symmetry_group_IT_number 59
_space_group.IT_coordinate_system_code '2'
_symmetry_cell_setting 'orthorhombic'
loop_
_space_group_symop_operation_xyz
x,y,z
1/2-x,1/2-y,z
1/2+x,-y,-z
-x,1/2+y,-z
-x,-y,-z
1/2+x,1/2+y,-z
1/2-x,y,z
x,1/2-y,z
loop_
_atom_site_type_symbol
_atom_site_label
_atom_site_fract_x
_atom_site_fract_y
_atom_site_fract_z
Si Si1 0.914535 0.048835 0.407917
Si Si2 0.910284 0.147296 0.900259
Si Si3 0.412963 0.094986 0.011950
Si Si4 0.415013 0.639531 0.726948
Si Si5 0.089247 0.053669 0.155728
Si Si6 0.086752 0.358399 0.521235
O O1 0.750000 0.071848 0.417445
O O2 0.963131 0.074587 0.334607
O O3 0.996671 0.118183 0.457221
O O4 0.948622 0.935972 0.421655
O O5 0.750000 0.122949 0.923495
O O6 0.913422 0.250000 0.861157
O O7 0.962349 0.057176 0.856442
O O8 0.008756 0.168918 0.963820
O O9 0.250000 0.085629 0.990780
O O10 0.423357 0.118173 0.089487
O O11 0.500000 0.000000 0.000000
O O12 0.250000 0.628835 0.740219
O O13 0.456622 0.750000 0.713050
O O14 0.492176 0.601677 0.790751
O O15 0.250000 0.053608 0.181167
O O16 0.250000 0.366608 0.501049
O O17 0.050912 0.250000 0.546021
#
# Coordination Sequence:
#
# PCOD8244738 Si02
#       6
#     8   8   8   8   8   8
#     4   9  18  33  51  72 101 133 162 196 238 284
#     4   9  18  33  52  73  98 128 160 198 249 302
#     4   9  17  30  48  70  95 123 158 201 247 291
#     4  10  21  35  50  69  95 129 165 199 239 287
#     4   9  19  34  50  70  97 128 161 199 241 286
#     4   9  17  30  51  78 103 127 158 197 240 283
#
# _framework density 17.888624
#
# number of rings (size 3 to 8) (size 9 to 14) (size 15 to 20)
#    0.000    2.833    0.000    2.000    0.000    6.333 
#    0.000    4.167    0.000    1.000    0.000    0.000 
#    0.000    0.000    0.000    0.000    0.000    0.000 
#
# Total GULP energy -594712.319284 kJ/mol
# GULP energy per Si atom -12389.839985 kJ/mol
# Density = 1.784791 g / cm^3
# Si number density = 17.888624 Si / 1000 Ang^3
#
#
#
# Elastic Constant Matrix: (Units=GPa)
#
#
# Indices 1 2 3 4 5 6 
#
# 1 67.4401 38.1388 50.8659 0.0000 0.0000 0.0000
# 2 38.1388 112.2849 47.2162 0.0000 0.0000 0.0000
# 3 50.8659 47.2162 102.0536 0.0000 0.0000 0.0000
# 4 0.0000 0.0000 0.0000 19.9743 0.0000 0.0000
# 5 0.0000 0.0000 0.0000 0.0000 30.5040 0.0000
# 6 0.0000 0.0000 0.0000 0.0000 0.0000 21.6587
#
#
#
# Elastic Compliance Matrix: (Units=1/GPa)
#
#
# Indices 1 2 3 4 5 6 
#
# 1 0.025171 -0.004065 -0.010665 0.000000 0.000000 0.000000
# 2 -0.004065 0.011713 -0.003393 0.000000 0.000000 0.000000
# 3 -0.010665 -0.003393 0.016684 0.000000 0.000000 0.000000
# 4 0.000000 0.000000 0.000000 0.050064 0.000000 0.000000
# 5 0.000000 0.000000 0.000000 0.000000 0.032783 0.000000
# 6 0.000000 0.000000 0.000000 0.000000 0.000000 0.046171
#
#
# Mechanical properties :
#
#
# Convention : Reuss Voigt Hill
#
# Bulk Modulus (GPa) = 57.72940 61.58004 59.65472
# Shear Modulus (GPa) = 22.26112 24.13125 23.19618
#
# Velocity S-wave (km/s) = 3.53147 3.67682 3.60488
# Velocity P-wave (km/s) = 6.99786 7.24736 7.12370
#
# Compressibility (1/GPa) = 0.01732220
#
# Stress axis : x y z
#
# Youngs Moduli (GPa) = 39.72875 85.37158 59.93603
#
# Poissons Ratio (x) = 0.34702 0.63922
# Poissons Ratio (y) = 0.16149 0.20339
# Poissons Ratio (z) = 0.42371 0.28970
#
# Static dielectric constant tensor:
#      x y z
#    x 3.618410 0.000000 0.000000 
#    y 0.000000 3.390480 0.000000 
#    z 0.000000 0.000000 2.289720 
# 
# 
# High freq. dielectric constant tensor:
#      x y z
#    x 1.694260 0.000000 0.000000 
#    y 0.000000 1.703160 0.000000 
#    z 0.000000 0.000000 1.663270 
# 
# From -- ./inp_files/25458.got.cif
#   From: 2010.03.12/outbox.cif.g09.slc.cpg/sg59_13_cif.got.tgz:25458.got - 2010.04.16 16:29:54.
