data_PCOD8244233
_publ_section_title
;
Structure prediction by ZEFSAII (Michael W. Deem and Ramdas Pophale) SiO2 
 PCOD8244233
Probable space group: P M M N
;
_chemical_formula_sum "Si O2"
_cell_formula_units_Z 56
_cell_length_a 14.708165
_cell_length_b 9.156955
_cell_length_c 21.093674
_cell_angle_alpha 90.000000
_cell_angle_beta 90.000000
_cell_angle_gamma 90.000000
_cell_volume 2840.938308
_symmetry_space_group_name_H-M "P M M N"
_symmetry_group_IT_number 59
_space_group.IT_coordinate_system_code '2'
_symmetry_cell_setting 'orthorhombic'
loop_
_space_group_symop_operation_xyz
x,y,z
1/2-x,1/2-y,z
1/2+x,-y,-z
-x,1/2+y,-z
-x,-y,-z
1/2+x,1/2+y,-z
1/2-x,y,z
x,1/2-y,z
loop_
_atom_site_type_symbol
_atom_site_label
_atom_site_fract_x
_atom_site_fract_y
_atom_site_fract_z
Si Si1 0.647479 0.915313 0.917183
Si Si2 0.250000 0.921898 0.742782
Si Si3 0.250000 0.579937 0.882094
Si Si4 0.033508 0.586818 0.166000
Si Si5 0.143771 0.080352 0.495455
Si Si6 0.099060 0.411294 0.947344
Si Si7 0.051868 0.923791 0.717122
Si Si8 0.010319 0.920855 0.404759
O O1 0.750000 0.947250 0.939894
O O2 0.634393 0.750000 0.894175
O O3 0.628295 0.012191 0.854160
O O4 0.581404 0.946911 0.978100
O O5 0.250000 0.750000 0.751231
O O6 0.250000 0.995521 0.812455
O O7 0.157957 0.968272 0.706147
O O8 0.250000 0.750000 0.872705
O O9 0.161997 0.536455 0.920232
O O10 0.046623 0.750000 0.193894
O O11 0.988278 0.590824 0.096921
O O12 0.979508 0.487838 0.215740
O O13 0.250000 0.036274 0.506100
O O14 0.136208 0.250000 0.476195
O O15 0.084586 0.049547 0.558536
O O16 0.099002 0.982984 0.440490
O O17 0.145704 0.250000 0.944566
O O18 0.037643 0.750000 0.716906
O O19 0.993284 0.996272 0.661829
O O20 0.025835 0.750000 0.393484
#
# Coordination Sequence:
#
# PCOD8244233 Si02
#       8
#     8   4   4   8   8   8   8   8
#     4  10  21  38  58  77 104 142 182 228 286 348
#     4   9  20  35  53  81 113 149 190 231 276 337
#     4  11  19  31  53  81 111 143 182 229 278 333
#     4  11  23  37  56  82 110 142 184 234 284 334
#     4   9  19  38  63  90 124 164 200 235 281 337
#     4  10  20  36  55  78 109 143 180 226 285 347
#     4  11  22  39  59  82 117 156 192 230 280 341
#     4  10  21  37  59  92 127 157 196 243 285 329
#
# _framework density 19.711796
#
# number of rings (size 3 to 8) (size 9 to 14) (size 15 to 20)
#    0.000    1.857    2.143    1.929    1.000    2.286 
#    0.000    1.786    0.000    4.286    0.000    0.000 
#    0.000    0.000    0.000    0.000    0.000    0.000 
#
# Total GULP energy -694011.635873 kJ/mol
# GULP energy per Si atom -12393.064926 kJ/mol
# Density = 1.966693 g / cm^3
# Si number density = 19.711796 Si / 1000 Ang^3
#
#
#
# Elastic Constant Matrix: (Units=GPa)
#
#
# Indices 1 2 3 4 5 6 
#
# 1 73.6337 32.4468 34.8258 0.0000 0.0000 0.0000
# 2 32.4468 95.0214 47.2084 0.0000 0.0000 0.0000
# 3 34.8258 47.2084 80.9200 0.0000 0.0000 0.0000
# 4 0.0000 0.0000 0.0000 34.3071 0.0000 0.0000
# 5 0.0000 0.0000 0.0000 0.0000 22.0249 0.0000
# 6 0.0000 0.0000 0.0000 0.0000 0.0000 25.7793
#
#
#
# Elastic Compliance Matrix: (Units=1/GPa)
#
#
# Indices 1 2 3 4 5 6 
#
# 1 0.017710 -0.003183 -0.005765 0.000000 0.000000 0.000000
# 2 -0.003183 0.015391 -0.007609 0.000000 0.000000 0.000000
# 3 -0.005765 -0.007609 0.019278 0.000000 0.000000 0.000000
# 4 0.000000 0.000000 0.000000 0.029148 0.000000 0.000000
# 5 0.000000 0.000000 0.000000 0.000000 0.045403 0.000000
# 6 0.000000 0.000000 0.000000 0.000000 0.000000 0.038791
#
#
# Mechanical properties :
#
#
# Convention : Reuss Voigt Hill
#
# Bulk Modulus (GPa) = 51.90829 53.17081 52.53955
# Shear Modulus (GPa) = 24.35956 25.42852 24.89404
#
# Velocity S-wave (km/s) = 3.51919 3.59557 3.55759
# Velocity P-wave (km/s) = 6.55009 6.65359 6.60204
#
# Compressibility (1/GPa) = 0.01926474
#
# Stress axis : x y z
#
# Youngs Moduli (GPa) = 56.46533 64.97150 51.87240
#
# Poissons Ratio (x) = 0.20683 0.29903
# Poissons Ratio (y) = 0.17975 0.39471
# Poissons Ratio (z) = 0.32551 0.49438
#
# Static dielectric constant tensor:
#      x y z
#    x 3.705490 0.000000 0.000000 
#    y 0.000000 3.676870 0.000000 
#    z 0.000000 0.000000 3.418270 
# 
# 
# High freq. dielectric constant tensor:
#      x y z
#    x 1.757190 0.000000 0.000000 
#    y 0.000000 1.771570 0.000000 
#    z 0.000000 0.000000 1.758140 
# 
# From -- ./inp_files/30476.got.cif
#   From: 2010.03.12/outbox.cif.g09.slc.cpg/sg59_16_cif.got.tgz:30476.got - 2010.04.16 16:29:54.
