data_PCOD8244198
_publ_section_title
;
Structure prediction by ZEFSAII (Michael W. Deem and Ramdas Pophale) SiO2 
 PCOD8244198
Probable space group: P M M N
;
_chemical_formula_sum "Si O2"
_cell_formula_units_Z 56
_cell_length_a 18.744201
_cell_length_b 12.826597
_cell_length_c 11.337888
_cell_angle_alpha 90.000000
_cell_angle_beta 90.000000
_cell_angle_gamma 90.000000
_cell_volume 2725.903925
_symmetry_space_group_name_H-M "P M M N"
_symmetry_group_IT_number 59
_space_group.IT_coordinate_system_code '2'
_symmetry_cell_setting 'orthorhombic'
loop_
_space_group_symop_operation_xyz
x,y,z
1/2-x,1/2-y,z
1/2+x,-y,-z
-x,1/2+y,-z
-x,-y,-z
1/2+x,1/2+y,-z
1/2-x,y,z
x,1/2-y,z
loop_
_atom_site_type_symbol
_atom_site_label
_atom_site_fract_x
_atom_site_fract_y
_atom_site_fract_z
Si Si1 0.672773 0.369758 0.470152
Si Si2 0.534040 0.369531 0.340909
Si Si3 0.330808 0.548587 0.277361
Si Si4 0.435644 0.015484 0.856288
Si Si5 0.333143 0.130564 0.681582
Si Si6 0.071678 0.872401 0.068075
Si Si7 0.617307 0.631176 0.572150
O O1 0.750000 0.421219 0.434116
O O2 0.676059 0.250000 0.436589
O O3 0.605855 0.417036 0.399305
O O4 0.659561 0.378440 0.609049
O O5 0.543075 0.250000 0.300728
O O6 0.517619 0.439537 0.227088
O O7 0.468567 0.379286 0.432476
O O8 0.250000 0.549442 0.229696
O O9 0.381185 0.596033 0.179035
O O10 0.351397 0.431323 0.316501
O O11 0.371759 0.069278 0.785949
O O12 0.488328 0.103423 0.907657
O O13 0.401896 0.943121 0.958638
O O14 0.250000 0.122207 0.707137
O O15 0.359848 0.250000 0.683249
O O16 0.351227 0.085074 0.550544
O O17 0.080631 0.750000 0.039926
O O18 0.641926 0.750000 0.589868
#
# Coordination Sequence:
#
# PCOD8244198 Si02
#       7
#     8   8   8   8   8   8   8
#     4   9  19  34  54  85 124 161 196 243 303 366
#     4  10  20  35  59  90 124 159 203 249 299 363
#     4  11  22  38  60  87 120 161 203 248 304 365
#     4  11  23  41  64  88 116 163 205 254 304 361
#     4  10  22  40  63  93 127 161 200 248 303 364
#     4  11  25  43  63  88 118 157 207 261 307 354
#     4  10  21  37  60  93 129 163 198 245 299 361
#
# _framework density 20.543644
#
# number of rings (size 3 to 8) (size 9 to 14) (size 15 to 20)
#    0.000    1.714    1.429    2.571    2.000    5.143 
#    0.000    0.714    0.000    2.571    0.000    0.000 
#    0.000    0.000    0.000    0.000    0.000    0.000 
#
# Total GULP energy -694350.347353 kJ/mol
# GULP energy per Si atom -12399.113346 kJ/mol
# Density = 2.049689 g / cm^3
# Si number density = 20.543644 Si / 1000 Ang^3
#
#
#
# Elastic Constant Matrix: (Units=GPa)
#
#
# Indices 1 2 3 4 5 6 
#
# 1 71.6498 24.9596 28.4452 0.0000 0.0000 0.0000
# 2 24.9596 95.9916 30.0939 0.0000 0.0000 0.0000
# 3 28.4452 30.0939 85.7440 0.0000 0.0000 0.0000
# 4 0.0000 0.0000 0.0000 36.0149 0.0000 0.0000
# 5 0.0000 0.0000 0.0000 0.0000 22.7053 0.0000
# 6 0.0000 0.0000 0.0000 0.0000 0.0000 22.6643
#
#
#
# Elastic Compliance Matrix: (Units=1/GPa)
#
#
# Indices 1 2 3 4 5 6 
#
# 1 0.016782 -0.002942 -0.004535 0.000000 0.000000 0.000000
# 2 -0.002942 0.012221 -0.003313 0.000000 0.000000 0.000000
# 3 -0.004535 -0.003313 0.014330 0.000000 0.000000 0.000000
# 4 0.000000 0.000000 0.000000 0.027766 0.000000 0.000000
# 5 0.000000 0.000000 0.000000 0.000000 0.044043 0.000000
# 6 0.000000 0.000000 0.000000 0.000000 0.000000 0.044122
#
#
# Mechanical properties :
#
#
# Convention : Reuss Voigt Hill
#
# Bulk Modulus (GPa) = 45.97077 46.70919 46.33998
# Shear Modulus (GPa) = 26.58224 27.60267 27.09246
#
# Velocity S-wave (km/s) = 3.60104 3.66951 3.63543
# Velocity P-wave (km/s) = 6.30204 6.38276 6.34253
#
# Compressibility (1/GPa) = 0.02175295
#
# Stress axis : x y z
#
# Youngs Moduli (GPa) = 59.58788 81.82439 69.78406
#
# Poissons Ratio (x) = 0.24072 0.31646
# Poissons Ratio (y) = 0.17530 0.23122
# Poissons Ratio (z) = 0.27022 0.27111
#
# Static dielectric constant tensor:
#      x y z
#    x 3.822010 0.000000 0.000000 
#    y 0.000000 3.905490 0.000000 
#    z 0.000000 0.000000 3.563040 
# 
# 
# High freq. dielectric constant tensor:
#      x y z
#    x 1.805210 0.000000 0.000000 
#    y 0.000000 1.826330 0.000000 
#    z 0.000000 0.000000 1.781910 
# 
# From -- ./inp_files/11421.got.cif
#   From: 2010.03.12/outbox.cif.g09.slc.cpg/sg59_6_cif.got.tgz:11421.got - 2010.04.16 16:29:54.
