data_PCOD8244397
_publ_section_title
;
Structure prediction by ZEFSAII (Michael W. Deem and Ramdas Pophale) SiO2 
 PCOD8244397
Probable space group: P M M N
;
_chemical_formula_sum "Si O2"
_cell_formula_units_Z 48
_cell_length_a 17.706324
_cell_length_b 8.555040
_cell_length_c 15.305398
_cell_angle_alpha 90.000000
_cell_angle_beta 90.000000
_cell_angle_gamma 90.000000
_cell_volume 2318.435824
_symmetry_space_group_name_H-M "P M M N"
_symmetry_group_IT_number 59
_space_group.IT_coordinate_system_code '2'
_symmetry_cell_setting 'orthorhombic'
loop_
_space_group_symop_operation_xyz
x,y,z
1/2-x,1/2-y,z
1/2+x,-y,-z
-x,1/2+y,-z
-x,-y,-z
1/2+x,1/2+y,-z
1/2-x,y,z
x,1/2-y,z
loop_
_atom_site_type_symbol
_atom_site_label
_atom_site_fract_x
_atom_site_fract_y
_atom_site_fract_z
Si Si1 0.069434 0.569981 0.850042
Si Si2 0.408155 0.930344 0.166974
Si Si3 0.663047 0.569158 0.997761
Si Si4 0.338203 0.068392 0.334923
Si Si5 0.339283 0.070824 0.695506
Si Si6 0.339704 0.925908 0.515822
O O1 0.044626 0.750000 0.847922
O O2 0.112513 0.537378 0.940033
O O3 0.123769 0.535300 0.769201
O O4 0.996184 0.462388 0.846175
O O5 0.391653 0.750000 0.147743
O O6 0.385235 0.970106 0.265448
O O7 0.357957 0.034816 0.102247
O O8 0.750000 0.526881 0.013729
O O9 0.647683 0.750000 0.018969
O O10 0.250000 0.029586 0.323947
O O11 0.354957 0.250000 0.321535
O O12 0.367829 0.017722 0.430315
O O13 0.250000 0.048447 0.702455
O O14 0.362694 0.250000 0.710024
O O15 0.369998 0.015355 0.601360
O O16 0.250000 0.924182 0.517786
O O17 0.371987 0.750000 0.514746
#
# Coordination Sequence:
#
# PCOD8244397 Si02
#       6
#     8   8   8   8   8   8
#     4  12  25  41  61  86 119 156 195 239 290 347
#     4  12  25  41  61  86 119 156 195 239 290 347
#     4  11  24  43  66  91 119 151 190 237 288 343
#     4  10  20  36  59  87 119 155 196 242 292 345
#     4  10  20  36  59  87 119 155 196 242 292 345
#     4   9  17  31  54  85 118 153 196 243 289 339
#
# _framework density 20.703616
#
# number of rings (size 3 to 8) (size 9 to 14) (size 15 to 20)
#    0.000    1.333    0.000    6.500    0.000    9.333 
#    0.000    0.833    0.000    0.000    0.000    0.000 
#    0.000    0.000    0.000    0.000    0.000    0.000 
#
# Total GULP energy -595534.481059 kJ/mol
# GULP energy per Si atom -12406.968355 kJ/mol
# Density = 2.065649 g / cm^3
# Si number density = 20.703616 Si / 1000 Ang^3
#
#
#
# Elastic Constant Matrix: (Units=GPa)
#
#
# Indices 1 2 3 4 5 6 
#
# 1 45.4666 31.2049 13.6770 0.0000 0.0000 0.0000
# 2 31.2049 83.3581 24.3173 0.0000 0.0000 0.0000
# 3 13.6770 24.3173 111.0964 0.0000 0.0000 0.0000
# 4 0.0000 0.0000 0.0000 42.4896 0.0000 0.0000
# 5 0.0000 0.0000 0.0000 0.0000 12.2191 0.0000
# 6 0.0000 0.0000 0.0000 0.0000 0.0000 26.3496
#
#
#
# Elastic Compliance Matrix: (Units=1/GPa)
#
#
# Indices 1 2 3 4 5 6 
#
# 1 0.029776 -0.010765 -0.001310 0.000000 0.000000 0.000000
# 2 -0.010765 0.016706 -0.002332 0.000000 0.000000 0.000000
# 3 -0.001310 -0.002332 0.009673 0.000000 0.000000 0.000000
# 4 0.000000 0.000000 0.000000 0.023535 0.000000 0.000000
# 5 0.000000 0.000000 0.000000 0.000000 0.081839 0.000000
# 6 0.000000 0.000000 0.000000 0.000000 0.000000 0.037951
#
#
# Mechanical properties :
#
#
# Convention : Reuss Voigt Hill
#
# Bulk Modulus (GPa) = 36.57130 42.03551 39.30341
# Shear Modulus (GPa) = 21.06093 27.59312 24.32703
#
# Velocity S-wave (km/s) = 3.19291 3.65467 3.43157
# Velocity P-wave (km/s) = 5.59423 6.17708 5.89287
#
# Compressibility (1/GPa) = 0.02734384
#
# Stress axis : x y z
#
# Youngs Moduli (GPa) = 33.58403 59.85773 103.38328
#
# Poissons Ratio (x) = 0.64434 0.13538
# Poissons Ratio (y) = 0.36152 0.24104
# Poissons Ratio (z) = 0.04398 0.13956
#
# Static dielectric constant tensor:
#      x y z
#    x 3.500450 0.000000 0.000000 
#    y 0.000000 3.804840 0.000000 
#    z 0.000000 0.000000 3.918060 
# 
# 
# High freq. dielectric constant tensor:
#      x y z
#    x 1.788080 0.000000 0.000000 
#    y 0.000000 1.822850 0.000000 
#    z 0.000000 0.000000 1.828060 
# 
# From -- ./inp_files/23631.got.cif
#   From: 2010.03.12/outbox.cif.g09.slc.cpg/sg59_12_cif.got.tgz:23631.got - 2010.04.16 16:29:54.
