data_PCOD8244175
_publ_section_title
;
Structure prediction by ZEFSAII (Michael W. Deem and Ramdas Pophale) SiO2 
 PCOD8244175
Probable space group: P M M N
;
_chemical_formula_sum "Si O2"
_cell_formula_units_Z 40
_cell_length_a 8.767768
_cell_length_b 14.543954
_cell_length_c 14.784213
_cell_angle_alpha 90.000000
_cell_angle_beta 90.000000
_cell_angle_gamma 90.000000
_cell_volume 1885.253487
_symmetry_space_group_name_H-M "P M M N"
_symmetry_group_IT_number 59
_space_group.IT_coordinate_system_code '2'
_symmetry_cell_setting 'orthorhombic'
loop_
_space_group_symop_operation_xyz
x,y,z
1/2-x,1/2-y,z
1/2+x,-y,-z
-x,1/2+y,-z
-x,-y,-z
1/2+x,1/2+y,-z
1/2-x,y,z
x,1/2-y,z
loop_
_atom_site_type_symbol
_atom_site_label
_atom_site_fract_x
_atom_site_fract_y
_atom_site_fract_z
Si Si1 0.429622 0.599980 0.490711
Si Si2 0.069594 0.399314 0.988156
Si Si3 0.569273 0.250000 0.649932
Si Si4 0.084519 0.146915 0.332207
Si Si5 0.915798 0.146686 0.165488
Si Si6 0.067652 0.750000 0.141481
O O1 0.500000 0.500000 0.500000
O O2 0.250000 0.591543 0.487840
O O3 0.488623 0.657958 0.403114
O O4 0.480526 0.653136 0.579803
O O5 0.250000 0.403076 0.974203
O O6 0.996814 0.342712 0.904813
O O7 0.000000 0.500000 0.000000
O O8 0.027429 0.348505 0.080306
O O9 0.750000 0.250000 0.647571
O O10 0.512282 0.250000 0.753706
O O11 0.250000 0.098385 0.350040
O O12 0.116884 0.250000 0.299727
O O13 0.997576 0.094315 0.249777
O O14 0.750000 0.099534 0.144269
O O15 0.882327 0.250000 0.196265
O O16 0.250000 0.750000 0.132555
#
# Coordination Sequence:
#
# PCOD8244175 Si02
#       6
#     8   8   4   8   8   4
#     4  11  22  40  63  92 126 168 217 270 327 392
#     4  12  25  42  65  95 131 172 218 272 329 398
#     4   9  22  43  68  91 126 175 221 268 332 397
#     4  10  20  35  58  89 122 157 199 251 311 376
#     4  10  20  36  61  90 121 158 201 253 314 379
#     4  11  23  45  70  95 128 175 227 282 340 403
#
# _framework density 21.217305
#
# number of rings (size 3 to 8) (size 9 to 14) (size 15 to 20)
#    0.000    1.400    2.000    3.900    0.000    3.200 
#    0.000   10.000    0.000    0.000    0.000    0.000 
#    0.000    0.000    0.000    0.000    0.000    0.000 
#
# Total GULP energy -495632.439392 kJ/mol
# GULP energy per Si atom -12390.810985 kJ/mol
# Density = 2.116901 g / cm^3
# Si number density = 21.217305 Si / 1000 Ang^3
#
#
#
# Elastic Constant Matrix: (Units=GPa)
#
#
# Indices 1 2 3 4 5 6 
#
# 1 142.1014 46.4909 61.4951 0.0000 0.0000 0.0000
# 2 46.4909 111.2604 54.6427 0.0000 0.0000 0.0000
# 3 61.4951 54.6427 191.0005 0.0000 0.0000 0.0000
# 4 0.0000 0.0000 0.0000 10.7793 0.0000 0.0000
# 5 0.0000 0.0000 0.0000 0.0000 33.4019 0.0000
# 6 0.0000 0.0000 0.0000 0.0000 0.0000 29.3208
#
#
#
# Elastic Compliance Matrix: (Units=1/GPa)
#
#
# Indices 1 2 3 4 5 6 
#
# 1 0.008805 -0.002661 -0.002074 0.000000 0.000000 0.000000
# 2 -0.002661 0.011261 -0.002365 0.000000 0.000000 0.000000
# 3 -0.002074 -0.002365 0.006580 0.000000 0.000000 0.000000
# 4 0.000000 0.000000 0.000000 0.092770 0.000000 0.000000
# 5 0.000000 0.000000 0.000000 0.000000 0.029938 0.000000
# 6 0.000000 0.000000 0.000000 0.000000 0.000000 0.034105
#
#
# Mechanical properties :
#
#
# Convention : Reuss Voigt Hill
#
# Bulk Modulus (GPa) = 80.33951 85.51329 82.92640
# Shear Modulus (GPa) = 24.77593 33.48264 29.12929
#
# Velocity S-wave (km/s) = 3.42090 3.97682 3.70929
# Velocity P-wave (km/s) = 7.31784 7.84078 7.58382
#
# Compressibility (1/GPa) = 0.01244718
#
# Stress axis : x y z
#
# Youngs Moduli (GPa) = 113.56958 88.79979 151.97937
#
# Poissons Ratio (x) = 0.23628 0.31516
# Poissons Ratio (y) = 0.30219 0.35943
# Poissons Ratio (z) = 0.23551 0.21001
#
# Static dielectric constant tensor:
#      x y z
#    x 4.271170 0.000000 0.000000 
#    y 0.000000 3.107810 0.000000 
#    z 0.000000 0.000000 4.401640 
# 
# 
# High freq. dielectric constant tensor:
#      x y z
#    x 1.842110 0.000000 0.000000 
#    y 0.000000 1.811580 0.000000 
#    z 0.000000 0.000000 1.839500 
# 
# From -- ./inp_files/20014.got.cif
#   From: 2010.03.12/outbox.cif.g09.slc.cpg/sg59_11_cif.got.tgz:20014.got - 2010.04.16 16:29:54.
