data_PCOD8244643
_publ_section_title
;
Structure prediction by ZEFSAII (Michael W. Deem and Ramdas Pophale) SiO2 
 PCOD8244643
Probable space group: P M M N
;
_chemical_formula_sum "Si O2"
_cell_formula_units_Z 64
_cell_length_a 8.970525
_cell_length_b 28.594372
_cell_length_c 12.538640
_cell_angle_alpha 90.000000
_cell_angle_beta 90.000000
_cell_angle_gamma 90.000000
_cell_volume 3216.243023
_symmetry_space_group_name_H-M "P M M N"
_symmetry_group_IT_number 59
_space_group.IT_coordinate_system_code '2'
_symmetry_cell_setting 'orthorhombic'
loop_
_space_group_symop_operation_xyz
x,y,z
1/2-x,1/2-y,z
1/2+x,-y,-z
-x,1/2+y,-z
-x,-y,-z
1/2+x,1/2+y,-z
1/2-x,y,z
x,1/2-y,z
loop_
_atom_site_type_symbol
_atom_site_label
_atom_site_fract_x
_atom_site_fract_y
_atom_site_fract_z
Si Si1 0.418212 0.452264 0.481796
Si Si2 0.073457 0.124611 0.843574
Si Si3 0.923664 0.196289 0.433155
Si Si4 0.422828 0.303284 0.020475
Si Si5 0.572420 0.980144 0.106275
Si Si6 0.927468 0.863326 0.394555
Si Si7 0.426444 0.849012 0.788306
Si Si8 0.079488 0.056852 0.235218
O O1 0.500000 0.500000 0.500000
O O2 0.250000 0.460904 0.517713
O O3 0.488916 0.411519 0.554173
O O4 0.429966 0.436001 0.360724
O O5 0.250000 0.124994 0.839377
O O6 0.018020 0.073060 0.876963
O O7 0.012667 0.138644 0.726618
O O8 0.014567 0.162816 0.927682
O O9 0.750000 0.188817 0.453549
O O10 0.963546 0.250000 0.412456
O O11 0.976012 0.167602 0.329164
O O12 0.009288 0.179973 0.538815
O O13 0.250000 0.314189 0.044945
O O14 0.444233 0.250000 0.982137
O O15 0.518141 0.310841 0.127065
O O16 0.750000 0.983822 0.100519
O O17 0.511667 0.010476 0.204827
O O18 0.500000 0.000000 0.000000
O O19 0.750000 0.861305 0.401111
O O20 0.250000 0.854711 0.796304
O O21 0.504505 0.897960 0.818782
O O22 0.250000 0.052732 0.194768
#
# Coordination Sequence:
#
# PCOD8244643 Si02
#       8
#     8   8   8   8   8   8   8   8
#     4  10  21  35  55  83 116 153 196 244 292 349
#     4   9  20  38  60  85 119 157 196 245 295 352
#     4  10  22  39  58  84 119 155 193 244 306 364
#     4  10  21  38  61  88 117 152 195 247 309 368
#     4  11  22  38  60  87 121 162 205 250 302 357
#     4  10  20  38  60  85 115 152 199 243 287 348
#     4  11  22  38  61  87 118 156 199 250 306 365
#     4  11  22  37  57  85 121 156 198 250 300 358
#
# _framework density 19.898993000000001
#
# number of rings (size 3 to 8) (size 9 to 14) (size 15 to 20)
#    0.000    1.750    1.250    3.000    0.000    5.500 
#    0.000    3.750    0.000    0.000    0.000    0.000 
#    0.000    0.000    0.000    0.000    0.000    0.000 
#
# Total GULP energy -793832.459356 kJ/mol
# GULP energy per Si atom -12403.632177 kJ/mol
# Density = 1.985370 g / cm^3
# Si number density = 19.898993 Si / 1000 Ang^3
#
#
#
# Elastic Constant Matrix: (Units=GPa)
#
#
# Indices 1 2 3 4 5 6 
#
# 1 64.5632 43.2169 37.0674 0.0000 0.0000 0.0000
# 2 43.2169 133.6705 51.3285 0.0000 0.0000 0.0000
# 3 37.0674 51.3285 122.0119 0.0000 0.0000 0.0000
# 4 0.0000 0.0000 0.0000 37.7966 0.0000 0.0000
# 5 0.0000 0.0000 0.0000 0.0000 29.4622 0.0000
# 6 0.0000 0.0000 0.0000 0.0000 0.0000 31.5267
#
#
#
# Elastic Compliance Matrix: (Units=1/GPa)
#
#
# Indices 1 2 3 4 5 6 
#
# 1 0.021508 -0.005301 -0.004304 0.000000 0.000000 0.000000
# 2 -0.005301 0.010229 -0.002693 0.000000 0.000000 0.000000
# 3 -0.004304 -0.002693 0.010636 0.000000 0.000000 0.000000
# 4 0.000000 0.000000 0.000000 0.026457 0.000000 0.000000
# 5 0.000000 0.000000 0.000000 0.000000 0.033942 0.000000
# 6 0.000000 0.000000 0.000000 0.000000 0.000000 0.031719
#
#
# Mechanical properties :
#
#
# Convention : Reuss Voigt Hill
#
# Bulk Modulus (GPa) = 56.25032 64.83013 60.54023
# Shear Modulus (GPa) = 30.30057 32.33262 31.31659
#
# Velocity S-wave (km/s) = 3.90644 4.03530 3.97139
# Velocity P-wave (km/s) = 6.97684 7.37305 7.17768
#
# Compressibility (1/GPa) = 0.01777768
#
# Stress axis : x y z
#
# Youngs Moduli (GPa) = 46.49389 97.76194 94.01762
#
# Poissons Ratio (x) = 0.51824 0.40467
# Poissons Ratio (y) = 0.24647 0.25316
# Poissons Ratio (z) = 0.20012 0.26324
#
# Static dielectric constant tensor:
#      x y z
#    x 3.643110 0.000000 0.000000 
#    y 0.000000 3.729930 0.000000 
#    z 0.000000 0.000000 4.152580 
# 
# 
# High freq. dielectric constant tensor:
#      x y z
#    x 1.758350 0.000000 0.000000 
#    y 0.000000 1.786100 0.000000 
#    z 0.000000 0.000000 1.783860 
# 
# From -- ./inp_files/15003.got.cif
#   From: 2010.03.12/outbox.cif.g09.slc.cpg/sg59_8_cif.got.tgz:15003.got - 2010.04.16 16:29:54.
