data_PCOD8244451
_publ_section_title
;
Structure prediction by ZEFSAII (Michael W. Deem and Ramdas Pophale) SiO2 
 PCOD8244451
Probable space group: P M M N
;
_chemical_formula_sum "Si O2"
_cell_formula_units_Z 64
_cell_length_a 8.771947
_cell_length_b 23.057560
_cell_length_c 15.727137
_cell_angle_alpha 90.000000
_cell_angle_beta 90.000000
_cell_angle_gamma 90.000000
_cell_volume 3180.965921
_symmetry_space_group_name_H-M "P M M N"
_symmetry_group_IT_number 59
_space_group.IT_coordinate_system_code '2'
_symmetry_cell_setting 'orthorhombic'
loop_
_space_group_symop_operation_xyz
x,y,z
1/2-x,1/2-y,z
1/2+x,-y,-z
-x,1/2+y,-z
-x,-y,-z
1/2+x,1/2+y,-z
1/2-x,y,z
x,1/2-y,z
loop_
_atom_site_type_symbol
_atom_site_label
_atom_site_fract_x
_atom_site_fract_y
_atom_site_fract_z
Si Si1 0.577518 0.534776 0.882218
Si Si2 0.072691 0.184493 0.321124
Si Si3 0.069162 0.187028 0.511647
Si Si4 0.425626 0.923816 0.720578
Si Si5 0.923428 0.089612 0.963494
Si Si6 0.429595 0.817880 0.176037
Si Si7 0.068549 0.112783 0.666888
Si Si8 0.429235 0.998155 0.406505
O O1 0.750000 0.549407 0.854997
O O2 0.463228 0.539804 0.804056
O O3 0.561862 0.468012 0.907534
O O4 0.531721 0.580736 0.955431
O O5 0.250000 0.168936 0.312859
O O6 0.043068 0.250000 0.291490
O O7 0.010658 0.174429 0.417009
O O8 0.971608 0.143033 0.261275
O O9 0.250000 0.186716 0.509697
O O10 0.010363 0.250000 0.541704
O O11 0.008088 0.141178 0.579360
O O12 0.250000 0.931651 0.697778
O O13 0.528795 0.941966 0.639666
O O14 0.750000 0.097482 0.995201
O O15 0.974686 0.146268 0.909263
O O16 0.250000 0.822501 0.191682
O O17 0.479981 0.750000 0.167636
O O18 0.512228 0.848914 0.254481
O O19 0.250000 0.108419 0.672177
O O20 0.997607 0.049014 0.659805
O O21 0.250000 0.990121 0.415636
O O22 0.500000 0.000000 0.500000
#
# Coordination Sequence:
#
# PCOD8244451 Si02
#       8
#     8   8   8   8   8   8   8   8
#     4  10  20  36  61  88 113 145 186 236 292 347
#     4   9  18  35  58  80 106 144 187 231 280 330
#     4   8  15  29  50  75 103 139 183 229 274 321
#     4  12  24  38  58  85 116 150 190 232 278 336
#     4   9  19  37  59  83 111 144 186 238 292 348
#     4  10  21  37  57  83 119 162 202 243 298 362
#     4  11  21  34  55  83 115 153 197 242 291 347
#     4  12  25  41  59  83 118 157 199 246 298 351
#
# _framework density 20.119675000000001
#
# number of rings (size 3 to 8) (size 9 to 14) (size 15 to 20)
#    0.000    1.875    0.000    5.625    0.000    4.000 
#    0.000    1.250    0.000    3.750    0.000    0.000 
#    0.000    0.000    0.000    0.000    0.000    0.000 
#
# Total GULP energy -793424.833145 kJ/mol
# GULP energy per Si atom -12397.263018 kJ/mol
# Density = 2.007388 g / cm^3
# Si number density = 20.119675 Si / 1000 Ang^3
#
#
#
# Elastic Constant Matrix: (Units=GPa)
#
#
# Indices 1 2 3 4 5 6 
#
# 1 89.8935 41.0492 35.4937 0.0000 0.0000 0.0000
# 2 41.0492 105.6517 35.9616 0.0000 0.0000 0.0000
# 3 35.4937 35.9616 72.8868 0.0000 0.0000 0.0000
# 4 0.0000 0.0000 0.0000 33.5943 0.0000 0.0000
# 5 0.0000 0.0000 0.0000 0.0000 34.2741 0.0000
# 6 0.0000 0.0000 0.0000 0.0000 0.0000 27.8011
#
#
#
# Elastic Compliance Matrix: (Units=1/GPa)
#
#
# Indices 1 2 3 4 5 6 
#
# 1 0.015081 -0.004038 -0.005352 0.000000 0.000000 0.000000
# 2 -0.004038 0.012457 -0.004180 0.000000 0.000000 0.000000
# 3 -0.005352 -0.004180 0.018388 0.000000 0.000000 0.000000
# 4 0.000000 0.000000 0.000000 0.029767 0.000000 0.000000
# 5 0.000000 0.000000 0.000000 0.000000 0.029177 0.000000
# 6 0.000000 0.000000 0.000000 0.000000 0.000000 0.035970
#
#
# Mechanical properties :
#
#
# Convention : Reuss Voigt Hill
#
# Bulk Modulus (GPa) = 53.22726 54.82679 54.02703
# Shear Modulus (GPa) = 28.69594 29.52908 29.11251
#
# Velocity S-wave (km/s) = 3.78069 3.83518 3.80803
# Velocity P-wave (km/s) = 6.75062 6.84989 6.80043
#
# Compressibility (1/GPa) = 0.01878736
#
# Stress axis : x y z
#
# Youngs Moduli (GPa) = 66.30728 80.27888 54.38241
#
# Poissons Ratio (x) = 0.32416 0.29105
# Poissons Ratio (y) = 0.26774 0.22730
# Poissons Ratio (z) = 0.35487 0.33553
#
# Static dielectric constant tensor:
#      x y z
#    x 3.478640 0.000000 0.000000 
#    y 0.000000 3.933820 0.000000 
#    z 0.000000 0.000000 3.580960 
# 
# 
# High freq. dielectric constant tensor:
#      x y z
#    x 1.772310 0.000000 0.000000 
#    y 0.000000 1.796210 0.000000 
#    z 0.000000 0.000000 1.776260 
# 
# From -- ./inp_files/21631.got.cif
#   From: 2010.03.12/outbox.cif.g09.slc.cpg/sg59_11_cif.got.tgz:21631.got - 2010.04.16 16:29:54.
