data_PCOD8244736
_publ_section_title
;
Structure prediction by ZEFSAII (Michael W. Deem and Ramdas Pophale) SiO2 
 PCOD8244736
Probable space group: P M M N
;
_chemical_formula_sum "Si O2"
_cell_formula_units_Z 64
_cell_length_a 18.762923
_cell_length_b 18.915655
_cell_length_c 9.058463
_cell_angle_alpha 90.000000
_cell_angle_beta 90.000000
_cell_angle_gamma 90.000000
_cell_volume 3214.966082
_symmetry_space_group_name_H-M "P M M N"
_symmetry_group_IT_number 59
_space_group.IT_coordinate_system_code '2'
_symmetry_cell_setting 'orthorhombic'
loop_
_space_group_symop_operation_xyz
x,y,z
1/2-x,1/2-y,z
1/2+x,-y,-z
-x,1/2+y,-z
-x,-y,-z
1/2+x,1/2+y,-z
1/2-x,y,z
x,1/2-y,z
loop_
_atom_site_type_symbol
_atom_site_label
_atom_site_fract_x
_atom_site_fract_y
_atom_site_fract_z
Si Si1 0.942559 0.551500 0.149332
Si Si2 0.123700 0.559799 0.642032
Si Si3 0.906821 0.996450 0.831671
Si Si4 0.096430 0.329563 0.650956
Si Si5 0.067104 0.827264 0.430946
Si Si6 0.169999 0.674723 0.853935
Si Si7 0.832372 0.368705 0.834491
Si Si8 0.331592 0.064300 0.437325
O O1 0.919139 0.480393 0.231812
O O2 0.900038 0.620654 0.204252
O O3 0.026956 0.551678 0.188255
O O4 0.923735 0.549287 0.976598
O O5 0.071908 0.606886 0.541841
O O6 0.172269 0.615756 0.727554
O O7 0.167677 0.505054 0.542162
O O8 0.889129 0.944154 0.695392
O O9 0.837092 0.045805 0.839786
O O10 0.125707 0.250000 0.681769
O O11 0.143958 0.365399 0.523593
O O12 0.014296 0.326672 0.613552
O O13 0.084417 0.750000 0.502075
O O14 0.121589 0.835550 0.296008
O O15 0.250000 0.685393 0.904710
O O16 0.138560 0.750000 0.795175
O O17 0.132456 0.655699 0.009439
O O18 0.750000 0.347868 0.808300
O O19 0.250000 0.074962 0.382996
#
# Coordination Sequence:
#
# PCOD8244736 Si02
#       8
#     8   8   8   8   8   8   8   8
#     4  10  21  37  63  88 115 153 195 250 305 356
#     4  11  20  35  56  85 115 151 197 243 292 348
#     4  11  20  37  60  89 117 150 198 246 299 358
#     4  10  22  42  63  88 120 156 196 248 310 369
#     4  11  22  36  58  88 124 163 200 241 291 355
#     4  10  21  35  49  73 115 161 197 234 282 340
#     4  11  21  36  55  80 119 162 200 241 287 347
#     4  11  23  39  62  88 115 154 200 253 309 361
#
# _framework density 19.906897000000001
#
# number of rings (size 3 to 8) (size 9 to 14) (size 15 to 20)
#    0.000    1.375    3.750    2.250    0.000    3.500 
#    0.000    1.250    0.000    0.000    0.000    0.000 
#    0.000    0.000    0.000    0.000    0.000    0.000 
#
# Total GULP energy -792897.627463 kJ/mol
# GULP energy per Si atom -12389.025429 kJ/mol
# Density = 1.986159 g / cm^3
# Si number density = 19.906897 Si / 1000 Ang^3
#
#
#
# Elastic Constant Matrix: (Units=GPa)
#
#
# Indices 1 2 3 4 5 6 
#
# 1 70.0633 19.7473 27.0810 0.0000 0.0000 0.0000
# 2 19.7473 138.8653 43.9254 0.0000 0.0000 0.0000
# 3 27.0810 43.9254 107.8426 0.0000 0.0000 0.0000
# 4 0.0000 0.0000 0.0000 19.7378 0.0000 0.0000
# 5 0.0000 0.0000 0.0000 0.0000 23.6625 0.0000
# 6 0.0000 0.0000 0.0000 0.0000 0.0000 75.1101
#
#
#
# Elastic Compliance Matrix: (Units=1/GPa)
#
#
# Indices 1 2 3 4 5 6 
#
# 1 0.015966 -0.001150 -0.003541 0.000000 0.000000 0.000000
# 2 -0.001150 0.008349 -0.003112 0.000000 0.000000 0.000000
# 3 -0.003541 -0.003112 0.011429 0.000000 0.000000 0.000000
# 4 0.000000 0.000000 0.000000 0.050664 0.000000 0.000000
# 5 0.000000 0.000000 0.000000 0.000000 0.042261 0.000000
# 6 0.000000 0.000000 0.000000 0.000000 0.000000 0.013314
#
#
# Mechanical properties :
#
#
# Convention : Reuss Voigt Hill
#
# Bulk Modulus (GPa) = 49.65649 55.36429 52.51039
# Shear Modulus (GPa) = 30.43185 38.76992 34.60089
#
# Velocity S-wave (km/s) = 3.91411 4.41791 4.17362
# Velocity P-wave (km/s) = 6.73985 7.34138 7.04704
#
# Compressibility (1/GPa) = 0.02013836
#
# Stress axis : x y z
#
# Youngs Moduli (GPa) = 62.63476 119.77302 87.49403
#
# Poissons Ratio (x) = 0.13779 0.30978
# Poissons Ratio (y) = 0.07206 0.27226
# Poissons Ratio (z) = 0.22177 0.37271
#
# Static dielectric constant tensor:
#      x y z
#    x 3.397490 0.000000 0.000000 
#    y 0.000000 4.007530 0.000000 
#    z 0.000000 0.000000 3.620310 
# 
# 
# High freq. dielectric constant tensor:
#      x y z
#    x 1.758200 0.000000 0.000000 
#    y 0.000000 1.779750 0.000000 
#    z 0.000000 0.000000 1.777270 
# 
# From -- ./inp_files/11632.got.cif
#   From: 2010.03.12/outbox.cif.g09.slc.cpg/sg59_6_cif.got.tgz:11632.got - 2010.04.16 16:29:54.
