data_PCOD8244976
_publ_section_title
;
Structure prediction by ZEFSAII (Michael W. Deem and Ramdas Pophale) SiO2 
 PCOD8244976
Probable space group: P M M N
;
_chemical_formula_sum "Si O2"
_cell_formula_units_Z 64
_cell_length_a 8.800147
_cell_length_b 18.597337
_cell_length_c 19.864881
_cell_angle_alpha 90.000000
_cell_angle_beta 90.000000
_cell_angle_gamma 90.000000
_cell_volume 3251.072507
_symmetry_space_group_name_H-M "P M M N"
_symmetry_group_IT_number 59
_space_group.IT_coordinate_system_code '2'
_symmetry_cell_setting 'orthorhombic'
loop_
_space_group_symop_operation_xyz
x,y,z
1/2-x,1/2-y,z
1/2+x,-y,-z
-x,1/2+y,-z
-x,-y,-z
1/2+x,1/2+y,-z
1/2-x,y,z
x,1/2-y,z
loop_
_atom_site_type_symbol
_atom_site_label
_atom_site_fract_x
_atom_site_fract_y
_atom_site_fract_z
Si Si1 0.427905 0.930938 0.315536
Si Si2 0.070795 0.429612 0.914656
Si Si3 0.072710 0.918714 0.698418
Si Si4 0.575563 0.575222 0.935478
Si Si5 0.070789 0.333258 0.792169
Si Si6 0.072452 0.572298 0.471467
Si Si7 0.423777 0.167502 0.188047
Si Si8 0.928951 0.667770 0.577572
O O1 0.250000 0.943515 0.303803
O O2 0.484871 0.862521 0.273565
O O3 0.465763 0.917323 0.393396
O O4 0.518613 0.000272 0.289925
O O5 0.250000 0.428584 0.910591
O O6 0.007979 0.374780 0.858407
O O7 0.013552 0.510005 0.900090
O O8 0.013831 0.406612 0.989546
O O9 0.250000 0.916817 0.681576
O O10 0.040113 0.876127 0.766480
O O11 0.981873 0.882932 0.637667
O O12 0.750000 0.551046 0.940229
O O13 0.554218 0.645383 0.889659
O O14 0.250000 0.344704 0.782424
O O15 0.029239 0.250000 0.801109
O O16 0.250000 0.567475 0.485281
O O17 0.000000 0.500000 0.500000
O O18 0.005355 0.641965 0.508555
O O19 0.250000 0.153261 0.211461
O O20 0.467209 0.250000 0.194800
O O21 0.750000 0.659941 0.570011
O O22 0.976882 0.750000 0.592109
#
# Coordination Sequence:
#
# PCOD8244976 Si02
#       8
#     8   8   8   8   8   8   8   8
#     4  11  24  41  63  88 117 153 194 241 290 346
#     4   9  18  34  56  82 112 148 192 243 294 345
#     4  12  24  38  60  86 115 153 195 241 289 346
#     4   9  18  33  55  82 111 147 194 242 291 349
#     4  10  22  39  59  86 120 157 199 247 298 351
#     4  11  23  40  64  90 118 153 195 244 294 350
#     4  10  21  36  54  79 114 153 191 235 288 345
#     4  11  24  41  62  89 122 157 193 238 293 351
#
# _framework density 19.685813
#
# number of rings (size 3 to 8) (size 9 to 14) (size 15 to 20)
#    0.000    1.625    1.250    3.375    0.000    8.500 
#    0.000    5.000    0.000    0.000    0.000    5.250 
#    0.000    0.000    0.000    0.000    0.000    0.000 
#
# Total GULP energy -793845.311136 kJ/mol
# GULP energy per Si atom -12403.832986 kJ/mol
# Density = 1.964101 g / cm^3
# Si number density = 19.685813 Si / 1000 Ang^3
#
#
#
# Elastic Constant Matrix: (Units=GPa)
#
#
# Indices 1 2 3 4 5 6 
#
# 1 57.9588 28.9639 38.0968 0.0000 0.0000 0.0000
# 2 28.9639 94.1409 52.0818 0.0000 0.0000 0.0000
# 3 38.0968 52.0818 120.5174 0.0000 0.0000 0.0000
# 4 0.0000 0.0000 0.0000 29.1522 0.0000 0.0000
# 5 0.0000 0.0000 0.0000 0.0000 29.9103 0.0000
# 6 0.0000 0.0000 0.0000 0.0000 0.0000 30.5935
#
#
#
# Elastic Compliance Matrix: (Units=1/GPa)
#
#
# Indices 1 2 3 4 5 6 
#
# 1 0.022865 -0.003990 -0.005504 0.000000 0.000000 0.000000
# 2 -0.003990 0.014656 -0.005072 0.000000 0.000000 0.000000
# 3 -0.005504 -0.005072 0.012229 0.000000 0.000000 0.000000
# 4 0.000000 0.000000 0.000000 0.034303 0.000000 0.000000
# 5 0.000000 0.000000 0.000000 0.000000 0.033433 0.000000
# 6 0.000000 0.000000 0.000000 0.000000 0.000000 0.032687
#
#
# Mechanical properties :
#
#
# Convention : Reuss Voigt Hill
#
# Bulk Modulus (GPa) = 48.49989 56.76690 52.63340
# Shear Modulus (GPa) = 26.85597 28.16285 27.50941
#
# Velocity S-wave (km/s) = 3.69755 3.78645 3.74227
# Velocity P-wave (km/s) = 6.55131 6.92931 6.74296
#
# Compressibility (1/GPa) = 0.02061860
#
# Stress axis : x y z
#
# Youngs Moduli (GPa) = 43.73462 68.23059 81.77048
#
# Poissons Ratio (x) = 0.27224 0.45003
# Poissons Ratio (y) = 0.17450 0.41477
# Poissons Ratio (z) = 0.24070 0.34609
#
# Static dielectric constant tensor:
#      x y z
#    x 3.570070 0.000000 0.000000 
#    y 0.000000 3.612270 0.000000 
#    z 0.000000 0.000000 3.582770 
# 
# 
# High freq. dielectric constant tensor:
#      x y z
#    x 1.764260 0.000000 0.000000 
#    y 0.000000 1.764820 0.000000 
#    z 0.000000 0.000000 1.780740 
# 
# From -- ./inp_files/29546.got.cif
#   From: 2010.03.12/outbox.cif.g09.slc.cpg/sg59_15_cif.got.tgz:29546.got - 2010.04.16 16:29:54.
