data_PCOD8244991
_publ_section_title
;
Structure prediction by ZEFSAII (Michael W. Deem and Ramdas Pophale) SiO2 
 PCOD8244991
Probable space group: P M M N
;
_chemical_formula_sum "Si O2"
_cell_formula_units_Z 64
_cell_length_a 9.252093
_cell_length_b 14.316531
_cell_length_c 25.955581
_cell_angle_alpha 90.000000
_cell_angle_beta 90.000000
_cell_angle_gamma 90.000000
_cell_volume 3438.021136
_symmetry_space_group_name_H-M "P M M N"
_symmetry_group_IT_number 59
_space_group.IT_coordinate_system_code '2'
_symmetry_cell_setting 'orthorhombic'
loop_
_space_group_symop_operation_xyz
x,y,z
1/2-x,1/2-y,z
1/2+x,-y,-z
-x,1/2+y,-z
-x,-y,-z
1/2+x,1/2+y,-z
1/2-x,y,z
x,1/2-y,z
loop_
_atom_site_type_symbol
_atom_site_label
_atom_site_fract_x
_atom_site_fract_y
_atom_site_fract_z
Si Si1 0.909671 0.138974 0.996070
Si Si2 0.084402 0.997500 0.552607
Si Si3 0.582366 0.492308 0.827670
Si Si4 0.418882 0.857227 0.889346
Si Si5 0.920029 0.142087 0.359480
Si Si6 0.417746 0.142629 0.638337
Si Si7 0.418048 0.998237 0.293201
Si Si8 0.414543 0.139553 0.899044
O O1 0.750000 0.100990 0.981864
O O2 0.904886 0.250000 0.997245
O O3 0.955413 0.104998 0.053112
O O4 0.022872 0.102819 0.953622
O O5 0.250000 0.988775 0.537352
O O6 0.037277 0.908337 0.586991
O O7 0.052955 0.092563 0.583839
O O8 0.000000 0.000000 0.500000
O O9 0.750000 0.488060 0.842197
O O10 0.514495 0.587222 0.848914
O O11 0.556999 0.490284 0.767160
O O12 0.503514 0.402915 0.851931
O O13 0.250000 0.871694 0.877562
O O14 0.463268 0.750000 0.883315
O O15 0.750000 0.130231 0.348712
O O16 0.966326 0.250000 0.362657
O O17 0.005047 0.092512 0.313084
O O18 0.250000 0.132123 0.653842
O O19 0.464674 0.250000 0.633139
O O20 0.512864 0.094380 0.682250
O O21 0.250000 0.002996 0.307940
O O22 0.250000 0.104899 0.895870
O O23 0.427460 0.250000 0.894462
#
# Coordination Sequence:
#
# PCOD8244991 Si02
#       8
#     8   8   8   8   8   8   8   8
#     4   8  15  31  54  77 103 134 166 206 259 314
#     4   9  18  32  51  80 117 149 178 216 259 306
#     4  11  24  38  53  76 107 141 173 212 267 323
#     4   9  19  36  57  80 105 135 173 215 258 310
#     4   9  19  37  59  80 105 143 186 222 262 313
#     4   9  19  37  59  80 105 142 184 222 264 314
#     4  10  22  38  54  77 107 136 174 225 273 316
#     4  10  21  36  55  79 104 133 173 217 259 311
#
# _framework density 18.615359000000002
#
# number of rings (size 3 to 8) (size 9 to 14) (size 15 to 20)
#    0.000    2.625    0.000    2.625    0.000    8.000 
#    0.000    6.250    0.000    0.000    0.000    0.000 
#    0.000    0.000    0.000    0.000    0.000    0.000 
#
# Total GULP energy -793610.861600 kJ/mol
# GULP energy per Si atom -12400.169713 kJ/mol
# Density = 1.857299 g / cm^3
# Si number density = 18.615359 Si / 1000 Ang^3
#
#
#
# Elastic Constant Matrix: (Units=GPa)
#
#
# Indices 1 2 3 4 5 6 
#
# 1 103.0875 44.3305 69.0239 0.0000 0.0000 0.0000
# 2 44.3305 109.8998 38.8530 0.0000 0.0000 0.0000
# 3 69.0239 38.8530 106.2816 0.0000 0.0000 0.0000
# 4 0.0000 0.0000 0.0000 19.1222 0.0000 0.0000
# 5 0.0000 0.0000 0.0000 0.0000 35.4730 0.0000
# 6 0.0000 0.0000 0.0000 0.0000 0.0000 21.8594
#
#
#
# Elastic Compliance Matrix: (Units=1/GPa)
#
#
# Indices 1 2 3 4 5 6 
#
# 1 0.018366 -0.003665 -0.010588 0.000000 0.000000 0.000000
# 2 -0.003665 0.011181 -0.001707 0.000000 0.000000 0.000000
# 3 -0.010588 -0.001707 0.016909 0.000000 0.000000 0.000000
# 4 0.000000 0.000000 0.000000 0.052295 0.000000 0.000000
# 5 0.000000 0.000000 0.000000 0.000000 0.028190 0.000000
# 6 0.000000 0.000000 0.000000 0.000000 0.000000 0.045747
#
#
# Mechanical properties :
#
#
# Convention : Reuss Voigt Hill
#
# Bulk Modulus (GPa) = 68.79421 69.29819 69.04620
# Shear Modulus (GPa) = 23.87158 26.42834 25.14996
#
# Velocity S-wave (km/s) = 3.58489 3.77199 3.67963
# Velocity P-wave (km/s) = 7.36010 7.50185 7.43131
#
# Compressibility (1/GPa) = 0.01453611
#
# Stress axis : x y z
#
# Youngs Moduli (GPa) = 54.44907 89.43623 59.13958
#
# Poissons Ratio (x) = 0.32780 0.62615
# Poissons Ratio (y) = 0.19957 0.10096
# Poissons Ratio (z) = 0.57649 0.15268
#
# Static dielectric constant tensor:
#      x y z
#    x 3.603910 0.000000 0.000000 
#    y 0.000000 3.546160 0.000000 
#    z 0.000000 0.000000 3.339270 
# 
# 
# High freq. dielectric constant tensor:
#      x y z
#    x 1.724140 0.000000 0.000000 
#    y 0.000000 1.726580 0.000000 
#    z 0.000000 0.000000 1.718020 
# 
# From -- ./inp_files/31660.got.cif
#   From: 2010.03.12/outbox.cif.g09.slc.cpg/sg59_16_cif.got.tgz:31660.got - 2010.04.16 16:29:54.
