data_PCOD8244575
_publ_section_title
;
Structure prediction by ZEFSAII (Michael W. Deem and Ramdas Pophale) SiO2 
 PCOD8244575
Probable space group: P M M N
;
_chemical_formula_sum "Si O2"
_cell_formula_units_Z 64
_cell_length_a 23.980524
_cell_length_b 8.714576
_cell_length_c 15.356469
_cell_angle_alpha 90.000000
_cell_angle_beta 90.000000
_cell_angle_gamma 90.000000
_cell_volume 3209.196411
_symmetry_space_group_name_H-M "P M M N"
_symmetry_group_IT_number 59
_space_group.IT_coordinate_system_code '2'
_symmetry_cell_setting 'orthorhombic'
loop_
_space_group_symop_operation_xyz
x,y,z
1/2-x,1/2-y,z
1/2+x,-y,-z
-x,1/2+y,-z
-x,-y,-z
1/2+x,1/2+y,-z
1/2-x,y,z
x,1/2-y,z
loop_
_atom_site_type_symbol
_atom_site_label
_atom_site_fract_x
_atom_site_fract_y
_atom_site_fract_z
Si Si1 0.312647 0.568861 0.454499
Si Si2 0.612999 0.927536 0.688669
Si Si3 0.514289 0.928535 0.128474
Si Si4 0.602443 0.929296 0.887439
Si Si5 0.988618 0.074499 0.307530
Si Si6 0.685865 0.572760 0.210604
Si Si7 0.627239 0.072755 0.374065
Si Si8 0.124025 0.570188 0.943820
O O1 0.250000 0.500950 0.455155
O O2 0.310939 0.750000 0.459732
O O3 0.343067 0.523623 0.365986
O O4 0.346187 0.503340 0.537953
O O5 0.626964 0.750000 0.675568
O O6 0.619762 0.976609 0.789489
O O7 0.550010 0.965305 0.655238
O O8 0.501576 0.750000 0.114474
O O9 0.461870 0.027049 0.096552
O O10 0.527138 0.961676 0.229357
O O11 0.567721 0.977438 0.074100
O O12 0.610901 0.750000 0.902341
O O13 0.640733 0.021680 0.957196
O O14 0.989955 0.250000 0.271702
O O15 0.940235 0.055015 0.380069
O O16 0.750000 0.544331 0.234162
O O17 0.672712 0.750000 0.191994
O O18 0.649385 0.518957 0.291593
O O19 0.671850 0.477798 0.123713
O O20 0.644210 0.250000 0.361899
O O21 0.113577 0.750000 0.936317
#
# Coordination Sequence:
#
# PCOD8244575 Si02
#       8
#     8   8   8   8   8   8   8   8
#     4  10  22  39  59  85 115 150 197 246 289 341
#     4   9  20  38  59  84 116 151 191 240 295 349
#     4  11  20  32  53  84 120 155 192 233 282 341
#     4  10  21  38  58  82 115 151 192 241 291 343
#     4   9  18  34  56  85 119 154 190 235 291 353
#     4  11  24  40  58  84 118 154 196 246 293 344
#     4  10  20  37  62  87 116 153 192 234 290 354
#     4  12  23  36  56  83 115 153 196 237 285 346
#
# _framework density 19.942686999999999
#
# number of rings (size 3 to 8) (size 9 to 14) (size 15 to 20)
#    0.000    1.750    1.250    4.500    0.000    5.250 
#    0.000    0.625    0.000    0.750    0.000    0.000 
#    0.000    0.000    0.000    0.000    0.000    0.000 
#
# Total GULP energy -793638.142969 kJ/mol
# GULP energy per Si atom -12400.595984 kJ/mol
# Density = 1.989730 g / cm^3
# Si number density = 19.942687 Si / 1000 Ang^3
#
#
#
# Elastic Constant Matrix: (Units=GPa)
#
#
# Indices 1 2 3 4 5 6 
#
# 1 86.9958 22.8514 56.5004 0.0000 0.0000 0.0000
# 2 22.8514 58.7275 27.1714 0.0000 0.0000 0.0000
# 3 56.5004 27.1714 92.5596 0.0000 0.0000 0.0000
# 4 0.0000 0.0000 0.0000 32.0446 0.0000 0.0000
# 5 0.0000 0.0000 0.0000 0.0000 26.6475 0.0000
# 6 0.0000 0.0000 0.0000 0.0000 0.0000 26.9197
#
#
#
# Elastic Compliance Matrix: (Units=1/GPa)
#
#
# Indices 1 2 3 4 5 6 
#
# 1 0.019330 -0.002386 -0.011099 0.000000 0.000000 0.000000
# 2 -0.002386 0.019999 -0.004414 0.000000 0.000000 0.000000
# 3 -0.011099 -0.004414 0.018875 0.000000 0.000000 0.000000
# 4 0.000000 0.000000 0.000000 0.031207 0.000000 0.000000
# 5 0.000000 0.000000 0.000000 0.000000 0.037527 0.000000
# 6 0.000000 0.000000 0.000000 0.000000 0.000000 0.037147
#
#
# Mechanical properties :
#
#
# Convention : Reuss Voigt Hill
#
# Bulk Modulus (GPa) = 44.63363 50.14769 47.39066
# Shear Modulus (GPa) = 24.11371 25.90633 25.01002
#
# Velocity S-wave (km/s) = 3.48106 3.60813 3.54516
# Velocity P-wave (km/s) = 6.21181 6.52370 6.36966
#
# Compressibility (1/GPa) = 0.02240463
#
# Stress axis : x y z
#
# Youngs Moduli (GPa) = 51.73318 50.00357 52.98118
#
# Poissons Ratio (x) = 0.11933 0.58803
# Poissons Ratio (y) = 0.12345 0.23386
# Poissons Ratio (z) = 0.57418 0.22072
#
# Static dielectric constant tensor:
#      x y z
#    x 3.637370 0.000000 0.000000 
#    y 0.000000 3.529700 0.000000 
#    z 0.000000 0.000000 3.716970 
# 
# 
# High freq. dielectric constant tensor:
#      x y z
#    x 1.765590 0.000000 0.000000 
#    y 0.000000 1.774260 0.000000 
#    z 0.000000 0.000000 1.777160 
# 
# From -- ./inp_files/24799.got.cif
#   From: 2010.03.12/outbox.cif.g09.slc.cpg/sg59_13_cif.got.tgz:24799.got - 2010.04.16 16:29:54.
