data_PCOD8244523
_publ_section_title
;
Structure prediction by ZEFSAII (Michael W. Deem and Ramdas Pophale) SiO2 
 PCOD8244523
Probable space group: P M M N
;
_chemical_formula_sum "Si O2"
_cell_formula_units_Z 48
_cell_length_a 9.104265
_cell_length_b 18.400234
_cell_length_c 14.643770
_cell_angle_alpha 90.000000
_cell_angle_beta 90.000000
_cell_angle_gamma 90.000000
_cell_volume 2453.133230
_symmetry_space_group_name_H-M "P M M N"
_symmetry_group_IT_number 59
_space_group.IT_coordinate_system_code '2'
_symmetry_cell_setting 'orthorhombic'
loop_
_space_group_symop_operation_xyz
x,y,z
1/2-x,1/2-y,z
1/2+x,-y,-z
-x,1/2+y,-z
-x,-y,-z
1/2+x,1/2+y,-z
1/2-x,y,z
x,1/2-y,z
loop_
_atom_site_type_symbol
_atom_site_label
_atom_site_fract_x
_atom_site_fract_y
_atom_site_fract_z
Si Si1 0.582164 0.328565 0.323387
Si Si2 0.576315 0.860647 0.851237
Si Si3 0.075547 0.519198 0.593903
Si Si4 0.580811 0.002481 0.095040
Si Si5 0.926533 0.750000 0.208276
Si Si6 0.076823 0.250000 0.997044
Si Si7 0.580682 0.595532 0.258671
O O1 0.750000 0.342656 0.291435
O O2 0.572055 0.250000 0.376425
O O3 0.477062 0.316702 0.236518
O O4 0.529358 0.397617 0.382826
O O5 0.750000 0.872314 0.848001
O O6 0.528671 0.820906 0.945204
O O7 0.491157 0.936020 0.843109
O O8 0.250000 0.512972 0.584349
O O9 0.011376 0.461888 0.669445
O O10 0.000000 0.500000 0.500000
O O11 0.750000 0.019451 0.076306
O O12 0.560926 0.929086 0.153302
O O13 0.500000 0.000000 0.000000
O O14 0.750000 0.750000 0.203429
O O15 0.984420 0.822080 0.262052
O O16 0.991665 0.750000 0.104552
O O17 0.250000 0.250000 0.988790
O O18 0.750000 0.598949 0.284575
#
# Coordination Sequence:
#
# PCOD8244523 Si02
#       7
#     8   8   8   8   4   4   8
#     4  10  20  37  60  83 114 153 188 228 288 357
#     4  11  20  32  52  81 115 151 192 238 285 339
#     4  10  21  40  61  86 113 145 189 238 295 352
#     4  11  21  35  53  79 112 152 196 242 288 347
#     4   9  16  30  52  76 105 148 188 223 277 336
#     4   9  18  30  47  78 117 150 186 233 279 330
#     4   9  18  34  56  78 110 147 185 232 286 347
#
# _framework density 19.566813
#
# number of rings (size 3 to 8) (size 9 to 14) (size 15 to 20)
#    0.000    2.000    2.500    2.000    0.000    3.333 
#    1.500    0.000    0.000    0.000    0.000    4.083 
#    0.000    0.000    0.000    0.000    0.000    0.000 
#
# Total GULP energy -594771.934296 kJ/mol
# GULP energy per Si atom -12391.081964 kJ/mol
# Density = 1.952228 g / cm^3
# Si number density = 19.566813 Si / 1000 Ang^3
#
#
#
# Elastic Constant Matrix: (Units=GPa)
#
#
# Indices 1 2 3 4 5 6 
#
# 1 54.4593 33.6701 26.8594 0.0000 0.0000 0.0000
# 2 33.6701 176.9829 63.2024 0.0000 0.0000 0.0000
# 3 26.8594 63.2024 113.0854 0.0000 0.0000 0.0000
# 4 0.0000 0.0000 0.0000 21.6549 0.0000 0.0000
# 5 0.0000 0.0000 0.0000 0.0000 30.6811 0.0000
# 6 0.0000 0.0000 0.0000 0.0000 0.0000 14.8920
#
#
#
# Elastic Compliance Matrix: (Units=1/GPa)
#
#
# Indices 1 2 3 4 5 6 
#
# 1 0.021919 -0.002887 -0.003593 0.000000 0.000000 0.000000
# 2 -0.002887 0.007439 -0.003472 0.000000 0.000000 0.000000
# 3 -0.003593 -0.003472 0.011637 0.000000 0.000000 0.000000
# 4 0.000000 0.000000 0.000000 0.046179 0.000000 0.000000
# 5 0.000000 0.000000 0.000000 0.000000 0.032593 0.000000
# 6 0.000000 0.000000 0.000000 0.000000 0.000000 0.067150
#
#
# Mechanical properties :
#
#
# Convention : Reuss Voigt Hill
#
# Bulk Modulus (GPa) = 47.41179 65.77683 56.59431
# Shear Modulus (GPa) = 23.38068 28.16530 25.77299
#
# Velocity S-wave (km/s) = 3.46050 3.79811 3.63323
# Velocity P-wave (km/s) = 6.34430 7.27487 6.82546
#
# Compressibility (1/GPa) = 0.02109180
#
# Stress axis : x y z
#
# Youngs Moduli (GPa) = 45.62217 134.41871 85.93510
#
# Poissons Ratio (x) = 0.38808 0.30873
# Poissons Ratio (y) = 0.13171 0.29838
# Poissons Ratio (z) = 0.16390 0.46672
#
# Static dielectric constant tensor:
#      x y z
#    x 3.213050 0.000000 0.000000 
#    y 0.000000 4.065760 0.000000 
#    z 0.000000 0.000000 3.392270 
# 
# 
# High freq. dielectric constant tensor:
#      x y z
#    x 1.722890 0.000000 0.000000 
#    y 0.000000 1.786600 0.000000 
#    z 0.000000 0.000000 1.741910 
# 
# From -- ./inp_files/20613.got.cif
#   From: 2010.03.12/outbox.cif.g09.slc.cpg/sg59_11_cif.got.tgz:20613.got - 2010.04.16 16:29:54.
