data_PCOD8244999
_publ_section_title
;
Structure prediction by ZEFSAII (Michael W. Deem and Ramdas Pophale) SiO2 
 PCOD8244999
Probable space group: P M M N
;
_chemical_formula_sum "Si O2"
_cell_formula_units_Z 64
_cell_length_a 19.503991
_cell_length_b 8.941090
_cell_length_c 19.895536
_cell_angle_alpha 90.000000
_cell_angle_beta 90.000000
_cell_angle_gamma 90.000000
_cell_volume 3469.521621
_symmetry_space_group_name_H-M "P M M N"
_symmetry_group_IT_number 59
_space_group.IT_coordinate_system_code '2'
_symmetry_cell_setting 'orthorhombic'
loop_
_space_group_symop_operation_xyz
x,y,z
1/2-x,1/2-y,z
1/2+x,-y,-z
-x,1/2+y,-z
-x,-y,-z
1/2+x,1/2+y,-z
1/2-x,y,z
x,1/2-y,z
loop_
_atom_site_type_symbol
_atom_site_label
_atom_site_fract_x
_atom_site_fract_y
_atom_site_fract_z
Si Si1 0.068124 0.076829 0.172042
Si Si2 0.329774 0.579539 0.921352
Si Si3 0.171291 0.576545 0.430756
Si Si4 0.329403 0.579091 0.075840
Si Si5 0.330086 0.076667 0.568181
Si Si6 0.427005 0.074435 0.820175
Si Si7 0.420906 0.575512 0.679841
Si Si8 0.078170 0.079040 0.325557
O O1 0.049206 0.250000 0.163346
O O2 0.093117 0.044784 0.247672
O O3 0.128149 0.032978 0.121772
O O4 0.000537 0.983219 0.154873
O O5 0.250000 0.549501 0.909032
O O6 0.348418 0.750000 0.902052
O O7 0.371516 0.464409 0.876386
O O8 0.348921 0.549378 0.998688
O O9 0.250000 0.541178 0.412557
O O10 0.160337 0.750000 0.447070
O O11 0.147468 0.483060 0.495411
O O12 0.125306 0.531396 0.367798
O O13 0.250000 0.544315 0.088265
O O14 0.346156 0.750000 0.095396
O O15 0.250000 0.047696 0.580378
O O16 0.349285 0.250000 0.572551
O O17 0.370797 0.987581 0.624091
O O18 0.430410 0.250000 0.809863
O O19 0.403967 0.001458 0.750321
O O20 0.407359 0.750000 0.689248
O O21 0.498991 0.544530 0.657765
O O22 0.096549 0.250000 0.343449
#
# Coordination Sequence:
#
# PCOD8244999 Si02
#       8
#     8   8   8   8   8   8   8   8
#     4  10  21  37  56  79 109 144 182 222 267 322
#     4   9  19  37  58  79 107 143 180 220 268 321
#     4  10  21  36  55  80 108 140 178 218 263 315
#     4   9  19  36  57  81 109 141 179 223 270 320
#     4  10  21  37  57  81 109 141 178 220 264 312
#     4  11  22  36  56  81 109 141 179 224 270 317
#     4  10  21  38  58  80 108 141 178 220 266 319
#     4   9  20  37  55  77 105 139 178 218 262 313
#
# _framework density 18.446345999999998
#
# number of rings (size 3 to 8) (size 9 to 14) (size 15 to 20)
#    0.000    2.250    0.000    4.125    0.000    7.500 
#    0.000    3.750    0.000    0.000    0.000    0.000 
#    0.000    0.000    0.000    0.000    0.000    0.000 
#
# Total GULP energy -793868.453562 kJ/mol
# GULP energy per Si atom -12404.194587 kJ/mol
# Density = 1.840436 g / cm^3
# Si number density = 18.446346 Si / 1000 Ang^3
#
#
#
# Elastic Constant Matrix: (Units=GPa)
#
#
# Indices 1 2 3 4 5 6 
#
# 1 77.1132 54.9836 66.5771 0.0000 0.0000 0.0000
# 2 54.9836 120.1177 63.1938 0.0000 0.0000 0.0000
# 3 66.5771 63.1938 104.7928 0.0000 0.0000 0.0000
# 4 0.0000 0.0000 0.0000 37.9533 0.0000 0.0000
# 5 0.0000 0.0000 0.0000 0.0000 38.9597 0.0000
# 6 0.0000 0.0000 0.0000 0.0000 0.0000 35.4278
#
#
#
# Elastic Compliance Matrix: (Units=1/GPa)
#
#
# Indices 1 2 3 4 5 6 
#
# 1 0.031122 -0.005630 -0.016377 0.000000 0.000000 0.000000
# 2 -0.005630 0.013212 -0.004391 0.000000 0.000000 0.000000
# 3 -0.016377 -0.004391 0.022595 0.000000 0.000000 0.000000
# 4 0.000000 0.000000 0.000000 0.026348 0.000000 0.000000
# 5 0.000000 0.000000 0.000000 0.000000 0.025668 0.000000
# 6 0.000000 0.000000 0.000000 0.000000 0.000000 0.028226
#
#
# Mechanical properties :
#
#
# Convention : Reuss Voigt Hill
#
# Bulk Modulus (GPa) = 70.75371 74.61473 72.68422
# Shear Modulus (GPa) = 24.42861 30.28613 27.35737
#
# Velocity S-wave (km/s) = 3.64305 4.05637 3.85525
# Velocity P-wave (km/s) = 7.49236 7.90419 7.70103
#
# Compressibility (1/GPa) = 0.01413353
#
# Stress axis : x y z
#
# Youngs Moduli (GPa) = 32.13178 75.68814 44.25716
#
# Poissons Ratio (x) = 0.42611 0.72482
# Poissons Ratio (y) = 0.18090 0.19432
# Poissons Ratio (z) = 0.52623 0.33232
#
# Static dielectric constant tensor:
#      x y z
#    x 3.332240 0.000000 0.000000 
#    y 0.000000 3.407820 0.000000 
#    z 0.000000 0.000000 3.366790 
# 
# 
# High freq. dielectric constant tensor:
#      x y z
#    x 1.713880 0.000000 0.000000 
#    y 0.000000 1.723890 0.000000 
#    z 0.000000 0.000000 1.719320 
# 
# From -- ./inp_files/28273.got.cif
#   From: 2010.03.12/outbox.cif.g09.slc.cpg/sg59_15_cif.got.tgz:28273.got - 2010.04.16 16:29:54.
