data_PCOD8244095
_publ_section_title
;
Structure prediction by ZEFSAII (Michael W. Deem and Ramdas Pophale) SiO2 
 PCOD8244095
Probable space group: P M M N
;
_chemical_formula_sum "Si O2"
_cell_formula_units_Z 56
_cell_length_a 14.215545
_cell_length_b 8.808176
_cell_length_c 22.136941
_cell_angle_alpha 90.000000
_cell_angle_beta 90.000000
_cell_angle_gamma 90.000000
_cell_volume 2771.833287
_symmetry_space_group_name_H-M "P M M N"
_symmetry_group_IT_number 59
_space_group.IT_coordinate_system_code '2'
_symmetry_cell_setting 'orthorhombic'
loop_
_space_group_symop_operation_xyz
x,y,z
1/2-x,1/2-y,z
1/2+x,-y,-z
-x,1/2+y,-z
-x,-y,-z
1/2+x,1/2+y,-z
1/2-x,y,z
x,1/2-y,z
loop_
_atom_site_type_symbol
_atom_site_label
_atom_site_fract_x
_atom_site_fract_y
_atom_site_fract_z
Si Si1 0.144333 0.070541 0.473484
Si Si2 0.485133 0.574291 0.935470
Si Si3 0.149668 0.081301 0.247098
Si Si4 0.645757 0.080510 0.873613
Si Si5 0.642043 0.928834 0.165250
Si Si6 0.947738 0.076652 0.282220
Si Si7 0.952496 0.070064 0.415326
O O1 0.250000 0.014926 0.453867
O O2 0.144020 0.250000 0.478491
O O3 0.061037 0.015834 0.427896
O O4 0.120947 0.005228 0.539442
O O5 0.461508 0.750000 0.943434
O O6 0.584024 0.550476 0.902885
O O7 0.403360 0.501222 0.894623
O O8 0.500000 0.500000 0.000000
O O9 0.250000 0.066912 0.282856
O O10 0.144195 0.250000 0.217094
O O11 0.060632 0.060110 0.289897
O O12 0.147783 0.950633 0.197219
O O13 0.750000 0.071210 0.901716
O O14 0.603748 0.250000 0.884179
O O15 0.750000 0.981366 0.168101
O O16 0.632203 0.750000 0.159180
O O17 0.591660 0.977446 0.227361
O O18 0.918004 0.250000 0.268848
O O19 0.915073 0.022074 0.348416
O O20 0.947958 0.250000 0.422320
#
# Coordination Sequence:
#
# PCOD8244095 Si02
#       7
#     8   8   8   8   8   8   8
#     4   9  18  34  55  78 109 150 195 243 294 346
#     4  12  25  42  65  90 118 153 194 241 292 345
#     4   9  17  30  51  80 111 144 182 225 279 343
#     4  10  20  35  57  85 116 148 183 226 278 336
#     4  11  25  44  64  87 118 157 199 243 292 347
#     4  10  20  35  57  85 117 154 192 238 294 352
#     4   9  19  34  53  81 114 149 194 242 292 347
#
# _framework density 20.203233999999998
#
# number of rings (size 3 to 8) (size 9 to 14) (size 15 to 20)
#    0.000    2.000    1.429    2.143    0.000    4.571 
#    0.000    5.714    0.000    0.000    0.000    4.000 
#    0.000    0.000    0.000    0.000    0.000    0.000 
#
# Total GULP energy -693868.376575 kJ/mol
# GULP energy per Si atom -12390.506725 kJ/mol
# Density = 2.015725 g / cm^3
# Si number density = 20.203234 Si / 1000 Ang^3
#
#
#
# Elastic Constant Matrix: (Units=GPa)
#
#
# Indices 1 2 3 4 5 6 
#
# 1 99.9444 27.4848 28.0492 0.0000 0.0000 0.0000
# 2 27.4848 66.9977 27.0463 0.0000 0.0000 0.0000
# 3 28.0492 27.0463 93.3047 0.0000 0.0000 0.0000
# 4 0.0000 0.0000 0.0000 29.7114 0.0000 0.0000
# 5 0.0000 0.0000 0.0000 0.0000 13.4782 0.0000
# 6 0.0000 0.0000 0.0000 0.0000 0.0000 28.0783
#
#
#
# Elastic Compliance Matrix: (Units=1/GPa)
#
#
# Indices 1 2 3 4 5 6 
#
# 1 0.011740 -0.003841 -0.002416 0.000000 0.000000 0.000000
# 2 -0.003841 0.018161 -0.004110 0.000000 0.000000 0.000000
# 3 -0.002416 -0.004110 0.012635 0.000000 0.000000 0.000000
# 4 0.000000 0.000000 0.000000 0.033657 0.000000 0.000000
# 5 0.000000 0.000000 0.000000 0.000000 0.074194 0.000000
# 6 0.000000 0.000000 0.000000 0.000000 0.000000 0.035615
#
#
# Mechanical properties :
#
#
# Convention : Reuss Voigt Hill
#
# Bulk Modulus (GPa) = 45.86551 47.26748 46.56650
# Shear Modulus (GPa) = 23.36435 26.09801 24.73118
#
# Velocity S-wave (km/s) = 3.40437 3.59802 3.50254
# Velocity P-wave (km/s) = 6.18097 6.38027 6.28141
#
# Compressibility (1/GPa) = 0.02180287
#
# Stress axis : x y z
#
# Youngs Moduli (GPa) = 85.18036 55.06448 79.14474
#
# Poissons Ratio (x) = 0.21149 0.19120
# Poissons Ratio (y) = 0.32716 0.32525
# Poissons Ratio (z) = 0.20578 0.22629
#
# Static dielectric constant tensor:
#      x y z
#    x 1.939670 0.000000 0.000000 
#    y 0.000000 3.605770 0.000000 
#    z 0.000000 0.000000 0.144410 
# 
# 
# High freq. dielectric constant tensor:
#      x y z
#    x 1.798150 0.000000 0.000000 
#    y 0.000000 1.782090 0.000000 
#    z 0.000000 0.000000 1.775040 
# 
# From -- ./inp_files/28979.got.cif
#   From: 2010.03.12/outbox.cif.g09.slc.cpg/sg59_15_cif.got.tgz:28979.got - 2010.04.16 16:29:54.
