data_PCOD8244534
_publ_section_title
;
Structure prediction by ZEFSAII (Michael W. Deem and Ramdas Pophale) SiO2 
 PCOD8244534
Probable space group: P M M N
;
_chemical_formula_sum "Si O2"
_cell_formula_units_Z 48
_cell_length_a 8.726244
_cell_length_b 30.872200
_cell_length_c 9.291267
_cell_angle_alpha 90.000000
_cell_angle_beta 90.000000
_cell_angle_gamma 90.000000
_cell_volume 2503.051999
_symmetry_space_group_name_H-M "P M M N"
_symmetry_group_IT_number 59
_space_group.IT_coordinate_system_code '2'
_symmetry_cell_setting 'orthorhombic'
loop_
_space_group_symop_operation_xyz
x,y,z
1/2-x,1/2-y,z
1/2+x,-y,-z
-x,1/2+y,-z
-x,-y,-z
1/2+x,1/2+y,-z
1/2-x,y,z
x,1/2-y,z
loop_
_atom_site_type_symbol
_atom_site_label
_atom_site_fract_x
_atom_site_fract_y
_atom_site_fract_z
Si Si1 0.568513 0.670295 0.334447
Si Si2 0.068253 0.498507 0.842832
Si Si3 0.568729 0.079590 0.668487
Si Si4 0.430411 0.920580 0.659817
Si Si5 0.568434 0.750000 0.854160
Si Si6 0.070752 0.168887 0.336637
Si Si7 0.431104 0.750000 0.165627
O O1 0.750000 0.667006 0.314889
O O2 0.490067 0.626278 0.279837
O O3 0.521798 0.679538 0.499739
O O4 0.504005 0.708073 0.236891
O O5 0.250000 0.498827 0.850596
O O6 0.005452 0.540129 0.755602
O O7 0.013194 0.455415 0.765954
O O8 0.000000 0.500000 0.000000
O O9 0.750000 0.076458 0.688398
O O10 0.516454 0.071586 0.504133
O O11 0.250000 0.918025 0.669313
O O12 0.494577 0.875300 0.719709
O O13 0.750000 0.750000 0.885498
O O14 0.517327 0.791922 0.763754
O O15 0.471915 0.750000 0.998566
O O16 0.250000 0.161882 0.327385
O O17 0.250000 0.750000 0.187639
#
# Coordination Sequence:
#
# PCOD8244534 Si02
#       7
#     8   8   8   8   4   8   4
#     4  10  20  38  62  86 111 144 184 229 278 332
#     4  11  23  38  55  80 114 153 189 228 278 333
#     4  10  20  37  60  86 112 142 183 233 280 330
#     4   9  20  37  58  83 112 143 182 230 280 330
#     4  10  21  38  56  80 114 150 185 228 278 332
#     4   9  19  36  61  86 108 139 185 232 278 331
#     4  12  25  38  54  82 116 152 189 228 274 328
#
# _framework density 19.176587999999999
#
# number of rings (size 3 to 8) (size 9 to 14) (size 15 to 20)
#    0.000    2.000    0.000    3.250    0.000    6.000 
#    0.000    4.167    0.000    0.000    0.000    0.000 
#    0.000    0.000    0.000    0.000    0.000    0.000 
#
# Total GULP energy -595380.268363 kJ/mol
# GULP energy per Si atom -12403.755591 kJ/mol
# Density = 1.913294 g / cm^3
# Si number density = 19.176588 Si / 1000 Ang^3
#
#
#
# Elastic Constant Matrix: (Units=GPa)
#
#
# Indices 1 2 3 4 5 6 
#
# 1 43.5976 24.5614 27.4276 0.0000 0.0000 0.0000
# 2 24.5614 157.9961 82.3178 0.0000 0.0000 0.0000
# 3 27.4276 82.3178 108.8000 0.0000 0.0000 0.0000
# 4 0.0000 0.0000 0.0000 -16.8228 0.0000 0.0000
# 5 0.0000 0.0000 0.0000 0.0000 29.7168 0.0000
# 6 0.0000 0.0000 0.0000 0.0000 0.0000 37.4636
#
#
#
# Elastic Compliance Matrix: (Units=1/GPa)
#
#
# Indices 1 2 3 4 5 6 
#
# 1 0.027373 -0.001090 -0.006076 0.000000 0.000000 0.000000
# 2 -0.001090 0.010491 -0.007663 0.000000 0.000000 0.000000
# 3 -0.006076 -0.007663 0.016521 0.000000 0.000000 0.000000
# 4 0.000000 0.000000 0.000000 -0.059443 0.000000 0.000000
# 5 0.000000 0.000000 0.000000 0.000000 0.033651 0.000000
# 6 0.000000 0.000000 0.000000 0.000000 0.000000 0.026693
#
#
# Mechanical properties :
#
#
# Convention : Reuss Voigt Hill
#
# Bulk Modulus (GPa) = 40.44024 64.33412 52.38718
# Shear Modulus (GPa) = 53.65642 21.81067 37.73355
#
# Velocity S-wave (km/s) = 5.29537 3.37613 4.44068
# Velocity P-wave (km/s) = 7.64997 6.98705 7.32601
#
# Compressibility (1/GPa) = 0.02472784
#
# Stress axis : x y z
#
# Youngs Moduli (GPa) = 36.53173 95.31905 60.53034
#
# Poissons Ratio (x) = 0.10386 0.36780
# Poissons Ratio (y) = 0.03980 0.46384
# Poissons Ratio (z) = 0.22198 0.73042
#
# Static dielectric constant tensor:
#      x y z
#    x 3.505240 0.000000 0.000000 
#    y 0.000000 3.723070 0.000000 
#    z 0.000000 0.000000 3.576350 
# 
# 
# High freq. dielectric constant tensor:
#      x y z
#    x 1.748100 0.000000 0.000000 
#    y 0.000000 1.763040 0.000000 
#    z 0.000000 0.000000 1.743220 
# 
# From -- ./inp_files/6346.got.cif
#   From: 2010.03.12/outbox.cif.g09.slc.cpg/sg59_4_cif.got.tgz:6346.got - 2010.04.16 16:29:54.
