data_PCOD8244846
_publ_section_title
;
Structure prediction by ZEFSAII (Michael W. Deem and Ramdas Pophale) SiO2 
 PCOD8244846
Probable space group: P M M N
;
_chemical_formula_sum "Si O2"
_cell_formula_units_Z 48
_cell_length_a 9.898434
_cell_length_b 8.828220
_cell_length_c 28.970814
_cell_angle_alpha 90.000000
_cell_angle_beta 90.000000
_cell_angle_gamma 90.000000
_cell_volume 2531.630602
_symmetry_space_group_name_H-M "P M M N"
_symmetry_group_IT_number 59
_space_group.IT_coordinate_system_code '2'
_symmetry_cell_setting 'orthorhombic'
loop_
_space_group_symop_operation_xyz
x,y,z
1/2-x,1/2-y,z
1/2+x,-y,-z
-x,1/2+y,-z
-x,-y,-z
1/2+x,1/2+y,-z
1/2-x,y,z
x,1/2-y,z
loop_
_atom_site_type_symbol
_atom_site_label
_atom_site_fract_x
_atom_site_fract_y
_atom_site_fract_z
Si Si1 0.401523 0.072553 0.770090
Si Si2 0.410541 0.917568 0.861339
Si Si3 0.097252 0.930032 0.962514
Si Si4 0.017795 0.427801 0.404308
Si Si5 0.250000 0.930982 0.464093
Si Si6 0.597473 0.576418 0.699605
Si Si7 0.250000 0.069769 0.564272
O O1 0.250000 0.005905 0.762855
O O2 0.395448 0.250000 0.771609
O O3 0.464248 0.018405 0.818960
O O4 0.494211 0.024818 0.727819
O O5 0.250000 0.910849 0.861232
O O6 0.471217 0.750000 0.854216
O O7 0.453968 0.982948 0.911511
O O8 0.250000 0.987289 0.971699
O O9 0.092145 0.750000 0.965043
O O10 0.000000 0.000000 0.000000
O O11 0.995584 0.250000 0.414694
O O12 0.116804 0.497565 0.442111
O O13 0.081763 0.454730 0.354430
O O14 0.878692 0.519594 0.405963
O O15 0.250000 0.750000 0.458481
O O16 0.250000 0.976136 0.517224
O O17 0.750000 0.533651 0.713771
O O18 0.565553 0.750000 0.711255
O O19 0.250000 0.250000 0.555628
#
# Coordination Sequence:
#
# PCOD8244846 Si02
#       7
#     8   8   8   8   4   8   4
#     4  10  21  35  55  86 116 142 179 231 282 331
#     4   8  15  31  53  75 103 143 187 229 273 326
#     4   9  18  32  51  77 108 142 184 230 276 329
#     4  11  23  43  65  89 119 154 195 239 283 338
#     4  12  24  42  66  92 120 158 194 232 287 342
#     4  10  22  41  62  83 110 149 189 226 275 336
#     4  12  26  42  62  92 124 154 192 240 285 334
#
# _framework density 18.960113
#
# number of rings (size 3 to 8) (size 9 to 14) (size 15 to 20)
#    0.000    2.000    0.833    4.000    1.167    3.667 
#    0.000    2.500    0.000    1.000    0.000    0.000 
#    0.000    0.000    0.000    0.000    0.000    0.000 
#
# Total GULP energy -595170.735565 kJ/mol
# GULP energy per Si atom -12399.390324 kJ/mol
# Density = 1.891696 g / cm^3
# Si number density = 18.960113 Si / 1000 Ang^3
#
#
#
# Elastic Constant Matrix: (Units=GPa)
#
#
# Indices 1 2 3 4 5 6 
#
# 1 82.4368 29.6319 25.9821 0.0000 0.0000 0.0000
# 2 29.6319 71.2509 34.7930 0.0000 0.0000 0.0000
# 3 25.9821 34.7930 89.4434 0.0000 0.0000 0.0000
# 4 0.0000 0.0000 0.0000 35.7885 0.0000 0.0000
# 5 0.0000 0.0000 0.0000 0.0000 30.8536 0.0000
# 6 0.0000 0.0000 0.0000 0.0000 0.0000 29.7507
#
#
#
# Elastic Compliance Matrix: (Units=1/GPa)
#
#
# Indices 1 2 3 4 5 6 
#
# 1 0.014645 -0.004954 -0.002327 0.000000 0.000000 0.000000
# 2 -0.004954 0.019002 -0.005953 0.000000 0.000000 0.000000
# 3 -0.002327 -0.005953 0.014172 0.000000 0.000000 0.000000
# 4 0.000000 0.000000 0.000000 0.027942 0.000000 0.000000
# 5 0.000000 0.000000 0.000000 0.000000 0.032411 0.000000
# 6 0.000000 0.000000 0.000000 0.000000 0.000000 0.033613
#
#
# Mechanical properties :
#
#
# Convention : Reuss Voigt Hill
#
# Bulk Modulus (GPa) = 46.83606 47.10500 46.97053
# Shear Modulus (GPa) = 28.51140 29.46016 28.98578
#
# Velocity S-wave (km/s) = 3.88204 3.94610 3.91420
# Velocity P-wave (km/s) = 6.69699 6.75725 6.72719
#
# Compressibility (1/GPa) = 0.02135107
#
# Stress axis : x y z
#
# Youngs Moduli (GPa) = 68.28430 52.62612 70.56310
#
# Poissons Ratio (x) = 0.26072 0.16420
# Poissons Ratio (y) = 0.33829 0.42003
# Poissons Ratio (z) = 0.15889 0.31326
#
# Static dielectric constant tensor:
#      x y z
#    x 3.419760 0.000000 0.000000 
#    y 0.000000 3.077240 0.000000 
#    z 0.000000 0.000000 3.788970 
# 
# 
# High freq. dielectric constant tensor:
#      x y z
#    x 1.723880 0.000000 0.000000 
#    y 0.000000 1.735580 0.000000 
#    z 0.000000 0.000000 1.747920 
# 
# From -- ./inp_files/32980.got.cif
#   From: 2010.03.12/outbox.cif.g09.slc.cpg/sg59_17_cif.got.tgz:32980.got - 2010.04.16 16:29:54.
