data_PCOD8244010
_publ_section_title
;
Structure prediction by ZEFSAII (Michael W. Deem and Ramdas Pophale) SiO2 
 PCOD8244010
Probable space group: P M M N
;
_chemical_formula_sum "Si O2"
_cell_formula_units_Z 64
_cell_length_a 14.571653
_cell_length_b 23.774901
_cell_length_c 9.580187
_cell_angle_alpha 90.000000
_cell_angle_beta 90.000000
_cell_angle_gamma 90.000000
_cell_volume 3318.956224
_symmetry_space_group_name_H-M "P M M N"
_symmetry_group_IT_number 59
_space_group.IT_coordinate_system_code '2'
_symmetry_cell_setting 'orthorhombic'
loop_
_space_group_symop_operation_xyz
x,y,z
1/2-x,1/2-y,z
1/2+x,-y,-z
-x,1/2+y,-z
-x,-y,-z
1/2+x,1/2+y,-z
1/2-x,y,z
x,1/2-y,z
loop_
_atom_site_type_symbol
_atom_site_label
_atom_site_fract_x
_atom_site_fract_y
_atom_site_fract_z
Si Si1 0.146954 0.066684 0.202536
Si Si2 0.853885 0.591668 0.109335
Si Si3 0.142152 0.534210 0.400101
Si Si4 0.141259 0.985127 0.715172
Si Si5 0.534073 0.379798 0.213603
Si Si6 0.354464 0.847555 0.290343
Si Si7 0.149270 0.688383 0.588117
Si Si8 0.495523 0.815490 0.060622
O O1 0.250000 0.085065 0.246973
O O2 0.074886 0.115077 0.242237
O O3 0.114662 0.011569 0.284990
O O4 0.140381 0.057063 0.036248
O O5 0.750000 0.613097 0.134308
O O6 0.883270 0.547606 0.229410
O O7 0.917638 0.646955 0.108922
O O8 0.250000 0.540170 0.415212
O O9 0.105224 0.518510 0.554786
O O10 0.103351 0.592790 0.341289
O O11 0.250000 0.973721 0.730704
O O12 0.085246 0.939683 0.808451
O O13 0.573719 0.352777 0.352647
O O14 0.548694 0.339586 0.081270
O O15 0.250000 0.853942 0.234648
O O16 0.359171 0.806320 0.422169
O O17 0.415168 0.819550 0.172237
O O18 0.250000 0.663893 0.627290
O O19 0.136619 0.750000 0.653322
O O20 0.525171 0.750000 0.042823
#
# Coordination Sequence:
#
# PCOD8244010 Si02
#       8
#     8   8   8   8   8   8   8   8
#     4   9  20  36  54  80 113 149 185 227 278 336
#     4   9  21  40  61  82 111 149 190 237 290 340
#     4   9  18  34  55  82 116 148 182 221 275 341
#     4  10  20  35  56  88 120 145 181 229 286 351
#     4  11  22  35  58  83 116 149 187 236 285 336
#     4  10  21  37  57  82 115 152 187 227 277 337
#     4  10  20  37  58  79 109 150 193 231 274 334
#     4  11  25  40  56  82 114 149 198 242 279 329
#
# _framework density 19.283170999999999
#
# number of rings (size 3 to 8) (size 9 to 14) (size 15 to 20)
#    0.000    2.125    1.250    1.125    3.500    4.500 
#    0.000    0.000    0.000    1.125    0.000    0.000 
#    0.000    5.000    0.000    0.000    0.000    0.000 
#
# Total GULP energy -793362.757069 kJ/mol
# GULP energy per Si atom -12396.293079 kJ/mol
# Density = 1.923928 g / cm^3
# Si number density = 19.283171 Si / 1000 Ang^3
#
#
#
# Elastic Constant Matrix: (Units=GPa)
#
#
# Indices 1 2 3 4 5 6 
#
# 1 82.4190 44.4123 35.7414 0.0000 0.0000 0.0000
# 2 44.4123 118.7772 47.6909 0.0000 0.0000 0.0000
# 3 35.7414 47.6909 61.9034 0.0000 0.0000 0.0000
# 4 0.0000 0.0000 0.0000 23.7785 0.0000 0.0000
# 5 0.0000 0.0000 0.0000 0.0000 26.1746 0.0000
# 6 0.0000 0.0000 0.0000 0.0000 0.0000 28.0691
#
#
#
# Elastic Compliance Matrix: (Units=1/GPa)
#
#
# Indices 1 2 3 4 5 6 
#
# 1 0.017149 -0.003528 -0.007184 0.000000 0.000000 0.000000
# 2 -0.003528 0.012916 -0.007913 0.000000 0.000000 0.000000
# 3 -0.007184 -0.007913 0.026398 0.000000 0.000000 0.000000
# 4 0.000000 0.000000 0.000000 0.042055 0.000000 0.000000
# 5 0.000000 0.000000 0.000000 0.000000 0.038205 0.000000
# 6 0.000000 0.000000 0.000000 0.000000 0.000000 0.035626
#
#
# Mechanical properties :
#
#
# Convention : Reuss Voigt Hill
#
# Bulk Modulus (GPa) = 52.04686 57.64321 54.84503
# Shear Modulus (GPa) = 23.14772 24.62142 23.88457
#
# Velocity S-wave (km/s) = 3.46845 3.57716 3.52323
# Velocity P-wave (km/s) = 6.56427 6.85706 6.71226
#
# Compressibility (1/GPa) = 0.01921345
#
# Stress axis : x y z
#
# Youngs Moduli (GPa) = 58.31087 77.42552 37.88129
#
# Poissons Ratio (x) = 0.27316 0.27212
# Poissons Ratio (y) = 0.20573 0.29977
# Poissons Ratio (z) = 0.41888 0.61269
#
# Static dielectric constant tensor:
#      x y z
#    x 3.514110 0.000000 0.000000 
#    y 0.000000 3.567340 0.000000 
#    z 0.000000 0.000000 3.535010 
# 
# 
# High freq. dielectric constant tensor:
#      x y z
#    x 1.746900 0.000000 0.000000 
#    y 0.000000 1.742530 0.000000 
#    z 0.000000 0.000000 1.747640 
# 
# From -- ./inp_files/9597.got.cif
#   From: 2010.03.12/outbox.cif.g09.slc.cpg/sg59_5_cif.got.tgz:9597.got - 2010.04.16 16:29:54.
