data_PCOD8244824
_publ_section_title
;
Structure prediction by ZEFSAII (Michael W. Deem and Ramdas Pophale) SiO2 
 PCOD8244824
Probable space group: P M M N
;
_chemical_formula_sum "Si O2"
_cell_formula_units_Z 64
_cell_length_a 10.701982
_cell_length_b 20.823343
_cell_length_c 15.001903
_cell_angle_alpha 90.000000
_cell_angle_beta 90.000000
_cell_angle_gamma 90.000000
_cell_volume 3343.189715
_symmetry_space_group_name_H-M "P M M N"
_symmetry_group_IT_number 59
_space_group.IT_coordinate_system_code '2'
_symmetry_cell_setting 'orthorhombic'
loop_
_space_group_symop_operation_xyz
x,y,z
1/2-x,1/2-y,z
1/2+x,-y,-z
-x,1/2+y,-z
-x,-y,-z
1/2+x,1/2+y,-z
1/2-x,y,z
x,1/2-y,z
loop_
_atom_site_type_symbol
_atom_site_label
_atom_site_fract_x
_atom_site_fract_y
_atom_site_fract_z
Si Si1 0.393903 0.679060 0.304379
Si Si2 0.894903 0.678424 0.686203
Si Si3 0.964323 0.436898 0.383034
Si Si4 0.110064 0.893247 0.961996
Si Si5 0.887851 0.486238 0.202907
Si Si6 0.390921 0.577846 0.163790
Si Si7 0.388902 0.565577 0.423214
Si Si8 0.113747 0.174818 0.114280
O O1 0.250000 0.689174 0.328273
O O2 0.459376 0.750000 0.307933
O O3 0.408415 0.649311 0.204681
O O4 0.452062 0.628756 0.376868
O O5 0.750000 0.683249 0.665108
O O6 0.954544 0.750000 0.674111
O O7 0.918158 0.651080 0.785996
O O8 0.952583 0.627348 0.618551
O O9 0.885388 0.442098 0.291786
O O10 0.879687 0.427666 0.470171
O O11 0.042391 0.501493 0.394093
O O12 0.250000 0.862393 0.955255
O O13 0.091514 0.946051 0.886532
O O14 0.999332 0.841821 0.951736
O O15 0.090176 0.924237 0.058249
O O16 0.750000 0.519676 0.197505
O O17 0.003152 0.534949 0.210342
O O18 0.250000 0.552611 0.186378
O O19 0.250000 0.559697 0.384045
O O20 0.250000 0.145886 0.083932
O O21 0.128793 0.250000 0.117775
#
# Coordination Sequence:
#
# PCOD8244824 Si02
#       8
#     8   8   8   8   8   8   8   8
#     4   9  18  35  58  82 109 142 187 242 286 324
#     4   9  18  33  54  81 111 145 190 236 277 332
#     4  11  20  34  58  81 108 152 185 227 285 358
#     4  10  21  35  53  81 115 148 189 240 290 340
#     4  11  22  36  54  82 119 150 180 235 298 345
#     4  10  21  37  58  83 108 147 198 237 278 343
#     4  10  21  35  54  84 110 139 189 240 284 337
#     4   9  18  33  53  78 109 147 191 232 274 333
#
# _framework density 19.143395000000002
#
# number of rings (size 3 to 8) (size 9 to 14) (size 15 to 20)
#    0.000    2.125    2.500    1.875    0.000    2.750 
#    0.000    1.250    0.000    1.500    0.000    0.000 
#    0.000    0.000    0.000    0.000    0.000    0.000 
#
# Total GULP energy -792956.520594 kJ/mol
# GULP energy per Si atom -12389.945634 kJ/mol
# Density = 1.909982 g / cm^3
# Si number density = 19.143395 Si / 1000 Ang^3
#
#
#
# Elastic Constant Matrix: (Units=GPa)
#
#
# Indices 1 2 3 4 5 6 
#
# 1 91.8274 34.5752 22.7981 0.0000 0.0000 0.0000
# 2 34.5752 89.7967 41.1036 0.0000 0.0000 0.0000
# 3 22.7981 41.1036 113.7930 0.0000 0.0000 0.0000
# 4 0.0000 0.0000 0.0000 21.4941 0.0000 0.0000
# 5 0.0000 0.0000 0.0000 0.0000 9.1907 0.0000
# 6 0.0000 0.0000 0.0000 0.0000 0.0000 22.5137
#
#
#
# Elastic Compliance Matrix: (Units=1/GPa)
#
#
# Indices 1 2 3 4 5 6 
#
# 1 0.012820 -0.004505 -0.000941 0.000000 0.000000 0.000000
# 2 -0.004505 0.014926 -0.004489 0.000000 0.000000 0.000000
# 3 -0.000941 -0.004489 0.010598 0.000000 0.000000 0.000000
# 4 0.000000 0.000000 0.000000 0.046524 0.000000 0.000000
# 5 0.000000 0.000000 0.000000 0.000000 0.108805 0.000000
# 6 0.000000 0.000000 0.000000 0.000000 0.000000 0.044417
#
#
# Mechanical properties :
#
#
# Convention : Reuss Voigt Hill
#
# Bulk Modulus (GPa) = 54.13262 54.70788 54.42025
# Shear Modulus (GPa) = 18.93087 23.76905 21.34996
#
# Velocity S-wave (km/s) = 3.14809 3.52750 3.34318
# Velocity P-wave (km/s) = 6.44614 6.72540 6.58725
#
# Compressibility (1/GPa) = 0.01847315
#
# Stress axis : x y z
#
# Youngs Moduli (GPa) = 78.00292 66.99849 94.35919
#
# Poissons Ratio (x) = 0.30186 0.08879
# Poissons Ratio (y) = 0.35144 0.42355
# Poissons Ratio (z) = 0.07340 0.30074
#
# Static dielectric constant tensor:
#      x y z
#    x 3.788990 0.000000 0.000000 
#    y 0.000000 3.421710 0.000000 
#    z 0.000000 0.000000 3.698950 
# 
# 
# High freq. dielectric constant tensor:
#      x y z
#    x 1.730340 0.000000 0.000000 
#    y 0.000000 1.728880 0.000000 
#    z 0.000000 0.000000 1.750320 
# 
# From -- ./inp_files/22708.got.cif
#   From: 2010.03.12/outbox.cif.g09.slc.cpg/sg59_12_cif.got.tgz:22708.got - 2010.04.16 16:29:54.
