data_PCOD8244431
_publ_section_title
;
Structure prediction by ZEFSAII (Michael W. Deem and Ramdas Pophale) SiO2 
 PCOD8244431
Probable space group: P M M N
;
_chemical_formula_sum "Si O2"
_cell_formula_units_Z 48
_cell_length_a 17.984168
_cell_length_b 13.877974
_cell_length_c 10.094871
_cell_angle_alpha 90.000000
_cell_angle_beta 90.000000
_cell_angle_gamma 90.000000
_cell_volume 2519.516425
_symmetry_space_group_name_H-M "P M M N"
_symmetry_group_IT_number 59
_space_group.IT_coordinate_system_code '2'
_symmetry_cell_setting 'orthorhombic'
loop_
_space_group_symop_operation_xyz
x,y,z
1/2-x,1/2-y,z
1/2+x,-y,-z
-x,1/2+y,-z
-x,-y,-z
1/2+x,1/2+y,-z
1/2-x,y,z
x,1/2-y,z
loop_
_atom_site_type_symbol
_atom_site_label
_atom_site_fract_x
_atom_site_fract_y
_atom_site_fract_z
Si Si1 0.835259 0.362483 0.209698
Si Si2 0.085579 0.862328 0.294039
Si Si3 0.915617 0.029247 0.979503
Si Si4 0.663876 0.028974 0.477693
Si Si5 0.084068 0.359905 0.640237
Si Si6 0.836702 0.858691 0.084419
O O1 0.750000 0.385685 0.170833
O O2 0.849874 0.250000 0.220878
O O3 0.889865 0.404847 0.100591
O O4 0.856090 0.406862 0.350915
O O5 0.104446 0.750000 0.278810
O O6 0.143554 0.910803 0.392864
O O7 0.003207 0.878491 0.349110
O O8 0.096203 0.911390 0.152931
O O9 0.866408 0.931429 0.972464
O O10 0.000000 0.000000 0.000000
O O11 0.750000 0.001840 0.483734
O O12 0.617435 0.929351 0.472316
O O13 0.101355 0.250000 0.599509
O O14 0.122381 0.385290 0.779524
O O15 0.750000 0.873700 0.108821
O O16 0.855317 0.750000 0.039043
#
# Coordination Sequence:
#
# PCOD8244431 Si02
#       6
#     8   8   8   8   8   8
#     4  10  21  37  58  83 114 157 210 254 288 346
#     4  11  24  40  60  89 128 165 199 246 310 375
#     4  12  22  37  60  90 121 156 198 250 306 362
#     4  11  22  39  61  89 124 162 204 250 304 362
#     4  10  20  38  64  90 117 155 205 254 303 358
#     4  10  20  36  60  88 116 152 201 253 302 352
#
# _framework density 19.051275
#
# number of rings (size 3 to 8) (size 9 to 14) (size 15 to 20)
#    0.000    1.333    3.333    2.500    0.000    4.000 
#    0.000    0.833    0.000    0.000    0.000    0.000 
#    0.000    0.000    0.000    0.000    0.000    0.000 
#
# Total GULP energy -595423.544284 kJ/mol
# GULP energy per Si atom -12404.657173 kJ/mol
# Density = 1.900791 g / cm^3
# Si number density = 19.051275 Si / 1000 Ang^3
#
#
#
# Elastic Constant Matrix: (Units=GPa)
#
#
# Indices 1 2 3 4 5 6 
#
# 1 47.8537 22.8951 21.7460 0.0000 0.0000 0.0000
# 2 22.8951 122.4439 45.0488 0.0000 0.0000 0.0000
# 3 21.7460 45.0488 98.3685 0.0000 0.0000 0.0000
# 4 0.0000 0.0000 0.0000 31.9499 0.0000 0.0000
# 5 0.0000 0.0000 0.0000 0.0000 32.4714 0.0000
# 6 0.0000 0.0000 0.0000 0.0000 0.0000 35.9148
#
#
#
# Elastic Compliance Matrix: (Units=1/GPa)
#
#
# Indices 1 2 3 4 5 6 
#
# 1 0.024153 -0.003069 -0.003934 0.000000 0.000000 0.000000
# 2 -0.003069 0.010212 -0.003998 0.000000 0.000000 0.000000
# 3 -0.003934 -0.003998 0.012867 0.000000 0.000000 0.000000
# 4 0.000000 0.000000 0.000000 0.031299 0.000000 0.000000
# 5 0.000000 0.000000 0.000000 0.000000 0.030796 0.000000
# 6 0.000000 0.000000 0.000000 0.000000 0.000000 0.027844
#
#
# Mechanical properties :
#
#
# Convention : Reuss Voigt Hill
#
# Bulk Modulus (GPa) = 39.63647 49.78285 44.70966
# Shear Modulus (GPa) = 29.83609 31.99896 30.91753
#
# Velocity S-wave (km/s) = 3.96168 4.10277 4.03284
# Velocity P-wave (km/s) = 6.46351 6.97361 6.72340
#
# Compressibility (1/GPa) = 0.02522929
#
# Stress axis : x y z
#
# Youngs Moduli (GPa) = 41.40268 97.92575 77.72096
#
# Poissons Ratio (x) = 0.30052 0.30576
# Poissons Ratio (y) = 0.12706 0.31074
# Poissons Ratio (z) = 0.16288 0.39152
#
# Static dielectric constant tensor:
#      x y z
#    x 3.564090 0.000000 0.000000 
#    y 0.000000 4.023440 0.000000 
#    z 0.000000 0.000000 3.361130 
# 
# 
# High freq. dielectric constant tensor:
#      x y z
#    x 1.749430 0.000000 0.000000 
#    y 0.000000 1.763860 0.000000 
#    z 0.000000 0.000000 1.718770 
# 
# From -- ./inp_files/8988.got.cif
#   From: 2010.03.12/outbox.cif.g09.slc.cpg/sg59_5_cif.got.tgz:8988.got - 2010.04.16 16:29:54.
