data_PCOD8244121
_publ_section_title
;
Structure prediction by ZEFSAII (Michael W. Deem and Ramdas Pophale) SiO2 
 PCOD8244121
Probable space group: P M M N
;
_chemical_formula_sum "Si O2"
_cell_formula_units_Z 64
_cell_length_a 17.626548
_cell_length_b 19.574924
_cell_length_c 8.701926
_cell_angle_alpha 90.000000
_cell_angle_beta 90.000000
_cell_angle_gamma 90.000000
_cell_volume 3002.498080
_symmetry_space_group_name_H-M "P M M N"
_symmetry_group_IT_number 59
_space_group.IT_coordinate_system_code '2'
_symmetry_cell_setting 'orthorhombic'
loop_
_space_group_symop_operation_xyz
x,y,z
1/2-x,1/2-y,z
1/2+x,-y,-z
-x,1/2+y,-z
-x,-y,-z
1/2+x,1/2+y,-z
1/2-x,y,z
x,1/2-y,z
loop_
_atom_site_type_symbol
_atom_site_label
_atom_site_fract_x
_atom_site_fract_y
_atom_site_fract_z
Si Si1 0.333936 0.475796 0.034558
Si Si2 0.426599 0.938086 0.614031
Si Si3 0.934552 0.581129 0.232279
Si Si4 0.166229 0.881775 0.886982
Si Si5 0.480286 0.673796 0.020540
Si Si6 0.041525 0.326744 0.303993
Si Si7 0.333863 0.133122 0.517033
Si Si8 0.833778 0.005901 0.636112
O O1 0.250000 0.442531 0.028358
O O2 0.367609 0.472371 0.208002
O O3 0.386012 0.437081 0.916563
O O4 0.329112 0.555689 0.002177
O O5 0.360320 0.909469 0.721819
O O6 0.495042 0.884253 0.601638
O O7 0.392421 0.941212 0.441430
O O8 0.457734 0.012317 0.673896
O O9 0.886996 0.636536 0.331681
O O10 0.007329 0.620320 0.160148
O O11 0.250000 0.847824 0.869692
O O12 0.105684 0.828980 0.956387
O O13 0.495009 0.750000 0.082576
O O14 0.537536 0.656926 0.878130
O O15 0.008693 0.250000 0.331121
O O16 0.126942 0.329417 0.371299
O O17 0.250000 0.165884 0.544292
O O18 0.323364 0.052995 0.489202
O O19 0.750000 0.038594 0.668782
#
# Coordination Sequence:
#
# PCOD8244121 Si02
#       8
#     8   8   8   8   8   8   8   8
#     4   9  17  30  52  82 113 143 178 225 277 327
#     4   9  19  34  57  84 113 146 186 231 283 338
#     4  10  20  35  58  83 114 148 187 234 285 338
#     4   9  18  33  54  80 109 142 180 224 274 327
#     4  10  22  38  55  79 112 149 189 233 283 340
#     4  10  22  39  56  78 111 148 188 234 282 337
#     4  10  21  36  56  81 107 140 183 229 278 331
#     4   9  17  30  52  83 113 140 177 226 276 328
#
# _framework density 21.315584999999999
#
# number of rings (size 3 to 8) (size 9 to 14) (size 15 to 20)
#    0.000    2.500    0.000    1.500    0.000   12.500 
#    0.000    0.625    0.000    3.750    0.000    1.750 
#    0.000    2.000    0.000    0.000    0.000    0.000 
#
# Total GULP energy -793199.790571 kJ/mol
# GULP energy per Si atom -12393.746728 kJ/mol
# Density = 2.126707 g / cm^3
# Si number density = 21.315585 Si / 1000 Ang^3
#
#
#
# Elastic Constant Matrix: (Units=GPa)
#
#
# Indices 1 2 3 4 5 6 
#
# 1 93.6016 29.2721 30.2933 0.0000 0.0000 0.0000
# 2 29.2721 67.9866 15.5019 0.0000 0.0000 0.0000
# 3 30.2933 15.5019 75.6749 0.0000 0.0000 0.0000
# 4 0.0000 0.0000 0.0000 20.0824 0.0000 0.0000
# 5 0.0000 0.0000 0.0000 0.0000 28.8736 0.0000
# 6 0.0000 0.0000 0.0000 0.0000 0.0000 13.5432
#
#
#
# Elastic Compliance Matrix: (Units=1/GPa)
#
#
# Indices 1 2 3 4 5 6 
#
# 1 0.013649 -0.004858 -0.004469 0.000000 0.000000 0.000000
# 2 -0.004858 0.017158 -0.001570 0.000000 0.000000 0.000000
# 3 -0.004469 -0.001570 0.015325 0.000000 0.000000 0.000000
# 4 0.000000 0.000000 0.000000 0.049795 0.000000 0.000000
# 5 0.000000 0.000000 0.000000 0.000000 0.034634 0.000000
# 6 0.000000 0.000000 0.000000 0.000000 0.000000 0.073838
#
#
# Mechanical properties :
#
#
# Convention : Reuss Voigt Hill
#
# Bulk Modulus (GPa) = 41.08654 43.04418 42.06536
# Shear Modulus (GPa) = 21.33972 23.31290 22.32631
#
# Velocity S-wave (km/s) = 3.16750 3.31070 3.23989
# Velocity P-wave (km/s) = 5.71792 5.90355 5.81148
#
# Compressibility (1/GPa) = 0.02433887
#
# Stress axis : x y z
#
# Youngs Moduli (GPa) = 73.26549 58.28062 65.25307
#
# Poissons Ratio (x) = 0.28311 0.29160
# Poissons Ratio (y) = 0.35590 0.10247
# Poissons Ratio (z) = 0.32740 0.09152
#
# Static dielectric constant tensor:
#      x y z
#    x 4.019580 0.000000 0.000000 
#    y 0.000000 3.508980 0.000000 
#    z 0.000000 0.000000 3.852930 
# 
# 
# High freq. dielectric constant tensor:
#      x y z
#    x 1.836510 0.000000 0.000000 
#    y 0.000000 1.798070 0.000000 
#    z 0.000000 0.000000 1.839720 
# 
# From -- ./inp_files/10686.got.cif
#   From: 2010.03.12/outbox.cif.g09.slc.cpg/sg59_6_cif.got.tgz:10686.got - 2010.04.16 16:29:54.
