data_PCOD8244718
_publ_section_title
;
Structure prediction by ZEFSAII (Michael W. Deem and Ramdas Pophale) SiO2 
 PCOD8244718
Probable space group: P M M N
;
_chemical_formula_sum "Si O2"
_cell_formula_units_Z 48
_cell_length_a 7.843711
_cell_length_b 18.368016
_cell_length_c 17.434854
_cell_angle_alpha 90.000000
_cell_angle_beta 90.000000
_cell_angle_gamma 90.000000
_cell_volume 2511.898854
_symmetry_space_group_name_H-M "P M M N"
_symmetry_group_IT_number 59
_space_group.IT_coordinate_system_code '2'
_symmetry_cell_setting 'orthorhombic'
loop_
_space_group_symop_operation_xyz
x,y,z
1/2-x,1/2-y,z
1/2+x,-y,-z
-x,1/2+y,-z
-x,-y,-z
1/2+x,1/2+y,-z
1/2-x,y,z
x,1/2-y,z
loop_
_atom_site_type_symbol
_atom_site_label
_atom_site_fract_x
_atom_site_fract_y
_atom_site_fract_z
Si Si1 0.250000 0.336118 0.757494
Si Si2 0.051950 0.167212 0.189814
Si Si3 0.750000 0.662944 0.070771
Si Si4 0.446211 0.835718 0.350925
Si Si5 0.951377 0.168053 0.351990
Si Si6 0.561705 0.336404 0.029641
Si Si7 0.949753 0.083208 0.496952
O O1 0.250000 0.250000 0.762024
O O2 0.250000 0.369012 0.843164
O O3 0.424251 0.361773 0.715672
O O4 0.250000 0.162239 0.172622
O O5 0.987788 0.250000 0.197780
O O6 0.004690 0.129866 0.271113
O O7 0.960331 0.131070 0.115881
O O8 0.750000 0.750000 0.071816
O O9 0.581154 0.632422 0.028013
O O10 0.250000 0.856634 0.329351
O O11 0.460409 0.750000 0.365860
O O12 0.513119 0.875598 0.427198
O O13 0.750000 0.170188 0.357993
O O14 0.026846 0.250000 0.358236
O O15 0.031114 0.120466 0.421209
O O16 0.750000 0.357393 0.998815
O O17 0.537768 0.250000 0.034794
O O18 0.750000 0.091873 0.491755
O O19 0.000000 0.000000 0.500000
#
# Coordination Sequence:
#
# PCOD8244718 Si02
#       7
#     4   8   4   8   8   8   8
#     4   9  18  30  48  71  95 129 166 207 250 289
#     4   9  15  24  38  60  91 125 160 197 234 283
#     4   9  16  26  38  61  95 123 159 201 238 289
#     4   9  18  34  53  72  97 131 170 208 250 298
#     4   9  17  30  47  67  93 129 170 203 240 294
#     4   9  15  23  37  57  88 130 161 188 236 289
#     4  10  21  34  50  71  97 130 162 210 254 296
#
# _framework density 19.109048999999999
#
# number of rings (size 3 to 8) (size 9 to 14) (size 15 to 20)
#    0.000    2.833    0.833    1.000    1.167    5.333 
#    0.000    3.333    0.000    0.000    0.000    0.000 
#    0.000    1.333    0.667    0.000    0.000    0.000 
#
# Total GULP energy -594882.133148 kJ/mol
# GULP energy per Si atom -12393.377774 kJ/mol
# Density = 1.906556 g / cm^3
# Si number density = 19.109049 Si / 1000 Ang^3
#
#
#
# Elastic Constant Matrix: (Units=GPa)
#
#
# Indices 1 2 3 4 5 6 
#
# 1 100.6502 15.1816 76.3022 0.0000 0.0000 0.0000
# 2 15.1816 36.2609 33.9330 0.0000 0.0000 0.0000
# 3 76.3022 33.9330 193.9022 0.0000 0.0000 0.0000
# 4 0.0000 0.0000 0.0000 2.7564 0.0000 0.0000
# 5 0.0000 0.0000 0.0000 0.0000 32.3160 0.0000
# 6 0.0000 0.0000 0.0000 0.0000 0.0000 13.1955
#
#
#
# Elastic Compliance Matrix: (Units=1/GPa)
#
#
# Indices 1 2 3 4 5 6 
#
# 1 0.014182 -0.000855 -0.005431 0.000000 0.000000 0.000000
# 2 -0.000855 0.033030 -0.005444 0.000000 0.000000 0.000000
# 3 -0.005431 -0.005444 0.008247 0.000000 0.000000 0.000000
# 4 0.000000 0.000000 0.000000 0.362786 0.000000 0.000000
# 5 0.000000 0.000000 0.000000 0.000000 0.030944 0.000000
# 6 0.000000 0.000000 0.000000 0.000000 0.000000 0.075783
#
#
# Mechanical properties :
#
#
# Convention : Reuss Voigt Hill
#
# Bulk Modulus (GPa) = 31.25098 64.62744 47.93921
# Shear Modulus (GPa) = 8.94297 23.34669 16.14483
#
# Velocity S-wave (km/s) = 2.16567 3.49916 2.90983
# Velocity P-wave (km/s) = 4.75847 7.08656 6.03582
#
# Compressibility (1/GPa) = 0.03199900
#
# Stress axis : x y z
#
# Youngs Moduli (GPa) = 70.51430 30.27528 121.25606
#
# Poissons Ratio (x) = 0.02589 0.65853
# Poissons Ratio (y) = 0.06030 0.66009
# Poissons Ratio (z) = 0.38296 0.16481
#
# Static dielectric constant tensor:
#      x y z
#    x 3.531190 0.000000 0.000000 
#    y 0.000000 3.373860 0.000000 
#    z 0.000000 0.000000 3.889140 
# 
# 
# High freq. dielectric constant tensor:
#      x y z
#    x 1.748540 0.000000 0.000000 
#    y 0.000000 1.664410 0.000000 
#    z 0.000000 0.000000 1.756720 
# 
# From -- ./inp_files/20513.got.cif
#   From: 2010.03.12/outbox.cif.g09.slc.cpg/sg59_11_cif.got.tgz:20513.got - 2010.04.16 16:29:54.
