data_PCOD8244820
_publ_section_title
;
Structure prediction by ZEFSAII (Michael W. Deem and Ramdas Pophale) SiO2 
 PCOD8244820
Probable space group: P M M N
;
_chemical_formula_sum "Si O2"
_cell_formula_units_Z 48
_cell_length_a 9.136563
_cell_length_b 7.776573
_cell_length_c 33.981664
_cell_angle_alpha 90.000000
_cell_angle_beta 90.000000
_cell_angle_gamma 90.000000
_cell_volume 2414.436277
_symmetry_space_group_name_H-M "P M M N"
_symmetry_group_IT_number 59
_space_group.IT_coordinate_system_code '2'
_symmetry_cell_setting 'orthorhombic'
loop_
_space_group_symop_operation_xyz
x,y,z
1/2-x,1/2-y,z
1/2+x,-y,-z
-x,1/2+y,-z
-x,-y,-z
1/2+x,1/2+y,-z
1/2-x,y,z
x,1/2-y,z
loop_
_atom_site_type_symbol
_atom_site_label
_atom_site_fract_x
_atom_site_fract_y
_atom_site_fract_z
Si Si1 0.915325 0.054684 0.115429
Si Si2 0.582465 0.441160 0.810958
Si Si3 0.077250 0.250000 0.243561
Si Si4 0.079105 0.750000 0.673828
Si Si5 0.420855 0.052205 0.615679
Si Si6 0.082524 0.548827 0.039448
Si Si7 0.587850 0.451717 0.538506
O O1 0.750000 0.988173 0.108342
O O2 0.915513 0.250000 0.130281
O O3 0.989886 0.941736 0.149108
O O4 0.004371 0.046341 0.075148
O O5 0.750000 0.484188 0.822121
O O6 0.568536 0.250000 0.792434
O O7 0.523763 0.579838 0.779623
O O8 0.250000 0.250000 0.249227
O O9 0.006128 0.250000 0.285826
O O10 0.250000 0.750000 0.683023
O O11 0.034518 0.576011 0.650762
O O12 0.250000 0.037831 0.606087
O O13 0.462721 0.250000 0.626757
O O14 0.504318 0.982682 0.577199
O O15 0.250000 0.485919 0.036419
O O16 0.073818 0.750000 0.047253
O O17 0.000000 0.500000 0.000000
O O18 0.500000 0.500000 0.500000
O O19 0.750000 0.535255 0.536905
O O20 0.601340 0.250000 0.541152
#
# Coordination Sequence:
#
# PCOD8244820 Si02
#       7
#     8   8   4   4   8   8   8
#     4  11  23  38  59  88 120 154 194 241 294 352
#     4  10  21  39  63  89 118 155 197 240 293 353
#     4  10  22  40  60  88 122 152 190 244 298 352
#     4  10  22  38  60  86 114 152 196 240 292 356
#     4   9  19  37  57  79 112 151 192 241 293 345
#     4  11  24  40  58  83 115 153 199 246 294 350
#     4  10  21  35  53  80 113 149 191 240 292 346
#
# _framework density 19.880417000000001
#
# number of rings (size 3 to 8) (size 9 to 14) (size 15 to 20)
#    0.000    1.833    0.833    2.500    1.167    9.667 
#    0.000    0.000    0.000    0.000    0.000    0.000 
#    0.000    0.000    0.000    0.000    0.000    0.000 
#
# Total GULP energy -595299.024631 kJ/mol
# GULP energy per Si atom -12402.063013 kJ/mol
# Density = 1.983517 g / cm^3
# Si number density = 19.880417 Si / 1000 Ang^3
#
#
#
# Elastic Constant Matrix: (Units=GPa)
#
#
# Indices 1 2 3 4 5 6 
#
# 1 114.7808 36.8390 70.4259 0.0000 0.0000 0.0000
# 2 36.8390 98.6991 54.2377 0.0000 0.0000 0.0000
# 3 70.4259 54.2377 161.3787 0.0000 0.0000 0.0000
# 4 0.0000 0.0000 0.0000 29.9191 0.0000 0.0000
# 5 0.0000 0.0000 0.0000 0.0000 43.4885 0.0000
# 6 0.0000 0.0000 0.0000 0.0000 0.0000 22.1593
#
#
#
# Elastic Compliance Matrix: (Units=1/GPa)
#
#
# Indices 1 2 3 4 5 6 
#
# 1 0.012211 -0.001998 -0.004657 0.000000 0.000000 0.000000
# 2 -0.001998 0.012754 -0.003414 0.000000 0.000000 0.000000
# 3 -0.004657 -0.003414 0.009377 0.000000 0.000000 0.000000
# 4 0.000000 0.000000 0.000000 0.033423 0.000000 0.000000
# 5 0.000000 0.000000 0.000000 0.000000 0.022995 0.000000
# 6 0.000000 0.000000 0.000000 0.000000 0.000000 0.045128
#
#
# Mechanical properties :
#
#
# Convention : Reuss Voigt Hill
#
# Bulk Modulus (GPa) = 70.41491 77.54041 73.97766
# Shear Modulus (GPa) = 31.10190 33.33711 32.21950
#
# Velocity S-wave (km/s) = 3.95960 4.09942 4.03012
# Velocity P-wave (km/s) = 7.51004 7.84188 7.67775
#
# Compressibility (1/GPa) = 0.01420154
#
# Stress axis : x y z
#
# Youngs Moduli (GPa) = 81.89147 78.40686 106.64838
#
# Poissons Ratio (x) = 0.15669 0.49670
# Poissons Ratio (y) = 0.16366 0.36413
# Poissons Ratio (z) = 0.38140 0.26771
#
# Static dielectric constant tensor:
#      x y z
#    x 3.797870 0.000000 0.000000 
#    y 0.000000 4.042650 0.000000 
#    z 0.000000 0.000000 3.430660 
# 
# 
# High freq. dielectric constant tensor:
#      x y z
#    x 1.779450 0.000000 0.000000 
#    y 0.000000 1.785370 0.000000 
#    z 0.000000 0.000000 1.767890 
# 
# From -- ./inp_files/33067.got.cif
#   From: 2010.03.12/outbox.cif.g09.slc.cpg/sg59_17_cif.got.tgz:33067.got - 2010.04.16 16:29:54.
