data_PCOD8244886
_publ_section_title
;
Structure prediction by ZEFSAII (Michael W. Deem and Ramdas Pophale) SiO2 
 PCOD8244886
Probable space group: P M M N
;
_chemical_formula_sum "Si O2"
_cell_formula_units_Z 48
_cell_length_a 9.241300
_cell_length_b 9.861671
_cell_length_c 30.292052
_cell_angle_alpha 90.000000
_cell_angle_beta 90.000000
_cell_angle_gamma 90.000000
_cell_volume 2760.655866
_symmetry_space_group_name_H-M "P M M N"
_symmetry_group_IT_number 59
_space_group.IT_coordinate_system_code '2'
_symmetry_cell_setting 'orthorhombic'
loop_
_space_group_symop_operation_xyz
x,y,z
1/2-x,1/2-y,z
1/2+x,-y,-z
-x,1/2+y,-z
-x,-y,-z
1/2+x,1/2+y,-z
1/2-x,y,z
x,1/2-y,z
loop_
_atom_site_type_symbol
_atom_site_label
_atom_site_fract_x
_atom_site_fract_y
_atom_site_fract_z
Si Si1 0.582816 0.093980 0.375727
Si Si2 0.579378 0.902881 0.866705
Si Si3 0.418639 0.095107 0.033555
Si Si4 0.421966 0.400188 0.701149
Si Si5 0.416475 0.408224 0.799483
Si Si6 0.919392 0.592715 0.534997
O O1 0.750000 0.058776 0.386651
O O2 0.566127 0.250000 0.362138
O O3 0.485396 0.057501 0.417544
O O4 0.521259 0.006642 0.334949
O O5 0.750000 0.917408 0.862549
O O6 0.531603 0.750000 0.854397
O O7 0.530126 0.936727 0.916586
O O8 0.507423 0.007870 0.834053
O O9 0.250000 0.066263 0.028890
O O10 0.454701 0.250000 0.021591
O O11 0.500000 0.000000 0.000000
O O12 0.250000 0.398027 0.701830
O O13 0.479963 0.250000 0.688808
O O14 0.474992 0.441531 0.750125
O O15 0.250000 0.451108 0.804011
O O16 0.436619 0.250000 0.809674
O O17 0.750000 0.557850 0.535303
O O18 0.946566 0.750000 0.523051
O O19 0.000000 0.500000 0.500000
#
# Coordination Sequence:
#
# PCOD8244886 Si02
#       6
#     8   8   8   8   8   8
#     4   9  17  30  49  72  97 126 161 200 241 286
#     4   9  19  35  51  69  97 131 164 199 242 291
#     4   9  19  35  52  71  97 127 160 200 244 291
#     4   8  15  29  48  70  97 127 159 197 240 285
#     4   9  18  32  50  74 102 130 163 203 243 285
#     4  10  21  36  53  74 101 132 165 202 245 292
#
# _framework density 17.387172
#
# number of rings (size 3 to 8) (size 9 to 14) (size 15 to 20)
#    0.000    3.000    0.000    2.500    0.000    4.667 
#    0.000    9.167    0.000    3.000    0.000    0.000 
#    0.000    0.000    0.000    0.000    0.000    0.000 
#
# Total GULP energy -595091.872321 kJ/mol
# GULP energy per Si atom -12397.747340 kJ/mol
# Density = 1.734760 g / cm^3
# Si number density = 17.387172 Si / 1000 Ang^3
#
#
#
# Elastic Constant Matrix: (Units=GPa)
#
#
# Indices 1 2 3 4 5 6 
#
# 1 55.3250 41.9029 53.9077 0.0000 0.0000 0.0000
# 2 41.9029 86.6554 84.5908 0.0000 0.0000 0.0000
# 3 53.9077 84.5908 137.8011 0.0000 0.0000 0.0000
# 4 0.0000 0.0000 0.0000 42.8786 0.0000 0.0000
# 5 0.0000 0.0000 0.0000 0.0000 30.0028 0.0000
# 6 0.0000 0.0000 0.0000 0.0000 0.0000 29.2788
#
#
#
# Elastic Compliance Matrix: (Units=1/GPa)
#
#
# Indices 1 2 3 4 5 6 
#
# 1 0.031249 -0.007928 -0.007358 0.000000 0.000000 0.000000
# 2 -0.007928 0.030806 -0.015809 0.000000 0.000000 0.000000
# 3 -0.007358 -0.015809 0.019840 0.000000 0.000000 0.000000
# 4 0.000000 0.000000 0.000000 0.023322 0.000000 0.000000
# 5 0.000000 0.000000 0.000000 0.000000 0.033330 0.000000
# 6 0.000000 0.000000 0.000000 0.000000 0.000000 0.034154
#
#
# Mechanical properties :
#
#
# Convention : Reuss Voigt Hill
#
# Bulk Modulus (GPa) = 50.74935 71.17604 60.96269
# Shear Modulus (GPa) = 20.70730 27.05740 23.88235
#
# Velocity S-wave (km/s) = 3.45476 3.94911 3.71018
# Velocity P-wave (km/s) = 6.72049 7.86249 7.31382
#
# Compressibility (1/GPa) = 0.01970469
#
# Stress axis : x y z
#
# Youngs Moduli (GPa) = 32.00088 32.46075 50.40343
#
# Poissons Ratio (x) = 0.25736 0.37086
# Poissons Ratio (y) = 0.25371 0.79684
# Poissons Ratio (z) = 0.23545 0.51318
#
# Static dielectric constant tensor:
#      x y z
#    x 3.021440 0.000000 0.000000 
#    y 0.000000 3.289520 0.000000 
#    z 0.000000 0.000000 3.323470 
# 
# 
# High freq. dielectric constant tensor:
#      x y z
#    x 1.651780 0.000000 0.000000 
#    y 0.000000 1.674410 0.000000 
#    z 0.000000 0.000000 1.679390 
# 
# From -- ./inp_files/32833.got.cif
#   From: 2010.03.12/outbox.cif.g09.slc.cpg/sg59_17_cif.got.tgz:32833.got - 2010.04.16 16:29:54.
