data_PCOD8244363
_publ_section_title
;
Structure prediction by ZEFSAII (Michael W. Deem and Ramdas Pophale) SiO2 
 PCOD8244363
Probable space group: P M M N
;
_chemical_formula_sum "Si O2"
_cell_formula_units_Z 64
_cell_length_a 18.538731
_cell_length_b 9.394488
_cell_length_c 19.653264
_cell_angle_alpha 90.000000
_cell_angle_beta 90.000000
_cell_angle_gamma 90.000000
_cell_volume 3422.849523
_symmetry_space_group_name_H-M "P M M N"
_symmetry_group_IT_number 59
_space_group.IT_coordinate_system_code '2'
_symmetry_cell_setting 'orthorhombic'
loop_
_space_group_symop_operation_xyz
x,y,z
1/2-x,1/2-y,z
1/2+x,-y,-z
-x,1/2+y,-z
-x,-y,-z
1/2+x,1/2+y,-z
1/2-x,y,z
x,1/2-y,z
loop_
_atom_site_type_symbol
_atom_site_label
_atom_site_fract_x
_atom_site_fract_y
_atom_site_fract_z
Si Si1 0.069524 0.918666 0.781721
Si Si2 0.930567 0.912146 0.355729
Si Si3 0.667751 0.914607 0.479114
Si Si4 0.586076 0.414685 0.592845
Si Si5 0.666108 0.915132 0.116060
Si Si6 0.666845 0.413958 0.726283
Si Si7 0.928169 0.914118 0.988439
Si Si8 0.586888 0.585571 0.835233
O O1 0.080868 0.750000 0.780093
O O2 0.994089 0.962357 0.816324
O O3 0.072381 0.977618 0.705587
O O4 0.133392 0.989016 0.824546
O O5 0.932759 0.750000 0.327436
O O6 0.860599 0.937180 0.402417
O O7 0.000708 0.940799 0.402274
O O8 0.750000 0.969868 0.482531
O O9 0.662913 0.750000 0.499868
O O10 0.617353 0.000626 0.529753
O O11 0.605593 0.250000 0.581902
O O12 0.621966 0.472130 0.662251
O O13 0.750000 0.949956 0.110908
O O14 0.652021 0.750000 0.133507
O O15 0.631647 0.957046 0.043606
O O16 0.750000 0.439366 0.709783
O O17 0.648642 0.250000 0.739982
O O18 0.645443 0.498629 0.793373
O O19 0.949849 0.750000 0.994127
O O20 0.896905 0.947886 0.913917
O O21 0.000000 0.000000 0.000000
O O22 0.597712 0.750000 0.817503
#
# Coordination Sequence:
#
# PCOD8244363 Si02
#       8
#     8   8   8   8   8   8   8   8
#     4  11  22  37  59  88 118 149 190 240 291 340
#     4  10  21  38  60  84 112 151 194 235 282 340
#     4  10  22  38  56  82 115 147 184 233 287 342
#     4  10  20  36  59  83 110 148 191 234 280 336
#     4  10  22  39  60  86 116 155 199 239 286 347
#     4  10  21  36  55  82 114 148 188 230 276 335
#     4  10  20  36  59  85 113 148 190 235 284 339
#     4  10  21  36  56  84 115 148 186 231 283 339
#
# _framework density 18.697870000000002
#
# number of rings (size 3 to 8) (size 9 to 14) (size 15 to 20)
#    0.000    1.875    2.500    1.125    0.000    4.750 
#    0.000    2.500    0.000    0.000    0.000    0.000 
#    0.000    0.000    0.000    0.000    0.000    0.000 
#
# Total GULP energy -793885.363506 kJ/mol
# GULP energy per Si atom -12404.458805 kJ/mol
# Density = 1.865531 g / cm^3
# Si number density = 18.697870 Si / 1000 Ang^3
#
#
#
# Elastic Constant Matrix: (Units=GPa)
#
#
# Indices 1 2 3 4 5 6 
#
# 1 85.4898 36.0934 42.6958 0.0000 0.0000 0.0000
# 2 36.0934 61.1413 49.0175 0.0000 0.0000 0.0000
# 3 42.6958 49.0175 101.4088 0.0000 0.0000 0.0000
# 4 0.0000 0.0000 0.0000 36.3691 0.0000 0.0000
# 5 0.0000 0.0000 0.0000 0.0000 32.4427 0.0000
# 6 0.0000 0.0000 0.0000 0.0000 0.0000 29.0582
#
#
#
# Elastic Compliance Matrix: (Units=1/GPa)
#
#
# Indices 1 2 3 4 5 6 
#
# 1 0.016357 -0.006751 -0.003624 0.000000 0.000000 0.000000
# 2 -0.006751 0.029490 -0.011412 0.000000 0.000000 0.000000
# 3 -0.003624 -0.011412 0.016903 0.000000 0.000000 0.000000
# 4 0.000000 0.000000 0.000000 0.027496 0.000000 0.000000
# 5 0.000000 0.000000 0.000000 0.000000 0.030824 0.000000
# 6 0.000000 0.000000 0.000000 0.000000 0.000000 0.034414
#
#
# Mechanical properties :
#
#
# Convention : Reuss Voigt Hill
#
# Bulk Modulus (GPa) = 52.14659 55.96149 54.05404
# Shear Modulus (GPa) = 24.33690 27.58954 25.96322
#
# Velocity S-wave (km/s) = 3.61166 3.84545 3.73039
# Velocity P-wave (km/s) = 6.73363 7.05060 6.89394
#
# Compressibility (1/GPa) = 0.01917671
#
# Stress axis : x y z
#
# Youngs Moduli (GPa) = 61.13475 33.90968 59.16135
#
# Poissons Ratio (x) = 0.22893 0.21438
# Poissons Ratio (y) = 0.41273 0.67515
# Poissons Ratio (z) = 0.22153 0.38698
#
# Static dielectric constant tensor:
#      x y z
#    x 3.493570 0.000000 0.000000 
#    y 0.000000 3.391920 0.000000 
#    z 0.000000 0.000000 2.369820 
# 
# 
# High freq. dielectric constant tensor:
#      x y z
#    x 1.729170 0.000000 0.000000 
#    y 0.000000 1.721010 0.000000 
#    z 0.000000 0.000000 1.733200 
# 
# From -- ./inp_files/30750.got.cif
#   From: 2010.03.12/outbox.cif.g09.slc.cpg/sg59_16_cif.got.tgz:30750.got - 2010.04.16 16:29:54.
