data_PCOD8244124
_publ_section_title
;
Structure prediction by ZEFSAII (Michael W. Deem and Ramdas Pophale) SiO2 
 PCOD8244124
Probable space group: P M M N
;
_chemical_formula_sum "Si O2"
_cell_formula_units_Z 32
_cell_length_a 8.802070
_cell_length_b 16.273962
_cell_length_c 11.278602
_cell_angle_alpha 90.000000
_cell_angle_beta 90.000000
_cell_angle_gamma 90.000000
_cell_volume 1615.598299
_symmetry_space_group_name_H-M "P M M N"
_symmetry_group_IT_number 59
_space_group.IT_coordinate_system_code '2'
_symmetry_cell_setting 'orthorhombic'
loop_
_space_group_symop_operation_xyz
x,y,z
1/2-x,1/2-y,z
1/2+x,-y,-z
-x,1/2+y,-z
-x,-y,-z
1/2+x,1/2+y,-z
1/2-x,y,z
x,1/2-y,z
loop_
_atom_site_type_symbol
_atom_site_label
_atom_site_fract_x
_atom_site_fract_y
_atom_site_fract_z
Si Si1 0.928713 0.419457 0.937188
Si Si2 0.921216 0.458545 0.668717
Si Si3 0.067827 0.250000 0.031230
Si Si4 0.923417 0.750000 0.706376
Si Si5 0.581222 0.111659 0.425584
O O1 0.750000 0.417515 0.966532
O O2 0.959946 0.423350 0.797001
O O3 0.000000 0.500000 0.000000
O O4 0.005499 0.334061 0.974692
O O5 0.750000 0.496373 0.667643
O O6 0.931501 0.387543 0.568655
O O7 0.047826 0.523747 0.631818
O O8 0.250000 0.250000 0.020934
O O9 0.999505 0.250000 0.164582
O O10 0.750000 0.750000 0.737330
O O11 0.960017 0.828150 0.628619
O O12 0.750000 0.138723 0.387251
#
# Coordination Sequence:
#
# PCOD8244124 Si02
#       5
#     8   8   4   4   8
#     4  11  23  40  62  87 119 157 195 239 291 344
#     4   9  20  38  57  81 114 147 180 226 285 337
#     4  11  25  42  59  84 118 155 198 243 288 345
#     4  11  23  38  55  78 112 147 180 229 288 333
#     4  10  20  35  58  84 109 142 185 229 274 335
#
# _framework density 19.806903999999999
#
# number of rings (size 3 to 8) (size 9 to 14) (size 15 to 20)
#    0.000    1.750    0.000    3.750    0.000   12.000 
#    0.000    5.000    0.000    0.000    0.000    0.000 
#    0.000    0.000    0.000    0.000    0.000    0.000 
#
# Total GULP energy -396638.071261 kJ/mol
# GULP energy per Si atom -12394.939727 kJ/mol
# Density = 1.976182 g / cm^3
# Si number density = 19.806904 Si / 1000 Ang^3
#
#
#
# Elastic Constant Matrix: (Units=GPa)
#
#
# Indices 1 2 3 4 5 6 
#
# 1 86.6977 44.8785 57.3581 0.0000 0.0000 0.0000
# 2 44.8785 126.4830 70.9009 0.0000 0.0000 0.0000
# 3 57.3581 70.9009 168.1281 0.0000 0.0000 0.0000
# 4 0.0000 0.0000 0.0000 38.0165 0.0000 0.0000
# 5 0.0000 0.0000 0.0000 0.0000 28.5487 0.0000
# 6 0.0000 0.0000 0.0000 0.0000 0.0000 39.9678
#
#
#
# Elastic Compliance Matrix: (Units=1/GPa)
#
#
# Indices 1 2 3 4 5 6 
#
# 1 0.015950 -0.003417 -0.004000 0.000000 0.000000 0.000000
# 2 -0.003417 0.011086 -0.003509 0.000000 0.000000 0.000000
# 3 -0.004000 -0.003509 0.008793 0.000000 0.000000 0.000000
# 4 0.000000 0.000000 0.000000 0.026304 0.000000 0.000000
# 5 0.000000 0.000000 0.000000 0.000000 0.035028 0.000000
# 6 0.000000 0.000000 0.000000 0.000000 0.000000 0.025020
#
#
# Mechanical properties :
#
#
# Convention : Reuss Voigt Hill
#
# Bulk Modulus (GPa) = 71.55695 80.84264 76.19979
# Shear Modulus (GPa) = 33.62668 35.18469 34.40568
#
# Velocity S-wave (km/s) = 4.12482 4.21929 4.17232
# Velocity P-wave (km/s) = 7.67406 8.03993 7.85913
#
# Compressibility (1/GPa) = 0.01397488
#
# Stress axis : x y z
#
# Youngs Moduli (GPa) = 62.69730 90.20659 113.73306
#
# Poissons Ratio (x) = 0.30821 0.45499
# Poissons Ratio (y) = 0.21422 0.39912
# Poissons Ratio (z) = 0.25082 0.31656
#
# Static dielectric constant tensor:
#      x y z
#    x 3.732200 0.000000 0.000000 
#    y 0.000000 3.855420 0.000000 
#    z 0.000000 0.000000 3.866000 
# 
# 
# High freq. dielectric constant tensor:
#      x y z
#    x 1.782580 0.000000 0.000000 
#    y 0.000000 1.763020 0.000000 
#    z 0.000000 0.000000 1.790480 
# 
# From -- ./inp_files/13648.got.cif
#   From: 2010.03.12/outbox.cif.g09.slc.cpg/sg59_7_cif.got.tgz:13648.got - 2010.04.16 16:29:54.
