data_PCOD8244570
_publ_section_title
;
Structure prediction by ZEFSAII (Michael W. Deem and Ramdas Pophale) SiO2 
 PCOD8244570
Probable space group: P M M N
;
_chemical_formula_sum "Si O2"
_cell_formula_units_Z 40
_cell_length_a 8.437644
_cell_length_b 20.440606
_cell_length_c 11.591276
_cell_angle_alpha 90.000000
_cell_angle_beta 90.000000
_cell_angle_gamma 90.000000
_cell_volume 1999.153823
_symmetry_space_group_name_H-M "P M M N"
_symmetry_group_IT_number 59
_space_group.IT_coordinate_system_code '2'
_symmetry_cell_setting 'orthorhombic'
loop_
_space_group_symop_operation_xyz
x,y,z
1/2-x,1/2-y,z
1/2+x,-y,-z
-x,1/2+y,-z
-x,-y,-z
1/2+x,1/2+y,-z
1/2-x,y,z
x,1/2-y,z
loop_
_atom_site_type_symbol
_atom_site_label
_atom_site_fract_x
_atom_site_fract_y
_atom_site_fract_z
Si Si1 0.062446 0.250000 0.369501
Si Si2 0.062209 0.073668 0.998684
Si Si3 0.567929 0.250000 0.625201
Si Si4 0.563037 0.876679 0.759967
Si Si5 0.562651 0.493526 0.626819
Si Si6 0.065522 0.128206 0.756733
O O1 0.250000 0.250000 0.357619
O O2 0.989106 0.186533 0.304483
O O3 0.026312 0.250000 0.505214
O O4 0.250000 0.068320 0.000897
O O5 0.999095 0.114565 0.109279
O O6 0.004306 0.113413 0.886336
O O7 0.000000 0.000000 0.000000
O O8 0.750000 0.250000 0.590737
O O9 0.531100 0.312591 0.702774
O O10 0.750000 0.868580 0.762097
O O11 0.512987 0.940587 0.690626
O O12 0.500000 0.500000 0.500000
O O13 0.750000 0.479641 0.632990
O O14 0.463787 0.435594 0.682037
O O15 0.250000 0.146636 0.755364
#
# Coordination Sequence:
#
# PCOD8244570 Si02
#       6
#     4   8   4   8   8   8
#     4  10  20  39  64  88 120 159 201 252 305 366
#     4  10  20  37  61  90 122 158 201 251 304 360
#     4  12  26  43  62  86 122 163 201 252 309 368
#     4   9  19  35  59  88 118 156 198 245 302 356
#     4  11  21  35  57  86 122 159 206 257 304 361
#     4  11  23  39  62  90 120 159 204 252 306 368
#
# _framework density 20.008465000000001
#
# number of rings (size 3 to 8) (size 9 to 14) (size 15 to 20)
#    0.000    1.600    2.000    3.300    0.000    3.200 
#    0.000    5.000    0.000    1.200    0.000    0.000 
#    0.000    0.000    0.000    0.000    0.000    0.000 
#
# Total GULP energy -496000.905157 kJ/mol
# GULP energy per Si atom -12400.022629 kJ/mol
# Density = 1.996292 g / cm^3
# Si number density = 20.008465 Si / 1000 Ang^3
#
#
#
# Elastic Constant Matrix: (Units=GPa)
#
#
# Indices 1 2 3 4 5 6 
#
# 1 21.2267 11.0905 5.9599 0.0000 0.0000 0.0000
# 2 11.0905 149.7325 77.0442 0.0000 0.0000 0.0000
# 3 5.9599 77.0442 188.1702 0.0000 0.0000 0.0000
# 4 0.0000 0.0000 0.0000 41.4541 0.0000 0.0000
# 5 0.0000 0.0000 0.0000 0.0000 21.9152 0.0000
# 6 0.0000 0.0000 0.0000 0.0000 0.0000 -1.8211
#
#
#
# Elastic Compliance Matrix: (Units=1/GPa)
#
#
# Indices 1 2 3 4 5 6 
#
# 1 0.049008 -0.003587 -0.000084 0.000000 0.000000 0.000000
# 2 -0.003587 0.008724 -0.003458 0.000000 0.000000 0.000000
# 3 -0.000084 -0.003458 0.006733 0.000000 0.000000 0.000000
# 4 0.000000 0.000000 0.000000 0.024123 0.000000 0.000000
# 5 0.000000 0.000000 0.000000 0.000000 0.045630 0.000000
# 6 0.000000 0.000000 0.000000 0.000000 0.000000 -0.549116
#
#
# Mechanical properties :
#
#
# Convention : Reuss Voigt Hill
#
# Bulk Modulus (GPa) = 19.91751 60.81317 40.36534
# Shear Modulus (GPa) = -13.02407 29.97865 8.47729
#
# Velocity S-wave (km/s) = -2.55410 3.87499 2.06059
# Velocity P-wave (km/s) = 1.13061 7.10496 5.08717
#
# Compressibility (1/GPa) = 0.05020708
#
# Stress axis : x y z
#
# Youngs Moduli (GPa) = 20.40485 114.63087 148.52434
#
# Poissons Ratio (x) = 0.41118 0.01241
# Poissons Ratio (y) = 0.07319 0.51363
# Poissons Ratio (z) = 0.00171 0.39642
#
# Static dielectric constant tensor:
#      x y z
#    x 3.333880 0.000000 0.000000 
#    y 0.000000 3.917140 0.000000 
#    z 0.000000 0.000000 4.011890 
# 
# 
# High freq. dielectric constant tensor:
#      x y z
#    x 1.758590 0.000000 0.000000 
#    y 0.000000 1.788570 0.000000 
#    z 0.000000 0.000000 1.803550 
# 
# From -- ./inp_files/14129.got.cif
#   From: 2010.03.12/outbox.cif.g09.slc.cpg/sg59_8_cif.got.tgz:14129.got - 2010.04.16 16:29:54.
