data_PCOD8244162
_publ_section_title
;
Structure prediction by ZEFSAII (Michael W. Deem and Ramdas Pophale) SiO2 
 PCOD8244162
Probable space group: P M M N
;
_chemical_formula_sum "Si O2"
_cell_formula_units_Z 64
_cell_length_a 15.363314
_cell_length_b 9.179378
_cell_length_c 23.674593
_cell_angle_alpha 90.000000
_cell_angle_beta 90.000000
_cell_angle_gamma 90.000000
_cell_volume 3338.725258
_symmetry_space_group_name_H-M "P M M N"
_symmetry_group_IT_number 59
_space_group.IT_coordinate_system_code '2'
_symmetry_cell_setting 'orthorhombic'
loop_
_space_group_symop_operation_xyz
x,y,z
1/2-x,1/2-y,z
1/2+x,-y,-z
-x,1/2+y,-z
-x,-y,-z
1/2+x,1/2+y,-z
1/2-x,y,z
x,1/2-y,z
loop_
_atom_site_type_symbol
_atom_site_label
_atom_site_fract_x
_atom_site_fract_y
_atom_site_fract_z
Si Si1 0.847097 0.417243 0.639783
Si Si2 0.098533 0.419300 0.251685
Si Si3 0.849087 0.582653 0.872969
Si Si4 0.652688 0.916509 0.139487
Si Si5 0.995571 0.077718 0.940495
Si Si6 0.600455 0.422149 0.249298
Si Si7 0.500782 0.078522 0.559235
Si Si8 0.152585 0.084123 0.640831
O O1 0.750000 0.436721 0.614731
O O2 0.869399 0.250000 0.652162
O O3 0.851618 0.498729 0.699025
O O4 0.916007 0.479088 0.594593
O O5 0.103998 0.250000 0.265811
O O6 0.145089 0.457040 0.192973
O O7 0.999364 0.472858 0.248541
O O8 0.750000 0.559899 0.893271
O O9 0.878890 0.750000 0.882653
O O10 0.910146 0.475755 0.907967
O O11 0.750000 0.932857 0.113661
O O12 0.634016 0.750000 0.157147
O O13 0.582445 0.968030 0.093392
O O14 0.647803 0.015102 0.194707
O O15 0.989783 0.250000 0.949252
O O16 0.000000 0.000000 0.000000
O O17 0.610647 0.250000 0.248264
O O18 0.646171 0.482573 0.304861
O O19 0.505803 0.250000 0.548531
O O20 0.413864 0.032354 0.592629
O O21 0.500000 0.000000 0.500000
O O22 0.250000 0.071047 0.615958
O O23 0.131243 0.250000 0.658923
#
# Coordination Sequence:
#
# PCOD8244162 Si02
#       8
#     8   8   8   8   8   8   8   8
#     4  10  21  37  58  84 113 147 186 229 280 336
#     4  10  20  35  58  87 119 152 186 227 282 342
#     4  10  21  39  62  87 119 157 193 234 289 348
#     4  10  22  40  61  85 115 154 194 232 283 346
#     4  11  24  41  62  86 116 153 199 247 291 341
#     4  11  21  34  58  90 120 148 184 232 284 336
#     4  10  22  39  57  79 109 145 189 236 280 329
#     4  10  21  38  59  82 112 151 189 225 275 341
#
# _framework density 19.168991999999999
#
# number of rings (size 3 to 8) (size 9 to 14) (size 15 to 20)
#    0.000    1.750    2.500    1.500    0.000    6.500 
#    0.000    1.250    0.000    0.000    0.000    0.000 
#    0.000    0.000    0.000    0.000    0.000    0.000 
#
# Total GULP energy -793842.874597 kJ/mol
# GULP energy per Si atom -12403.794916 kJ/mol
# Density = 1.912536 g / cm^3
# Si number density = 19.168992 Si / 1000 Ang^3
#
#
#
# Elastic Constant Matrix: (Units=GPa)
#
#
# Indices 1 2 3 4 5 6 
#
# 1 141.0404 42.4184 63.7218 0.0000 0.0000 0.0000
# 2 42.4184 63.6489 56.2603 0.0000 0.0000 0.0000
# 3 63.7218 56.2603 136.0368 0.0000 0.0000 0.0000
# 4 0.0000 0.0000 0.0000 37.1128 0.0000 0.0000
# 5 0.0000 0.0000 0.0000 0.0000 9.3497 0.0000
# 6 0.0000 0.0000 0.0000 0.0000 0.0000 25.1355
#
#
#
# Elastic Compliance Matrix: (Units=1/GPa)
#
#
# Indices 1 2 3 4 5 6 
#
# 1 0.009542 -0.003796 -0.002900 0.000000 0.000000 0.000000
# 2 -0.003796 0.026274 -0.009088 0.000000 0.000000 0.000000
# 3 -0.002900 -0.009088 0.012468 0.000000 0.000000 0.000000
# 4 0.000000 0.000000 0.000000 0.026945 0.000000 0.000000
# 5 0.000000 0.000000 0.000000 0.000000 0.106955 0.000000
# 6 0.000000 0.000000 0.000000 0.000000 0.000000 0.039784
#
#
# Mechanical properties :
#
#
# Convention : Reuss Voigt Hill
#
# Bulk Modulus (GPa) = 59.82191 73.94743 66.88467
# Shear Modulus (GPa) = 19.29704 26.20798 22.75251
#
# Velocity S-wave (km/s) = 3.17626 3.70159 3.44894
# Velocity P-wave (km/s) = 6.68782 7.54515 7.12939
#
# Compressibility (1/GPa) = 0.01671628
#
# Stress axis : x y z
#
# Youngs Moduli (GPa) = 104.80082 38.06039 80.20760
#
# Poissons Ratio (x) = 0.14448 0.23257
# Poissons Ratio (y) = 0.39783 0.72892
# Poissons Ratio (z) = 0.30388 0.34589
#
# Static dielectric constant tensor:
#      x y z
#    x 3.797970 0.000000 0.000000 
#    y 0.000000 3.438180 0.000000 
#    z 0.000000 0.000000 3.104020 
# 
# 
# High freq. dielectric constant tensor:
#      x y z
#    x 1.764480 0.000000 0.000000 
#    y 0.000000 1.740700 0.000000 
#    z 0.000000 0.000000 1.736110 
# 
# From -- ./inp_files/32204.got.cif
#   From: 2010.03.12/outbox.cif.g09.slc.cpg/sg59_17_cif.got.tgz:32204.got - 2010.04.16 16:29:54.
