data_PCOD8244680
_publ_section_title
;
Structure prediction by ZEFSAII (Michael W. Deem and Ramdas Pophale) SiO2 
 PCOD8244680
Probable space group: P M M N
;
_chemical_formula_sum "Si O2"
_cell_formula_units_Z 38
_cell_length_a 11.726036
_cell_length_b 12.171011
_cell_length_c 13.893792
_cell_angle_alpha 90.000000
_cell_angle_beta 90.000000
_cell_angle_gamma 90.000000
_cell_volume 1982.890221
_symmetry_space_group_name_H-M "P M M N"
_symmetry_group_IT_number 59
_space_group.IT_coordinate_system_code '2'
_symmetry_cell_setting 'orthorhombic'
loop_
_space_group_symop_operation_xyz
x,y,z
1/2-x,1/2-y,z
1/2+x,-y,-z
-x,1/2+y,-z
-x,-y,-z
1/2+x,1/2+y,-z
1/2-x,y,z
x,1/2-y,z
loop_
_atom_site_type_symbol
_atom_site_label
_atom_site_fract_x
_atom_site_fract_y
_atom_site_fract_z
Si Si1 0.750000 0.618956 0.426744
Si Si2 0.380453 0.750000 0.832917
Si Si3 0.750000 0.250000 0.983734
Si Si4 0.250000 0.505017 0.073046
Si Si5 0.935455 0.568327 0.783097
Si Si6 0.930980 0.873534 0.277803
Si Si7 0.750000 0.629665 0.113653
Si Si8 0.750000 0.630535 0.635292
O O1 0.750000 0.750000 0.416176
O O2 0.638177 0.578605 0.369185
O O3 0.750000 0.563246 0.533854
O O4 0.250000 0.750000 0.786755
O O5 0.363749 0.750000 0.948800
O O6 0.452251 0.858299 0.803442
O O7 0.750000 0.361439 0.919409
O O8 0.362129 0.451265 0.120698
O O9 0.250000 0.469791 0.961877
O O10 0.861537 0.622140 0.699632
O O11 0.961339 0.449959 0.738626
O O12 0.974304 0.750000 0.296710
O O13 0.859909 0.880321 0.179829
O O14 0.750000 0.750000 0.062058
O O15 0.750000 0.750000 0.589160
#
# Coordination Sequence:
#
# PCOD8244680 Si02
#       8
#     4   4   2   4   8   8   4   4
#     4   8  17  35  62  87 118 142 199 242 275 356
#     4  10  24  41  59  86 116 155 204 247 288 347
#     4  10  24  40  54  90 120 154 202 248 302 334
#     4  11  25  38  57  88 120 160 202 243 291 353
#     4  11  23  38  63  82 120 161 193 241 298 352
#     4   9  19  36  58  87 115 153 190 244 293 346
#     4   9  19  35  57  84 111 154 206 238 286 340
#     4  10  20  39  60  90 111 155 200 232 295 355
#
# _framework density 19.163944000000001
#
# number of rings (size 3 to 8) (size 9 to 14) (size 15 to 20)
#    0.316    1.895    1.053    2.526    5.895    4.211 
#    0.000    0.000    0.000    0.000    0.000    0.000 
#    0.000    0.000    0.000    0.000    0.000    0.000 
#
# Total GULP energy -470824.086281 kJ/mol
# GULP energy per Si atom -12390.107534 kJ/mol
# Density = 1.912033 g / cm^3
# Si number density = 19.163944 Si / 1000 Ang^3
#
#
#
# Elastic Constant Matrix: (Units=GPa)
#
#
# Indices 1 2 3 4 5 6 
#
# 1 105.6751 39.4660 33.7969 0.0000 0.0000 0.0000
# 2 39.4660 94.5557 26.0909 0.0000 0.0000 0.0000
# 3 33.7969 26.0909 110.0317 0.0000 0.0000 0.0000
# 4 0.0000 0.0000 0.0000 10.8419 0.0000 0.0000
# 5 0.0000 0.0000 0.0000 0.0000 -137.3886 0.0000
# 6 0.0000 0.0000 0.0000 0.0000 0.0000 15.8030
#
#
#
# Elastic Compliance Matrix: (Units=1/GPa)
#
#
# Indices 1 2 3 4 5 6 
#
# 1 0.011891 -0.004232 -0.002649 0.000000 0.000000 0.000000
# 2 -0.004232 0.012822 -0.001741 0.000000 0.000000 0.000000
# 3 -0.002649 -0.001741 0.010315 0.000000 0.000000 0.000000
# 4 0.000000 0.000000 0.000000 0.092235 0.000000 0.000000
# 5 0.000000 0.000000 0.000000 0.000000 -0.007279 0.000000
# 6 0.000000 0.000000 0.000000 0.000000 0.000000 0.063279
#
#
# Mechanical properties :
#
#
# Convention : Reuss Voigt Hill
#
# Bulk Modulus (GPa) = 56.22759 56.55223 56.38991
# Shear Modulus (GPa) = 24.22082 -8.08816 8.06633
#
# Velocity S-wave (km/s) = 3.55896 -2.05662 2.05384
# Velocity P-wave (km/s) = 6.80384 4.89226 5.92564
#
# Compressibility (1/GPa) = 0.01778486
#
# Stress axis : x y z
#
# Youngs Moduli (GPa) = 84.09986 77.98812 96.94991
#
# Poissons Ratio (x) = 0.33005 0.25680
# Poissons Ratio (y) = 0.35592 0.16875
# Poissons Ratio (z) = 0.22276 0.13574
#
# Static dielectric constant tensor:
#      x y z
#    x 3.414990 0.000000 0.000000 
#    y 0.000000 3.510350 0.000000 
#    z 0.000000 0.000000 3.401100 
# 
# 
# High freq. dielectric constant tensor:
#      x y z
#    x 1.736200 0.000000 0.000000 
#    y 0.000000 1.742210 0.000000 
#    z 0.000000 0.000000 1.737870 
# 
# From -- ./inp_files/22243.got.cif
#   From: 2010.03.12/outbox.cif.g09.slc.cpg/sg59_12_cif.got.tgz:22243.got - 2010.04.16 16:29:54.
