data_PCOD8244004
_publ_section_title
;
Structure prediction by ZEFSAII (Michael W. Deem and Ramdas Pophale) SiO2 
 PCOD8244004
Probable space group: P M M N
;
_chemical_formula_sum "Si O2"
_cell_formula_units_Z 64
_cell_length_a 15.328383
_cell_length_b 16.262308
_cell_length_c 13.249248
_cell_angle_alpha 90.000000
_cell_angle_beta 90.000000
_cell_angle_gamma 90.000000
_cell_volume 3302.704778
_symmetry_space_group_name_H-M "P M M N"
_symmetry_group_IT_number 59
_space_group.IT_coordinate_system_code '2'
_symmetry_cell_setting 'orthorhombic'
loop_
_space_group_symop_operation_xyz
x,y,z
1/2-x,1/2-y,z
1/2+x,-y,-z
-x,1/2+y,-z
-x,-y,-z
1/2+x,1/2+y,-z
1/2-x,y,z
x,1/2-y,z
loop_
_atom_site_type_symbol
_atom_site_label
_atom_site_fract_x
_atom_site_fract_y
_atom_site_fract_z
Si Si1 0.346036 0.099315 0.438160
Si Si2 0.565860 0.343173 0.725155
Si Si3 0.152628 0.992193 0.831141
Si Si4 0.921839 0.659071 0.103781
Si Si5 0.653712 0.039035 0.396569
Si Si6 0.348342 0.491269 0.229065
Si Si7 0.990036 0.573489 0.924460
Si Si8 0.023465 0.659494 0.501921
O O1 0.250000 0.142461 0.437332
O O2 0.423299 0.163151 0.459806
O O3 0.350970 0.034296 0.526374
O O4 0.362963 0.052618 0.334706
O O5 0.605365 0.250000 0.724387
O O6 0.489457 0.348673 0.805724
O O7 0.636812 0.410743 0.758087
O O8 0.529156 0.368268 0.614870
O O9 0.250000 0.960291 0.855805
O O10 0.144309 0.082931 0.881986
O O11 0.136105 0.000397 0.712259
O O12 0.084257 0.922715 0.869547
O O13 0.876998 0.750000 0.108239
O O14 0.968281 0.653182 0.992898
O O15 0.750000 0.080878 0.400896
O O16 0.579486 0.103676 0.423700
O O17 0.250000 0.479639 0.188903
O O18 0.412538 0.446162 0.152355
O O19 0.000000 0.500000 0.000000
O O20 0.062692 0.750000 0.512561
#
# Coordination Sequence:
#
# PCOD8244004 Si02
#       8
#     8   8   8   8   8   8   8   8
#     4  10  21  35  56  84 116 155 195 236 280 336
#     4  10  20  35  56  86 116 145 183 233 291 341
#     4  10  20  35  59  87 112 148 192 234 281 339
#     4  10  21  39  59  83 115 145 181 238 298 344
#     4  10  20  35  57  85 116 152 194 233 278 338
#     4  11  21  36  58  84 113 150 193 238 284 336
#     4  10  20  36  56  82 110 146 184 236 282 342
#     4  11  22  34  57  85 118 158 192 234 286 338
#
# _framework density 19.378057999999999
#
# number of rings (size 3 to 8) (size 9 to 14) (size 15 to 20)
#    0.000    1.750    3.750    1.875    0.000    3.000 
#    0.000    3.750    0.000    6.375    0.000    0.000 
#    0.000    0.000    0.000    0.000    0.000    0.000 
#
# Total GULP energy -793077.705549 kJ/mol
# GULP energy per Si atom -12391.839149 kJ/mol
# Density = 1.933395 g / cm^3
# Si number density = 19.378058 Si / 1000 Ang^3
#
#
#
# Elastic Constant Matrix: (Units=GPa)
#
#
# Indices 1 2 3 4 5 6 
#
# 1 112.0326 23.7645 43.4012 0.0000 0.0000 0.0000
# 2 23.7645 54.9304 20.4867 0.0000 0.0000 0.0000
# 3 43.4012 20.4867 96.1356 0.0000 0.0000 0.0000
# 4 0.0000 0.0000 0.0000 21.2539 0.0000 0.0000
# 5 0.0000 0.0000 0.0000 0.0000 135.3388 0.0000
# 6 0.0000 0.0000 0.0000 0.0000 0.0000 3.1635
#
#
#
# Elastic Compliance Matrix: (Units=1/GPa)
#
#
# Indices 1 2 3 4 5 6 
#
# 1 0.011329 -0.003252 -0.004421 0.000000 0.000000 0.000000
# 2 -0.003252 0.020710 -0.002945 0.000000 0.000000 0.000000
# 3 -0.004421 -0.002945 0.013026 0.000000 0.000000 0.000000
# 4 0.000000 0.000000 0.000000 0.047050 0.000000 0.000000
# 5 0.000000 0.000000 0.000000 0.000000 0.007389 0.000000
# 6 0.000000 0.000000 0.000000 0.000000 0.000000 0.316110
#
#
# Mechanical properties :
#
#
# Convention : Reuss Voigt Hill
#
# Bulk Modulus (GPa) = 41.96888 48.71149 45.34019
# Shear Modulus (GPa) = 11.24119 43.64765 27.44442
#
# Velocity S-wave (km/s) = 2.41114 4.75112 3.76741
# Velocity P-wave (km/s) = 5.42738 7.43570 6.50945
#
# Compressibility (1/GPa) = 0.02382718
#
# Stress axis : x y z
#
# Youngs Moduli (GPa) = 88.27171 48.28524 76.77150
#
# Poissons Ratio (x) = 0.15703 0.33944
# Poissons Ratio (y) = 0.28707 0.22611
# Poissons Ratio (z) = 0.39028 0.14221
#
# Static dielectric constant tensor:
#      x y z
#    x 4.301350 0.000000 0.000000 
#    y 0.000000 3.735620 0.000000 
#    z 0.000000 0.000000 3.856920 
# 
# 
# High freq. dielectric constant tensor:
#      x y z
#    x 1.752720 0.000000 0.000000 
#    y 0.000000 1.727580 0.000000 
#    z 0.000000 0.000000 1.770210 
# 
# From -- ./inp_files/17238.got.cif
#   From: 2010.03.12/outbox.cif.g09.slc.cpg/sg59_9_cif.got.tgz:17238.got - 2010.04.16 16:29:54.
