data_PCOD8244309
_publ_section_title
;
Structure prediction by ZEFSAII (Michael W. Deem and Ramdas Pophale) SiO2 
 PCOD8244309
Probable space group: P M M N
;
_chemical_formula_sum "Si O2"
_cell_formula_units_Z 48
_cell_length_a 9.230343
_cell_length_b 9.616298
_cell_length_c 28.397335
_cell_angle_alpha 90.000000
_cell_angle_beta 90.000000
_cell_angle_gamma 90.000000
_cell_volume 2520.596552
_symmetry_space_group_name_H-M "P M M N"
_symmetry_group_IT_number 59
_space_group.IT_coordinate_system_code '2'
_symmetry_cell_setting 'orthorhombic'
loop_
_space_group_symop_operation_xyz
x,y,z
1/2-x,1/2-y,z
1/2+x,-y,-z
-x,1/2+y,-z
-x,-y,-z
1/2+x,1/2+y,-z
1/2-x,y,z
x,1/2-y,z
loop_
_atom_site_type_symbol
_atom_site_label
_atom_site_fract_x
_atom_site_fract_y
_atom_site_fract_z
Si Si1 0.584479 0.093639 0.201781
Si Si2 0.417627 0.408970 0.629439
Si Si3 0.920065 0.088552 0.460638
Si Si4 0.582743 0.087857 0.723656
Si Si5 0.081887 0.037635 0.108772
Si Si6 0.082992 0.750000 0.067166
Si Si7 0.584095 0.750000 0.970485
O O1 0.750000 0.041249 0.199880
O O2 0.576971 0.250000 0.222060
O O3 0.518664 0.095052 0.149754
O O4 0.492805 0.993154 0.234486
O O5 0.250000 0.423364 0.643378
O O6 0.452243 0.250000 0.613486
O O7 0.460042 0.516784 0.588724
O O8 0.511420 0.453116 0.674191
O O9 0.750000 0.079033 0.470595
O O10 0.971354 0.250000 0.460402
O O11 0.000000 0.000000 0.500000
O O12 0.750000 0.044985 0.721617
O O13 0.562411 0.250000 0.734089
O O14 0.250000 0.060373 0.122857
O O15 0.045278 0.115341 0.060296
O O16 0.041902 0.878472 0.100090
O O17 0.250000 0.750000 0.053435
O O18 0.003974 0.750000 0.017920
O O19 0.750000 0.750000 0.985660
#
# Coordination Sequence:
#
# PCOD8244309 Si02
#       7
#     8   8   8   8   8   4   4
#     4  11  24  40  59  84 113 148 189 235 285 337
#     4   9  18  35  57  81 114 154 194 238 287 339
#     4  10  21  36  56  84 118 157 199 244 292 341
#     4  10  22  39  61  88 117 150 187 232 286 344
#     4  10  21  38  57  81 113 147 184 229 280 333
#     4  10  22  36  56  84 112 144 182 228 277 330
#     4  10  20  36  58  80 110 150 186 224 275 330
#
# _framework density 19.043111
#
# number of rings (size 3 to 8) (size 9 to 14) (size 15 to 20)
#    0.000    2.000    0.833    2.000    1.167    5.667 
#    0.000    3.333    0.000    0.000    0.000    0.000 
#    0.000    0.000    0.000    0.000    0.000    0.000 
#
# Total GULP energy -595315.950318 kJ/mol
# GULP energy per Si atom -12402.415632 kJ/mol
# Density = 1.899977 g / cm^3
# Si number density = 19.043111 Si / 1000 Ang^3
#
#
#
# Elastic Constant Matrix: (Units=GPa)
#
#
# Indices 1 2 3 4 5 6 
#
# 1 92.7660 38.9485 61.4562 0.0000 0.0000 0.0000
# 2 38.9485 102.1276 41.6557 0.0000 0.0000 0.0000
# 3 61.4562 41.6557 101.8286 0.0000 0.0000 0.0000
# 4 0.0000 0.0000 0.0000 14.3977 0.0000 0.0000
# 5 0.0000 0.0000 0.0000 0.0000 41.7964 0.0000
# 6 0.0000 0.0000 0.0000 0.0000 0.0000 57.7507
#
#
#
# Elastic Compliance Matrix: (Units=1/GPa)
#
#
# Indices 1 2 3 4 5 6 
#
# 1 0.018714 -0.003037 -0.010052 0.000000 0.000000 0.000000
# 2 -0.003037 0.012245 -0.003176 0.000000 0.000000 0.000000
# 3 -0.010052 -0.003176 0.017187 0.000000 0.000000 0.000000
# 4 0.000000 0.000000 0.000000 0.069456 0.000000 0.000000
# 5 0.000000 0.000000 0.000000 0.000000 0.023925 0.000000
# 6 0.000000 0.000000 0.000000 0.000000 0.000000 0.017316
#
#
# Mechanical properties :
#
#
# Convention : Reuss Voigt Hill
#
# Bulk Modulus (GPa) = 64.04047 64.53809 64.28928
# Shear Modulus (GPa) = 25.43495 33.09974 29.26735
#
# Velocity S-wave (km/s) = 3.65862 4.17363 3.92458
# Velocity P-wave (km/s) = 7.17980 7.56239 7.37358
#
# Compressibility (1/GPa) = 0.01561513
#
# Stress axis : x y z
#
# Youngs Moduli (GPa) = 53.43484 81.66266 58.18484
#
# Poissons Ratio (x) = 0.24801 0.58489
# Poissons Ratio (y) = 0.16228 0.18482
# Poissons Ratio (z) = 0.53714 0.25940
#
# Static dielectric constant tensor:
#      x y z
#    x 3.481800 0.000000 0.000000 
#    y 0.000000 3.821610 0.000000 
#    z 0.000000 0.000000 3.376490 
# 
# 
# High freq. dielectric constant tensor:
#      x y z
#    x 1.740340 0.000000 0.000000 
#    y 0.000000 1.752670 0.000000 
#    z 0.000000 0.000000 1.741030 
# 
# From -- ./inp_files/32961.got.cif
#   From: 2010.03.12/outbox.cif.g09.slc.cpg/sg59_17_cif.got.tgz:32961.got - 2010.04.16 16:29:54.
