data_PCOD8244674
_publ_section_title
;
Structure prediction by ZEFSAII (Michael W. Deem and Ramdas Pophale) SiO2 
 PCOD8244674
Probable space group: P M M N
;
_chemical_formula_sum "Si O2"
_cell_formula_units_Z 48
_cell_length_a 8.917076
_cell_length_b 18.115055
_cell_length_c 14.500734
_cell_angle_alpha 90.000000
_cell_angle_beta 90.000000
_cell_angle_gamma 90.000000
_cell_volume 2342.351737
_symmetry_space_group_name_H-M "P M M N"
_symmetry_group_IT_number 59
_space_group.IT_coordinate_system_code '2'
_symmetry_cell_setting 'orthorhombic'
loop_
_space_group_symop_operation_xyz
x,y,z
1/2-x,1/2-y,z
1/2+x,-y,-z
-x,1/2+y,-z
-x,-y,-z
1/2+x,1/2+y,-z
1/2-x,y,z
x,1/2-y,z
loop_
_atom_site_type_symbol
_atom_site_label
_atom_site_fract_x
_atom_site_fract_y
_atom_site_fract_z
Si Si1 0.072390 0.100363 0.751578
Si Si2 0.072877 0.750000 0.493600
Si Si3 0.421652 0.829702 0.817754
Si Si4 0.573079 0.480726 0.095970
Si Si5 0.079694 0.515400 0.405086
Si Si6 0.580906 0.851386 0.633139
Si Si7 0.072331 0.750000 0.279236
O O1 0.250000 0.108948 0.747235
O O2 0.012403 0.075333 0.651982
O O3 0.996687 0.179023 0.772931
O O4 0.022177 0.041035 0.828460
O O5 0.250000 0.750000 0.503589
O O6 0.024439 0.750000 0.386701
O O7 0.008927 0.676298 0.542753
O O8 0.250000 0.847516 0.791835
O O9 0.434326 0.750000 0.870964
O O10 0.484762 0.898444 0.876796
O O11 0.510680 0.817077 0.723957
O O12 0.750000 0.481791 0.083640
O O13 0.500000 0.500000 0.000000
O O14 0.250000 0.544079 0.419564
O O15 0.076105 0.438595 0.351310
O O16 0.000000 0.500000 0.500000
O O17 0.750000 0.822937 0.621688
O O18 0.250000 0.750000 0.266477
#
# Coordination Sequence:
#
# PCOD8244674 Si02
#       7
#     8   4   8   8   8   8   4
#     4  11  23  42  66  91 126 168 213 269 326 382
#     4  11  23  37  55  82 123 170 213 259 310 372
#     4  10  20  38  64  92 124 161 201 248 310 376
#     4  10  23  43  68  97 128 165 209 261 325 389
#     4  11  23  37  57  87 122 164 214 264 316 380
#     4  11  22  34  54  86 121 158 205 255 307 364
#     4  11  25  43  63  90 123 170 223 267 320 382
#
# _framework density 20.492225000000001
#
# number of rings (size 3 to 8) (size 9 to 14) (size 15 to 20)
#    0.000    1.333    2.500    3.000    0.000    8.000 
#    1.500    0.000    0.000    0.000    0.000    0.000 
#    0.000    0.000    0.000    0.000    0.000    0.000 
#
# Total GULP energy -595184.246723 kJ/mol
# GULP energy per Si atom -12399.671807 kJ/mol
# Density = 2.044558 g / cm^3
# Si number density = 20.492225 Si / 1000 Ang^3
#
#
#
# Elastic Constant Matrix: (Units=GPa)
#
#
# Indices 1 2 3 4 5 6 
#
# 1 92.1116 47.6640 40.6357 0.0000 0.0000 0.0000
# 2 47.6640 162.2038 52.4221 0.0000 0.0000 0.0000
# 3 40.6357 52.4221 103.3533 0.0000 0.0000 0.0000
# 4 0.0000 0.0000 0.0000 20.8167 0.0000 0.0000
# 5 0.0000 0.0000 0.0000 0.0000 34.2737 0.0000
# 6 0.0000 0.0000 0.0000 0.0000 0.0000 31.3569
#
#
#
# Elastic Compliance Matrix: (Units=1/GPa)
#
#
# Indices 1 2 3 4 5 6 
#
# 1 0.014137 -0.002820 -0.004128 0.000000 0.000000 0.000000
# 2 -0.002820 0.007936 -0.002917 0.000000 0.000000 0.000000
# 3 -0.004128 -0.002917 0.012778 0.000000 0.000000 0.000000
# 4 0.000000 0.000000 0.000000 0.048038 0.000000 0.000000
# 5 0.000000 0.000000 0.000000 0.000000 0.029177 0.000000
# 6 0.000000 0.000000 0.000000 0.000000 0.000000 0.031891
#
#
# Mechanical properties :
#
#
# Convention : Reuss Voigt Hill
#
# Bulk Modulus (GPa) = 66.12928 71.01248 68.57088
# Shear Modulus (GPa) = 29.63372 31.75259 30.69316
#
# Velocity S-wave (km/s) = 3.80688 3.94063 3.87433
# Velocity P-wave (km/s) = 7.18774 7.44536 7.31768
#
# Compressibility (1/GPa) = 0.01512190
#
# Stress axis : x y z
#
# Youngs Moduli (GPa) = 70.73800 126.00184 78.26040
#
# Poissons Ratio (x) = 0.35533 0.32304
# Poissons Ratio (y) = 0.19949 0.22826
# Poissons Ratio (z) = 0.29199 0.36751
#
# Static dielectric constant tensor:
#      x y z
#    x 3.744690 0.000000 0.000000 
#    y 0.000000 4.218540 0.000000 
#    z 0.000000 0.000000 3.632140 
# 
# 
# High freq. dielectric constant tensor:
#      x y z
#    x 1.803980 0.000000 0.000000 
#    y 0.000000 1.828480 0.000000 
#    z 0.000000 0.000000 1.772120 
# 
# From -- ./inp_files/20609.got.cif
#   From: 2010.03.12/outbox.cif.g09.slc.cpg/sg59_11_cif.got.tgz:20609.got - 2010.04.16 16:29:54.
