data_PCOD8244567
_publ_section_title
;
Structure prediction by ZEFSAII (Michael W. Deem and Ramdas Pophale) SiO2 
 PCOD8244567
Probable space group: P M M N
;
_chemical_formula_sum "Si O2"
_cell_formula_units_Z 48
_cell_length_a 8.557825
_cell_length_b 28.119408
_cell_length_c 10.162271
_cell_angle_alpha 90.000000
_cell_angle_beta 90.000000
_cell_angle_gamma 90.000000
_cell_volume 2445.458779
_symmetry_space_group_name_H-M "P M M N"
_symmetry_group_IT_number 59
_space_group.IT_coordinate_system_code '2'
_symmetry_cell_setting 'orthorhombic'
loop_
_space_group_symop_operation_xyz
x,y,z
1/2-x,1/2-y,z
1/2+x,-y,-z
-x,1/2+y,-z
-x,-y,-z
1/2+x,1/2+y,-z
1/2-x,y,z
x,1/2-y,z
loop_
_atom_site_type_symbol
_atom_site_label
_atom_site_fract_x
_atom_site_fract_y
_atom_site_fract_z
Si Si1 0.066224 0.607178 0.248490
Si Si2 0.935939 0.250000 0.385492
Si Si3 0.065381 0.993485 0.355248
Si Si4 0.934691 0.592792 0.740413
Si Si5 0.565855 0.849448 0.987943
Si Si6 0.434857 0.345262 0.502958
Si Si7 0.933702 0.250000 0.082158
O O1 0.250000 0.607564 0.221397
O O2 0.003865 0.554832 0.288682
O O3 0.976500 0.622289 0.118388
O O4 0.024552 0.644051 0.362688
O O5 0.750000 0.250000 0.401013
O O6 0.988461 0.250000 0.233486
O O7 0.013386 0.205951 0.456488
O O8 0.250000 0.992246 0.368338
O O9 0.010752 0.037734 0.263486
O O10 0.000000 0.000000 0.500000
O O11 0.750000 0.596353 0.749757
O O12 0.992336 0.617072 0.605891
O O13 0.006582 0.620536 0.865494
O O14 0.750000 0.844820 0.974749
O O15 0.496562 0.796571 0.991407
O O16 0.250000 0.347387 0.526452
O O17 0.750000 0.250000 0.070233
#
# Coordination Sequence:
#
# PCOD8244567 Si02
#       7
#     8   4   8   8   8   8   4
#     4  11  24  40  59  90 129 162 198 252 310 360
#     4  11  23  38  61  94 127 154 194 252 311 364
#     4  10  20  37  61  89 122 160 202 249 303 358
#     4   9  19  36  61  90 119 153 201 251 291 348
#     4  11  23  41  64  89 121 163 207 249 299 364
#     4  11  21  38  64  90 119 157 204 250 295 356
#     4  11  23  40  63  90 123 158 196 246 309 366
#
# _framework density 19.628218
#
# number of rings (size 3 to 8) (size 9 to 14) (size 15 to 20)
#    0.000    1.500    3.333    2.000    0.000    2.667 
#    0.000    5.000    0.000    0.000    0.000    0.000 
#    0.000    0.000    0.000    0.000    0.000    0.000 
#
# Total GULP energy -595327.401241 kJ/mol
# GULP energy per Si atom -12402.654193 kJ/mol
# Density = 1.958354 g / cm^3
# Si number density = 19.628218 Si / 1000 Ang^3
#
#
#
# Elastic Constant Matrix: (Units=GPa)
#
#
# Indices 1 2 3 4 5 6 
#
# 1 39.6594 29.7678 19.2851 0.0000 0.0000 0.0000
# 2 29.7678 150.0390 49.7323 0.0000 0.0000 0.0000
# 3 19.2851 49.7323 112.6575 0.0000 0.0000 0.0000
# 4 0.0000 0.0000 0.0000 36.4430 0.0000 0.0000
# 5 0.0000 0.0000 0.0000 0.0000 27.7408 0.0000
# 6 0.0000 0.0000 0.0000 0.0000 0.0000 10.1287
#
#
#
# Elastic Compliance Matrix: (Units=1/GPa)
#
#
# Indices 1 2 3 4 5 6 
#
# 1 0.030459 -0.005054 -0.002983 0.000000 0.000000 0.000000
# 2 -0.005054 0.008646 -0.002952 0.000000 0.000000 0.000000
# 3 -0.002983 -0.002952 0.010690 0.000000 0.000000 0.000000
# 4 0.000000 0.000000 0.000000 0.027440 0.000000 0.000000
# 5 0.000000 0.000000 0.000000 0.000000 0.036048 0.000000
# 6 0.000000 0.000000 0.000000 0.000000 0.000000 0.098729
#
#
# Mechanical properties :
#
#
# Convention : Reuss Voigt Hill
#
# Bulk Modulus (GPa) = 35.94861 55.54737 45.74799
# Shear Modulus (GPa) = 20.55396 28.43387 24.49392
#
# Velocity S-wave (km/s) = 3.23950 3.81021 3.53639
# Velocity P-wave (km/s) = 5.68744 6.90783 6.32713
#
# Compressibility (1/GPa) = 0.02781749
#
# Stress axis : x y z
#
# Youngs Moduli (GPa) = 32.83116 115.65973 93.54513
#
# Poissons Ratio (x) = 0.58459 0.27903
# Poissons Ratio (y) = 0.16594 0.27610
# Poissons Ratio (z) = 0.09793 0.34138
#
# Static dielectric constant tensor:
#      x y z
#    x 3.442360 0.000000 0.000000 
#    y 0.000000 3.923700 0.000000 
#    z 0.000000 0.000000 22.731190 
# 
# 
# High freq. dielectric constant tensor:
#      x y z
#    x 1.755230 0.000000 0.000000 
#    y 0.000000 1.783410 0.000000 
#    z 0.000000 0.000000 1.764680 
# 
# From -- ./inp_files/6430.got.cif
#   From: 2010.03.12/outbox.cif.g09.slc.cpg/sg59_4_cif.got.tgz:6430.got - 2010.04.16 16:29:54.
