data_PCOD8244227
_publ_section_title
;
Structure prediction by ZEFSAII (Michael W. Deem and Ramdas Pophale) SiO2 
 PCOD8244227
Probable space group: P M M N
;
_chemical_formula_sum "Si O2"
_cell_formula_units_Z 64
_cell_length_a 25.447780
_cell_length_b 9.534793
_cell_length_c 14.298722
_cell_angle_alpha 90.000000
_cell_angle_beta 90.000000
_cell_angle_gamma 90.000000
_cell_volume 3469.432106
_symmetry_space_group_name_H-M "P M M N"
_symmetry_group_IT_number 59
_space_group.IT_coordinate_system_code '2'
_symmetry_cell_setting 'orthorhombic'
loop_
_space_group_symop_operation_xyz
x,y,z
1/2-x,1/2-y,z
1/2+x,-y,-z
-x,1/2+y,-z
-x,-y,-z
1/2+x,1/2+y,-z
1/2-x,y,z
x,1/2-y,z
loop_
_atom_site_type_symbol
_atom_site_label
_atom_site_fract_x
_atom_site_fract_y
_atom_site_fract_z
Si Si1 0.902739 0.084033 0.089619
Si Si2 0.689214 0.590078 0.396013
Si Si3 0.498673 0.413658 0.209424
Si Si4 0.809747 0.085510 0.217356
Si Si5 0.190574 0.910668 0.248060
Si Si6 0.522232 0.589249 0.584477
Si Si7 0.905840 0.085335 0.878870
Si Si8 0.357898 0.413467 0.409175
O O1 0.903648 0.250000 0.087266
O O2 0.847705 0.033396 0.134256
O O3 0.951413 0.029132 0.151669
O O4 0.907043 0.025660 0.984578
O O5 0.750000 0.570228 0.420880
O O6 0.676627 0.750000 0.368075
O O7 0.672021 0.491895 0.311003
O O8 0.656246 0.542073 0.485621
O O9 0.487320 0.250000 0.189125
O O10 0.510311 0.436376 0.319860
O O11 0.448127 0.502024 0.181014
O O12 0.750000 0.046075 0.189676
O O13 0.815902 0.250000 0.236282
O O14 0.250000 0.940479 0.213770
O O15 0.183464 0.750000 0.279018
O O16 0.151836 0.946277 0.162335
O O17 0.178593 0.003687 0.337969
O O18 0.500000 0.500000 0.500000
O O19 0.519417 0.750000 0.552123
O O20 0.581813 0.545922 0.607541
O O21 0.919392 0.250000 0.875204
O O22 0.346859 0.250000 0.392700
#
# Coordination Sequence:
#
# PCOD8244227 Si02
#       8
#     8   8   8   8   8   8   8   8
#     4   9  19  34  55  80 105 136 175 217 265 317
#     4   9  18  32  50  72  99 131 166 208 256 304
#     4  10  20  37  57  78 107 140 176 219 264 315
#     4   9  18  33  53  77 104 136 174 214 258 312
#     4  10  21  35  53  80 110 140 177 222 271 320
#     4  10  22  36  53  79 109 142 177 216 266 318
#     4  10  20  36  56  79 106 138 175 219 268 315
#     4  10  20  36  55  76 104 141 182 218 261 321
#
# _framework density 18.446822999999998
#
# number of rings (size 3 to 8) (size 9 to 14) (size 15 to 20)
#    0.000    2.375    1.250    0.750    1.750    2.750 
#    0.000    5.000    0.000    0.000    0.000    1.750 
#    0.000    0.000    0.000    0.000    0.000    0.000 
#
# Total GULP energy -793688.229534 kJ/mol
# GULP energy per Si atom -12401.378586 kJ/mol
# Density = 1.840484 g / cm^3
# Si number density = 18.446823 Si / 1000 Ang^3
#
#
#
# Elastic Constant Matrix: (Units=GPa)
#
#
# Indices 1 2 3 4 5 6 
#
# 1 106.2268 40.4173 59.9747 0.0000 0.0000 0.0000
# 2 40.4173 47.6253 46.8895 0.0000 0.0000 0.0000
# 3 59.9747 46.8895 125.0760 0.0000 0.0000 0.0000
# 4 0.0000 0.0000 0.0000 24.8547 0.0000 0.0000
# 5 0.0000 0.0000 0.0000 0.0000 34.2831 0.0000
# 6 0.0000 0.0000 0.0000 0.0000 0.0000 23.9524
#
#
#
# Elastic Compliance Matrix: (Units=1/GPa)
#
#
# Indices 1 2 3 4 5 6 
#
# 1 0.014978 -0.008940 -0.003831 0.000000 0.000000 0.000000
# 2 -0.008940 0.038617 -0.010190 0.000000 0.000000 0.000000
# 3 -0.003831 -0.010190 0.013652 0.000000 0.000000 0.000000
# 4 0.000000 0.000000 0.000000 0.040234 0.000000 0.000000
# 5 0.000000 0.000000 0.000000 0.000000 0.029169 0.000000
# 6 0.000000 0.000000 0.000000 0.000000 0.000000 0.041750
#
#
# Mechanical properties :
#
#
# Convention : Reuss Voigt Hill
#
# Bulk Modulus (GPa) = 46.89184 63.72122 55.30653
# Shear Modulus (GPa) = 21.60493 25.39449 23.49971
#
# Velocity S-wave (km/s) = 3.42599 3.71432 3.57307
# Velocity P-wave (km/s) = 6.41289 7.28101 6.86069
#
# Compressibility (1/GPa) = 0.02132567
#
# Stress axis : x y z
#
# Youngs Moduli (GPa) = 66.76502 25.89554 73.24815
#
# Poissons Ratio (x) = 0.23149 0.28059
# Poissons Ratio (y) = 0.59685 0.74643
# Poissons Ratio (z) = 0.25576 0.26389
#
# Static dielectric constant tensor:
#      x y z
#    x 3.530990 0.000000 0.000000 
#    y 0.000000 3.233520 0.000000 
#    z 0.000000 0.000000 3.499830 
# 
# 
# High freq. dielectric constant tensor:
#      x y z
#    x 1.721550 0.000000 0.000000 
#    y 0.000000 1.696180 0.000000 
#    z 0.000000 0.000000 1.719970 
# 
# From -- ./inp_files/24718.got.cif
#   From: 2010.03.12/outbox.cif.g09.slc.cpg/sg59_13_cif.got.tgz:24718.got - 2010.04.16 16:29:54.
