data_PCOD8244450
_publ_section_title
;
Structure prediction by ZEFSAII (Michael W. Deem and Ramdas Pophale) SiO2 
 PCOD8244450
Probable space group: P M M N
;
_chemical_formula_sum "Si O2"
_cell_formula_units_Z 48
_cell_length_a 13.534189
_cell_length_b 16.573455
_cell_length_c 9.886246
_cell_angle_alpha 90.000000
_cell_angle_beta 90.000000
_cell_angle_gamma 90.000000
_cell_volume 2217.566760
_symmetry_space_group_name_H-M "P M M N"
_symmetry_group_IT_number 59
_space_group.IT_coordinate_system_code '2'
_symmetry_cell_setting 'orthorhombic'
loop_
_space_group_symop_operation_xyz
x,y,z
1/2-x,1/2-y,z
1/2+x,-y,-z
-x,1/2+y,-z
-x,-y,-z
1/2+x,1/2+y,-z
1/2-x,y,z
x,1/2-y,z
loop_
_atom_site_type_symbol
_atom_site_label
_atom_site_fract_x
_atom_site_fract_y
_atom_site_fract_z
Si Si1 0.930219 0.656459 0.965529
Si Si2 0.644695 0.340062 0.960932
Si Si3 0.463765 0.440273 0.280642
Si Si4 0.635056 0.939211 0.230531
Si Si5 0.538509 0.840178 0.458531
Si Si6 0.359055 0.595786 0.325137
O O1 0.894912 0.750000 0.955405
O O2 0.897727 0.601553 0.838449
O O3 0.891090 0.619901 0.105389
O O4 0.049285 0.649844 0.946117
O O5 0.750000 0.355335 0.038897
O O6 0.644763 0.250000 0.898946
O O7 0.638377 0.401393 0.836970
O O8 0.565770 0.481245 0.225630
O O9 0.483753 0.372945 0.392323
O O10 0.397659 0.506358 0.358895
O O11 0.750000 0.964581 0.221887
O O12 0.616073 0.892031 0.370665
O O13 0.580634 0.750000 0.469448
O O14 0.432111 0.837711 0.385396
O O15 0.250000 0.609460 0.385218
#
# Coordination Sequence:
#
# PCOD8244450 Si02
#       6
#     8   8   8   8   8   8
#     4  11  22  40  62  90 124 160 204 251 302 360
#     4   9  17  31  56  87 115 147 192 247 299 346
#     4  11  24  40  60  92 126 160 197 248 314 363
#     4  11  24  42  66  90 120 164 211 252 293 357
#     4  11  23  41  63  90 123 159 201 250 305 363
#     4  10  20  36  61  87 115 152 201 250 297 355
#
# _framework density 21.645344999999999
#
# number of rings (size 3 to 8) (size 9 to 14) (size 15 to 20)
#    0.000    1.500    3.333    4.000    0.000    6.333 
#    0.000    0.000    0.000    6.000    0.000    0.000 
#    0.000    0.000    0.000    0.000    0.000    0.000 
#
# Total GULP energy -594860.667245 kJ/mol
# GULP energy per Si atom -12392.930568 kJ/mol
# Density = 2.159608 g / cm^3
# Si number density = 21.645345 Si / 1000 Ang^3
#
#
#
# Elastic Constant Matrix: (Units=GPa)
#
#
# Indices 1 2 3 4 5 6 
#
# 1 81.1245 -0.7907 5.4978 0.0000 0.0000 0.0000
# 2 -0.7907 106.7550 40.4845 0.0000 0.0000 0.0000
# 3 5.4978 40.4845 75.3923 0.0000 0.0000 0.0000
# 4 0.0000 0.0000 0.0000 37.3678 0.0000 0.0000
# 5 0.0000 0.0000 0.0000 0.0000 10.4579 0.0000
# 6 0.0000 0.0000 0.0000 0.0000 0.0000 13.5723
#
#
#
# Elastic Compliance Matrix: (Units=1/GPa)
#
#
# Indices 1 2 3 4 5 6 
#
# 1 0.012413 0.000547 -0.001199 0.000000 0.000000 0.000000
# 2 0.000547 0.011787 -0.006369 0.000000 0.000000 0.000000
# 3 -0.001199 -0.006369 0.016771 0.000000 0.000000 0.000000
# 4 0.000000 0.000000 0.000000 0.026761 0.000000 0.000000
# 5 0.000000 0.000000 0.000000 0.000000 0.095622 0.000000
# 6 0.000000 0.000000 0.000000 0.000000 0.000000 0.073679
#
#
# Mechanical properties :
#
#
# Convention : Reuss Voigt Hill
#
# Bulk Modulus (GPa) = 37.13487 39.29501 38.21494
# Shear Modulus (GPa) = 19.22691 26.81828 23.02260
#
# Velocity S-wave (km/s) = 2.98362 3.52374 3.26487
# Velocity P-wave (km/s) = 5.39097 5.89484 5.64853
#
# Compressibility (1/GPa) = 0.02692887
#
# Stress axis : x y z
#
# Youngs Moduli (GPa) = 80.55883 84.84194 59.62507
#
# Poissons Ratio (x) = -0.04637 0.07147
# Poissons Ratio (y) = -0.04403 0.37976
# Poissons Ratio (z) = 0.09656 0.54037
#
# Static dielectric constant tensor:
#      x y z
#    x 3.982580 0.000000 0.000000 
#    y 0.000000 3.907550 0.000000 
#    z 0.000000 0.000000 3.645140 
# 
# 
# High freq. dielectric constant tensor:
#      x y z
#    x 1.839690 0.000000 0.000000 
#    y 0.000000 1.856190 0.000000 
#    z 0.000000 0.000000 1.831260 
# 
# From -- ./inp_files/8981.got.cif
#   From: 2010.03.12/outbox.cif.g09.slc.cpg/sg59_5_cif.got.tgz:8981.got - 2010.04.16 16:29:54.
