data_PCOD8244608
_publ_section_title
;
Structure prediction by ZEFSAII (Michael W. Deem and Ramdas Pophale) SiO2 
 PCOD8244608
Probable space group: P M M N
;
_chemical_formula_sum "Si O2"
_cell_formula_units_Z 56
_cell_length_a 15.949235
_cell_length_b 8.994895
_cell_length_c 19.581163
_cell_angle_alpha 90.000000
_cell_angle_beta 90.000000
_cell_angle_gamma 90.000000
_cell_volume 2809.146818
_symmetry_space_group_name_H-M "P M M N"
_symmetry_group_IT_number 59
_space_group.IT_coordinate_system_code '2'
_symmetry_cell_setting 'orthorhombic'
loop_
_space_group_symop_operation_xyz
x,y,z
1/2-x,1/2-y,z
1/2+x,-y,-z
-x,1/2+y,-z
-x,-y,-z
1/2+x,1/2+y,-z
1/2-x,y,z
x,1/2-y,z
loop_
_atom_site_type_symbol
_atom_site_label
_atom_site_fract_x
_atom_site_fract_y
_atom_site_fract_z
Si Si1 0.657700 0.077770 0.342170
Si Si2 0.996488 0.572818 0.573387
Si Si3 0.849033 0.414819 0.078885
Si Si4 0.603227 0.575724 0.212572
Si Si5 0.345368 0.575755 0.347314
Si Si6 0.842907 0.426957 0.930978
Si Si7 0.417713 0.575215 0.206451
O O1 0.750000 0.050328 0.376583
O O2 0.642655 0.250000 0.328874
O O3 0.581122 0.016342 0.388144
O O4 0.661796 0.000678 0.268376
O O5 0.994985 0.750000 0.567095
O O6 0.911586 0.519303 0.609836
O O7 0.000000 0.500000 0.500000
O O8 0.750000 0.405163 0.070997
O O9 0.883769 0.250000 0.097602
O O10 0.873273 0.532867 0.135805
O O11 0.884253 0.469033 0.004556
O O12 0.614412 0.750000 0.220293
O O13 0.509331 0.519112 0.228058
O O14 0.250000 0.537991 0.370072
O O15 0.364786 0.750000 0.358813
O O16 0.353871 0.533343 0.267221
O O17 0.750000 0.494345 0.925360
O O18 0.839102 0.250000 0.925492
O O19 0.893178 0.496832 0.866610
O O20 0.420434 0.750000 0.195686
#
# Coordination Sequence:
#
# PCOD8244608 Si02
#       7
#     8   8   8   8   8   8   8
#     4  10  22  41  63  85 112 152 198 237 279 337
#     4  11  24  42  65  92 124 155 189 237 290 344
#     4   9  18  32  49  70 100 141 190 239 284 338
#     4  11  21  32  51  80 113 145 183 237 295 344
#     4  10  20  37  63  91 121 159 198 237 286 346
#     4   8  14  27  48  72  99 138 189 238 281 332
#     4   9  17  30  50  79 112 143 186 240 286 333
#
# _framework density 19.934878000000001
#
# number of rings (size 3 to 8) (size 9 to 14) (size 15 to 20)
#    0.000    2.286    1.429    2.571    0.000    6.000 
#    0.000    1.429    0.000    1.714    0.000    2.000 
#    0.000    0.000    0.000    0.000    0.000    0.000 
#
# Total GULP energy -694045.614382 kJ/mol
# GULP energy per Si atom -12393.671685 kJ/mol
# Density = 1.988951 g / cm^3
# Si number density = 19.934878 Si / 1000 Ang^3
#
#
#
# Elastic Constant Matrix: (Units=GPa)
#
#
# Indices 1 2 3 4 5 6 
#
# 1 115.6738 34.4548 56.7335 0.0000 0.0000 0.0000
# 2 34.4548 43.1225 33.4951 0.0000 0.0000 0.0000
# 3 56.7335 33.4951 130.3342 0.0000 0.0000 0.0000
# 4 0.0000 0.0000 0.0000 22.0427 0.0000 0.0000
# 5 0.0000 0.0000 0.0000 0.0000 28.5271 0.0000
# 6 0.0000 0.0000 0.0000 0.0000 0.0000 23.2327
#
#
#
# Elastic Compliance Matrix: (Units=1/GPa)
#
#
# Indices 1 2 3 4 5 6 
#
# 1 0.012573 -0.007240 -0.003612 0.000000 0.000000 0.000000
# 2 -0.007240 0.033143 -0.005366 0.000000 0.000000 0.000000
# 3 -0.003612 -0.005366 0.010624 0.000000 0.000000 0.000000
# 4 0.000000 0.000000 0.000000 0.045367 0.000000 0.000000
# 5 0.000000 0.000000 0.000000 0.000000 0.035054 0.000000
# 6 0.000000 0.000000 0.000000 0.000000 0.000000 0.043043
#
#
# Mechanical properties :
#
#
# Convention : Reuss Voigt Hill
#
# Bulk Modulus (GPa) = 41.83561 59.83301 50.83431
# Shear Modulus (GPa) = 22.70580 25.72363 24.21471
#
# Velocity S-wave (km/s) = 3.37857 3.59609 3.48902
# Velocity P-wave (km/s) = 6.02091 6.87909 6.46425
#
# Compressibility (1/GPa) = 0.02390308
#
# Stress axis : x y z
#
# Youngs Moduli (GPa) = 79.53357 30.17269 94.12640
#
# Poissons Ratio (x) = 0.21846 0.34002
# Poissons Ratio (y) = 0.57584 0.50507
# Poissons Ratio (z) = 0.28731 0.16190
#
# Static dielectric constant tensor:
#      x y z
#    x 3.858620 0.000000 0.000000 
#    y 0.000000 3.363110 0.000000 
#    z 0.000000 0.000000 3.802990 
# 
# 
# High freq. dielectric constant tensor:
#      x y z
#    x 1.781060 0.000000 0.000000 
#    y 0.000000 1.740000 0.000000 
#    z 0.000000 0.000000 1.785110 
# 
# From -- ./inp_files/30415.got.cif
#   From: 2010.03.12/outbox.cif.g09.slc.cpg/sg59_16_cif.got.tgz:30415.got - 2010.04.16 16:29:54.
