data_PCOD8244448
_publ_section_title
;
Structure prediction by ZEFSAII (Michael W. Deem and Ramdas Pophale) SiO2 
 PCOD8244448
Probable space group: P M M N
;
_chemical_formula_sum "Si O2"
_cell_formula_units_Z 64
_cell_length_a 14.269143
_cell_length_b 18.369394
_cell_length_c 11.734832
_cell_angle_alpha 90.000000
_cell_angle_beta 90.000000
_cell_angle_gamma 90.000000
_cell_volume 3075.881472
_symmetry_space_group_name_H-M "P M M N"
_symmetry_group_IT_number 59
_space_group.IT_coordinate_system_code '2'
_symmetry_cell_setting 'orthorhombic'
loop_
_space_group_symop_operation_xyz
x,y,z
1/2-x,1/2-y,z
1/2+x,-y,-z
-x,1/2+y,-z
-x,-y,-z
1/2+x,1/2+y,-z
1/2-x,y,z
x,1/2-y,z
loop_
_atom_site_type_symbol
_atom_site_label
_atom_site_fract_x
_atom_site_fract_y
_atom_site_fract_z
Si Si1 0.940370 0.103194 0.787321
Si Si2 0.985505 0.432294 0.417406
Si Si3 0.645430 0.948165 0.733431
Si Si4 0.644253 0.334540 0.566768
Si Si5 0.618594 0.830649 0.919413
Si Si6 0.647802 0.897389 0.158593
Si Si7 0.906469 0.168136 0.031503
Si Si8 0.149548 0.554963 0.792042
O O1 0.884538 0.150720 0.696273
O O2 0.052411 0.120766 0.770632
O O3 0.914661 0.018355 0.772791
O O4 0.905156 0.127888 0.910746
O O5 0.932449 0.368905 0.483210
O O6 0.928189 0.450206 0.304109
O O7 0.000000 0.500000 0.500000
O O8 0.089785 0.410968 0.372826
O O9 0.750000 0.971723 0.694032
O O10 0.658019 0.889733 0.832828
O O11 0.750000 0.364680 0.545300
O O12 0.642207 0.250000 0.541192
O O13 0.657385 0.750000 0.889542
O O14 0.507933 0.830009 0.913374
O O15 0.652351 0.850632 0.044955
O O16 0.750000 0.883021 0.221737
O O17 0.639381 0.983142 0.128859
O O18 0.866107 0.250000 0.017822
O O19 0.848194 0.123902 0.124271
O O20 0.250000 0.555580 0.728744
#
# Coordination Sequence:
#
# PCOD8244448 Si02
#       8
#     8   8   8   8   8   8   8   8
#     4  11  21  41  65  96 131 169 215 271 320 389
#     4  12  24  44  66  91 126 168 217 277 327 383
#     4  12  24  39  66  95 122 165 220 274 328 386
#     4  11  25  45  70  97 128 172 222 272 333 401
#     4  10  21  38  59  88 130 172 212 258 313 385
#     4  10  20  36  60  92 127 170 213 253 312 383
#     4  10  21  37  61  93 132 172 206 255 323 390
#     4  11  22  38  62  92 126 163 208 261 320 385
#
# _framework density 20.807044999999999
#
# number of rings (size 3 to 8) (size 9 to 14) (size 15 to 20)
#    0.000    1.125    3.750    2.250    0.000    7.250 
#    0.000    0.625    0.000    0.750    0.000    0.000 
#    0.000    0.000    0.000    0.000    0.000    0.000 
#
# Total GULP energy -793023.557283 kJ/mol
# GULP energy per Si atom -12390.993083 kJ/mol
# Density = 2.075969 g / cm^3
# Si number density = 20.807045 Si / 1000 Ang^3
#
#
#
# Elastic Constant Matrix: (Units=GPa)
#
#
# Indices 1 2 3 4 5 6 
#
# 1 141.7850 36.3238 48.5974 0.0000 0.0000 0.0000
# 2 36.3238 92.0130 31.2859 0.0000 0.0000 0.0000
# 3 48.5974 31.2859 81.4831 0.0000 0.0000 0.0000
# 4 0.0000 0.0000 0.0000 28.0942 0.0000 0.0000
# 5 0.0000 0.0000 0.0000 0.0000 15.1958 0.0000
# 6 0.0000 0.0000 0.0000 0.0000 0.0000 15.7414
#
#
#
# Elastic Compliance Matrix: (Units=1/GPa)
#
#
# Indices 1 2 3 4 5 6 
#
# 1 0.009183 -0.002028 -0.004698 0.000000 0.000000 0.000000
# 2 -0.002028 0.012948 -0.003762 0.000000 0.000000 0.000000
# 3 -0.004698 -0.003762 0.016519 0.000000 0.000000 0.000000
# 4 0.000000 0.000000 0.000000 0.035595 0.000000 0.000000
# 5 0.000000 0.000000 0.000000 0.000000 0.065808 0.000000
# 6 0.000000 0.000000 0.000000 0.000000 0.000000 0.063527
#
#
# Mechanical properties :
#
#
# Convention : Reuss Voigt Hill
#
# Bulk Modulus (GPa) = 56.58119 60.85503 58.71811
# Shear Modulus (GPa) = 21.69714 25.07786 23.38750
#
# Velocity S-wave (km/s) = 3.23271 3.47545 3.35628
# Velocity P-wave (km/s) = 6.41765 6.73913 6.58035
#
# Compressibility (1/GPa) = 0.01767372
#
# Stress axis : x y z
#
# Youngs Moduli (GPa) = 108.90055 77.23428 60.53646
#
# Poissons Ratio (x) = 0.15660 0.28441
# Poissons Ratio (y) = 0.22081 0.22774
# Poissons Ratio (z) = 0.51163 0.29056
#
# Static dielectric constant tensor:
#      x y z
#    x 4.407560 0.000000 0.000000 
#    y 0.000000 3.988140 0.000000 
#    z 0.000000 0.000000 3.619710 
# 
# 
# High freq. dielectric constant tensor:
#      x y z
#    x 1.840790 0.000000 0.000000 
#    y 0.000000 1.812220 0.000000 
#    z 0.000000 0.000000 1.789950 
# 
# From -- ./inp_files/17262.got.cif
#   From: 2010.03.12/outbox.cif.g09.slc.cpg/sg59_9_cif.got.tgz:17262.got - 2010.04.16 16:29:54.
