data_PCOD8244960
_publ_section_title
;
Structure prediction by ZEFSAII (Michael W. Deem and Ramdas Pophale) SiO2 
 PCOD8244960
Probable space group: P M M N
;
_chemical_formula_sum "Si O2"
_cell_formula_units_Z 56
_cell_length_a 19.177406
_cell_length_b 8.728416
_cell_length_c 17.626077
_cell_angle_alpha 90.000000
_cell_angle_beta 90.000000
_cell_angle_gamma 90.000000
_cell_volume 2950.400428
_symmetry_space_group_name_H-M "P M M N"
_symmetry_group_IT_number 59
_space_group.IT_coordinate_system_code '2'
_symmetry_cell_setting 'orthorhombic'
loop_
_space_group_symop_operation_xyz
x,y,z
1/2-x,1/2-y,z
1/2+x,-y,-z
-x,1/2+y,-z
-x,-y,-z
1/2+x,1/2+y,-z
1/2-x,y,z
x,1/2-y,z
loop_
_atom_site_type_symbol
_atom_site_label
_atom_site_fract_x
_atom_site_fract_y
_atom_site_fract_z
Si Si1 0.329806 0.926132 0.212963
Si Si2 0.330409 0.070996 0.370527
Si Si3 0.327367 0.931854 0.633600
Si Si4 0.069036 0.073393 0.917055
Si Si5 0.575183 0.926824 0.909861
Si Si6 0.923446 0.068778 0.500764
Si Si7 0.832055 0.423907 0.197138
O O1 0.250000 0.956397 0.190772
O O2 0.343029 0.750000 0.234449
O O3 0.351370 0.028918 0.284799
O O4 0.374680 0.970247 0.140433
O O5 0.250000 0.023899 0.386413
O O6 0.342372 0.250000 0.383464
O O7 0.381226 0.977612 0.424796
O O8 0.250000 0.999132 0.616358
O O9 0.323022 0.750000 0.628957
O O10 0.382016 0.996679 0.572448
O O11 0.352092 0.979258 0.717912
O O12 0.046866 0.250000 0.910315
O O13 0.133113 0.037971 0.862252
O O14 0.092310 0.035084 0.002706
O O15 0.004521 0.968822 0.891740
O O16 0.587854 0.750000 0.890298
O O17 0.929778 0.250000 0.497469
O O18 0.000000 0.000000 0.500000
O O19 0.750000 0.434750 0.185624
O O20 0.857686 0.250000 0.183295
#
# Coordination Sequence:
#
# PCOD8244960 Si02
#       7
#     8   8   8   8   8   8   8
#     4  10  21  37  58  84 111 140 179 226 274 326
#     4  10  21  38  59  82 110 144 182 224 274 333
#     4   8  16  33  56  78 100 134 179 220 261 313
#     4  10  21  36  54  78 109 144 182 223 269 324
#     4  10  21  37  56  77 106 145 184 223 269 321
#     4  11  22  36  55  80 112 146 183 228 275 324
#     4   9  18  34  56  80 105 136 178 225 271 321
#
# _framework density 18.980475999999999
#
# number of rings (size 3 to 8) (size 9 to 14) (size 15 to 20)
#    0.000    2.286    0.000    3.429    0.000    6.000 
#    0.000    8.571    0.000    1.714    0.000    0.000 
#    0.000    0.000    0.000    0.000    0.000    0.000 
#
# Total GULP energy -694531.195935 kJ/mol
# GULP energy per Si atom -12402.342785 kJ/mol
# Density = 1.893728 g / cm^3
# Si number density = 18.980476 Si / 1000 Ang^3
#
#
#
# Elastic Constant Matrix: (Units=GPa)
#
#
# Indices 1 2 3 4 5 6 
#
# 1 95.3637 30.2258 71.8983 0.0000 0.0000 0.0000
# 2 30.2258 50.7205 30.8191 0.0000 0.0000 0.0000
# 3 71.8983 30.8191 116.6351 0.0000 0.0000 0.0000
# 4 0.0000 0.0000 0.0000 30.0469 0.0000 0.0000
# 5 0.0000 0.0000 0.0000 0.0000 18.2594 0.0000
# 6 0.0000 0.0000 0.0000 0.0000 0.0000 33.3978
#
#
#
# Elastic Compliance Matrix: (Units=1/GPa)
#
#
# Indices 1 2 3 4 5 6 
#
# 1 0.020798 -0.005484 -0.011371 0.000000 0.000000 0.000000
# 2 -0.005484 0.024933 -0.003207 0.000000 0.000000 0.000000
# 3 -0.011371 -0.003207 0.016431 0.000000 0.000000 0.000000
# 4 0.000000 0.000000 0.000000 0.033281 0.000000 0.000000
# 5 0.000000 0.000000 0.000000 0.000000 0.054766 0.000000
# 6 0.000000 0.000000 0.000000 0.000000 0.000000 0.029942
#
#
# Mechanical properties :
#
#
# Convention : Reuss Voigt Hill
#
# Bulk Modulus (GPa) = 45.38129 58.73394 52.05762
# Shear Modulus (GPa) = 21.96611 24.99254 23.47933
#
# Velocity S-wave (km/s) = 3.40560 3.63264 3.52095
# Velocity P-wave (km/s) = 6.27898 6.97183 6.63445
#
# Compressibility (1/GPa) = 0.02203551
#
# Stress axis : x y z
#
# Youngs Moduli (GPa) = 48.08202 40.10728 60.86062
#
# Poissons Ratio (x) = 0.21997 0.69207
# Poissons Ratio (y) = 0.26370 0.19520
# Poissons Ratio (z) = 0.54676 0.12864
#
# Static dielectric constant tensor:
#      x y z
#    x 2.104370 0.000000 0.000000 
#    y 0.000000 3.371260 0.000000 
#    z 0.000000 0.000000 3.594760 
# 
# 
# High freq. dielectric constant tensor:
#      x y z
#    x 1.734330 0.000000 0.000000 
#    y 0.000000 1.731820 0.000000 
#    z 0.000000 0.000000 1.745510 
# 
# From -- ./inp_files/24284.got.cif
#   From: 2010.03.12/outbox.cif.g09.slc.cpg/sg59_13_cif.got.tgz:24284.got - 2010.04.16 16:29:54.
