data_PCOD8244212
_publ_section_title
;
Structure prediction by ZEFSAII (Michael W. Deem and Ramdas Pophale) SiO2 
 PCOD8244212
Probable space group: P M M N
;
_chemical_formula_sum "Si O2"
_cell_formula_units_Z 40
_cell_length_a 13.975716
_cell_length_b 14.782913
_cell_length_c 9.723509
_cell_angle_alpha 90.000000
_cell_angle_beta 90.000000
_cell_angle_gamma 90.000000
_cell_volume 2008.894401
_symmetry_space_group_name_H-M "P M M N"
_symmetry_group_IT_number 59
_space_group.IT_coordinate_system_code '2'
_symmetry_cell_setting 'orthorhombic'
loop_
_space_group_symop_operation_xyz
x,y,z
1/2-x,1/2-y,z
1/2+x,-y,-z
-x,1/2+y,-z
-x,-y,-z
1/2+x,1/2+y,-z
1/2-x,y,z
x,1/2-y,z
loop_
_atom_site_type_symbol
_atom_site_label
_atom_site_fract_x
_atom_site_fract_y
_atom_site_fract_z
Si Si1 0.362268 0.503623 0.731477
Si Si2 0.021809 0.597900 0.945034
Si Si3 0.361401 0.974780 0.419536
Si Si4 0.989982 0.351273 0.765560
Si Si5 0.140977 0.350669 0.251388
O O1 0.250000 0.488373 0.745238
O O2 0.395042 0.586761 0.830024
O O3 0.393602 0.530610 0.577518
O O4 0.411989 0.408611 0.769848
O O5 0.926866 0.641692 0.880580
O O6 0.053349 0.655390 0.078668
O O7 0.000000 0.500000 0.000000
O O8 0.250000 0.955139 0.403823
O O9 0.414112 0.897841 0.334180
O O10 0.388520 0.074774 0.364305
O O11 0.010540 0.250000 0.712069
O O12 0.250000 0.366952 0.201678
O O13 0.130126 0.250000 0.316089
#
# Coordination Sequence:
#
# PCOD8244212 Si02
#       5
#     8   8   8   8   8
#     4  10  22  40  62  87 120 160 199 244 299 349
#     4  10  20  37  57  85 119 157 196 240 295 353
#     4  10  21  40  62  88 121 156 197 242 296 358
#     4  11  23  39  61  91 121 156 200 246 298 351
#     4  10  20  35  60  90 118 151 193 245 302 356
#
# _framework density 19.911449000000001
#
# number of rings (size 3 to 8) (size 9 to 14) (size 15 to 20)
#    0.000    1.800    4.000    1.200    0.000    5.600 
#    0.000    3.000    0.000    4.200    0.000    0.000 
#    0.000    0.000    0.000    0.000    0.000    0.000 
#
# Total GULP energy -495871.107092 kJ/mol
# GULP energy per Si atom -12396.777677 kJ/mol
# Density = 1.986613 g / cm^3
# Si number density = 19.911449 Si / 1000 Ang^3
#
#
#
# Elastic Constant Matrix: (Units=GPa)
#
#
# Indices 1 2 3 4 5 6 
#
# 1 73.3028 51.1105 60.8265 0.0000 0.0000 0.0000
# 2 51.1105 104.9640 46.5084 0.0000 0.0000 0.0000
# 3 60.8265 46.5084 149.5631 0.0000 0.0000 0.0000
# 4 0.0000 0.0000 0.0000 12.3425 0.0000 0.0000
# 5 0.0000 0.0000 0.0000 0.0000 27.2784 0.0000
# 6 0.0000 0.0000 0.0000 0.0000 0.0000 26.8810
#
#
#
# Elastic Compliance Matrix: (Units=1/GPa)
#
#
# Indices 1 2 3 4 5 6 
#
# 1 0.026946 -0.009586 -0.007978 0.000000 0.000000 0.000000
# 2 -0.009586 0.014460 -0.000598 0.000000 0.000000 0.000000
# 3 -0.007978 -0.000598 0.010117 0.000000 0.000000 0.000000
# 4 0.000000 0.000000 0.000000 0.081021 0.000000 0.000000
# 5 0.000000 0.000000 0.000000 0.000000 0.036659 0.000000
# 6 0.000000 0.000000 0.000000 0.000000 0.000000 0.037201
#
#
# Mechanical properties :
#
#
# Convention : Reuss Voigt Hill
#
# Bulk Modulus (GPa) = 65.79457 71.63562 68.71510
# Shear Modulus (GPa) = 20.17816 24.59270 22.38543
#
# Velocity S-wave (km/s) = 3.18684 3.51822 3.35662
# Velocity P-wave (km/s) = 6.83056 7.24976 7.04328
#
# Compressibility (1/GPa) = 0.01519882
#
# Stress axis : x y z
#
# Youngs Moduli (GPa) = 37.11147 69.15779 98.84732
#
# Poissons Ratio (x) = 0.66294 0.78859
# Poissons Ratio (y) = 0.35575 0.05910
# Poissons Ratio (z) = 0.29607 0.04135
#
# Static dielectric constant tensor:
#      x y z
#    x 3.615420 0.000000 0.000000 
#    y 0.000000 3.653810 0.000000 
#    z 0.000000 0.000000 3.607750 
# 
# 
# High freq. dielectric constant tensor:
#      x y z
#    x 1.771960 0.000000 0.000000 
#    y 0.000000 1.765350 0.000000 
#    z 0.000000 0.000000 1.787210 
# 
# From -- ./inp_files/8597.got.cif
#   From: 2010.03.12/outbox.cif.g09.slc.cpg/sg59_5_cif.got.tgz:8597.got - 2010.04.16 16:29:54.
