data_PCOD8244486
_publ_section_title
;
Structure prediction by ZEFSAII (Michael W. Deem and Ramdas Pophale) SiO2 
 PCOD8244486
Probable space group: P M M N
;
_chemical_formula_sum "Si O2"
_cell_formula_units_Z 56
_cell_length_a 19.711915
_cell_length_b 8.739620
_cell_length_c 16.570549
_cell_angle_alpha 90.000000
_cell_angle_beta 90.000000
_cell_angle_gamma 90.000000
_cell_volume 2854.685472
_symmetry_space_group_name_H-M "P M M N"
_symmetry_group_IT_number 59
_space_group.IT_coordinate_system_code '2'
_symmetry_cell_setting 'orthorhombic'
loop_
_space_group_symop_operation_xyz
x,y,z
1/2-x,1/2-y,z
1/2+x,-y,-z
-x,1/2+y,-z
-x,-y,-z
1/2+x,1/2+y,-z
1/2-x,y,z
x,1/2-y,z
loop_
_atom_site_type_symbol
_atom_site_label
_atom_site_fract_x
_atom_site_fract_y
_atom_site_fract_z
Si Si1 0.674637 0.432313 0.805178
Si Si2 0.828378 0.931252 0.362267
Si Si3 0.925294 0.070671 0.497130
Si Si4 0.058906 0.070522 0.757804
Si Si5 0.574320 0.071446 0.675764
Si Si6 0.176276 0.931328 0.016906
Si Si7 0.546383 0.069377 0.069905
O O1 0.750000 0.490258 0.784525
O O2 0.672207 0.250000 0.801609
O O3 0.623673 0.508807 0.740834
O O4 0.653604 0.490096 0.894465
O O5 0.750000 0.991672 0.360118
O O6 0.829272 0.750000 0.372139
O O7 0.867503 0.978342 0.278926
O O8 0.870500 0.998514 0.437019
O O9 0.931556 0.250000 0.478545
O O10 0.897515 0.036003 0.586938
O O11 0.000000 0.000000 0.500000
O O12 0.057786 0.250000 0.775082
O O13 0.003726 0.019034 0.690058
O O14 0.035064 0.989924 0.839978
O O15 0.575912 0.250000 0.692581
O O16 0.250000 0.999377 0.993555
O O17 0.180804 0.750000 0.020609
O O18 0.122828 0.984230 0.950415
O O19 0.536512 0.250000 0.067799
O O20 0.500000 0.000000 0.000000
#
# Coordination Sequence:
#
# PCOD8244486 Si02
#       7
#     8   8   8   8   8   8   8
#     4   8  13  23  42  69  99 130 167 213 266 323
#     4  10  22  41  62  85 117 158 201 246 301 358
#     4  11  21  36  59  85 115 152 195 240 293 355
#     4  10  20  37  57  78 108 148 190 236 289 346
#     4   9  17  30  51  77 106 141 178 221 278 341
#     4   8  15  29  49  72 100 136 176 220 270 323
#     4  11  22  35  54  82 113 146 188 237 286 340
#
# _framework density 19.616872000000001
#
# number of rings (size 3 to 8) (size 9 to 14) (size 15 to 20)
#    0.000    2.429    1.429    2.571    0.000    4.286 
#    0.000    1.429    0.000    1.286    0.000    0.000 
#    0.000    0.000    0.000    0.000    0.000    0.000 
#
# Total GULP energy -693792.394289 kJ/mol
# GULP energy per Si atom -12389.149898 kJ/mol
# Density = 1.957222 g / cm^3
# Si number density = 19.616872 Si / 1000 Ang^3
#
#
#
# Elastic Constant Matrix: (Units=GPa)
#
#
# Indices 1 2 3 4 5 6 
#
# 1 107.8112 27.2538 56.3371 0.0000 0.0000 0.0000
# 2 27.2538 38.8171 28.5646 0.0000 0.0000 0.0000
# 3 56.3371 28.5646 113.4850 0.0000 0.0000 0.0000
# 4 0.0000 0.0000 0.0000 27.5566 0.0000 0.0000
# 5 0.0000 0.0000 0.0000 0.0000 38.9951 0.0000
# 6 0.0000 0.0000 0.0000 0.0000 0.0000 18.0356
#
#
#
# Elastic Compliance Matrix: (Units=1/GPa)
#
#
# Indices 1 2 3 4 5 6 
#
# 1 0.013434 -0.005553 -0.005271 0.000000 0.000000 0.000000
# 2 -0.005553 0.033914 -0.005780 0.000000 0.000000 0.000000
# 3 -0.005271 -0.005780 0.012883 0.000000 0.000000 0.000000
# 4 0.000000 0.000000 0.000000 0.036289 0.000000 0.000000
# 5 0.000000 0.000000 0.000000 0.000000 0.025644 0.000000
# 6 0.000000 0.000000 0.000000 0.000000 0.000000 0.055446
#
#
# Mechanical properties :
#
#
# Convention : Reuss Voigt Hill
#
# Bulk Modulus (GPa) = 37.00520 53.82492 45.41506
# Shear Modulus (GPa) = 22.74540 26.78132 24.76336
#
# Velocity S-wave (km/s) = 3.40881 3.69889 3.55681
# Velocity P-wave (km/s) = 5.86500 6.76314 6.33002
#
# Compressibility (1/GPa) = 0.02702323
#
# Stress axis : x y z
#
# Youngs Moduli (GPa) = 74.43982 29.48664 77.62041
#
# Poissons Ratio (x) = 0.16374 0.40915
# Poissons Ratio (y) = 0.41336 0.44861
# Poissons Ratio (z) = 0.39238 0.17042
#
# Static dielectric constant tensor:
#      x y z
#    x 4.343540 0.000000 0.000000 
#    y 0.000000 3.132960 0.000000 
#    z 0.000000 0.000000 3.950620 
# 
# 
# High freq. dielectric constant tensor:
#      x y z
#    x 1.774510 0.000000 0.000000 
#    y 0.000000 1.717410 0.000000 
#    z 0.000000 0.000000 1.773170 
# 
# From -- ./inp_files/20939.got.cif
#   From: 2010.03.12/outbox.cif.g09.slc.cpg/sg59_11_cif.got.tgz:20939.got - 2010.04.16 16:29:54.
