data_PCOD8244483
_publ_section_title
;
Structure prediction by ZEFSAII (Michael W. Deem and Ramdas Pophale) SiO2 
 PCOD8244483
Probable space group: P M M N
;
_chemical_formula_sum "Si O2"
_cell_formula_units_Z 48
_cell_length_a 9.308003
_cell_length_b 17.950655
_cell_length_c 15.971684
_cell_angle_alpha 90.000000
_cell_angle_beta 90.000000
_cell_angle_gamma 90.000000
_cell_volume 2668.624838
_symmetry_space_group_name_H-M "P M M N"
_symmetry_group_IT_number 59
_space_group.IT_coordinate_system_code '2'
_symmetry_cell_setting 'orthorhombic'
loop_
_space_group_symop_operation_xyz
x,y,z
1/2-x,1/2-y,z
1/2+x,-y,-z
-x,1/2+y,-z
-x,-y,-z
1/2+x,1/2+y,-z
1/2-x,y,z
x,1/2-y,z
loop_
_atom_site_type_symbol
_atom_site_label
_atom_site_fract_x
_atom_site_fract_y
_atom_site_fract_z
Si Si1 0.084256 0.024340 0.129028
Si Si2 0.421407 0.250000 0.698223
Si Si3 0.916718 0.899073 0.037479
Si Si4 0.916473 0.114924 0.613873
Si Si5 0.079739 0.250000 0.888519
Si Si6 0.415993 0.836134 0.573065
Si Si7 0.918617 0.953178 0.681772
O O1 0.250000 0.000306 0.130507
O O2 0.035382 0.049603 0.220925
O O3 0.055157 0.089387 0.061323
O O4 0.993953 0.954679 0.099792
O O5 0.250000 0.250000 0.687266
O O6 0.484525 0.324659 0.658488
O O7 0.473406 0.250000 0.793645
O O8 0.750000 0.906268 0.059009
O O9 0.981969 0.819670 0.060879
O O10 0.750000 0.129142 0.638032
O O11 0.940735 0.123919 0.515409
O O12 0.966010 0.032151 0.641354
O O13 0.250000 0.250000 0.890892
O O14 0.250000 0.838635 0.598720
O O15 0.469342 0.750000 0.570076
O O16 0.504264 0.882915 0.640393
O O17 0.750000 0.941573 0.669600
#
# Coordination Sequence:
#
# PCOD8244483 Si02
#       7
#     8   4   8   8   4   8   8
#     4   9  18  33  51  77 105 132 171 214 257 304
#     4  11  21  31  51  82 109 132 176 227 259 307
#     4   9  17  32  53  72 101 140 172 207 254 309
#     4  10  20  37  56  75 108 144 172 211 271 324
#     4   9  18  31  47  74 103 132 170 207 251 305
#     4  10  21  38  56  74 103 143 179 212 262 322
#     4  10  21  35  55  83 107 135 179 224 262 311
#
# _framework density 17.986792000000001
#
# number of rings (size 3 to 8) (size 9 to 14) (size 15 to 20)
#    0.000    2.333    0.833    1.750    0.000    2.333 
#    1.500    1.250    0.000    0.000    0.000    0.000 
#    0.000    0.000    0.000    0.000    0.000    0.000 
#
# Total GULP energy -595116.700306 kJ/mol
# GULP energy per Si atom -12398.264590 kJ/mol
# Density = 1.794585 g / cm^3
# Si number density = 17.986792 Si / 1000 Ang^3
#
#
#
# Elastic Constant Matrix: (Units=GPa)
#
#
# Indices 1 2 3 4 5 6 
#
# 1 47.7144 48.2104 49.3608 0.0000 0.0000 0.0000
# 2 48.2104 107.6604 78.7959 0.0000 0.0000 0.0000
# 3 49.3608 78.7959 138.9680 0.0000 0.0000 0.0000
# 4 0.0000 0.0000 0.0000 20.9330 0.0000 0.0000
# 5 0.0000 0.0000 0.0000 0.0000 22.0301 0.0000
# 6 0.0000 0.0000 0.0000 0.0000 0.0000 23.6307
#
#
#
# Elastic Compliance Matrix: (Units=1/GPa)
#
#
# Indices 1 2 3 4 5 6 
#
# 1 0.042214 -0.013554 -0.007309 0.000000 0.000000 0.000000
# 2 -0.013554 0.020229 -0.006656 0.000000 0.000000 0.000000
# 3 -0.007309 -0.006656 0.013566 0.000000 0.000000 0.000000
# 4 0.000000 0.000000 0.000000 0.047772 0.000000 0.000000
# 5 0.000000 0.000000 0.000000 0.000000 0.045392 0.000000
# 6 0.000000 0.000000 0.000000 0.000000 0.000000 0.042318
#
#
# Mechanical properties :
#
#
# Convention : Reuss Voigt Hill
#
# Bulk Modulus (GPa) = 47.68350 71.89744 59.79047
# Shear Modulus (GPa) = 18.28017 21.18379 19.73198
#
# Velocity S-wave (km/s) = 3.19142 3.43555 3.31573
# Velocity P-wave (km/s) = 6.33625 7.46970 6.92620
#
# Compressibility (1/GPa) = 0.02097161
#
# Stress axis : x y z
#
# Youngs Moduli (GPa) = 23.68857 49.43295 73.71404
#
# Poissons Ratio (x) = 0.67003 0.53878
# Poissons Ratio (y) = 0.32108 0.49063
# Poissons Ratio (z) = 0.17314 0.32902
#
# Static dielectric constant tensor:
#      x y z
#    x 3.208340 0.000000 0.000000 
#    y 0.000000 3.648650 0.000000 
#    z 0.000000 0.000000 3.471050 
# 
# 
# High freq. dielectric constant tensor:
#      x y z
#    x 1.684510 0.000000 0.000000 
#    y 0.000000 1.699960 0.000000 
#    z 0.000000 0.000000 1.705990 
# 
# From -- ./inp_files/20525.got.cif
#   From: 2010.03.12/outbox.cif.g09.slc.cpg/sg59_11_cif.got.tgz:20525.got - 2010.04.16 16:29:54.
