data_PCOD8244182
_publ_section_title
;
Structure prediction by ZEFSAII (Michael W. Deem and Ramdas Pophale) SiO2 
 PCOD8244182
Probable space group: P M M N
;
_chemical_formula_sum "Si O2"
_cell_formula_units_Z 64
_cell_length_a 8.858442
_cell_length_b 13.910608
_cell_length_c 26.651596
_cell_angle_alpha 90.000000
_cell_angle_beta 90.000000
_cell_angle_gamma 90.000000
_cell_volume 3284.177941
_symmetry_space_group_name_H-M "P M M N"
_symmetry_group_IT_number 59
_space_group.IT_coordinate_system_code '2'
_symmetry_cell_setting 'orthorhombic'
loop_
_space_group_symop_operation_xyz
x,y,z
1/2-x,1/2-y,z
1/2+x,-y,-z
-x,1/2+y,-z
-x,-y,-z
1/2+x,1/2+y,-z
1/2-x,y,z
x,1/2-y,z
loop_
_atom_site_type_symbol
_atom_site_label
_atom_site_fract_x
_atom_site_fract_y
_atom_site_fract_z
Si Si1 0.074167 0.523083 0.947369
Si Si2 0.076988 0.359858 0.325836
Si Si3 0.927921 0.545227 0.573405
Si Si4 0.074528 0.856949 0.228557
Si Si5 0.927517 0.638508 0.862888
Si Si6 0.417607 0.144275 0.873111
Si Si7 0.927324 0.048808 0.234748
Si Si8 0.572678 0.142809 0.518964
O O1 0.250000 0.547518 0.954035
O O2 0.042871 0.426583 0.917195
O O3 0.995007 0.610154 0.917213
O O4 0.000000 0.500000 0.000000
O O5 0.250000 0.384562 0.312524
O O6 0.060325 0.250000 0.343245
O O7 0.016158 0.427392 0.370913
O O8 0.978023 0.374936 0.276316
O O9 0.750000 0.558606 0.570058
O O10 0.977632 0.435343 0.560929
O O11 0.997980 0.619152 0.534031
O O12 0.250000 0.873635 0.239248
O O13 0.025574 0.750000 0.248173
O O14 0.043328 0.864166 0.169486
O O15 0.981091 0.943209 0.254312
O O16 0.750000 0.618832 0.862762
O O17 0.964225 0.750000 0.852805
O O18 0.002213 0.574308 0.819252
O O19 0.250000 0.122154 0.850230
O O20 0.420591 0.250000 0.897138
O O21 0.750000 0.051784 0.228676
O O22 0.750000 0.137158 0.510585
O O23 0.523506 0.250000 0.536471
#
# Coordination Sequence:
#
# PCOD8244182 Si02
#       8
#     8   8   8   8   8   8   8   8
#     4  11  23  38  58  85 117 153 186 225 277 332
#     4  10  21  37  56  79 110 149 193 241 289 337
#     4   9  18  33  53  78 110 149 193 239 286 337
#     4  10  20  35  59  87 111 139 178 221 266 322
#     4  11  24  42  63  85 113 150 191 236 284 336
#     4   9  18  34  56  81 108 139 176 218 267 321
#     4  12  24  38  59  86 116 150 187 232 285 342
#     4   9  17  30  51  80 113 148 187 234 289 345
#
# _framework density 19.487373000000002
#
# number of rings (size 3 to 8) (size 9 to 14) (size 15 to 20)
#    0.000    1.875    1.250    3.000    0.000    5.750 
#    0.000    1.875    0.000    2.250    0.000    0.000 
#    0.000    0.000    0.000    0.000    0.000    0.000 
#
# Total GULP energy -793495.677469 kJ/mol
# GULP energy per Si atom -12398.369960 kJ/mol
# Density = 1.944302 g / cm^3
# Si number density = 19.487373 Si / 1000 Ang^3
#
#
#
# Elastic Constant Matrix: (Units=GPa)
#
#
# Indices 1 2 3 4 5 6 
#
# 1 82.6498 39.1755 30.6474 0.0000 0.0000 0.0000
# 2 39.1755 110.6535 33.1129 0.0000 0.0000 0.0000
# 3 30.6474 33.1129 92.4164 0.0000 0.0000 0.0000
# 4 0.0000 0.0000 0.0000 27.6332 0.0000 0.0000
# 5 0.0000 0.0000 0.0000 0.0000 29.5369 0.0000
# 6 0.0000 0.0000 0.0000 0.0000 0.0000 27.9773
#
#
#
# Elastic Compliance Matrix: (Units=1/GPa)
#
#
# Indices 1 2 3 4 5 6 
#
# 1 0.015518 -0.004429 -0.003559 0.000000 0.000000 0.000000
# 2 -0.004429 0.011387 -0.002611 0.000000 0.000000 0.000000
# 3 -0.003559 -0.002611 0.012937 0.000000 0.000000 0.000000
# 4 0.000000 0.000000 0.000000 0.036188 0.000000 0.000000
# 5 0.000000 0.000000 0.000000 0.000000 0.033856 0.000000
# 6 0.000000 0.000000 0.000000 0.000000 0.000000 0.035743
#
#
# Mechanical properties :
#
#
# Convention : Reuss Voigt Hill
#
# Bulk Modulus (GPa) = 53.64028 54.62123 54.13075
# Shear Modulus (GPa) = 28.89470 29.21507 29.05488
#
# Velocity S-wave (km/s) = 3.85481 3.87612 3.86548
# Velocity P-wave (km/s) = 6.88463 6.93703 6.91088
#
# Compressibility (1/GPa) = 0.01864271
#
# Stress axis : x y z
#
# Youngs Moduli (GPa) = 64.43968 87.82249 77.30060
#
# Poissons Ratio (x) = 0.38896 0.27514
# Poissons Ratio (y) = 0.28540 0.20184
# Poissons Ratio (z) = 0.22936 0.22931
#
# Static dielectric constant tensor:
#      x y z
#    x 3.620140 0.000000 0.000000 
#    y 0.000000 4.023710 0.000000 
#    z 0.000000 0.000000 3.371340 
# 
# 
# High freq. dielectric constant tensor:
#      x y z
#    x 1.757240 0.000000 0.000000 
#    y 0.000000 1.777120 0.000000 
#    z 0.000000 0.000000 1.734980 
# 
# From -- ./inp_files/31600.got.cif
#   From: 2010.03.12/outbox.cif.g09.slc.cpg/sg59_16_cif.got.tgz:31600.got - 2010.04.16 16:29:54.
