data_PCOD8244052
_publ_section_title
;
Structure prediction by ZEFSAII (Michael W. Deem and Ramdas Pophale) SiO2 
 PCOD8244052
Probable space group: P M M N
;
_chemical_formula_sum "Si O2"
_cell_formula_units_Z 48
_cell_length_a 16.965084
_cell_length_b 8.810343
_cell_length_c 16.202833
_cell_angle_alpha 90.000000
_cell_angle_beta 90.000000
_cell_angle_gamma 90.000000
_cell_volume 2421.808430
_symmetry_space_group_name_H-M "P M M N"
_symmetry_group_IT_number 59
_space_group.IT_coordinate_system_code '2'
_symmetry_cell_setting 'orthorhombic'
loop_
_space_group_symop_operation_xyz
x,y,z
1/2-x,1/2-y,z
1/2+x,-y,-z
-x,1/2+y,-z
-x,-y,-z
1/2+x,1/2+y,-z
1/2-x,y,z
x,1/2-y,z
loop_
_atom_site_type_symbol
_atom_site_label
_atom_site_fract_x
_atom_site_fract_y
_atom_site_fract_z
Si Si1 0.418405 0.427533 0.462836
Si Si2 0.080845 0.429488 0.973630
Si Si3 0.250000 0.922459 0.514513
Si Si4 0.750000 0.080513 0.291029
Si Si5 0.046958 0.074072 0.274274
Si Si6 0.104416 0.071801 0.790322
Si Si7 0.835494 0.569913 0.864208
O O1 0.500000 0.500000 0.500000
O O2 0.418950 0.250000 0.487052
O O3 0.333446 0.497530 0.489652
O O4 0.418575 0.450520 0.364779
O O5 0.071840 0.250000 0.970649
O O6 0.104360 0.493878 0.883762
O O7 0.142942 0.481540 0.043005
O O8 0.000000 0.500000 0.000000
O O9 0.250000 0.750000 0.479270
O O10 0.250000 0.918988 0.611710
O O11 0.750000 0.250000 0.255433
O O12 0.675803 0.992592 0.259351
O O13 0.026811 0.250000 0.257950
O O14 0.106848 0.007397 0.206123
O O15 0.969878 0.974927 0.263624
O O16 0.111463 0.250000 0.794064
O O17 0.750000 0.501521 0.844706
O O18 0.834689 0.750000 0.858944
#
# Coordination Sequence:
#
# PCOD8244052 Si02
#       7
#     8   8   4   4   8   8   8
#     4  11  24  41  65  95 126 162 207 257 313 377
#     4  10  20  35  57  83 115 155 197 241 292 348
#     4  11  25  45  67  92 123 162 208 258 314 377
#     4  11  25  43  63  86 117 158 204 244 294 365
#     4  10  21  38  62  88 117 157 203 243 293 367
#     4  11  23  37  59  91 124 156 198 250 302 350
#     4   9  18  33  57  83 112 152 197 242 285 340
#
# _framework density 19.819898999999999
#
# number of rings (size 3 to 8) (size 9 to 14) (size 15 to 20)
#    0.000    1.667    1.667    2.500    2.333    7.333 
#    0.000    0.000    0.000    1.000    0.000    0.000 
#    0.000    0.000    0.000    0.000    0.000    0.000 
#
# Total GULP energy -594898.193947 kJ/mol
# GULP energy per Si atom -12393.712374 kJ/mol
# Density = 1.977479 g / cm^3
# Si number density = 19.819899 Si / 1000 Ang^3
#
#
#
# Elastic Constant Matrix: (Units=GPa)
#
#
# Indices 1 2 3 4 5 6 
#
# 1 172.2756 50.3354 43.0628 0.0000 0.0000 0.0000
# 2 50.3354 71.9544 37.1087 0.0000 0.0000 0.0000
# 3 43.0628 37.1087 95.6106 0.0000 0.0000 0.0000
# 4 0.0000 0.0000 0.0000 25.9999 0.0000 0.0000
# 5 0.0000 0.0000 0.0000 0.0000 38.6008 0.0000
# 6 0.0000 0.0000 0.0000 0.0000 0.0000 43.6378
#
#
#
# Elastic Compliance Matrix: (Units=1/GPa)
#
#
# Indices 1 2 3 4 5 6 
#
# 1 0.007505 -0.004385 -0.001679 0.000000 0.000000 0.000000
# 2 -0.004385 0.019937 -0.005763 0.000000 0.000000 0.000000
# 3 -0.001679 -0.005763 0.013452 0.000000 0.000000 0.000000
# 4 0.000000 0.000000 0.000000 0.038462 0.000000 0.000000
# 5 0.000000 0.000000 0.000000 0.000000 0.025906 0.000000
# 6 0.000000 0.000000 0.000000 0.000000 0.000000 0.022916
#
#
# Mechanical properties :
#
#
# Convention : Reuss Voigt Hill
#
# Bulk Modulus (GPa) = 57.99955 66.76161 62.38058
# Shear Modulus (GPa) = 31.73021 35.60327 33.66674
#
# Velocity S-wave (km/s) = 4.00550 4.24292 4.12592
# Velocity P-wave (km/s) = 7.12172 7.60003 7.36476
#
# Compressibility (1/GPa) = 0.01724151
#
# Stress axis : x y z
#
# Youngs Moduli (GPa) = 133.23839 50.15752 74.33841
#
# Poissons Ratio (x) = 0.21992 0.12479
# Poissons Ratio (y) = 0.58420 0.42843
# Poissons Ratio (z) = 0.22366 0.28907
#
# Static dielectric constant tensor:
#      x y z
#    x 3.887600 0.000000 0.000000 
#    y 0.000000 3.664510 0.000000 
#    z 0.000000 0.000000 0.654750 
# 
# 
# High freq. dielectric constant tensor:
#      x y z
#    x 1.787120 0.000000 0.000000 
#    y 0.000000 1.757410 0.000000 
#    z 0.000000 0.000000 1.791590 
# 
# From -- ./inp_files/27453.got.cif
#   From: 2010.03.12/outbox.cif.g09.slc.cpg/sg59_14_cif.got.tgz:27453.got - 2010.04.16 16:29:54.
