data_PCOD8244758
_publ_section_title
;
Structure prediction by ZEFSAII (Michael W. Deem and Ramdas Pophale) SiO2 
 PCOD8244758
Probable space group: P M M N
;
_chemical_formula_sum "Si O2"
_cell_formula_units_Z 64
_cell_length_a 9.200498
_cell_length_b 23.068176
_cell_length_c 16.124540
_cell_angle_alpha 90.000000
_cell_angle_beta 90.000000
_cell_angle_gamma 90.000000
_cell_volume 3422.251523
_symmetry_space_group_name_H-M "P M M N"
_symmetry_group_IT_number 59
_space_group.IT_coordinate_system_code '2'
_symmetry_cell_setting 'orthorhombic'
loop_
_space_group_symop_operation_xyz
x,y,z
1/2-x,1/2-y,z
1/2+x,-y,-z
-x,1/2+y,-z
-x,-y,-z
1/2+x,1/2+y,-z
1/2-x,y,z
x,1/2-y,z
loop_
_atom_site_type_symbol
_atom_site_label
_atom_site_fract_x
_atom_site_fract_y
_atom_site_fract_z
Si Si1 0.920058 0.027248 0.885220
Si Si2 0.084368 0.586441 0.278695
Si Si3 0.917434 0.814412 0.349583
Si Si4 0.078512 0.815923 0.829273
Si Si5 0.081050 0.491655 0.412812
Si Si6 0.580534 0.083200 0.054526
Si Si7 0.078533 0.884316 0.664988
Si Si8 0.589769 0.681671 0.534836
O O1 0.750000 0.013683 0.882383
O O2 0.980699 0.052077 0.799342
O O3 0.956245 0.074359 0.957363
O O4 0.998805 0.966297 0.895090
O O5 0.250000 0.601551 0.259741
O O6 0.066268 0.551214 0.363400
O O7 0.000404 0.646498 0.283949
O O8 0.750000 0.813863 0.325067
O O9 0.983114 0.750000 0.343730
O O10 0.939439 0.840252 0.441733
O O11 0.250000 0.809145 0.823769
O O12 0.011261 0.750000 0.831625
O O13 0.033014 0.852892 0.911633
O O14 0.025016 0.853265 0.749781
O O15 0.250000 0.476083 0.429173
O O16 0.000000 0.500000 0.500000
O O17 0.008949 0.443012 0.354039
O O18 0.750000 0.074378 0.072342
O O19 0.250000 0.897392 0.666099
O O20 0.040955 0.840360 0.591219
O O21 0.750000 0.659340 0.564361
O O22 0.590061 0.750000 0.535317
#
# Coordination Sequence:
#
# PCOD8244758 Si02
#       8
#     8   8   8   8   8   8   8   8
#     4   9  18  33  53  78 105 129 161 209 258 302
#     4  10  21  35  51  74 102 130 162 204 253 299
#     4   9  19  35  53  72  95 126 163 202 243 289
#     4   9  18  32  50  75 107 139 173 214 255 303
#     4  11  23  37  52  73 104 139 174 215 262 309
#     4   9  17  32  55  78  99 130 170 205 247 305
#     4  11  21  32  49  74 103 135 172 212 256 305
#     4   9  18  33  51  70  95 130 172 214 253 294
#
# _framework density 18.701138
#
# number of rings (size 3 to 8) (size 9 to 14) (size 15 to 20)
#    0.000    2.375    0.000    3.375    0.000    5.000 
#    0.000    2.500    0.000    4.125    0.000    0.000 
#    0.000    0.000    0.000    0.000    0.000    0.000 
#
# Total GULP energy -793294.888722 kJ/mol
# GULP energy per Si atom -12395.232636 kJ/mol
# Density = 1.865857 g / cm^3
# Si number density = 18.701138 Si / 1000 Ang^3
#
#
#
# Elastic Constant Matrix: (Units=GPa)
#
#
# Indices 1 2 3 4 5 6 
#
# 1 55.9731 36.2202 34.3932 0.0000 0.0000 0.0000
# 2 36.2202 103.4861 49.8475 0.0000 0.0000 0.0000
# 3 34.3932 49.8475 80.7676 0.0000 0.0000 0.0000
# 4 0.0000 0.0000 0.0000 32.0842 0.0000 0.0000
# 5 0.0000 0.0000 0.0000 0.0000 22.6941 0.0000
# 6 0.0000 0.0000 0.0000 0.0000 0.0000 30.9567
#
#
#
# Elastic Compliance Matrix: (Units=1/GPa)
#
#
# Indices 1 2 3 4 5 6 
#
# 1 0.026153 -0.005392 -0.007809 0.000000 0.000000 0.000000
# 2 -0.005392 0.014863 -0.006877 0.000000 0.000000 0.000000
# 3 -0.007809 -0.006877 0.019951 0.000000 0.000000 0.000000
# 4 0.000000 0.000000 0.000000 0.031168 0.000000 0.000000
# 5 0.000000 0.000000 0.000000 0.000000 0.044064 0.000000
# 6 0.000000 0.000000 0.000000 0.000000 0.000000 0.032303
#
#
# Mechanical properties :
#
#
# Convention : Reuss Voigt Hill
#
# Bulk Modulus (GPa) = 48.05164 53.46096 50.75630
# Shear Modulus (GPa) = 23.19161 25.13137 24.16149
#
# Velocity S-wave (km/s) = 3.52535 3.66982 3.59831
# Velocity P-wave (km/s) = 6.50546 6.82685 6.66809
#
# Compressibility (1/GPa) = 0.02081095
#
# Stress axis : x y z
#
# Youngs Moduli (GPa) = 38.23603 67.28178 50.12379
#
# Poissons Ratio (x) = 0.36280 0.39141
# Poissons Ratio (y) = 0.20618 0.34469
# Poissons Ratio (z) = 0.29858 0.46268
#
# Static dielectric constant tensor:
#      x y z
#    x 2.756740 0.000000 0.000000 
#    y 0.000000 3.561310 0.000000 
#    z 0.000000 0.000000 3.567480 
# 
# 
# High freq. dielectric constant tensor:
#      x y z
#    x 1.710550 0.000000 0.000000 
#    y 0.000000 1.729330 0.000000 
#    z 0.000000 0.000000 1.722210 
# 
# From -- ./inp_files/21581.got.cif
#   From: 2010.03.12/outbox.cif.g09.slc.cpg/sg59_11_cif.got.tgz:21581.got - 2010.04.16 16:29:54.
