data_PCOD8244193
_publ_section_title
;
Structure prediction by ZEFSAII (Michael W. Deem and Ramdas Pophale) SiO2 
 PCOD8244193
Probable space group: P M M N
;
_chemical_formula_sum "Si O2"
_cell_formula_units_Z 56
_cell_length_a 8.943619
_cell_length_b 23.359341
_cell_length_c 13.662341
_cell_angle_alpha 90.000000
_cell_angle_beta 90.000000
_cell_angle_gamma 90.000000
_cell_volume 2854.295923
_symmetry_space_group_name_H-M "P M M N"
_symmetry_group_IT_number 59
_space_group.IT_coordinate_system_code '2'
_symmetry_cell_setting 'orthorhombic'
loop_
_space_group_symop_operation_xyz
x,y,z
1/2-x,1/2-y,z
1/2+x,-y,-z
-x,1/2+y,-z
-x,-y,-z
1/2+x,1/2+y,-z
1/2-x,y,z
x,1/2-y,z
loop_
_atom_site_type_symbol
_atom_site_label
_atom_site_fract_x
_atom_site_fract_y
_atom_site_fract_z
Si Si1 0.572231 0.316937 0.873591
Si Si2 0.080636 0.946382 0.453138
Si Si3 0.923451 0.478129 0.171992
Si Si4 0.426436 0.097268 0.740445
Si Si5 0.924812 0.688242 0.774268
Si Si6 0.572842 0.611508 0.953336
Si Si7 0.415467 0.895090 0.657119
O O1 0.750000 0.320806 0.874990
O O2 0.521553 0.250000 0.884568
O O3 0.508595 0.344010 0.772932
O O4 0.503799 0.359163 0.954346
O O5 0.250000 0.961575 0.419304
O O6 0.083895 0.901758 0.541442
O O7 0.987192 0.919723 0.365443
O O8 0.000000 0.000000 0.500000
O O9 0.750000 0.469220 0.148365
O O10 0.959974 0.545791 0.181932
O O11 0.014897 0.451596 0.079510
O O12 0.968045 0.450153 0.277742
O O13 0.250000 0.108053 0.732315
O O14 0.750000 0.694650 0.773861
O O15 0.001870 0.750000 0.782204
O O16 0.975448 0.658009 0.674958
O O17 0.979517 0.651601 0.865287
O O18 0.750000 0.608650 0.971710
O O19 0.250000 0.879135 0.693814
#
# Coordination Sequence:
#
# PCOD8244193 Si02
#       7
#     8   8   8   8   8   8   8
#     4  11  25  44  63  84 113 154 202 247 292 347
#     4  11  21  36  59  87 118 153 193 237 289 351
#     4   9  18  35  56  85 122 152 184 232 289 350
#     4  11  23  40  62  89 119 153 195 245 298 351
#     4   9  18  32  51  79 113 146 186 236 285 336
#     4  10  20  35  59  88 116 151 193 238 290 348
#     4   9  18  33  52  79 114 148 186 229 277 337
#
# _framework density 19.619548999999999
#
# number of rings (size 3 to 8) (size 9 to 14) (size 15 to 20)
#    0.000    2.000    1.429    2.143    0.000    5.429 
#    0.000    0.714    0.000    0.857    0.000    0.000 
#    0.000    0.000    0.000    0.000    0.000    0.000 
#
# Total GULP energy -694058.130204 kJ/mol
# GULP energy per Si atom -12393.895182 kJ/mol
# Density = 1.957489 g / cm^3
# Si number density = 19.619549 Si / 1000 Ang^3
#
#
#
# Elastic Constant Matrix: (Units=GPa)
#
#
# Indices 1 2 3 4 5 6 
#
# 1 71.9818 39.2954 39.2169 0.0000 0.0000 0.0000
# 2 39.2954 96.6181 40.9641 0.0000 0.0000 0.0000
# 3 39.2169 40.9641 85.3760 0.0000 0.0000 0.0000
# 4 0.0000 0.0000 0.0000 -23.6372 0.0000 0.0000
# 5 0.0000 0.0000 0.0000 0.0000 35.9772 0.0000
# 6 0.0000 0.0000 0.0000 0.0000 0.0000 29.9413
#
#
#
# Elastic Compliance Matrix: (Units=1/GPa)
#
#
# Indices 1 2 3 4 5 6 
#
# 1 0.020611 -0.005484 -0.006836 0.000000 0.000000 0.000000
# 2 -0.005484 0.014453 -0.004415 0.000000 0.000000 0.000000
# 3 -0.006836 -0.004415 0.016971 0.000000 0.000000 0.000000
# 4 0.000000 0.000000 0.000000 -0.042306 0.000000 0.000000
# 5 0.000000 0.000000 0.000000 0.000000 0.027795 0.000000
# 6 0.000000 0.000000 0.000000 0.000000 0.000000 0.033399
#
#
# Mechanical properties :
#
#
# Convention : Reuss Voigt Hill
#
# Bulk Modulus (GPa) = 53.86884 54.76986 54.31935
# Shear Modulus (GPa) = 45.21559 17.42289 31.31924
#
# Velocity S-wave (km/s) = 4.80585 2.98323 3.99974
# Velocity P-wave (km/s) = 7.63618 6.31211 7.00550
#
# Compressibility (1/GPa) = 0.01856361
#
# Stress axis : x y z
#
# Youngs Moduli (GPa) = 48.51866 69.19217 58.92244
#
# Poissons Ratio (x) = 0.37946 0.40279
# Poissons Ratio (y) = 0.26609 0.26016
# Poissons Ratio (z) = 0.33167 0.30550
#
# Static dielectric constant tensor:
#      x y z
#    x 3.651290 0.000000 0.000000 
#    y 0.000000 2.651950 0.000000 
#    z 0.000000 0.000000 3.786420 
# 
# 
# High freq. dielectric constant tensor:
#      x y z
#    x 1.768150 0.000000 0.000000 
#    y 0.000000 1.759540 0.000000 
#    z 0.000000 0.000000 1.760850 
# 
# From -- ./inp_files/21049.got.cif
#   From: 2010.03.12/outbox.cif.g09.slc.cpg/sg59_11_cif.got.tgz:21049.got - 2010.04.16 16:29:54.
