data_PCOD8244385
_publ_section_title
;
Structure prediction by ZEFSAII (Michael W. Deem and Ramdas Pophale) SiO2 
 PCOD8244385
Probable space group: P M M N
;
_chemical_formula_sum "Si O2"
_cell_formula_units_Z 64
_cell_length_a 8.506352
_cell_length_b 18.060043
_cell_length_c 21.559488
_cell_angle_alpha 90.000000
_cell_angle_beta 90.000000
_cell_angle_gamma 90.000000
_cell_volume 3312.078131
_symmetry_space_group_name_H-M "P M M N"
_symmetry_group_IT_number 59
_space_group.IT_coordinate_system_code '2'
_symmetry_cell_setting 'orthorhombic'
loop_
_space_group_symop_operation_xyz
x,y,z
1/2-x,1/2-y,z
1/2+x,-y,-z
-x,1/2+y,-z
-x,-y,-z
1/2+x,1/2+y,-z
1/2-x,y,z
x,1/2-y,z
loop_
_atom_site_type_symbol
_atom_site_label
_atom_site_fract_x
_atom_site_fract_y
_atom_site_fract_z
Si Si1 0.068166 0.918506 0.247911
Si Si2 0.430760 0.580634 0.610666
Si Si3 0.931133 0.835092 0.497742
Si Si4 0.930372 0.421375 0.612476
Si Si5 0.936279 0.477639 0.933828
Si Si6 0.433147 0.555150 0.816904
Si Si7 0.067545 0.336045 0.274101
Si Si8 0.934767 0.169052 0.870080
O O1 0.250000 0.942640 0.239473
O O2 0.033599 0.892994 0.317829
O O3 0.025997 0.851705 0.201281
O O4 0.962242 0.989349 0.232116
O O5 0.250000 0.555818 0.611954
O O6 0.460582 0.629874 0.550290
O O7 0.539232 0.508567 0.607416
O O8 0.466883 0.628281 0.671199
O O9 0.750000 0.843378 0.517448
O O10 0.979359 0.750000 0.489701
O O11 0.957506 0.875963 0.432695
O O12 0.750000 0.406367 0.594448
O O13 0.750000 0.478263 0.933933
O O14 0.000503 0.395364 0.915502
O O15 0.995851 0.536857 0.883989
O O16 0.000000 0.500000 0.000000
O O17 0.250000 0.570377 0.824105
O O18 0.517535 0.628711 0.791526
O O19 0.250000 0.350604 0.287566
O O20 0.027778 0.250000 0.270744
O O21 0.750000 0.174562 0.879533
O O22 0.010691 0.250000 0.884708
#
# Coordination Sequence:
#
# PCOD8244385 Si02
#       8
#     8   8   8   8   8   8   8   8
#     4   9  18  33  56  83 113 148 185 229 281 340
#     4  12  24  39  61  86 113 147 192 242 291 353
#     4  11  25  43  59  78 111 152 193 243 300 352
#     4  11  22  37  60  86 115 150 191 237 288 349
#     4  10  20  36  59  85 116 156 199 241 289 343
#     4  11  21  35  58  85 116 151 189 233 280 341
#     4  11  23  39  60  86 117 151 189 238 296 350
#     4   8  15  30  54  84 114 145 186 235 283 331
#
# _framework density 19.323217
#
# number of rings (size 3 to 8) (size 9 to 14) (size 15 to 20)
#    0.000    1.625    1.250    5.250    0.000    4.500 
#    0.000    1.875    0.000   11.625    0.000    0.000 
#    0.000    0.000    0.000    0.000    0.000    0.000 
#
# Total GULP energy -793766.756261 kJ/mol
# GULP energy per Si atom -12402.605567 kJ/mol
# Density = 1.927924 g / cm^3
# Si number density = 19.323217 Si / 1000 Ang^3
#
#
#
# Elastic Constant Matrix: (Units=GPa)
#
#
# Indices 1 2 3 4 5 6 
#
# 1 50.7611 12.4133 19.8043 0.0000 0.0000 0.0000
# 2 12.4133 112.6825 60.5052 0.0000 0.0000 0.0000
# 3 19.8043 60.5052 134.0089 0.0000 0.0000 0.0000
# 4 0.0000 0.0000 0.0000 22.6041 0.0000 0.0000
# 5 0.0000 0.0000 0.0000 0.0000 32.7878 0.0000
# 6 0.0000 0.0000 0.0000 0.0000 0.0000 21.7110
#
#
#
# Elastic Compliance Matrix: (Units=1/GPa)
#
#
# Indices 1 2 3 4 5 6 
#
# 1 0.020967 -0.000853 -0.002714 0.000000 0.000000 0.000000
# 2 -0.000853 0.011749 -0.005179 0.000000 0.000000 0.000000
# 3 -0.002714 -0.005179 0.010201 0.000000 0.000000 0.000000
# 4 0.000000 0.000000 0.000000 0.044240 0.000000 0.000000
# 5 0.000000 0.000000 0.000000 0.000000 0.030499 0.000000
# 6 0.000000 0.000000 0.000000 0.000000 0.000000 0.046060
#
#
# Mechanical properties :
#
#
# Convention : Reuss Voigt Hill
#
# Bulk Modulus (GPa) = 39.32707 53.65535 46.49121
# Shear Modulus (GPa) = 26.35982 29.06923 27.71453
#
# Velocity S-wave (km/s) = 3.69745 3.88283 3.79127
# Velocity P-wave (km/s) = 6.21487 6.92310 6.57852
#
# Compressibility (1/GPa) = 0.02542778
#
# Stress axis : x y z
#
# Youngs Moduli (GPa) = 47.69319 85.11239 98.02549
#
# Poissons Ratio (x) = 0.07258 0.26600
# Poissons Ratio (y) = 0.04067 0.50765
# Poissons Ratio (z) = 0.12942 0.44078
#
# Static dielectric constant tensor:
#      x y z
#    x 3.418140 0.000000 0.000000 
#    y 0.000000 3.724650 0.000000 
#    z 0.000000 0.000000 3.575830 
# 
# 
# High freq. dielectric constant tensor:
#      x y z
#    x 1.747370 0.000000 0.000000 
#    y 0.000000 1.749050 0.000000 
#    z 0.000000 0.000000 1.752540 
# 
# From -- ./inp_files/29514.got.cif
#   From: 2010.03.12/outbox.cif.g09.slc.cpg/sg59_15_cif.got.tgz:29514.got - 2010.04.16 16:29:54.
