data_PCOD8244930
_publ_section_title
;
Structure prediction by ZEFSAII (Michael W. Deem and Ramdas Pophale) SiO2 
 PCOD8244930
Probable space group: P M M N
;
_chemical_formula_sum "Si O2"
_cell_formula_units_Z 48
_cell_length_a 9.121608
_cell_length_b 9.254151
_cell_length_c 30.948399
_cell_angle_alpha 90.000000
_cell_angle_beta 90.000000
_cell_angle_gamma 90.000000
_cell_volume 2612.439090
_symmetry_space_group_name_H-M "P M M N"
_symmetry_group_IT_number 59
_space_group.IT_coordinate_system_code '2'
_symmetry_cell_setting 'orthorhombic'
loop_
_space_group_symop_operation_xyz
x,y,z
1/2-x,1/2-y,z
1/2+x,-y,-z
-x,1/2+y,-z
-x,-y,-z
1/2+x,1/2+y,-z
1/2-x,y,z
x,1/2-y,z
loop_
_atom_site_type_symbol
_atom_site_label
_atom_site_fract_x
_atom_site_fract_y
_atom_site_fract_z
Si Si1 0.922833 0.083384 0.961644
Si Si2 0.920837 0.082731 0.208493
Si Si3 0.076036 0.409373 0.710449
Si Si4 0.078170 0.084096 0.123167
Si Si5 0.420201 0.080129 0.613969
Si Si6 0.922627 0.581527 0.538893
O O1 0.750000 0.066164 0.967539
O O2 0.971583 0.250000 0.961986
O O3 0.975184 0.012375 0.916842
O O4 0.000000 0.000000 0.000000
O O5 0.750000 0.049242 0.203354
O O6 0.954962 0.250000 0.213638
O O7 0.000166 0.021935 0.165902
O O8 0.987297 0.010117 0.251640
O O9 0.250000 0.404011 0.713016
O O10 0.010647 0.250000 0.717852
O O11 0.033182 0.464801 0.662681
O O12 0.250000 0.069957 0.130589
O O13 0.032099 0.250000 0.114158
O O14 0.250000 0.044224 0.605040
O O15 0.448249 0.250000 0.606106
O O16 0.521722 0.984679 0.583596
O O17 0.750000 0.557359 0.535015
O O18 0.963623 0.750000 0.536933
O O19 0.000000 0.500000 0.500000
#
# Coordination Sequence:
#
# PCOD8244930 Si02
#       6
#     8   8   8   8   8   8
#     4  10  21  36  54  76 101 130 166 208 253 303
#     4   9  17  29  47  72  99 128 166 208 245 287
#     4   8  15  29  49  73 101 131 163 202 247 293
#     4   9  18  33  50  68  96 133 166 200 249 302
#     4   9  18  34  56  80 105 135 172 212 254 301
#     4  11  24  39  55  78 106 135 170 211 254 303
#
# _framework density 18.373633999999999
#
# number of rings (size 3 to 8) (size 9 to 14) (size 15 to 20)
#    0.000    2.667    0.000    2.500    0.000    6.667 
#    0.000    4.167    0.000    3.000    0.000    0.000 
#    0.000    0.000    0.000    0.000    0.000    0.000 
#
# Total GULP energy -595156.893211 kJ/mol
# GULP energy per Si atom -12399.101942 kJ/mol
# Density = 1.833181 g / cm^3
# Si number density = 18.373634 Si / 1000 Ang^3
#
#
#
# Elastic Constant Matrix: (Units=GPa)
#
#
# Indices 1 2 3 4 5 6 
#
# 1 44.6737 46.6305 55.1367 0.0000 0.0000 0.0000
# 2 46.6305 110.4686 96.2180 0.0000 0.0000 0.0000
# 3 55.1367 96.2180 194.0504 0.0000 0.0000 0.0000
# 4 0.0000 0.0000 0.0000 41.0998 0.0000 0.0000
# 5 0.0000 0.0000 0.0000 0.0000 33.5972 0.0000
# 6 0.0000 0.0000 0.0000 0.0000 0.0000 23.9986
#
#
#
# Elastic Compliance Matrix: (Units=1/GPa)
#
#
# Indices 1 2 3 4 5 6 
#
# 1 0.043332 -0.013320 -0.005708 0.000000 0.000000 0.000000
# 2 -0.013320 0.020028 -0.006146 0.000000 0.000000 0.000000
# 3 -0.005708 -0.006146 0.009823 0.000000 0.000000 0.000000
# 4 0.000000 0.000000 0.000000 0.024331 0.000000 0.000000
# 5 0.000000 0.000000 0.000000 0.000000 0.029764 0.000000
# 6 0.000000 0.000000 0.000000 0.000000 0.000000 0.041669
#
#
# Mechanical properties :
#
#
# Convention : Reuss Voigt Hill
#
# Bulk Modulus (GPa) = 43.79119 82.79591 63.29355
# Shear Modulus (GPa) = 22.03551 29.81964 25.92758
#
# Velocity S-wave (km/s) = 3.46685 4.03297 3.76058
# Velocity P-wave (km/s) = 6.31750 8.17598 7.30607
#
# Compressibility (1/GPa) = 0.02283564
#
# Stress axis : x y z
#
# Youngs Moduli (GPa) = 23.07748 49.93000 101.80627
#
# Poissons Ratio (x) = 0.66505 0.58109
# Poissons Ratio (y) = 0.30739 0.62571
# Poissons Ratio (z) = 0.13172 0.30687
#
# Static dielectric constant tensor:
#      x y z
#    x 3.148480 0.000000 0.000000 
#    y 0.000000 2.698720 0.000000 
#    z 0.000000 0.000000 3.753640 
# 
# 
# High freq. dielectric constant tensor:
#      x y z
#    x 1.687400 0.000000 0.000000 
#    y 0.000000 1.711080 0.000000 
#    z 0.000000 0.000000 1.730440 
# 
# From -- ./inp_files/32911.got.cif
#   From: 2010.03.12/outbox.cif.g09.slc.cpg/sg59_17_cif.got.tgz:32911.got - 2010.04.16 16:29:54.
