data_PCOD8244150
_publ_section_title
;
Structure prediction by ZEFSAII (Michael W. Deem and Ramdas Pophale) SiO2 
 PCOD8244150
Probable space group: P M M N
;
_chemical_formula_sum "Si O2"
_cell_formula_units_Z 64
_cell_length_a 8.588621
_cell_length_b 18.726127
_cell_length_c 19.780178
_cell_angle_alpha 90.000000
_cell_angle_beta 90.000000
_cell_angle_gamma 90.000000
_cell_volume 3181.277826
_symmetry_space_group_name_H-M "P M M N"
_symmetry_group_IT_number 59
_space_group.IT_coordinate_system_code '2'
_symmetry_cell_setting 'orthorhombic'
loop_
_space_group_symop_operation_xyz
x,y,z
1/2-x,1/2-y,z
1/2+x,-y,-z
-x,1/2+y,-z
-x,-y,-z
1/2+x,1/2+y,-z
1/2-x,y,z
x,1/2-y,z
loop_
_atom_site_type_symbol
_atom_site_label
_atom_site_fract_x
_atom_site_fract_y
_atom_site_fract_z
Si Si1 0.564989 0.829620 0.610265
Si Si2 0.068549 0.077097 0.511517
Si Si3 0.068257 0.439641 0.277073
Si Si4 0.068851 0.932386 0.869631
Si Si5 0.569977 0.920550 0.336345
Si Si6 0.067991 0.578848 0.094155
Si Si7 0.931418 0.832706 0.973566
Si Si8 0.931051 0.331407 0.775909
O O1 0.750000 0.826312 0.606218
O O2 0.494434 0.750000 0.615573
O O3 0.497034 0.867054 0.542541
O O4 0.513706 0.873804 0.676359
O O5 0.250000 0.070799 0.497960
O O6 0.031506 0.103632 0.587230
O O7 0.000000 0.000000 0.500000
O O8 0.250000 0.435710 0.258976
O O9 0.969989 0.438313 0.208986
O O10 0.036853 0.512616 0.316835
O O11 0.250000 0.917691 0.879468
O O12 0.973191 0.866415 0.901005
O O13 0.025266 0.004920 0.909090
O O14 0.750000 0.942424 0.328573
O O15 0.530625 0.853460 0.289196
O O16 0.250000 0.561206 0.095567
O O17 0.015718 0.620907 0.161071
O O18 0.031053 0.627023 0.029898
O O19 0.750000 0.842343 0.989093
O O20 0.979592 0.750000 0.972737
O O21 0.750000 0.342462 0.759682
O O22 0.969485 0.250000 0.794133
#
# Coordination Sequence:
#
# PCOD8244150 Si02
#       8
#     8   8   8   8   8   8   8   8
#     4   9  19  36  59  87 118 156 203 252 304 363
#     4  10  20  35  58  86 116 154 200 247 300 360
#     4  11  21  37  62  88 117 159 205 253 306 365
#     4  12  25  41  64  93 125 159 204 257 307 363
#     4  11  22  35  57  88 120 157 199 248 301 360
#     4  11  22  40  66  93 123 162 205 249 302 361
#     4  11  25  44  65  91 125 164 206 251 303 364
#     4  10  22  39  60  87 121 161 201 242 294 358
#
# _framework density 20.117702000000001
#
# number of rings (size 3 to 8) (size 9 to 14) (size 15 to 20)
#    0.000    1.375    2.500    3.375    0.000    3.750 
#    0.000    2.500    0.000    3.000    0.000    0.000 
#    0.000    0.000    0.000    0.000    0.000    0.000 
#
# Total GULP energy -793919.376612 kJ/mol
# GULP energy per Si atom -12404.990260 kJ/mol
# Density = 2.007191 g / cm^3
# Si number density = 20.117702 Si / 1000 Ang^3
#
#
#
# Elastic Constant Matrix: (Units=GPa)
#
#
# Indices 1 2 3 4 5 6 
#
# 1 40.2047 18.3726 22.6847 0.0000 0.0000 0.0000
# 2 18.3726 123.6040 45.8719 0.0000 0.0000 0.0000
# 3 22.6847 45.8719 90.4255 0.0000 0.0000 0.0000
# 4 0.0000 0.0000 0.0000 36.7517 0.0000 0.0000
# 5 0.0000 0.0000 0.0000 0.0000 23.8420 0.0000
# 6 0.0000 0.0000 0.0000 0.0000 0.0000 26.9265
#
#
#
# Elastic Compliance Matrix: (Units=1/GPa)
#
#
# Indices 1 2 3 4 5 6 
#
# 1 0.029374 -0.002010 -0.006349 0.000000 0.000000 0.000000
# 2 -0.002010 0.010104 -0.004622 0.000000 0.000000 0.000000
# 3 -0.006349 -0.004622 0.014996 0.000000 0.000000 0.000000
# 4 0.000000 0.000000 0.000000 0.027210 0.000000 0.000000
# 5 0.000000 0.000000 0.000000 0.000000 0.041943 0.000000
# 6 0.000000 0.000000 0.000000 0.000000 0.000000 0.037138
#
#
# Mechanical properties :
#
#
# Convention : Reuss Voigt Hill
#
# Bulk Modulus (GPa) = 35.07218 47.56586 41.31902
# Shear Modulus (GPa) = 25.48030 28.65771 27.06901
#
# Velocity S-wave (km/s) = 3.56274 3.77835 3.67213
# Velocity P-wave (km/s) = 5.86477 6.53680 6.20988
#
# Compressibility (1/GPa) = 0.02851263
#
# Stress axis : x y z
#
# Youngs Moduli (GPa) = 34.04422 98.96822 66.68377
#
# Poissons Ratio (x) = 0.19890 0.42340
# Poissons Ratio (y) = 0.06842 0.30819
# Poissons Ratio (z) = 0.21616 0.45739
#
# Static dielectric constant tensor:
#      x y z
#    x 3.492950 0.000000 0.000000 
#    y 0.000000 3.816140 0.000000 
#    z 0.000000 0.000000 3.786780 
# 
# 
# High freq. dielectric constant tensor:
#      x y z
#    x 1.774220 0.000000 0.000000 
#    y 0.000000 1.787530 0.000000 
#    z 0.000000 0.000000 1.799090 
# 
# From -- ./inp_files/29440.got.cif
#   From: 2010.03.12/outbox.cif.g09.slc.cpg/sg59_15_cif.got.tgz:29440.got - 2010.04.16 16:29:54.
