data_PCOD8244725
_publ_section_title
;
Structure prediction by ZEFSAII (Michael W. Deem and Ramdas Pophale) SiO2 
 PCOD8244725
Probable space group: P M M N
;
_chemical_formula_sum "Si O2"
_cell_formula_units_Z 64
_cell_length_a 9.213782
_cell_length_b 28.797606
_cell_length_c 12.654877
_cell_angle_alpha 90.000000
_cell_angle_beta 90.000000
_cell_angle_gamma 90.000000
_cell_volume 3357.780065
_symmetry_space_group_name_H-M "P M M N"
_symmetry_group_IT_number 59
_space_group.IT_coordinate_system_code '2'
_symmetry_cell_setting 'orthorhombic'
loop_
_space_group_symop_operation_xyz
x,y,z
1/2-x,1/2-y,z
1/2+x,-y,-z
-x,1/2+y,-z
-x,-y,-z
1/2+x,1/2+y,-z
1/2-x,y,z
x,1/2-y,z
loop_
_atom_site_type_symbol
_atom_site_label
_atom_site_fract_x
_atom_site_fract_y
_atom_site_fract_z
Si Si1 0.593714 0.695676 0.659594
Si Si2 0.417938 0.956409 0.547488
Si Si3 0.079377 0.103179 0.035885
Si Si4 0.922480 0.800990 0.885667
Si Si5 0.582323 0.558872 0.180852
Si Si6 0.423243 0.197172 0.568574
Si Si7 0.583290 0.451667 0.213722
Si Si8 0.418531 0.888333 0.361057
O O1 0.750000 0.669823 0.660030
O O2 0.623107 0.750000 0.656219
O O3 0.509611 0.684789 0.769821
O O4 0.514280 0.683697 0.548884
O O5 0.250000 0.970826 0.552441
O O6 0.473729 0.945474 0.665996
O O7 0.444064 0.911245 0.475725
O O8 0.500000 0.000000 0.500000
O O9 0.250000 0.095559 0.046264
O O10 0.037703 0.158286 0.032127
O O11 0.009185 0.080897 0.138618
O O12 0.021903 0.080329 0.928368
O O13 0.750000 0.797767 0.870523
O O14 0.980622 0.750000 0.923458
O O15 0.750000 0.572692 0.200362
O O16 0.562199 0.504049 0.174590
O O17 0.484959 0.577648 0.274819
O O18 0.250000 0.190963 0.573554
O O19 0.465238 0.250000 0.600006
O O20 0.501423 0.161446 0.647425
O O21 0.750000 0.436336 0.205330
O O22 0.250000 0.881054 0.336547
#
# Coordination Sequence:
#
# PCOD8244725 Si02
#       8
#     8   8   8   8   8   8   8   8
#     4   7  11  22  42  68  98 131 164 200 250 310
#     4  10  21  37  56  81 110 143 182 222 275 339
#     4  10  21  34  55  86 108 135 187 234 271 325
#     4   8  14  27  47  74 108 137 165 213 270 316
#     4  10  21  39  57  76 108 148 188 231 278 331
#     4   9  18  33  54  80 109 145 187 226 270 329
#     4  10  21  37  56  77 110 149 178 221 286 340
#     4  11  23  36  55  82 111 145 187 232 277 330
#
# _framework density 19.060213000000001
#
# number of rings (size 3 to 8) (size 9 to 14) (size 15 to 20)
#    0.000    2.625    1.250    2.250    1.750    2.250 
#    0.000    0.625    0.000    2.625    0.000    0.000 
#    0.000    0.000    0.000    0.000    0.000    0.000 
#
# Total GULP energy -793053.184636 kJ/mol
# GULP energy per Si atom -12391.456010 kJ/mol
# Density = 1.901683 g / cm^3
# Si number density = 19.060213 Si / 1000 Ang^3
#
#
#
# Elastic Constant Matrix: (Units=GPa)
#
#
# Indices 1 2 3 4 5 6 
#
# 1 43.8413 31.9269 24.3672 0.0000 0.0000 0.0000
# 2 31.9269 91.9939 33.7904 0.0000 0.0000 0.0000
# 3 24.3672 33.7904 92.3554 0.0000 0.0000 0.0000
# 4 0.0000 0.0000 0.0000 23.8593 0.0000 0.0000
# 5 0.0000 0.0000 0.0000 0.0000 21.7770 0.0000
# 6 0.0000 0.0000 0.0000 0.0000 0.0000 19.0244
#
#
#
# Elastic Compliance Matrix: (Units=1/GPa)
#
#
# Indices 1 2 3 4 5 6 
#
# 1 0.032507 -0.009394 -0.005140 0.000000 0.000000 0.000000
# 2 -0.009394 0.015273 -0.003109 0.000000 0.000000 0.000000
# 3 -0.005140 -0.003109 0.013321 0.000000 0.000000 0.000000
# 4 0.000000 0.000000 0.000000 0.041912 0.000000 0.000000
# 5 0.000000 0.000000 0.000000 0.000000 0.045920 0.000000
# 6 0.000000 0.000000 0.000000 0.000000 0.000000 0.052564
#
#
# Mechanical properties :
#
#
# Convention : Reuss Voigt Hill
#
# Bulk Modulus (GPa) = 38.73680 45.37330 42.05505
# Shear Modulus (GPa) = 20.37582 22.13920 21.25751
#
# Velocity S-wave (km/s) = 3.27314 3.41183 3.34321
# Velocity P-wave (km/s) = 5.88660 6.27517 6.08399
#
# Compressibility (1/GPa) = 0.02581524
#
# Stress axis : x y z
#
# Youngs Moduli (GPa) = 30.76237 65.47685 75.06687
#
# Poissons Ratio (x) = 0.61508 0.38583
# Poissons Ratio (y) = 0.28898 0.23341
# Poissons Ratio (z) = 0.15811 0.20359
#
# Static dielectric constant tensor:
#      x y z
#    x 3.161350 0.000000 0.000000 
#    y 0.000000 3.564370 0.000000 
#    z 0.000000 0.000000 3.703210 
# 
# 
# High freq. dielectric constant tensor:
#      x y z
#    x 1.702510 0.000000 0.000000 
#    y 0.000000 1.745110 0.000000 
#    z 0.000000 0.000000 1.736520 
# 
# From -- ./inp_files/14940.got.cif
#   From: 2010.03.12/outbox.cif.g09.slc.cpg/sg59_8_cif.got.tgz:14940.got - 2010.04.16 16:29:54.
