data_PCOD8244019
_publ_section_title
;
Structure prediction by ZEFSAII (Michael W. Deem and Ramdas Pophale) SiO2 
 PCOD8244019
Probable space group: P M M N
;
_chemical_formula_sum "Si O2"
_cell_formula_units_Z 48
_cell_length_a 9.138440
_cell_length_b 29.938898
_cell_length_c 9.470116
_cell_angle_alpha 90.000000
_cell_angle_beta 90.000000
_cell_angle_gamma 90.000000
_cell_volume 2590.974711
_symmetry_space_group_name_H-M "P M M N"
_symmetry_group_IT_number 59
_space_group.IT_coordinate_system_code '2'
_symmetry_cell_setting 'orthorhombic'
loop_
_space_group_symop_operation_xyz
x,y,z
1/2-x,1/2-y,z
1/2+x,-y,-z
-x,1/2+y,-z
-x,-y,-z
1/2+x,1/2+y,-z
1/2-x,y,z
x,1/2-y,z
loop_
_atom_site_type_symbol
_atom_site_label
_atom_site_fract_x
_atom_site_fract_y
_atom_site_fract_z
Si Si1 0.581486 0.049822 0.637090
Si Si2 0.079826 0.627375 0.155148
Si Si3 0.080922 0.198102 0.339180
Si Si4 0.420387 0.447408 0.352969
Si Si5 0.421307 0.199555 0.660749
Si Si6 0.423208 0.624107 0.832399
O O1 0.750000 0.055413 0.590283
O O2 0.541148 0.080631 0.769756
O O3 0.480579 0.064826 0.507415
O O4 0.549110 0.999094 0.682514
O O5 0.250000 0.637850 0.164006
O O6 0.000579 0.668037 0.229828
O O7 0.026783 0.624215 0.994659
O O8 0.250000 0.186374 0.309439
O O9 0.051030 0.250000 0.308841
O O10 0.040306 0.185918 0.500264
O O11 0.977696 0.169737 0.237939
O O12 0.250000 0.435241 0.349740
O O13 0.503645 0.418997 0.236518
O O14 0.250000 0.195629 0.686173
O O15 0.474359 0.250000 0.689127
O O16 0.250000 0.620497 0.815200
#
# Coordination Sequence:
#
# PCOD8244019 Si02
#       6
#     8   8   8   8   8   8
#     4   9  19  37  58  79 105 137 174 219 268 314
#     4  10  22  37  52  75 108 143 176 212 258 312
#     4   9  19  37  59  81 105 135 175 221 265 312
#     4  10  20  35  57  82 105 134 176 221 264 313
#     4   9  19  36  57  80 104 132 171 218 263 308
#     4  11  23  36  51  76 111 145 176 213 258 310
#
# _framework density 18.525846000000001
#
# number of rings (size 3 to 8) (size 9 to 14) (size 15 to 20)
#    0.000    2.333    0.000    3.000    0.000    8.000 
#    0.000    5.000    0.000    0.000    0.000    0.000 
#    0.000    0.000    0.000    0.000    0.000    0.000 
#
# Total GULP energy -595346.499639 kJ/mol
# GULP energy per Si atom -12403.052076 kJ/mol
# Density = 1.848368 g / cm^3
# Si number density = 18.525846 Si / 1000 Ang^3
#
#
#
# Elastic Constant Matrix: (Units=GPa)
#
#
# Indices 1 2 3 4 5 6 
#
# 1 78.6572 57.9471 75.3617 0.0000 0.0000 0.0000
# 2 57.9471 118.7213 92.6695 0.0000 0.0000 0.0000
# 3 75.3617 92.6695 164.5893 0.0000 0.0000 0.0000
# 4 0.0000 0.0000 0.0000 6.9350 0.0000 0.0000
# 5 0.0000 0.0000 0.0000 0.0000 30.3512 0.0000
# 6 0.0000 0.0000 0.0000 0.0000 0.0000 35.1275
#
#
#
# Elastic Compliance Matrix: (Units=1/GPa)
#
#
# Indices 1 2 3 4 5 6 
#
# 1 0.024671 -0.005752 -0.008058 0.000000 0.000000 0.000000
# 2 -0.005752 0.016369 -0.006582 0.000000 0.000000 0.000000
# 3 -0.008058 -0.006582 0.013471 0.000000 0.000000 0.000000
# 4 0.000000 0.000000 0.000000 0.144196 0.000000 0.000000
# 5 0.000000 0.000000 0.000000 0.000000 0.032948 0.000000
# 6 0.000000 0.000000 0.000000 0.000000 0.000000 0.028468
#
#
# Mechanical properties :
#
#
# Convention : Reuss Voigt Hill
#
# Bulk Modulus (GPa) = 72.85141 90.43602 81.64372
# Shear Modulus (GPa) = 16.36756 23.54873 19.95814
#
# Velocity S-wave (km/s) = 2.97560 3.56916 3.28581
# Velocity P-wave (km/s) = 7.15647 8.11833 7.65253
#
# Compressibility (1/GPa) = 0.01372657
#
# Stress axis : x y z
#
# Youngs Moduli (GPa) = 40.53313 61.09249 74.23289
#
# Poissons Ratio (x) = 0.35143 0.59814
# Poissons Ratio (y) = 0.23316 0.48862
# Poissons Ratio (z) = 0.32660 0.40212
#
# Static dielectric constant tensor:
#      x y z
#    x 3.376230 0.000000 0.000000 
#    y 0.000000 3.474210 0.000000 
#    z 0.000000 0.000000 3.431420 
# 
# 
# High freq. dielectric constant tensor:
#      x y z
#    x 1.719080 0.000000 0.000000 
#    y 0.000000 1.732220 0.000000 
#    z 0.000000 0.000000 1.715460 
# 
# From -- ./inp_files/6228.got.cif
#   From: 2010.03.12/outbox.cif.g09.slc.cpg/sg59_4_cif.got.tgz:6228.got - 2010.04.16 16:29:54.
