data_PCOD8244586
_publ_section_title
;
Structure prediction by ZEFSAII (Michael W. Deem and Ramdas Pophale) SiO2 
 PCOD8244586
Probable space group: P M M N
;
_chemical_formula_sum "Si O2"
_cell_formula_units_Z 48
_cell_length_a 8.594569
_cell_length_b 10.094356
_cell_length_c 28.891549
_cell_angle_alpha 90.000000
_cell_angle_beta 90.000000
_cell_angle_gamma 90.000000
_cell_volume 2506.533691
_symmetry_space_group_name_H-M "P M M N"
_symmetry_group_IT_number 59
_space_group.IT_coordinate_system_code '2'
_symmetry_cell_setting 'orthorhombic'
loop_
_space_group_symop_operation_xyz
x,y,z
1/2-x,1/2-y,z
1/2+x,-y,-z
-x,1/2+y,-z
-x,-y,-z
1/2+x,1/2+y,-z
1/2-x,y,z
x,1/2-y,z
loop_
_atom_site_type_symbol
_atom_site_label
_atom_site_fract_x
_atom_site_fract_y
_atom_site_fract_z
Si Si1 0.066400 0.250000 0.555331
Si Si2 0.433698 0.750000 0.546910
Si Si3 0.068811 0.098937 0.210000
Si Si4 0.931064 0.401550 0.962495
Si Si5 0.068643 0.098485 0.862863
Si Si6 0.067603 0.494288 0.397969
Si Si7 0.570407 0.095421 0.306584
O O1 0.250000 0.250000 0.551855
O O2 0.999472 0.250000 0.504217
O O3 0.007922 0.373814 0.583675
O O4 0.250000 0.750000 0.544405
O O5 0.489714 0.623347 0.574299
O O6 0.250000 0.090118 0.221231
O O7 0.021599 0.250000 0.196864
O O8 0.976134 0.050030 0.255199
O O9 0.028331 0.001743 0.168361
O O10 0.750000 0.431626 0.954445
O O11 0.956560 0.250000 0.978953
O O12 0.022913 0.429127 0.915492
O O13 0.000000 0.500000 0.000000
O O14 0.250000 0.069504 0.856308
O O15 0.027512 0.250000 0.849266
O O16 0.250000 0.494406 0.407178
O O17 0.033189 0.483516 0.343411
O O18 0.750000 0.061777 0.315211
O O19 0.535178 0.250000 0.312900
#
# Coordination Sequence:
#
# PCOD8244586 Si02
#       7
#     4   4   8   8   8   8   8
#     4  12  26  44  62  88 124 158 196 246 297 350
#     4  12  24  42  66  92 120 158 202 240 291 354
#     4  10  21  37  59  87 117 150 193 243 293 346
#     4  10  21  37  58  84 115 153 196 241 291 346
#     4  10  21  38  59  84 116 154 196 241 294 351
#     4  12  24  41  64  91 122 157 197 244 297 353
#     4  10  20  37  62  89 118 153 196 242 293 350
#
# _framework density 19.149951999999999
#
# number of rings (size 3 to 8) (size 9 to 14) (size 15 to 20)
#    0.000    1.333    0.833    5.500    0.000    4.333 
#    1.500    0.000    0.000    0.000    0.000    0.000 
#    0.000    0.000    0.000    0.000    0.000    0.000 
#
# Total GULP energy -595441.428772 kJ/mol
# GULP energy per Si atom -12405.029766 kJ/mol
# Density = 1.910637 g / cm^3
# Si number density = 19.149952 Si / 1000 Ang^3
#
#
#
# Elastic Constant Matrix: (Units=GPa)
#
#
# Indices 1 2 3 4 5 6 
#
# 1 114.8026 43.7177 31.6459 0.0000 0.0000 0.0000
# 2 43.7177 119.2135 63.7176 0.0000 0.0000 0.0000
# 3 31.6459 63.7176 105.7538 0.0000 0.0000 0.0000
# 4 0.0000 0.0000 0.0000 57.5033 0.0000 0.0000
# 5 0.0000 0.0000 0.0000 0.0000 41.4539 0.0000
# 6 0.0000 0.0000 0.0000 0.0000 0.0000 33.5541
#
#
#
# Elastic Compliance Matrix: (Units=1/GPa)
#
#
# Indices 1 2 3 4 5 6 
#
# 1 0.010223 -0.003118 -0.001181 0.000000 0.000000 0.000000
# 2 -0.003118 0.013324 -0.007095 0.000000 0.000000 0.000000
# 3 -0.001181 -0.007095 0.014084 0.000000 0.000000 0.000000
# 4 0.000000 0.000000 0.000000 0.017390 0.000000 0.000000
# 5 0.000000 0.000000 0.000000 0.000000 0.024123 0.000000
# 6 0.000000 0.000000 0.000000 0.000000 0.000000 0.029803
#
#
# Mechanical properties :
#
#
# Convention : Reuss Voigt Hill
#
# Bulk Modulus (GPa) = 67.36575 68.65914 68.01245
# Shear Modulus (GPa) = 36.58135 39.88151 38.23143
#
# Velocity S-wave (km/s) = 4.37539 4.56849 4.47298
# Velocity P-wave (km/s) = 7.79614 7.98495 7.89111
#
# Compressibility (1/GPa) = 0.01484434
#
# Stress axis : x y z
#
# Youngs Moduli (GPa) = 97.81443 75.05420 71.00384
#
# Poissons Ratio (x) = 0.23403 0.08383
# Poissons Ratio (y) = 0.30500 0.50374
# Poissons Ratio (z) = 0.11548 0.53248
#
# Static dielectric constant tensor:
#      x y z
#    x 3.713320 0.000000 0.000000 
#    y 0.000000 3.539470 0.000000 
#    z 0.000000 0.000000 3.663380 
# 
# 
# High freq. dielectric constant tensor:
#      x y z
#    x 1.765310 0.000000 0.000000 
#    y 0.000000 1.743440 0.000000 
#    z 0.000000 0.000000 1.753720 
# 
# From -- ./inp_files/32969.got.cif
#   From: 2010.03.12/outbox.cif.g09.slc.cpg/sg59_17_cif.got.tgz:32969.got - 2010.04.16 16:29:54.
