data_PCOD8244589
_publ_section_title
;
Structure prediction by ZEFSAII (Michael W. Deem and Ramdas Pophale) SiO2 
 PCOD8244589
Probable space group: P M M N
;
_chemical_formula_sum "Si O2"
_cell_formula_units_Z 64
_cell_length_a 16.002996
_cell_length_b 8.835072
_cell_length_c 21.796335
_cell_angle_alpha 90.000000
_cell_angle_beta 90.000000
_cell_angle_gamma 90.000000
_cell_volume 3081.731971
_symmetry_space_group_name_H-M "P M M N"
_symmetry_group_IT_number 59
_space_group.IT_coordinate_system_code '2'
_symmetry_cell_setting 'orthorhombic'
loop_
_space_group_symop_operation_xyz
x,y,z
1/2-x,1/2-y,z
1/2+x,-y,-z
-x,1/2+y,-z
-x,-y,-z
1/2+x,1/2+y,-z
1/2-x,y,z
x,1/2-y,z
loop_
_atom_site_type_symbol
_atom_site_label
_atom_site_fract_x
_atom_site_fract_y
_atom_site_fract_z
Si Si1 0.654204 0.080404 0.881705
Si Si2 0.575639 0.076082 0.755850
Si Si3 0.344096 0.923922 0.368354
Si Si4 0.589560 0.927351 0.999604
Si Si5 0.499037 0.929515 0.566674
Si Si6 0.653542 0.921990 0.129705
Si Si7 0.655663 0.926569 0.362269
Si Si8 0.907283 0.426414 0.247391
O O1 0.750000 0.080265 0.863007
O O2 0.623720 0.250000 0.898002
O O3 0.605700 0.018218 0.822304
O O4 0.640862 0.975275 0.940076
O O5 0.544886 0.250000 0.760025
O O6 0.648378 0.060933 0.705376
O O7 0.501073 0.968781 0.733113
O O8 0.250000 0.977580 0.386533
O O9 0.357535 0.750000 0.388516
O O10 0.414935 0.023866 0.400376
O O11 0.579626 0.750000 0.998129
O O12 0.638007 0.980483 0.060675
O O13 0.500000 0.000000 0.000000
O O14 0.495879 0.750000 0.562687
O O15 0.500000 0.000000 0.500000
O O16 0.414515 0.983834 0.600112
O O17 0.750000 0.934856 0.145346
O O18 0.621267 0.750000 0.136870
O O19 0.604194 0.027566 0.176647
O O20 0.750000 0.955315 0.388024
O O21 0.633318 0.750000 0.364822
O O22 0.655275 0.982543 0.291714
O O23 0.891056 0.250000 0.256049
#
# Coordination Sequence:
#
# PCOD8244589 Si02
#       8
#     8   8   8   8   8   8   8   8
#     4  10  21  37  58  86 118 155 201 253 311 375
#     4  10  20  37  62  89 124 167 210 254 307 376
#     4  10  21  40  68  99 132 174 222 268 317 377
#     4  11  23  39  58  81 111 152 202 254 312 377
#     4  12  26  45  70 100 137 177 218 266 318 376
#     4  10  22  40  59  79 109 154 205 254 309 376
#     4  11  24  44  70  98 131 173 219 268 323 383
#     4  12  24  37  59  93 128 161 203 259 320 379
#
# _framework density 20.767543
#
# number of rings (size 3 to 8) (size 9 to 14) (size 15 to 20)
#    0.000    1.250    1.250    4.875    0.000   10.250 
#    0.000    0.000    0.000    2.250    0.000    0.000 
#    0.000    0.000    0.000    0.000    0.000    0.000 
#
# Total GULP energy -793704.529062 kJ/mol
# GULP energy per Si atom -12401.633267 kJ/mol
# Density = 2.072027 g / cm^3
# Si number density = 20.767543 Si / 1000 Ang^3
#
#
#
# Elastic Constant Matrix: (Units=GPa)
#
#
# Indices 1 2 3 4 5 6 
#
# 1 122.7861 55.2768 46.0270 0.0000 0.0000 0.0000
# 2 55.2768 117.3499 52.1746 0.0000 0.0000 0.0000
# 3 46.0270 52.1746 124.7786 0.0000 0.0000 0.0000
# 4 0.0000 0.0000 0.0000 34.8048 0.0000 0.0000
# 5 0.0000 0.0000 0.0000 0.0000 26.1296 0.0000
# 6 0.0000 0.0000 0.0000 0.0000 0.0000 24.0029
#
#
#
# Elastic Compliance Matrix: (Units=1/GPa)
#
#
# Indices 1 2 3 4 5 6 
#
# 1 0.010844 -0.004090 -0.002290 0.000000 0.000000 0.000000
# 2 -0.004090 0.012010 -0.003513 0.000000 0.000000 0.000000
# 3 -0.002290 -0.003513 0.010328 0.000000 0.000000 0.000000
# 4 0.000000 0.000000 0.000000 0.028732 0.000000 0.000000
# 5 0.000000 0.000000 0.000000 0.000000 0.038271 0.000000
# 6 0.000000 0.000000 0.000000 0.000000 0.000000 0.041662
#
#
# Mechanical properties :
#
#
# Convention : Reuss Voigt Hill
#
# Bulk Modulus (GPa) = 74.64970 74.65238 74.65104
# Shear Modulus (GPa) = 30.10294 31.08321 30.59308
#
# Velocity S-wave (km/s) = 3.81138 3.87294 3.84229
# Velocity P-wave (km/s) = 7.44260 7.48494 7.46380
#
# Compressibility (1/GPa) = 0.01339590
#
# Stress axis : x y z
#
# Youngs Moduli (GPa) = 92.21869 83.26391 96.82547
#
# Poissons Ratio (x) = 0.34053 0.22171
# Poissons Ratio (y) = 0.37716 0.34017
# Poissons Ratio (z) = 0.21117 0.29253
#
# Static dielectric constant tensor:
#      x y z
#    x 3.791860 0.000000 0.000000 
#    y 0.000000 2.722970 0.000000 
#    z 0.000000 0.000000 4.012700 
# 
# 
# High freq. dielectric constant tensor:
#      x y z
#    x 1.823090 0.000000 0.000000 
#    y 0.000000 1.803570 0.000000 
#    z 0.000000 0.000000 1.819970 
# 
# From -- ./inp_files/32135.got.cif
#   From: 2010.03.12/outbox.cif.g09.slc.cpg/sg59_17_cif.got.tgz:32135.got - 2010.04.16 16:29:54.
