data_PCOD8244211
_publ_section_title
;
Structure prediction by ZEFSAII (Michael W. Deem and Ramdas Pophale) SiO2 
 PCOD8244211
Probable space group: P M M N
;
_chemical_formula_sum "Si O2"
_cell_formula_units_Z 64
_cell_length_a 9.157704
_cell_length_b 18.509968
_cell_length_c 19.915169
_cell_angle_alpha 90.000000
_cell_angle_beta 90.000000
_cell_angle_gamma 90.000000
_cell_volume 3375.796558
_symmetry_space_group_name_H-M "P M M N"
_symmetry_group_IT_number 59
_space_group.IT_coordinate_system_code '2'
_symmetry_cell_setting 'orthorhombic'
loop_
_space_group_symop_operation_xyz
x,y,z
1/2-x,1/2-y,z
1/2+x,-y,-z
-x,1/2+y,-z
-x,-y,-z
1/2+x,1/2+y,-z
1/2-x,y,z
x,1/2-y,z
loop_
_atom_site_type_symbol
_atom_site_label
_atom_site_fract_x
_atom_site_fract_y
_atom_site_fract_z
Si Si1 0.577226 0.063586 0.784474
Si Si2 0.420950 0.166748 0.526644
Si Si3 0.420029 0.665905 0.097470
Si Si4 0.579998 0.575244 0.988903
Si Si5 0.580720 0.909404 0.834719
Si Si6 0.079928 0.832695 0.723420
Si Si7 0.919721 0.423101 0.634416
Si Si8 0.919664 0.586091 0.606075
O O1 0.750000 0.059254 0.780234
O O2 0.527042 0.127317 0.834153
O O3 0.515036 0.077736 0.709969
O O4 0.518445 0.987805 0.813267
O O5 0.250000 0.155173 0.536345
O O6 0.462216 0.250000 0.515959
O O7 0.498644 0.138235 0.593032
O O8 0.477759 0.122917 0.461888
O O9 0.250000 0.649233 0.083537
O O10 0.450782 0.750000 0.106518
O O11 0.513428 0.636977 0.035607
O O12 0.750000 0.564164 0.005138
O O13 0.556254 0.602343 0.913371
O O14 0.500000 0.500000 0.000000
O O15 0.750000 0.902014 0.815020
O O16 0.490356 0.848274 0.795941
O O17 0.250000 0.850033 0.727080
O O18 0.049804 0.750000 0.703856
O O19 0.008210 0.883964 0.668567
O O20 0.750000 0.403250 0.634901
O O21 0.946988 0.500744 0.600395
O O22 0.750000 0.603920 0.618451
#
# Coordination Sequence:
#
# PCOD8244211 Si02
#       8
#     8   8   8   8   8   8   8   8
#     4   9  17  35  59  85 113 144 191 237 279 339
#     4  10  22  38  55  80 117 156 191 230 284 348
#     4  10  21  38  60  86 120 159 195 239 296 350
#     4  11  22  37  61  88 116 151 195 243 290 344
#     4  10  20  38  61  82 111 151 193 234 278 343
#     4  11  24  38  55  86 122 149 182 234 290 340
#     4  10  20  35  60  88 111 141 192 247 285 330
#     4  10  20  38  62  85 111 151 195 233 280 345
#
# _framework density 18.958489
#
# number of rings (size 3 to 8) (size 9 to 14) (size 15 to 20)
#    0.000    1.875    2.500    1.500    0.000    5.000 
#    0.000    4.375    0.000    0.000    0.000    0.000 
#    0.000    0.000    0.000    0.000    0.000    0.000 
#
# Total GULP energy -793851.551664 kJ/mol
# GULP energy per Si atom -12403.930495 kJ/mol
# Density = 1.891534 g / cm^3
# Si number density = 18.958489 Si / 1000 Ang^3
#
#
#
# Elastic Constant Matrix: (Units=GPa)
#
#
# Indices 1 2 3 4 5 6 
#
# 1 59.7088 35.2942 40.6765 0.0000 0.0000 0.0000
# 2 35.2942 80.5801 48.6120 0.0000 0.0000 0.0000
# 3 40.6765 48.6120 134.4475 0.0000 0.0000 0.0000
# 4 0.0000 0.0000 0.0000 34.5881 0.0000 0.0000
# 5 0.0000 0.0000 0.0000 0.0000 33.3689 0.0000
# 6 0.0000 0.0000 0.0000 0.0000 0.0000 29.8257
#
#
#
# Elastic Compliance Matrix: (Units=1/GPa)
#
#
# Indices 1 2 3 4 5 6 
#
# 1 0.024585 -0.008033 -0.004533 0.000000 0.000000 0.000000
# 2 -0.008033 0.018497 -0.004258 0.000000 0.000000 0.000000
# 3 -0.004533 -0.004258 0.010349 0.000000 0.000000 0.000000
# 4 0.000000 0.000000 0.000000 0.028912 0.000000 0.000000
# 5 0.000000 0.000000 0.000000 0.000000 0.029968 0.000000
# 6 0.000000 0.000000 0.000000 0.000000 0.000000 0.033528
#
#
# Mechanical properties :
#
#
# Convention : Reuss Voigt Hill
#
# Bulk Modulus (GPa) = 50.55045 58.21131 54.38088
# Shear Modulus (GPa) = 26.86998 29.56677 28.21838
#
# Velocity S-wave (km/s) = 3.76880 3.95340 3.86220
# Velocity P-wave (km/s) = 6.75722 7.18404 6.97390
#
# Compressibility (1/GPa) = 0.01978222
#
# Stress axis : x y z
#
# Youngs Moduli (GPa) = 40.67542 54.06266 96.62942
#
# Poissons Ratio (x) = 0.43430 0.43807
# Poissons Ratio (y) = 0.32676 0.41140
# Poissons Ratio (z) = 0.18440 0.23017
#
# Static dielectric constant tensor:
#      x y z
#    x 3.339880 0.000000 0.000000 
#    y 0.000000 3.467170 0.000000 
#    z 0.000000 0.000000 3.714120 
# 
# 
# High freq. dielectric constant tensor:
#      x y z
#    x 1.718580 0.000000 0.000000 
#    y 0.000000 1.739090 0.000000 
#    z 0.000000 0.000000 1.749680 
# 
# From -- ./inp_files/29477.got.cif
#   From: 2010.03.12/outbox.cif.g09.slc.cpg/sg59_15_cif.got.tgz:29477.got - 2010.04.16 16:29:54.
