data_PCOD8244585
_publ_section_title
;
Structure prediction by ZEFSAII (Michael W. Deem and Ramdas Pophale) SiO2 
 PCOD8244585
Probable space group: P M M N
;
_chemical_formula_sum "Si O2"
_cell_formula_units_Z 64
_cell_length_a 22.665967
_cell_length_b 8.864663
_cell_length_c 16.454700
_cell_angle_alpha 90.000000
_cell_angle_beta 90.000000
_cell_angle_gamma 90.000000
_cell_volume 3306.179669
_symmetry_space_group_name_H-M "P M M N"
_symmetry_group_IT_number 59
_space_group.IT_coordinate_system_code '2'
_symmetry_cell_setting 'orthorhombic'
loop_
_space_group_symop_operation_xyz
x,y,z
1/2-x,1/2-y,z
1/2+x,-y,-z
-x,1/2+y,-z
-x,-y,-z
1/2+x,1/2+y,-z
1/2-x,y,z
x,1/2-y,z
loop_
_atom_site_type_symbol
_atom_site_label
_atom_site_fract_x
_atom_site_fract_y
_atom_site_fract_z
Si Si1 0.818389 0.071524 0.385035
Si Si2 0.316592 0.414742 0.296605
Si Si3 0.135338 0.573351 0.437610
Si Si4 0.973530 0.575681 0.120132
Si Si5 0.922186 0.927813 0.293432
Si Si6 0.916699 0.575103 0.950062
Si Si7 0.514992 0.571433 0.585379
Si Si8 0.318201 0.925583 0.138564
O O1 0.750000 0.018759 0.379633
O O2 0.822585 0.250000 0.373478
O O3 0.845943 0.023851 0.472013
O O4 0.856987 0.990164 0.315667
O O5 0.250000 0.388047 0.270915
O O6 0.346321 0.250000 0.313217
O O7 0.314135 0.524648 0.375154
O O8 0.345840 0.496262 0.219139
O O9 0.121537 0.750000 0.434953
O O10 0.081675 0.478266 0.398513
O O11 0.992259 0.750000 0.122330
O O12 0.936137 0.532039 0.200012
O O13 0.033263 0.479647 0.113268
O O14 0.933303 0.538883 0.042682
O O15 0.923614 0.750000 0.310028
O O16 0.971697 0.007994 0.346856
O O17 0.906134 0.750000 0.934581
O O18 0.855688 0.486956 0.936984
O O19 0.500000 0.500000 0.500000
O O20 0.507441 0.750000 0.581645
O O21 0.250000 0.963706 0.121876
O O22 0.328201 0.750000 0.149850
#
# Coordination Sequence:
#
# PCOD8244585 Si02
#       8
#     8   8   8   8   8   8   8   8
#     4  10  22  40  61  84 114 153 196 243 292 340
#     4  10  21  36  54  80 114 151 194 239 281 335
#     4  11  22  37  58  83 113 153 195 238 288 341
#     4   9  21  40  61  87 118 150 188 235 290 352
#     4  11  23  40  62  87 117 154 194 238 289 346
#     4  10  20  37  62  89 116 148 188 236 290 348
#     4  12  24  39  58  84 117 152 191 237 287 339
#     4  10  21  37  57  82 116 156 194 236 289 349
#
# _framework density 19.357690000000002
#
# number of rings (size 3 to 8) (size 9 to 14) (size 15 to 20)
#    0.000    1.625    1.250    3.375    1.750    4.250 
#    0.000    0.625    0.000    3.750    0.000    0.000 
#    0.000    0.000    0.000    0.000    0.000    0.000 
#
# Total GULP energy -793528.449274 kJ/mol
# GULP energy per Si atom -12398.882020 kJ/mol
# Density = 1.931363 g / cm^3
# Si number density = 19.357690 Si / 1000 Ang^3
#
#
#
# Elastic Constant Matrix: (Units=GPa)
#
#
# Indices 1 2 3 4 5 6 
#
# 1 112.0729 60.5689 59.5340 0.0000 0.0000 0.0000
# 2 60.5689 98.8110 54.4637 0.0000 0.0000 0.0000
# 3 59.5340 54.4637 114.6999 0.0000 0.0000 0.0000
# 4 0.0000 0.0000 0.0000 32.5025 0.0000 0.0000
# 5 0.0000 0.0000 0.0000 0.0000 28.0744 0.0000
# 6 0.0000 0.0000 0.0000 0.0000 0.0000 35.5501
#
#
#
# Elastic Compliance Matrix: (Units=1/GPa)
#
#
# Indices 1 2 3 4 5 6 
#
# 1 0.014954 -0.006621 -0.004618 0.000000 0.000000 0.000000
# 2 -0.006621 0.016640 -0.004464 0.000000 0.000000 0.000000
# 3 -0.004618 -0.004464 0.013235 0.000000 0.000000 0.000000
# 4 0.000000 0.000000 0.000000 0.030767 0.000000 0.000000
# 5 0.000000 0.000000 0.000000 0.000000 0.035620 0.000000
# 6 0.000000 0.000000 0.000000 0.000000 0.000000 0.028129
#
#
# Mechanical properties :
#
#
# Convention : Reuss Voigt Hill
#
# Bulk Modulus (GPa) = 74.50458 74.96856 74.73657
# Shear Modulus (GPa) = 28.53455 29.29320 28.91387
#
# Velocity S-wave (km/s) = 3.84352 3.89428 3.86899
# Velocity P-wave (km/s) = 7.63340 7.68328 7.65838
#
# Compressibility (1/GPa) = 0.01342199
#
# Stress axis : x y z
#
# Youngs Moduli (GPa) = 66.87080 60.09686 75.55650
#
# Poissons Ratio (x) = 0.39792 0.34891
# Poissons Ratio (y) = 0.44277 0.33732
# Poissons Ratio (z) = 0.30880 0.26830
#
# Static dielectric constant tensor:
#      x y z
#    x 3.337130 0.000000 0.000000 
#    y 0.000000 3.656510 0.000000 
#    z 0.000000 0.000000 3.464750 
# 
# 
# High freq. dielectric constant tensor:
#      x y z
#    x 1.753630 0.000000 0.000000 
#    y 0.000000 1.765160 0.000000 
#    z 0.000000 0.000000 1.747440 
# 
# From -- ./inp_files/24790.got.cif
#   From: 2010.03.12/outbox.cif.g09.slc.cpg/sg59_13_cif.got.tgz:24790.got - 2010.04.16 16:29:54.
