data_PCOD8244267
_publ_section_title
;
Structure prediction by ZEFSAII (Michael W. Deem and Ramdas Pophale) SiO2 
 PCOD8244267
Probable space group: P M M N
;
_chemical_formula_sum "Si O2"
_cell_formula_units_Z 64
_cell_length_a 9.129024
_cell_length_b 24.525330
_cell_length_c 14.629804
_cell_angle_alpha 90.000000
_cell_angle_beta 90.000000
_cell_angle_gamma 90.000000
_cell_volume 3275.500849
_symmetry_space_group_name_H-M "P M M N"
_symmetry_group_IT_number 59
_space_group.IT_coordinate_system_code '2'
_symmetry_cell_setting 'orthorhombic'
loop_
_space_group_symop_operation_xyz
x,y,z
1/2-x,1/2-y,z
1/2+x,-y,-z
-x,1/2+y,-z
-x,-y,-z
1/2+x,1/2+y,-z
1/2-x,y,z
x,1/2-y,z
loop_
_atom_site_type_symbol
_atom_site_label
_atom_site_fract_x
_atom_site_fract_y
_atom_site_fract_z
Si Si1 0.912637 0.111254 0.654476
Si Si2 0.418960 0.688382 0.824761
Si Si3 0.424125 0.095802 0.289606
Si Si4 0.417969 0.187839 0.791120
Si Si5 0.424921 0.557061 0.526765
Si Si6 0.416589 0.165309 0.993712
Si Si7 0.588325 0.481555 0.786543
Si Si8 0.912100 0.545261 0.050728
O O1 0.750000 0.135973 0.662429
O O2 0.959431 0.103622 0.549382
O O3 0.915123 0.048755 0.689824
O O4 0.013550 0.151226 0.712119
O O5 0.250000 0.668818 0.827387
O O6 0.429697 0.750000 0.786195
O O7 0.512656 0.649682 0.758446
O O8 0.482089 0.689776 0.927704
O O9 0.250000 0.102482 0.306187
O O10 0.506593 0.084042 0.383620
O O11 0.457422 0.044456 0.223859
O O12 0.250000 0.169840 0.798024
O O13 0.438091 0.250000 0.759914
O O14 0.483379 0.180174 0.893649
O O15 0.500000 0.500000 0.500000
O O16 0.250000 0.547830 0.537782
O O17 0.250000 0.188020 0.003326
O O18 0.416825 0.100428 0.006686
O O19 0.750000 0.479103 0.830920
O O20 0.479074 0.446832 0.849113
O O21 0.750000 0.523271 0.063525
O O22 0.000000 0.500000 0.000000
#
# Coordination Sequence:
#
# PCOD8244267 Si02
#       8
#     8   8   8   8   8   8   8   8
#     4  10  21  38  59  86 122 156 191 238 294 351
#     4  11  25  43  62  88 120 156 203 254 300 352
#     4  11  23  41  64  92 122 156 199 247 302 364
#     4  10  21  38  60  87 119 156 203 252 294 346
#     4  11  22  39  63  93 125 159 197 244 300 359
#     4  10  21  38  59  84 116 157 202 245 294 350
#     4  10  20  36  56  83 120 154 188 237 293 354
#     4  11  22  34  51  80 116 157 198 239 292 351
#
# _framework density 19.538996999999998
#
# number of rings (size 3 to 8) (size 9 to 14) (size 15 to 20)
#    0.000    1.500    2.500    2.625    0.000    8.250 
#    0.000    0.625    0.000    0.750    0.000    0.000 
#    0.000    0.000    0.000    0.000    0.000    0.000 
#
# Total GULP energy -793430.335957 kJ/mol
# GULP energy per Si atom -12397.348999 kJ/mol
# Density = 1.949453 g / cm^3
# Si number density = 19.538997 Si / 1000 Ang^3
#
#
#
# Elastic Constant Matrix: (Units=GPa)
#
#
# Indices 1 2 3 4 5 6 
#
# 1 111.3407 46.6426 54.3860 0.0000 0.0000 0.0000
# 2 46.6426 95.9057 40.2800 0.0000 0.0000 0.0000
# 3 54.3860 40.2800 105.3693 0.0000 0.0000 0.0000
# 4 0.0000 0.0000 0.0000 21.5640 0.0000 0.0000
# 5 0.0000 0.0000 0.0000 0.0000 37.6835 0.0000
# 6 0.0000 0.0000 0.0000 0.0000 0.0000 29.0217
#
#
#
# Elastic Compliance Matrix: (Units=1/GPa)
#
#
# Indices 1 2 3 4 5 6 
#
# 1 0.013339 -0.004283 -0.005247 0.000000 0.000000 0.000000
# 2 -0.004283 0.013797 -0.003063 0.000000 0.000000 0.000000
# 3 -0.005247 -0.003063 0.013370 0.000000 0.000000 0.000000
# 4 0.000000 0.000000 0.000000 0.046373 0.000000 0.000000
# 5 0.000000 0.000000 0.000000 0.000000 0.026537 0.000000
# 6 0.000000 0.000000 0.000000 0.000000 0.000000 0.034457
#
#
# Mechanical properties :
#
#
# Convention : Reuss Voigt Hill
#
# Bulk Modulus (GPa) = 65.28535 66.13699 65.71117
# Shear Modulus (GPa) = 28.06359 29.07432 28.56896
#
# Velocity S-wave (km/s) = 3.79395 3.86166 3.82796
# Velocity P-wave (km/s) = 7.25792 7.33522 7.29667
#
# Compressibility (1/GPa) = 0.01531737
#
# Stress axis : x y z
#
# Youngs Moduli (GPa) = 74.96802 72.48148 74.79487
#
# Poissons Ratio (x) = 0.31046 0.39248
# Poissons Ratio (y) = 0.32111 0.22912
# Poissons Ratio (z) = 0.39339 0.22203
#
# Static dielectric constant tensor:
#      x y z
#    x 3.600620 0.000000 0.000000 
#    y 0.000000 3.586440 0.000000 
#    z 0.000000 0.000000 3.899420 
# 
# 
# High freq. dielectric constant tensor:
#      x y z
#    x 1.764830 0.000000 0.000000 
#    y 0.000000 1.760180 0.000000 
#    z 0.000000 0.000000 1.759880 
# 
# From -- ./inp_files/21427.got.cif
#   From: 2010.03.12/outbox.cif.g09.slc.cpg/sg59_11_cif.got.tgz:21427.got - 2010.04.16 16:29:54.
