data_PCOD8244715
_publ_section_title
;
Structure prediction by ZEFSAII (Michael W. Deem and Ramdas Pophale) SiO2 
 PCOD8244715
Probable space group: P M M N
;
_chemical_formula_sum "Si O2"
_cell_formula_units_Z 64
_cell_length_a 9.107754
_cell_length_b 18.338892
_cell_length_c 21.049189
_cell_angle_alpha 90.000000
_cell_angle_beta 90.000000
_cell_angle_gamma 90.000000
_cell_volume 3515.764304
_symmetry_space_group_name_H-M "P M M N"
_symmetry_group_IT_number 59
_space_group.IT_coordinate_system_code '2'
_symmetry_cell_setting 'orthorhombic'
loop_
_space_group_symop_operation_xyz
x,y,z
1/2-x,1/2-y,z
1/2+x,-y,-z
-x,1/2+y,-z
-x,-y,-z
1/2+x,1/2+y,-z
1/2-x,y,z
x,1/2-y,z
loop_
_atom_site_type_symbol
_atom_site_label
_atom_site_fract_x
_atom_site_fract_y
_atom_site_fract_z
Si Si1 0.418098 0.334072 0.620964
Si Si2 0.579192 0.960592 0.190606
Si Si3 0.921138 0.591779 0.750951
Si Si4 0.076588 0.422950 0.497611
Si Si5 0.920183 0.833324 0.882075
Si Si6 0.421864 0.833947 0.251226
Si Si7 0.075408 0.168135 0.377195
Si Si8 0.579189 0.036822 0.058578
O O1 0.250000 0.350783 0.639621
O O2 0.438806 0.250000 0.602700
O O3 0.469495 0.379793 0.560534
O O4 0.520063 0.356838 0.679540
O O5 0.750000 0.953591 0.205634
O O6 0.502555 0.882175 0.198139
O O7 0.509720 0.017039 0.240552
O O8 0.548728 0.986370 0.119265
O O9 0.750000 0.571905 0.745991
O O10 0.952309 0.646460 0.809071
O O11 0.980107 0.630348 0.687443
O O12 0.250000 0.433832 0.493141
O O13 0.017453 0.378067 0.436978
O O14 0.000000 0.500000 0.500000
O O15 0.750000 0.845621 0.898340
O O16 0.967468 0.750000 0.892899
O O17 0.014679 0.882722 0.929662
O O18 0.250000 0.849148 0.248594
O O19 0.460058 0.750000 0.236601
O O20 0.250000 0.171929 0.377477
O O21 0.010698 0.250000 0.381033
O O22 0.750000 0.044675 0.043441
O O23 0.500000 0.000000 0.000000
#
# Coordination Sequence:
#
# PCOD8244715 Si02
#       8
#     8   8   8   8   8   8   8   8
#     4   9  18  34  54  73  97 135 178 219 267 319
#     4  10  21  36  55  80 110 142 173 210 258 314
#     4   9  17  30  52  81 108 137 173 216 262 309
#     4  10  21  34  49  72 101 136 175 220 264 313
#     4   9  17  31  53  81 112 144 179 219 262 311
#     4  10  21  36  56  81 105 132 173 225 274 319
#     4   9  17  31  52  76 101 132 173 217 260 309
#     4  10  21  37  57  81 110 146 184 220 260 308
#
# _framework density 18.203724000000001
#
# number of rings (size 3 to 8) (size 9 to 14) (size 15 to 20)
#    0.000    2.500    0.000    1.875    1.750    6.000 
#    0.000    0.625    0.000    3.750    0.000    0.000 
#    0.000    0.000    0.000    0.000    0.000    0.000 
#
# Total GULP energy -793789.016153 kJ/mol
# GULP energy per Si atom -12402.953377 kJ/mol
# Density = 1.816229 g / cm^3
# Si number density = 18.203724 Si / 1000 Ang^3
#
#
#
# Elastic Constant Matrix: (Units=GPa)
#
#
# Indices 1 2 3 4 5 6 
#
# 1 77.3606 65.4050 51.7636 0.0000 0.0000 0.0000
# 2 65.4050 142.8527 77.4021 0.0000 0.0000 0.0000
# 3 51.7636 77.4021 97.9861 0.0000 0.0000 0.0000
# 4 0.0000 0.0000 0.0000 31.3492 0.0000 0.0000
# 5 0.0000 0.0000 0.0000 0.0000 24.2470 0.0000
# 6 0.0000 0.0000 0.0000 0.0000 0.0000 32.3926
#
#
#
# Elastic Compliance Matrix: (Units=1/GPa)
#
#
# Indices 1 2 3 4 5 6 
#
# 1 0.023441 -0.007033 -0.006828 0.000000 0.000000 0.000000
# 2 -0.007033 0.014348 -0.007619 0.000000 0.000000 0.000000
# 3 -0.006828 -0.007619 0.019831 0.000000 0.000000 0.000000
# 4 0.000000 0.000000 0.000000 0.031899 0.000000 0.000000
# 5 0.000000 0.000000 0.000000 0.000000 0.041242 0.000000
# 6 0.000000 0.000000 0.000000 0.000000 0.000000 0.030871
#
#
# Mechanical properties :
#
#
# Convention : Reuss Voigt Hill
#
# Bulk Modulus (GPa) = 68.20775 78.59343 73.40059
# Shear Modulus (GPa) = 23.86871 25.83967 24.85419
#
# Velocity S-wave (km/s) = 3.62498 3.77167 3.69905
# Velocity P-wave (km/s) = 7.42099 7.88895 7.65854
#
# Compressibility (1/GPa) = 0.01466109
#
# Stress axis : x y z
#
# Youngs Moduli (GPa) = 42.65987 69.69401 50.42645
#
# Poissons Ratio (x) = 0.49016 0.34430
# Poissons Ratio (y) = 0.30003 0.38419
# Poissons Ratio (z) = 0.29127 0.53099
#
# Static dielectric constant tensor:
#      x y z
#    x 3.236980 0.000000 0.000000 
#    y 0.000000 3.414230 0.000000 
#    z 0.000000 0.000000 3.336740 
# 
# 
# High freq. dielectric constant tensor:
#      x y z
#    x 1.692160 0.000000 0.000000 
#    y 0.000000 1.713750 0.000000 
#    z 0.000000 0.000000 1.700830 
# 
# From -- ./inp_files/29445.got.cif
#   From: 2010.03.12/outbox.cif.g09.slc.cpg/sg59_15_cif.got.tgz:29445.got - 2010.04.16 16:29:54.
