data_PCOD8244147
_publ_section_title
;
Structure prediction by ZEFSAII (Michael W. Deem and Ramdas Pophale) SiO2 
 PCOD8244147
Probable space group: P M M N
;
_chemical_formula_sum "Si O2"
_cell_formula_units_Z 56
_cell_length_a 8.852165
_cell_length_b 14.688083
_cell_length_c 21.332465
_cell_angle_alpha 90.000000
_cell_angle_beta 90.000000
_cell_angle_gamma 90.000000
_cell_volume 2773.675562
_symmetry_space_group_name_H-M "P M M N"
_symmetry_group_IT_number 59
_space_group.IT_coordinate_system_code '2'
_symmetry_cell_setting 'orthorhombic'
loop_
_space_group_symop_operation_xyz
x,y,z
1/2-x,1/2-y,z
1/2+x,-y,-z
-x,1/2+y,-z
-x,-y,-z
1/2+x,1/2+y,-z
1/2-x,y,z
x,1/2-y,z
loop_
_atom_site_type_symbol
_atom_site_label
_atom_site_fract_x
_atom_site_fract_y
_atom_site_fract_z
Si Si1 0.927297 0.999316 0.728910
Si Si2 0.080417 0.148246 0.809852
Si Si3 0.074912 0.143984 0.499302
Si Si4 0.921621 0.609036 0.937197
Si Si5 0.574987 0.487945 0.404011
Si Si6 0.920536 0.351650 0.188139
Si Si7 0.578286 0.393821 0.936622
O O1 0.750000 0.012576 0.732829
O O2 0.971003 0.911892 0.769465
O O3 0.004083 0.088536 0.756563
O O4 0.976187 0.985861 0.657925
O O5 0.250000 0.112391 0.822429
O O6 0.082389 0.250000 0.782820
O O7 0.990119 0.148729 0.874447
O O8 0.250000 0.137172 0.479595
O O9 0.028231 0.250000 0.510096
O O10 0.045843 0.084840 0.561972
O O11 0.974157 0.099074 0.445106
O O12 0.750000 0.643268 0.931041
O O13 0.932976 0.501443 0.930946
O O14 0.021760 0.652434 0.882937
O O15 0.985767 0.642582 0.003734
O O16 0.750000 0.476135 0.386728
O O17 0.750000 0.390871 0.189323
O O18 0.923726 0.250000 0.215860
O O19 0.750000 0.361090 0.943733
#
# Coordination Sequence:
#
# PCOD8244147 Si02
#       7
#     8   8   8   8   8   8   8
#     4  12  25  42  63  88 122 163 203 249 299 351
#     4  11  24  41  62  87 117 156 200 249 305 363
#     4   9  19  38  64  94 127 161 199 243 290 342
#     4  10  20  35  58  86 115 152 194 244 305 365
#     4  10  21  38  62  92 125 163 202 243 292 347
#     4  11  24  41  62  87 116 154 200 251 306 364
#     4  10  20  35  58  86 115 152 195 245 303 363
#
# _framework density 20.189816
#
# number of rings (size 3 to 8) (size 9 to 14) (size 15 to 20)
#    0.000    1.571    1.429    3.429    0.000    6.000 
#    0.000    1.429    0.000    0.000    0.000    0.000 
#    0.000    0.000    0.000    0.000    0.000    0.000 
#
# Total GULP energy -694586.607241 kJ/mol
# GULP energy per Si atom -12403.332272 kJ/mol
# Density = 2.014386 g / cm^3
# Si number density = 20.189816 Si / 1000 Ang^3
#
#
#
# Elastic Constant Matrix: (Units=GPa)
#
#
# Indices 1 2 3 4 5 6 
#
# 1 87.1484 14.8832 -2.1577 0.0000 0.0000 0.0000
# 2 14.8832 90.8957 11.6624 0.0000 0.0000 0.0000
# 3 -2.1577 11.6624 61.6412 0.0000 0.0000 0.0000
# 4 0.0000 0.0000 0.0000 275.0788 0.0000 0.0000
# 5 0.0000 0.0000 0.0000 0.0000 35.4708 0.0000
# 6 0.0000 0.0000 0.0000 0.0000 0.0000 16.7549
#
#
#
# Elastic Compliance Matrix: (Units=1/GPa)
#
#
# Indices 1 2 3 4 5 6 
#
# 1 0.011843 -0.002042 0.000801 0.000000 0.000000 0.000000
# 2 -0.002042 0.011627 -0.002271 0.000000 0.000000 0.000000
# 3 0.000801 -0.002271 0.016681 0.000000 0.000000 0.000000
# 4 0.000000 0.000000 0.000000 0.003635 0.000000 0.000000
# 5 0.000000 0.000000 0.000000 0.000000 0.028192 0.000000
# 6 0.000000 0.000000 0.000000 0.000000 0.000000 0.059684
#
#
# Mechanical properties :
#
#
# Convention : Reuss Voigt Hill
#
# Bulk Modulus (GPa) = 30.18733 32.05124 31.11929
# Shear Modulus (GPa) = 33.39351 79.81407 56.60379
#
# Velocity S-wave (km/s) = 4.07132 6.29426 5.30063
# Velocity P-wave (km/s) = 6.08976 8.29053 7.27386
#
# Compressibility (1/GPa) = 0.03312648
#
# Stress axis : x y z
#
# Youngs Moduli (GPa) = 84.43638 86.00380 59.94954
#
# Poissons Ratio (x) = 0.17562 -0.04801
# Poissons Ratio (y) = 0.17242 0.13617
# Poissons Ratio (z) = -0.06762 0.19535
#
# Static dielectric constant tensor:
#      x y z
#    x 3.834200 0.000000 0.000000 
#    y 0.000000 3.749490 0.000000 
#    z 0.000000 0.000000 3.571680 
# 
# 
# High freq. dielectric constant tensor:
#      x y z
#    x 1.802330 0.000000 0.000000 
#    y 0.000000 1.794890 0.000000 
#    z 0.000000 0.000000 1.781520 
# 
# From -- ./inp_files/29145.got.cif
#   From: 2010.03.12/outbox.cif.g09.slc.cpg/sg59_15_cif.got.tgz:29145.got - 2010.04.16 16:29:54.
