data_PCOD8244754
_publ_section_title
;
Structure prediction by ZEFSAII (Michael W. Deem and Ramdas Pophale) SiO2 
 PCOD8244754
Probable space group: P M M N
;
_chemical_formula_sum "Si O2"
_cell_formula_units_Z 40
_cell_length_a 7.666276
_cell_length_b 8.986354
_cell_length_c 29.670483
_cell_angle_alpha 90.000000
_cell_angle_beta 90.000000
_cell_angle_gamma 90.000000
_cell_volume 2044.055058
_symmetry_space_group_name_H-M "P M M N"
_symmetry_group_IT_number 59
_space_group.IT_coordinate_system_code '2'
_symmetry_cell_setting 'orthorhombic'
loop_
_space_group_symop_operation_xyz
x,y,z
1/2-x,1/2-y,z
1/2+x,-y,-z
-x,1/2+y,-z
-x,-y,-z
1/2+x,1/2+y,-z
1/2-x,y,z
x,1/2-y,z
loop_
_atom_site_type_symbol
_atom_site_label
_atom_site_fract_x
_atom_site_fract_y
_atom_site_fract_z
Si Si1 0.047499 0.587499 0.544244
Si Si2 0.546923 0.925456 0.952955
Si Si3 0.047600 0.415175 0.360411
Si Si4 0.750000 0.926095 0.207799
Si Si5 0.948464 0.074164 0.727866
Si Si6 0.250000 0.071595 0.895083
O O1 0.250000 0.607188 0.546126
O O2 0.956266 0.750000 0.541557
O O3 0.000000 0.500000 0.500000
O O4 0.987427 0.507606 0.590817
O O5 0.750000 0.953908 0.941028
O O6 0.506402 0.750000 0.955421
O O7 0.425811 0.003409 0.915905
O O8 0.500000 0.000000 0.000000
O O9 0.250000 0.402329 0.351980
O O10 0.961425 0.250000 0.360002
O O11 0.973299 0.512055 0.319237
O O12 0.750000 0.750000 0.209405
O O13 0.574662 0.985227 0.232433
O O14 0.750000 0.980749 0.156606
O O15 0.750000 0.020478 0.738019
O O16 0.954675 0.250000 0.723895
O O17 0.250000 0.250000 0.901462
#
# Coordination Sequence:
#
# PCOD8244754 Si02
#       6
#     8   8   8   4   8   4
#     4  10  21  35  51  73 102 135 173 215 264 327
#     4  11  23  39  62  90 123 162 206 253 302 358
#     4   9  18  33  52  75 103 133 168 215 271 327
#     4   9  20  37  57  83 115 149 191 237 284 339
#     4   9  18  34  56  80 107 141 184 231 275 328
#     4  11  23  39  61  91 125 163 205 251 304 357
#
# _framework density 19.568944999999999
#
# number of rings (size 3 to 8) (size 9 to 14) (size 15 to 20)
#    0.000    2.200    1.000    1.500    1.400    4.000 
#    0.000    6.000    0.000    2.400    0.000    0.000 
#    0.000    0.000    0.000    0.000    0.000    0.000 
#
# Total GULP energy -495759.769210 kJ/mol
# GULP energy per Si atom -12393.994230 kJ/mol
# Density = 1.952441 g / cm^3
# Si number density = 19.568945 Si / 1000 Ang^3
#
#
#
# Elastic Constant Matrix: (Units=GPa)
#
#
# Indices 1 2 3 4 5 6 
#
# 1 112.6484 43.6691 77.4839 0.0000 0.0000 0.0000
# 2 43.6691 71.3097 56.6987 0.0000 0.0000 0.0000
# 3 77.4839 56.6987 204.8398 0.0000 0.0000 0.0000
# 4 0.0000 0.0000 0.0000 27.7966 0.0000 0.0000
# 5 0.0000 0.0000 0.0000 0.0000 37.9516 0.0000
# 6 0.0000 0.0000 0.0000 0.0000 0.0000 22.9387
#
#
#
# Elastic Compliance Matrix: (Units=1/GPa)
#
#
# Indices 1 2 3 4 5 6 
#
# 1 0.013430 -0.005366 -0.003595 0.000000 0.000000 0.000000
# 2 -0.005366 0.020125 -0.003541 0.000000 0.000000 0.000000
# 3 -0.003595 -0.003541 0.007222 0.000000 0.000000 0.000000
# 4 0.000000 0.000000 0.000000 0.035976 0.000000 0.000000
# 5 0.000000 0.000000 0.000000 0.000000 0.026349 0.000000
# 6 0.000000 0.000000 0.000000 0.000000 0.000000 0.043594
#
#
# Mechanical properties :
#
#
# Convention : Reuss Voigt Hill
#
# Bulk Modulus (GPa) = 63.39824 82.72237 73.06031
# Shear Modulus (GPa) = 28.25550 31.80044 30.02797
#
# Velocity S-wave (km/s) = 3.80398 4.03556 3.92148
# Velocity P-wave (km/s) = 7.19454 8.00490 7.61051
#
# Compressibility (1/GPa) = 0.01577331
#
# Stress axis : x y z
#
# Youngs Moduli (GPa) = 74.45988 49.69033 138.47206
#
# Poissons Ratio (x) = 0.26665 0.49778
# Poissons Ratio (y) = 0.39956 0.49027
# Poissons Ratio (z) = 0.26767 0.17593
#
# Static dielectric constant tensor:
#      x y z
#    x -3.380020 0.000000 0.000000 
#    y 0.000000 3.640330 0.000000 
#    z 0.000000 0.000000 3.729700 
# 
# 
# High freq. dielectric constant tensor:
#      x y z
#    x 1.771500 0.000000 0.000000 
#    y 0.000000 1.743400 0.000000 
#    z 0.000000 0.000000 1.767520 
# 
# From -- ./inp_files/32427.got.cif
#   From: 2010.03.12/outbox.cif.g09.slc.cpg/sg59_17_cif.got.tgz:32427.got - 2010.04.16 16:29:54.
