data_PCOD8244044
_publ_section_title
;
Structure prediction by ZEFSAII (Michael W. Deem and Ramdas Pophale) SiO2 
 PCOD8244044
Probable space group: P M M N
;
_chemical_formula_sum "Si O2"
_cell_formula_units_Z 56
_cell_length_a 8.730102
_cell_length_b 18.630414
_cell_length_c 17.361692
_cell_angle_alpha 90.000000
_cell_angle_beta 90.000000
_cell_angle_gamma 90.000000
_cell_volume 2823.799592
_symmetry_space_group_name_H-M "P M M N"
_symmetry_group_IT_number 59
_space_group.IT_coordinate_system_code '2'
_symmetry_cell_setting 'orthorhombic'
loop_
_space_group_symop_operation_xyz
x,y,z
1/2-x,1/2-y,z
1/2+x,-y,-z
-x,1/2+y,-z
-x,-y,-z
1/2+x,1/2+y,-z
1/2-x,y,z
x,1/2-y,z
loop_
_atom_site_type_symbol
_atom_site_label
_atom_site_fract_x
_atom_site_fract_y
_atom_site_fract_z
Si Si1 0.431798 0.097146 0.610509
Si Si2 0.076380 0.666203 0.244747
Si Si3 0.431092 0.169513 0.453072
Si Si4 0.931586 0.829861 0.958039
Si Si5 0.930321 0.555630 0.838459
Si Si6 0.430275 0.414270 0.894300
Si Si7 0.068201 0.049736 0.336735
O O1 0.250000 0.099716 0.619205
O O2 0.508093 0.149263 0.672347
O O3 0.488619 0.127507 0.528628
O O4 0.488533 0.015920 0.619724
O O5 0.250000 0.636384 0.239534
O O6 0.071679 0.750000 0.229560
O O7 0.971965 0.628521 0.182074
O O8 0.250000 0.176141 0.456242
O O9 0.502471 0.250000 0.448321
O O10 0.481451 0.123558 0.378470
O O11 0.750000 0.825117 0.965965
O O12 0.003149 0.750000 0.956238
O O13 0.977790 0.869601 0.878772
O O14 0.998073 0.872854 0.031512
O O15 0.750000 0.545618 0.838158
O O16 0.992497 0.553817 0.751064
O O17 0.999694 0.493205 0.890827
O O18 0.250000 0.421768 0.900398
O O19 0.250000 0.038561 0.340484
#
# Coordination Sequence:
#
# PCOD8244044 Si02
#       7
#     8   8   8   8   8   8   8
#     4  11  21  35  57  82 112 149 187 229 276 331
#     4  11  23  37  55  81 114 147 182 229 281 334
#     4   9  19  35  55  82 113 146 189 236 278 325
#     4   9  19  35  55  82 113 146 189 236 278 325
#     4  10  20  35  57  83 113 148 187 232 278 328
#     4  11  21  35  57  82 112 149 187 229 276 331
#     4  10  20  35  57  83 113 148 187 232 278 328
#
# _framework density 19.831436
#
# number of rings (size 3 to 8) (size 9 to 14) (size 15 to 20)
#    0.000    1.857    1.429    3.000    0.000    2.857 
#    0.000    4.286    0.000    4.286    0.000    2.000 
#    0.000    0.000    0.000    0.000    0.000    0.000 
#
# Total GULP energy -694469.320451 kJ/mol
# GULP energy per Si atom -12401.237865 kJ/mol
# Density = 1.978630 g / cm^3
# Si number density = 19.831436 Si / 1000 Ang^3
#
#
#
# Elastic Constant Matrix: (Units=GPa)
#
#
# Indices 1 2 3 4 5 6 
#
# 1 14.7490 23.3925 13.6255 0.0000 0.0000 0.0000
# 2 23.3925 160.5372 76.3183 0.0000 0.0000 0.0000
# 3 13.6255 76.3183 112.4420 0.0000 0.0000 0.0000
# 4 0.0000 0.0000 0.0000 34.0098 0.0000 0.0000
# 5 0.0000 0.0000 0.0000 0.0000 18.0064 0.0000
# 6 0.0000 0.0000 0.0000 0.0000 0.0000 25.6952
#
#
#
# Elastic Compliance Matrix: (Units=1/GPa)
#
#
# Indices 1 2 3 4 5 6 
#
# 1 0.088826 -0.011554 -0.002921 0.000000 0.000000 0.000000
# 2 -0.011554 0.010699 -0.005862 0.000000 0.000000 0.000000
# 3 -0.002921 -0.005862 0.013226 0.000000 0.000000 0.000000
# 4 0.000000 0.000000 0.000000 0.029403 0.000000 0.000000
# 5 0.000000 0.000000 0.000000 0.000000 0.055536 0.000000
# 6 0.000000 0.000000 0.000000 0.000000 0.000000 0.038918
#
#
# Mechanical properties :
#
#
# Convention : Reuss Voigt Hill
#
# Bulk Modulus (GPa) = 13.87426 57.15562 35.51494
# Shear Modulus (GPa) = 16.59428 27.16841 21.88135
#
# Velocity S-wave (km/s) = 2.89583 3.70532 3.32530
# Velocity P-wave (km/s) = 4.26525 6.86944 5.71758
#
# Compressibility (1/GPa) = 0.07207591
#
# Stress axis : x y z
#
# Youngs Moduli (GPa) = 11.25802 93.46287 75.60759
#
# Poissons Ratio (x) = 1.07990 0.22088
# Poissons Ratio (y) = 0.13008 0.44321
# Poissons Ratio (z) = 0.03289 0.54787
#
# Static dielectric constant tensor:
#      x y z
#    x 3.342470 0.000000 0.000000 
#    y 0.000000 3.870940 0.000000 
#    z 0.000000 0.000000 3.837320 
# 
# 
# High freq. dielectric constant tensor:
#      x y z
#    x 1.741730 0.000000 0.000000 
#    y 0.000000 1.786700 0.000000 
#    z 0.000000 0.000000 1.784230 
# 
# From -- ./inp_files/20906.got.cif
#   From: 2010.03.12/outbox.cif.g09.slc.cpg/sg59_11_cif.got.tgz:20906.got - 2010.04.16 16:29:54.
