data_PCOD8244322
_publ_section_title
;
Structure prediction by ZEFSAII (Michael W. Deem and Ramdas Pophale) SiO2 
 PCOD8244322
Probable space group: P M M N
;
_chemical_formula_sum "Si O2"
_cell_formula_units_Z 48
_cell_length_a 9.193852
_cell_length_b 9.658581
_cell_length_c 28.367556
_cell_angle_alpha 90.000000
_cell_angle_beta 90.000000
_cell_angle_gamma 90.000000
_cell_volume 2519.026611
_symmetry_space_group_name_H-M "P M M N"
_symmetry_group_IT_number 59
_space_group.IT_coordinate_system_code '2'
_symmetry_cell_setting 'orthorhombic'
loop_
_space_group_symop_operation_xyz
x,y,z
1/2-x,1/2-y,z
1/2+x,-y,-z
-x,1/2+y,-z
-x,-y,-z
1/2+x,1/2+y,-z
1/2-x,y,z
x,1/2-y,z
loop_
_atom_site_type_symbol
_atom_site_label
_atom_site_fract_x
_atom_site_fract_y
_atom_site_fract_z
Si Si1 0.919124 0.089313 0.961310
Si Si2 0.416767 0.250000 0.529869
Si Si3 0.418587 0.905066 0.297491
Si Si4 0.579416 0.089391 0.223011
Si Si5 0.581497 0.250000 0.432563
Si Si6 0.082115 0.091233 0.866206
Si Si7 0.919040 0.963315 0.391270
O O1 0.750000 0.050850 0.961238
O O2 0.945052 0.250000 0.973058
O O3 0.983961 0.051450 0.910568
O O4 0.000000 0.000000 0.000000
O O5 0.250000 0.250000 0.514827
O O6 0.505680 0.250000 0.482466
O O7 0.456007 0.384274 0.560545
O O8 0.250000 0.944403 0.299864
O O9 0.440230 0.750000 0.276468
O O10 0.497976 0.019803 0.266403
O O11 0.483263 0.904812 0.349679
O O12 0.750000 0.073406 0.232365
O O13 0.534106 0.250000 0.218727
O O14 0.533260 0.010328 0.175513
O O15 0.750000 0.250000 0.444941
O O16 0.538067 0.378716 0.400173
O O17 0.250000 0.067284 0.879994
O O18 0.055635 0.250000 0.850432
O O19 0.750000 0.943141 0.377536
#
# Coordination Sequence:
#
# PCOD8244322 Si02
#       7
#     8   4   8   8   4   8   8
#     4  10  21  36  56  84 118 157 199 244 292 341
#     4  10  20  36  58  82 110 148 188 226 271 328
#     4  11  24  40  59  84 113 148 190 237 286 335
#     4  10  22  39  61  88 117 150 187 232 287 346
#     4  10  22  36  56  84 114 146 180 226 279 330
#     4   9  18  35  58  83 114 154 198 239 283 340
#     4  10  21  38  58  82 112 147 187 228 275 334
#
# _framework density 19.054981000000002
#
# number of rings (size 3 to 8) (size 9 to 14) (size 15 to 20)
#    0.000    2.000    0.833    2.000    1.167    5.667 
#    0.000    3.333    0.000    0.000    0.000    0.000 
#    0.000    0.000    0.000    0.000    0.000    0.000 
#
# Total GULP energy -595350.884539 kJ/mol
# GULP energy per Si atom -12403.143428 kJ/mol
# Density = 1.901161 g / cm^3
# Si number density = 19.054981 Si / 1000 Ang^3
#
#
#
# Elastic Constant Matrix: (Units=GPa)
#
#
# Indices 1 2 3 4 5 6 
#
# 1 77.1262 44.7765 56.4631 0.0000 0.0000 0.0000
# 2 44.7765 117.0929 49.6386 0.0000 0.0000 0.0000
# 3 56.4631 49.6386 102.5045 0.0000 0.0000 0.0000
# 4 0.0000 0.0000 0.0000 16.7580 0.0000 0.0000
# 5 0.0000 0.0000 0.0000 0.0000 38.8106 0.0000
# 6 0.0000 0.0000 0.0000 0.0000 0.0000 19.9744
#
#
#
# Elastic Compliance Matrix: (Units=1/GPa)
#
#
# Indices 1 2 3 4 5 6 
#
# 1 0.023387 -0.004382 -0.010761 0.000000 0.000000 0.000000
# 2 -0.004382 0.011567 -0.003188 0.000000 0.000000 0.000000
# 3 -0.010761 -0.003188 0.017227 0.000000 0.000000 0.000000
# 4 0.000000 0.000000 0.000000 0.059673 0.000000 0.000000
# 5 0.000000 0.000000 0.000000 0.000000 0.025766 0.000000
# 6 0.000000 0.000000 0.000000 0.000000 0.000000 0.050064
#
#
# Mechanical properties :
#
#
# Convention : Reuss Voigt Hill
#
# Bulk Modulus (GPa) = 64.42973 66.49778 65.46375
# Shear Modulus (GPa) = 21.78466 24.83161 23.30814
#
# Velocity S-wave (km/s) = 3.38487 3.61384 3.50123
# Velocity P-wave (km/s) = 7.01159 7.23787 7.12563
#
# Compressibility (1/GPa) = 0.01552079
#
# Stress axis : x y z
#
# Youngs Moduli (GPa) = 42.75804 86.45117 58.04872
#
# Poissons Ratio (x) = 0.37879 0.62465
# Poissons Ratio (y) = 0.18735 0.18506
# Poissons Ratio (z) = 0.46011 0.27560
#
# Static dielectric constant tensor:
#      x y z
#    x 3.446340 0.000000 0.000000 
#    y 0.000000 3.762270 0.000000 
#    z 0.000000 0.000000 3.377380 
# 
# 
# High freq. dielectric constant tensor:
#      x y z
#    x 1.738030 0.000000 0.000000 
#    y 0.000000 1.752960 0.000000 
#    z 0.000000 0.000000 1.741780 
# 
# From -- ./inp_files/33009.got.cif
#   From: 2010.03.12/outbox.cif.g09.slc.cpg/sg59_17_cif.got.tgz:33009.got - 2010.04.16 16:29:54.
