data_PCOD8244231
_publ_section_title
;
Structure prediction by ZEFSAII (Michael W. Deem and Ramdas Pophale) SiO2 
 PCOD8244231
Probable space group: P M M N
;
_chemical_formula_sum "Si O2"
_cell_formula_units_Z 48
_cell_length_a 15.989869
_cell_length_b 9.232082
_cell_length_c 17.115176
_cell_angle_alpha 90.000000
_cell_angle_beta 90.000000
_cell_angle_gamma 90.000000
_cell_volume 2526.538546
_symmetry_space_group_name_H-M "P M M N"
_symmetry_group_IT_number 59
_space_group.IT_coordinate_system_code '2'
_symmetry_cell_setting 'orthorhombic'
loop_
_space_group_symop_operation_xyz
x,y,z
1/2-x,1/2-y,z
1/2+x,-y,-z
-x,1/2+y,-z
-x,-y,-z
1/2+x,1/2+y,-z
1/2-x,y,z
x,1/2-y,z
loop_
_atom_site_type_symbol
_atom_site_label
_atom_site_fract_x
_atom_site_fract_y
_atom_site_fract_z
Si Si1 0.750000 0.421785 0.756891
Si Si2 0.656711 0.078050 0.188626
Si Si3 0.750000 0.420953 0.936246
Si Si4 0.845286 0.582959 0.480289
Si Si5 0.584428 0.422003 0.025947
Si Si6 0.572507 0.084624 0.343984
Si Si7 0.878502 0.915642 0.654427
O O1 0.750000 0.250000 0.748659
O O2 0.750000 0.471278 0.846756
O O3 0.667555 0.485139 0.717006
O O4 0.750000 0.015571 0.177393
O O5 0.659319 0.250000 0.193307
O O6 0.599607 0.031802 0.115756
O O7 0.619200 0.015266 0.269245
O O8 0.750000 0.250000 0.945872
O O9 0.664886 0.478982 0.976864
O O10 0.750000 0.558136 0.453938
O O11 0.871413 0.750000 0.477244
O O12 0.906039 0.499292 0.422554
O O13 0.858480 0.524465 0.567949
O O14 0.573086 0.250000 0.016171
O O15 0.500000 0.500000 0.000000
O O16 0.600029 0.250000 0.356870
O O17 0.475269 0.071833 0.326476
O O18 0.846715 0.750000 0.661621
#
# Coordination Sequence:
#
# PCOD8244231 Si02
#       7
#     4   8   4   8   8   8   8
#     4  11  23  37  57  82 107 144 192 231 273 333
#     4   9  17  33  56  81 110 144 183 224 269 327
#     4   9  20  39  59  82 117 154 186 229 291 345
#     4  10  20  36  55  76 110 153 183 214 277 336
#     4  10  20  37  60  84 112 150 190 231 283 341
#     4  10  21  34  56  86 110 139 186 234 271 319
#     4  10  21  39  57  78 113 148 178 228 287 329
#
# _framework density 18.998325000000001
#
# number of rings (size 3 to 8) (size 9 to 14) (size 15 to 20)
#    0.000    2.167    1.667    1.250    2.333    2.333 
#    0.000    2.083    0.000    1.000    0.000    0.000 
#    0.000    0.000    0.000    0.000    0.000    0.000 
#
# Total GULP energy -595244.234311 kJ/mol
# GULP energy per Si atom -12400.921548 kJ/mol
# Density = 1.895508 g / cm^3
# Si number density = 18.998325 Si / 1000 Ang^3
#
#
#
# Elastic Constant Matrix: (Units=GPa)
#
#
# Indices 1 2 3 4 5 6 
#
# 1 114.7089 29.0654 52.4307 0.0000 0.0000 0.0000
# 2 29.0654 42.6178 38.3308 0.0000 0.0000 0.0000
# 3 52.4307 38.3308 140.2412 0.0000 0.0000 0.0000
# 4 0.0000 0.0000 0.0000 19.7486 0.0000 0.0000
# 5 0.0000 0.0000 0.0000 0.0000 30.4328 0.0000
# 6 0.0000 0.0000 0.0000 0.0000 0.0000 24.6875
#
#
#
# Elastic Compliance Matrix: (Units=1/GPa)
#
#
# Indices 1 2 3 4 5 6 
#
# 1 0.011318 -0.005189 -0.002813 0.000000 0.000000 0.000000
# 2 -0.005189 0.033492 -0.007214 0.000000 0.000000 0.000000
# 3 -0.002813 -0.007214 0.010154 0.000000 0.000000 0.000000
# 4 0.000000 0.000000 0.000000 0.050637 0.000000 0.000000
# 5 0.000000 0.000000 0.000000 0.000000 0.032859 0.000000
# 6 0.000000 0.000000 0.000000 0.000000 0.000000 0.040506
#
#
# Mechanical properties :
#
#
# Convention : Reuss Voigt Hill
#
# Bulk Modulus (GPa) = 40.76360 59.69130 50.22745
# Shear Modulus (GPa) = 22.98050 26.82316 24.90183
#
# Velocity S-wave (km/s) = 3.48171 3.76156 3.62434
# Velocity P-wave (km/s) = 6.13727 7.09600 6.63398
#
# Compressibility (1/GPa) = 0.02453169
#
# Stress axis : x y z
#
# Youngs Moduli (GPa) = 88.35184 29.85829 98.48256
#
# Poissons Ratio (x) = 0.15493 0.27706
# Poissons Ratio (y) = 0.45845 0.71045
# Poissons Ratio (z) = 0.24856 0.21540
#
# Static dielectric constant tensor:
#      x y z
#    x 3.545640 0.000000 0.000000 
#    y 0.000000 3.140550 0.000000 
#    z 0.000000 0.000000 3.656020 
# 
# 
# High freq. dielectric constant tensor:
#      x y z
#    x 1.752550 0.000000 0.000000 
#    y 0.000000 1.699760 0.000000 
#    z 0.000000 0.000000 1.752050 
# 
# From -- ./inp_files/25603.got.cif
#   From: 2010.03.12/outbox.cif.g09.slc.cpg/sg59_13_cif.got.tgz:25603.got - 2010.04.16 16:29:54.
