data_PCOD8244498
_publ_section_title
;
Structure prediction by ZEFSAII (Michael W. Deem and Ramdas Pophale) SiO2 
 PCOD8244498
Probable space group: P M M N
;
_chemical_formula_sum "Si O2"
_cell_formula_units_Z 48
_cell_length_a 14.858102
_cell_length_b 16.943245
_cell_length_c 9.825329
_cell_angle_alpha 90.000000
_cell_angle_beta 90.000000
_cell_angle_gamma 90.000000
_cell_volume 2473.472167
_symmetry_space_group_name_H-M "P M M N"
_symmetry_group_IT_number 59
_space_group.IT_coordinate_system_code '2'
_symmetry_cell_setting 'orthorhombic'
loop_
_space_group_symop_operation_xyz
x,y,z
1/2-x,1/2-y,z
1/2+x,-y,-z
-x,1/2+y,-z
-x,-y,-z
1/2+x,1/2+y,-z
1/2-x,y,z
x,1/2-y,z
loop_
_atom_site_type_symbol
_atom_site_label
_atom_site_fract_x
_atom_site_fract_y
_atom_site_fract_z
Si Si1 0.250000 0.041911 0.113600
Si Si2 0.250000 0.082862 0.522923
Si Si3 0.941562 0.661877 0.075022
Si Si4 0.750000 0.071449 0.664230
Si Si5 0.438312 0.420046 0.192696
Si Si6 0.937930 0.841544 0.536877
Si Si7 0.446464 0.596119 0.304095
Si Si8 0.750000 0.598799 0.164406
O O1 0.167554 0.092777 0.169872
O O2 0.250000 0.955598 0.178229
O O3 0.250000 0.029601 0.949911
O O4 0.334694 0.135490 0.483361
O O5 0.250000 0.063145 0.684380
O O6 0.250000 0.000848 0.442048
O O7 0.941991 0.750000 0.015698
O O8 0.841895 0.647273 0.137814
O O9 0.014925 0.657227 0.194905
O O10 0.977949 0.603130 0.955464
O O11 0.656327 0.118930 0.651516
O O12 0.469799 0.359454 0.309075
O O13 0.459339 0.509012 0.239925
O O14 0.953367 0.750000 0.502475
O O15 0.996613 0.897798 0.441102
#
# Coordination Sequence:
#
# PCOD8244498 Si02
#       8
#     4   4   8   4   8   8   8   4
#     4   8  16  34  54  82 112 151 192 227 282 344
#     4  12  21  37  58  88 123 156 184 236 295 367
#     4  11  22  37  58  88 120 155 192 244 303 353
#     4  10  22  41  61  80 113 157 209 242 283 344
#     4  10  20  37  58  83 117 159 196 237 288 356
#     4  12  23  36  59  92 124 156 192 241 301 360
#     4  11  22  39  60  85 115 156 203 247 290 348
#     4  10  21  32  56  86 126 150 178 229 300 363
#
# _framework density 19.405919999999998
#
# number of rings (size 3 to 8) (size 9 to 14) (size 15 to 20)
#    0.000    1.333    5.000    2.500    0.000    0.667 
#    0.000    4.167    0.000    0.000    0.000    2.333 
#    0.000    0.000    0.000    0.000    0.000    0.000 
#
# Total GULP energy -594758.324131 kJ/mol
# GULP energy per Si atom -12390.798419 kJ/mol
# Density = 1.936175 g / cm^3
# Si number density = 19.405920 Si / 1000 Ang^3
#
#
#
# Elastic Constant Matrix: (Units=GPa)
#
#
# Indices 1 2 3 4 5 6 
#
# 1 103.2952 33.4082 30.5247 0.0000 0.0000 0.0000
# 2 33.4082 58.2609 23.9748 0.0000 0.0000 0.0000
# 3 30.5247 23.9748 120.6202 0.0000 0.0000 0.0000
# 4 0.0000 0.0000 0.0000 27.7740 0.0000 0.0000
# 5 0.0000 0.0000 0.0000 0.0000 24.3882 0.0000
# 6 0.0000 0.0000 0.0000 0.0000 0.0000 15.8203
#
#
#
# Elastic Compliance Matrix: (Units=1/GPa)
#
#
# Indices 1 2 3 4 5 6 
#
# 1 0.012255 -0.006264 -0.001856 0.000000 0.000000 0.000000
# 2 -0.006264 0.021894 -0.002767 0.000000 0.000000 0.000000
# 3 -0.001856 -0.002767 0.009310 0.000000 0.000000 0.000000
# 4 0.000000 0.000000 0.000000 0.036005 0.000000 0.000000
# 5 0.000000 0.000000 0.000000 0.000000 0.041003 0.000000
# 6 0.000000 0.000000 0.000000 0.000000 0.000000 0.063210
#
#
# Mechanical properties :
#
#
# Convention : Reuss Voigt Hill
#
# Bulk Modulus (GPa) = 46.11159 50.88796 48.49977
# Shear Modulus (GPa) = 23.50942 26.54772 25.02857
#
# Velocity S-wave (km/s) = 3.48437 3.70269 3.59519
# Velocity P-wave (km/s) = 6.32464 6.67531 6.50234
#
# Compressibility (1/GPa) = 0.02168652
#
# Stress axis : x y z
#
# Youngs Moduli (GPa) = 81.59680 45.67381 107.40910
#
# Poissons Ratio (x) = 0.28608 0.19940
# Poissons Ratio (y) = 0.51109 0.29717
# Poissons Ratio (z) = 0.15148 0.12637
#
# Static dielectric constant tensor:
#      x y z
#    x 3.691490 0.000000 0.000000 
#    y 0.000000 3.233560 0.000000 
#    z 0.000000 0.000000 3.906150 
# 
# 
# High freq. dielectric constant tensor:
#      x y z
#    x 1.747970 0.000000 0.000000 
#    y 0.000000 1.720430 0.000000 
#    z 0.000000 0.000000 1.777540 
# 
# From -- ./inp_files/9096.got.cif
#   From: 2010.03.12/outbox.cif.g09.slc.cpg/sg59_5_cif.got.tgz:9096.got - 2010.04.16 16:29:54.
