data_PCOD8244795
_publ_section_title
;
Structure prediction by ZEFSAII (Michael W. Deem and Ramdas Pophale) SiO2 
 PCOD8244795
Probable space group: P M M N
;
_chemical_formula_sum "Si O2"
_cell_formula_units_Z 48
_cell_length_a 9.081252
_cell_length_b 7.665839
_cell_length_c 34.405114
_cell_angle_alpha 90.000000
_cell_angle_beta 90.000000
_cell_angle_gamma 90.000000
_cell_volume 2395.126315
_symmetry_space_group_name_H-M "P M M N"
_symmetry_group_IT_number 59
_space_group.IT_coordinate_system_code '2'
_symmetry_cell_setting 'orthorhombic'
loop_
_space_group_symop_operation_xyz
x,y,z
1/2-x,1/2-y,z
1/2+x,-y,-z
-x,1/2+y,-z
-x,-y,-z
1/2+x,1/2+y,-z
1/2-x,y,z
x,1/2-y,z
loop_
_atom_site_type_symbol
_atom_site_label
_atom_site_fract_x
_atom_site_fract_y
_atom_site_fract_z
Si Si1 0.086431 0.951282 0.120543
Si Si2 0.422838 0.455547 0.803677
Si Si3 0.074431 0.250000 0.245415
Si Si4 0.079164 0.750000 0.673943
Si Si5 0.420458 0.050290 0.614008
Si Si6 0.088837 0.452880 0.037835
Si Si7 0.587421 0.454536 0.538373
O O1 0.250000 0.040272 0.122624
O O2 0.106057 0.750000 0.128192
O O3 0.978768 0.022054 0.154025
O O4 0.013406 0.982925 0.078015
O O5 0.250000 0.493647 0.800931
O O6 0.455623 0.250000 0.796184
O O7 0.508015 0.572450 0.772473
O O8 0.250000 0.250000 0.240240
O O9 0.031510 0.250000 0.290302
O O10 0.250000 0.750000 0.687431
O O11 0.043292 0.574709 0.650008
O O12 0.250000 0.040022 0.602872
O O13 0.465192 0.250000 0.624701
O O14 0.506277 0.974539 0.576703
O O15 0.250000 0.541734 0.034464
O O16 0.105667 0.250000 0.040384
O O17 0.000000 0.500000 0.000000
O O18 0.500000 0.500000 0.500000
O O19 0.750000 0.538974 0.536001
O O20 0.599104 0.250000 0.542401
#
# Coordination Sequence:
#
# PCOD8244795 Si02
#       7
#     8   8   4   4   8   8   8
#     4   9  18  34  56  82 113 149 189 237 297 357
#     4  10  22  41  65  93 125 159 199 250 307 365
#     4  12  26  42  64  94 128 162 204 252 302 370
#     4  10  22  40  62  88 118 156 202 248 300 364
#     4   9  19  37  59  83 115 154 196 244 298 353
#     4  10  21  35  52  77 110 149 194 239 285 340
#     4  10  21  35  53  80 114 152 195 244 297 351
#
# _framework density 20.040696000000001
#
# number of rings (size 3 to 8) (size 9 to 14) (size 15 to 20)
#    0.000    2.167    0.000    2.250    2.333    5.000 
#    0.000    3.333    0.000    0.000    0.000    0.000 
#    0.000    0.000    0.000    0.000    0.000    0.000 
#
# Total GULP energy -595015.590072 kJ/mol
# GULP energy per Si atom -12396.158127 kJ/mol
# Density = 1.999508 g / cm^3
# Si number density = 20.040696 Si / 1000 Ang^3
#
#
#
# Elastic Constant Matrix: (Units=GPa)
#
#
# Indices 1 2 3 4 5 6 
#
# 1 126.2814 43.9017 84.0484 0.0000 0.0000 0.0000
# 2 43.9017 74.8445 49.8162 0.0000 0.0000 0.0000
# 3 84.0484 49.8162 164.4835 0.0000 0.0000 0.0000
# 4 0.0000 0.0000 0.0000 32.8631 0.0000 0.0000
# 5 0.0000 0.0000 0.0000 0.0000 38.6748 0.0000
# 6 0.0000 0.0000 0.0000 0.0000 0.0000 21.7040
#
#
#
# Elastic Compliance Matrix: (Units=1/GPa)
#
#
# Indices 1 2 3 4 5 6 
#
# 1 0.012880 -0.003976 -0.005377 0.000000 0.000000 0.000000
# 2 -0.003976 0.017962 -0.003408 0.000000 0.000000 0.000000
# 3 -0.005377 -0.003408 0.009860 0.000000 0.000000 0.000000
# 4 0.000000 0.000000 0.000000 0.030429 0.000000 0.000000
# 5 0.000000 0.000000 0.000000 0.000000 0.025857 0.000000
# 6 0.000000 0.000000 0.000000 0.000000 0.000000 0.046075
#
#
# Mechanical properties :
#
#
# Convention : Reuss Voigt Hill
#
# Bulk Modulus (GPa) = 65.88383 80.12693 73.00538
# Shear Modulus (GPa) = 28.79447 31.17124 29.98286
#
# Velocity S-wave (km/s) = 3.79463 3.94813 3.87214
# Velocity P-wave (km/s) = 7.22117 7.80080 7.51658
#
# Compressibility (1/GPa) = 0.01517823
#
# Stress axis : x y z
#
# Youngs Moduli (GPa) = 77.63979 55.67370 101.42381
#
# Poissons Ratio (x) = 0.22136 0.54539
# Poissons Ratio (y) = 0.30869 0.34569
# Poissons Ratio (z) = 0.41749 0.18976
#
# Static dielectric constant tensor:
#      x y z
#    x 4.203630 0.000000 0.000000 
#    y 0.000000 3.600160 0.000000 
#    z 0.000000 0.000000 3.514780 
# 
# 
# High freq. dielectric constant tensor:
#      x y z
#    x 1.776660 0.000000 0.000000 
#    y 0.000000 1.785260 0.000000 
#    z 0.000000 0.000000 1.784580 
# 
# From -- ./inp_files/33068.got.cif
#   From: 2010.03.12/outbox.cif.g09.slc.cpg/sg59_17_cif.got.tgz:33068.got - 2010.04.16 16:29:54.
