data_PCOD8244549
_publ_section_title
;
Structure prediction by ZEFSAII (Michael W. Deem and Ramdas Pophale) SiO2 
 PCOD8244549
Probable space group: P M M N
;
_chemical_formula_sum "Si O2"
_cell_formula_units_Z 48
_cell_length_a 8.858728
_cell_length_b 30.707334
_cell_length_c 9.239606
_cell_angle_alpha 90.000000
_cell_angle_beta 90.000000
_cell_angle_gamma 90.000000
_cell_volume 2513.430797
_symmetry_space_group_name_H-M "P M M N"
_symmetry_group_IT_number 59
_space_group.IT_coordinate_system_code '2'
_symmetry_cell_setting 'orthorhombic'
loop_
_space_group_symop_operation_xyz
x,y,z
1/2-x,1/2-y,z
1/2+x,-y,-z
-x,1/2+y,-z
-x,-y,-z
1/2+x,1/2+y,-z
1/2-x,y,z
x,1/2-y,z
loop_
_atom_site_type_symbol
_atom_site_label
_atom_site_fract_x
_atom_site_fract_y
_atom_site_fract_z
Si Si1 0.428003 0.329750 0.832544
Si Si2 0.071368 0.001644 0.656386
Si Si3 0.426084 0.328473 0.166255
Si Si4 0.423876 0.750000 0.669581
Si Si5 0.075041 0.918111 0.836664
Si Si6 0.073850 0.579465 0.170932
Si Si7 0.574273 0.250000 0.670968
O O1 0.250000 0.334157 0.808403
O O2 0.508181 0.373989 0.783017
O O3 0.493922 0.292142 0.734033
O O4 0.466619 0.319178 0.999222
O O5 0.250000 0.004241 0.644475
O O6 0.012704 0.043569 0.738895
O O7 0.019517 0.958626 0.741960
O O8 0.000000 0.000000 0.500000
O O9 0.250000 0.325506 0.194460
O O10 0.504369 0.293106 0.265336
O O11 0.481664 0.376132 0.213515
O O12 0.250000 0.750000 0.711439
O O13 0.450697 0.750000 0.499405
O O14 0.250000 0.907489 0.812098
O O15 0.042011 0.929778 0.002857
O O16 0.250000 0.578071 0.208814
O O17 0.750000 0.250000 0.713601
#
# Coordination Sequence:
#
# PCOD8244549 Si02
#       7
#     8   8   8   4   8   8   4
#     4  10  21  38  60  86 113 144 184 231 279 331
#     4  11  23  38  56  82 116 152 188 229 277 332
#     4  10  21  37  60  87 112 141 184 232 278 329
#     4  11  24  39  56  80 114 151 186 225 274 330
#     4   9  20  38  60  84 111 145 186 230 278 330
#     4  10  20  37  61  86 111 144 186 232 280 331
#     4  11  24  39  56  82 114 151 190 229 276 332
#
# _framework density 19.097401999999999
#
# number of rings (size 3 to 8) (size 9 to 14) (size 15 to 20)
#    0.000    1.833    0.000    3.500    0.000    8.667 
#    0.000    1.667    0.000    0.000    0.000    0.000 
#    0.000    0.000    0.000    0.000    0.000    0.000 
#
# Total GULP energy -595455.988446 kJ/mol
# GULP energy per Si atom -12405.333093 kJ/mol
# Density = 1.905394 g / cm^3
# Si number density = 19.097402 Si / 1000 Ang^3
#
#
#
# Elastic Constant Matrix: (Units=GPa)
#
#
# Indices 1 2 3 4 5 6 
#
# 1 88.5554 68.7839 50.7532 0.0000 0.0000 0.0000
# 2 68.7839 162.6586 79.4262 0.0000 0.0000 0.0000
# 3 50.7532 79.4262 88.0542 0.0000 0.0000 0.0000
# 4 0.0000 0.0000 0.0000 -40.6539 0.0000 0.0000
# 5 0.0000 0.0000 0.0000 0.0000 33.0548 0.0000
# 6 0.0000 0.0000 0.0000 0.0000 0.0000 9.4941
#
#
#
# Elastic Compliance Matrix: (Units=1/GPa)
#
#
# Indices 1 2 3 4 5 6 
#
# 1 0.018696 -0.004725 -0.006514 0.000000 0.000000 0.000000
# 2 -0.004725 0.012182 -0.008264 0.000000 0.000000 0.000000
# 3 -0.006514 -0.008264 0.022566 0.000000 0.000000 0.000000
# 4 0.000000 0.000000 0.000000 -0.024598 0.000000 0.000000
# 5 0.000000 0.000000 0.000000 0.000000 0.030253 0.000000
# 6 0.000000 0.000000 0.000000 0.000000 0.000000 0.105328
#
#
# Mechanical properties :
#
#
# Convention : Reuss Voigt Hill
#
# Bulk Modulus (GPa) = 69.27001 81.91055 75.59028
# Shear Modulus (GPa) = 24.01022 9.73266 16.87144
#
# Velocity S-wave (km/s) = 3.54962 2.25995 2.97550
# Velocity P-wave (km/s) = 7.29043 7.05648 7.17441
#
# Compressibility (1/GPa) = 0.01443626
#
# Stress axis : x y z
#
# Youngs Moduli (GPa) = 53.48782 82.09162 44.31532
#
# Poissons Ratio (x) = 0.38791 0.28866
# Poissons Ratio (y) = 0.25275 0.36623
# Poissons Ratio (z) = 0.34840 0.67843
#
# Static dielectric constant tensor:
#      x y z
#    x 3.648770 0.000000 0.000000 
#    y 0.000000 3.477560 0.000000 
#    z 0.000000 0.000000 3.463750 
# 
# 
# High freq. dielectric constant tensor:
#      x y z
#    x 1.757410 0.000000 0.000000 
#    y 0.000000 1.758990 0.000000 
#    z 0.000000 0.000000 1.740060 
# 
# From -- ./inp_files/6381.got.cif
#   From: 2010.03.12/outbox.cif.g09.slc.cpg/sg59_4_cif.got.tgz:6381.got - 2010.04.16 16:29:54.
