data_PCOD8244161
_publ_section_title
;
Structure prediction by ZEFSAII (Michael W. Deem and Ramdas Pophale) SiO2 
 PCOD8244161
Probable space group: P M M N
;
_chemical_formula_sum "Si O2"
_cell_formula_units_Z 64
_cell_length_a 23.896778
_cell_length_b 14.582199
_cell_length_c 9.254661
_cell_angle_alpha 90.000000
_cell_angle_beta 90.000000
_cell_angle_gamma 90.000000
_cell_volume 3224.949251
_symmetry_space_group_name_H-M "P M M N"
_symmetry_group_IT_number 59
_space_group.IT_coordinate_system_code '2'
_symmetry_cell_setting 'orthorhombic'
loop_
_space_group_symop_operation_xyz
x,y,z
1/2-x,1/2-y,z
1/2+x,-y,-z
-x,1/2+y,-z
-x,-y,-z
1/2+x,1/2+y,-z
1/2-x,y,z
x,1/2-y,z
loop_
_atom_site_type_symbol
_atom_site_label
_atom_site_fract_x
_atom_site_fract_y
_atom_site_fract_z
Si Si1 0.106683 0.645783 0.704281
Si Si2 0.005608 0.982034 0.669752
Si Si3 0.314650 0.526138 0.513320
Si Si4 0.104890 0.886947 0.025667
Si Si5 0.814187 0.853274 0.655326
Si Si6 0.188579 0.652228 0.257612
Si Si7 0.905951 0.920600 0.866484
Si Si8 0.979478 0.852656 0.120689
O O1 0.110575 0.750000 0.639960
O O2 0.044431 0.606853 0.686743
O O3 0.148571 0.571733 0.636097
O O4 0.122566 0.649874 0.870789
O O5 0.031111 0.071118 0.754140
O O6 0.000000 0.000000 0.500000
O O7 0.946180 0.955960 0.738013
O O8 0.250000 0.543500 0.552652
O O9 0.328028 0.418996 0.482531
O O10 0.332282 0.573671 0.363681
O O11 0.144037 0.832166 0.133275
O O12 0.040308 0.866639 0.053870
O O13 0.117910 0.994266 0.042794
O O14 0.750000 0.871521 0.705529
O O15 0.821994 0.750000 0.598246
O O16 0.854280 0.867679 0.793394
O O17 0.250000 0.626722 0.195096
O O18 0.191806 0.750000 0.341133
O O19 0.937154 0.858755 0.985344
O O20 0.973851 0.750000 0.187282
#
# Coordination Sequence:
#
# PCOD8244161 Si02
#       8
#     8   8   8   8   8   8   8   8
#     4  12  24  39  60  87 123 162 203 248 301 364
#     4  11  24  40  58  90 126 161 205 253 303 366
#     4  10  22  41  61  87 123 161 199 249 303 357
#     4  11  21  38  60  88 124 160 202 250 300 361
#     4  10  21  39  67  96 118 153 206 257 306 362
#     4  10  20  35  58  87 118 157 204 246 291 353
#     4  11  20  40  65  89 124 161 204 253 309 366
#     4  11  22  40  63  88 122 165 203 248 309 367
#
# _framework density 19.845274
#
# number of rings (size 3 to 8) (size 9 to 14) (size 15 to 20)
#    0.000    1.250    3.750    3.375    1.750    2.250 
#    0.000    1.875    0.000    0.000    0.000    0.000 
#    0.000    0.000    0.000    0.000    0.000    0.000 
#
# Total GULP energy -793305.100348 kJ/mol
# GULP energy per Si atom -12395.392193 kJ/mol
# Density = 1.980010 g / cm^3
# Si number density = 19.845274 Si / 1000 Ang^3
#
#
#
# Elastic Constant Matrix: (Units=GPa)
#
#
# Indices 1 2 3 4 5 6 
#
# 1 82.0149 37.8803 37.0906 0.0000 0.0000 0.0000
# 2 37.8803 150.4543 39.7099 0.0000 0.0000 0.0000
# 3 37.0906 39.7099 98.2512 0.0000 0.0000 0.0000
# 4 0.0000 0.0000 0.0000 8.6176 0.0000 0.0000
# 5 0.0000 0.0000 0.0000 0.0000 -11.5758 0.0000
# 6 0.0000 0.0000 0.0000 0.0000 0.0000 34.3909
#
#
#
# Elastic Compliance Matrix: (Units=1/GPa)
#
#
# Indices 1 2 3 4 5 6 
#
# 1 0.015597 -0.002656 -0.004814 0.000000 0.000000 0.000000
# 2 -0.002656 0.007893 -0.002187 0.000000 0.000000 0.000000
# 3 -0.004814 -0.002187 0.012879 0.000000 0.000000 0.000000
# 4 0.000000 0.000000 0.000000 0.116041 0.000000 0.000000
# 5 0.000000 0.000000 0.000000 0.000000 -0.086387 0.000000
# 6 0.000000 0.000000 0.000000 0.000000 0.000000 0.029077
#
#
# Mechanical properties :
#
#
# Convention : Reuss Voigt Hill
#
# Bulk Modulus (GPa) = 58.63937 62.23134 60.43536
# Shear Modulus (GPa) = 41.63188 20.68920 31.16054
#
# Velocity S-wave (km/s) = 4.58517 3.23232 3.96684
# Velocity P-wave (km/s) = 7.59237 6.73475 7.17638
#
# Compressibility (1/GPa) = 0.01705339
#
# Stress axis : x y z
#
# Youngs Moduli (GPa) = 64.11476 126.70150 77.64298
#
# Poissons Ratio (x) = 0.33655 0.37381
# Poissons Ratio (y) = 0.17030 0.16982
# Poissons Ratio (z) = 0.30868 0.27712
#
# Static dielectric constant tensor:
#      x y z
#    x 3.404680 0.000000 0.000000 
#    y 0.000000 4.556660 0.000000 
#    z 0.000000 0.000000 3.488460 
# 
# 
# High freq. dielectric constant tensor:
#      x y z
#    x 1.773200 0.000000 0.000000 
#    y 0.000000 1.791940 0.000000 
#    z 0.000000 0.000000 1.752200 
# 
# From -- ./inp_files/12239.got.cif
#   From: 2010.03.12/outbox.cif.g09.slc.cpg/sg59_7_cif.got.tgz:12239.got - 2010.04.16 16:29:54.
