data_PCOD8244356
_publ_section_title
;
Structure prediction by ZEFSAII (Michael W. Deem and Ramdas Pophale) SiO2 
 PCOD8244356
Probable space group: P M M N
;
_chemical_formula_sum "Si O2"
_cell_formula_units_Z 40
_cell_length_a 7.749561
_cell_length_b 14.884603
_cell_length_c 17.285553
_cell_angle_alpha 90.000000
_cell_angle_beta 90.000000
_cell_angle_gamma 90.000000
_cell_volume 1993.873654
_symmetry_space_group_name_H-M "P M M N"
_symmetry_group_IT_number 59
_space_group.IT_coordinate_system_code '2'
_symmetry_cell_setting 'orthorhombic'
loop_
_space_group_symop_operation_xyz
x,y,z
1/2-x,1/2-y,z
1/2+x,-y,-z
-x,1/2+y,-z
-x,-y,-z
1/2+x,1/2+y,-z
1/2-x,y,z
x,1/2-y,z
loop_
_atom_site_type_symbol
_atom_site_label
_atom_site_fract_x
_atom_site_fract_y
_atom_site_fract_z
Si Si1 0.050354 0.006468 0.880034
Si Si2 0.444975 0.468317 0.283900
Si Si3 0.954311 0.353197 0.003292
Si Si4 0.446871 0.068725 0.566767
Si Si5 0.750000 0.355269 0.327336
Si Si6 0.250000 0.846402 0.503995
O O1 0.250000 0.994731 0.860358
O O2 0.945004 0.013773 0.800409
O O3 0.982394 0.918168 0.926848
O O4 0.022034 0.100066 0.925126
O O5 0.250000 0.438036 0.305104
O O6 0.516612 0.538013 0.346386
O O7 0.575275 0.384011 0.283370
O O8 0.750000 0.351140 0.000898
O O9 0.025392 0.250000 0.011318
O O10 0.250000 0.101232 0.556859
O O11 0.580428 0.148419 0.549242
O O12 0.500000 0.000000 0.500000
O O13 0.750000 0.250000 0.325926
O O14 0.750000 0.404168 0.414406
O O15 0.250000 0.750000 0.543066
#
# Coordination Sequence:
#
# PCOD8244356 Si02
#       6
#     8   8   8   8   4   4
#     4  10  20  36  58  90 121 157 201 250 302 360
#     4  12  22  38  63  90 119 164 205 247 299 363
#     4   9  19  37  60  85 118 159 198 245 305 364
#     4  12  20  37  64  88 116 162 208 243 296 363
#     4  11  24  40  58  90 129 156 199 259 304 353
#     4  11  24  40  60  92 123 154 203 259 304 355
#
# _framework density 20.061453
#
# number of rings (size 3 to 8) (size 9 to 14) (size 15 to 20)
#    0.000    1.200    6.000    0.600    0.000    2.800 
#    0.000    3.000    0.000    2.400    0.000    0.000 
#    0.000    0.000    0.000    0.000    0.000    0.000 
#
# Total GULP energy -495703.550351 kJ/mol
# GULP energy per Si atom -12392.588759 kJ/mol
# Density = 2.001579 g / cm^3
# Si number density = 20.061453 Si / 1000 Ang^3
#
#
#
# Elastic Constant Matrix: (Units=GPa)
#
#
# Indices 1 2 3 4 5 6 
#
# 1 148.9393 22.0598 29.8718 0.0000 0.0000 0.0000
# 2 22.0598 89.5341 32.9092 0.0000 0.0000 0.0000
# 3 29.8718 32.9092 130.5263 0.0000 0.0000 0.0000
# 4 0.0000 0.0000 0.0000 15.1631 0.0000 0.0000
# 5 0.0000 0.0000 0.0000 0.0000 26.1152 0.0000
# 6 0.0000 0.0000 0.0000 0.0000 0.0000 21.6940
#
#
#
# Elastic Compliance Matrix: (Units=1/GPa)
#
#
# Indices 1 2 3 4 5 6 
#
# 1 0.007168 -0.001282 -0.001317 0.000000 0.000000 0.000000
# 2 -0.001282 0.012539 -0.002868 0.000000 0.000000 0.000000
# 3 -0.001317 -0.002868 0.008686 0.000000 0.000000 0.000000
# 4 0.000000 0.000000 0.000000 0.065949 0.000000 0.000000
# 5 0.000000 0.000000 0.000000 0.000000 0.038292 0.000000
# 6 0.000000 0.000000 0.000000 0.000000 0.000000 0.046096
#
#
# Mechanical properties :
#
#
# Convention : Reuss Voigt Hill
#
# Bulk Modulus (GPa) = 57.27861 59.85347 58.56604
# Shear Modulus (GPa) = 25.57753 31.53840 28.55796
#
# Velocity S-wave (km/s) = 3.57453 3.96926 3.77705
# Velocity P-wave (km/s) = 6.75647 7.13488 6.94825
#
# Compressibility (1/GPa) = 0.01745852
#
# Stress axis : x y z
#
# Youngs Moduli (GPa) = 139.50475 79.75142 115.12959
#
# Poissons Ratio (x) = 0.10224 0.15166
# Poissons Ratio (y) = 0.17884 0.33019
# Poissons Ratio (z) = 0.18377 0.22873
#
# Static dielectric constant tensor:
#      x y z
#    x 28.159770 0.000000 0.000000 
#    y 0.000000 3.832670 0.000000 
#    z 0.000000 0.000000 3.816820 
# 
# 
# High freq. dielectric constant tensor:
#      x y z
#    x 1.794990 0.000000 0.000000 
#    y 0.000000 1.755370 0.000000 
#    z 0.000000 0.000000 1.789470 
# 
# From -- ./inp_files/19989.got.cif
#   From: 2010.03.12/outbox.cif.g09.slc.cpg/sg59_10_cif.got.tgz:19989.got - 2010.04.16 16:29:54.
