data_PCOD8244612
_publ_section_title
;
Structure prediction by ZEFSAII (Michael W. Deem and Ramdas Pophale) SiO2 
 PCOD8244612
Probable space group: P M M N
;
_chemical_formula_sum "Si O2"
_cell_formula_units_Z 64
_cell_length_a 28.199154
_cell_length_b 8.819760
_cell_length_c 13.036912
_cell_angle_alpha 90.000000
_cell_angle_beta 90.000000
_cell_angle_gamma 90.000000
_cell_volume 3242.407391
_symmetry_space_group_name_H-M "P M M N"
_symmetry_group_IT_number 59
_space_group.IT_coordinate_system_code '2'
_symmetry_cell_setting 'orthorhombic'
loop_
_space_group_symop_operation_xyz
x,y,z
1/2-x,1/2-y,z
1/2+x,-y,-z
-x,1/2+y,-z
-x,-y,-z
1/2+x,1/2+y,-z
1/2-x,y,z
x,1/2-y,z
loop_
_atom_site_type_symbol
_atom_site_label
_atom_site_fract_x
_atom_site_fract_y
_atom_site_fract_z
Si Si1 0.467402 0.923885 0.084623
Si Si2 0.866131 0.929914 0.922271
Si Si3 0.803670 0.930516 0.731374
Si Si4 0.948845 0.576962 0.225715
Si Si5 0.546868 0.571734 0.456306
Si Si6 0.194432 0.425912 0.681826
Si Si7 0.352366 0.429617 0.473474
Si Si8 0.861179 0.428243 0.133836
O O1 0.456499 0.750000 0.054313
O O2 0.496552 0.933828 0.190893
O O3 0.418983 0.013295 0.100051
O O4 0.500000 0.000000 0.000000
O O5 0.866912 0.750000 0.930336
O O6 0.832587 0.987305 0.830213
O O7 0.844732 0.997439 0.026932
O O8 0.750000 0.992439 0.737908
O O9 0.803871 0.750000 0.726831
O O10 0.828273 0.997966 0.628632
O O11 0.930374 0.750000 0.218213
O O12 0.944595 0.514105 0.340750
O O13 0.915700 0.475071 0.153213
O O14 0.500000 0.500000 0.500000
O O15 0.539608 0.750000 0.455922
O O16 0.592272 0.522751 0.523991
O O17 0.250000 0.452730 0.681385
O O18 0.180880 0.250000 0.694736
O O19 0.173769 0.491444 0.575225
O O20 0.172578 0.516664 0.775824
O O21 0.347085 0.250000 0.472269
O O22 0.857301 0.250000 0.123201
#
# Coordination Sequence:
#
# PCOD8244612 Si02
#       8
#     8   8   8   8   8   8   8   8
#     4  11  22  36  58  86 116 154 196 242 291 349
#     4  11  23  38  59  86 121 160 203 254 301 359
#     4   9  19  36  59  88 118 152 200 255 303 349
#     4  10  21  39  59  80 116 158 198 240 289 357
#     4  10  21  36  56  85 122 158 191 235 289 352
#     4  10  20  37  64  91 116 150 192 240 299 364
#     4   9  17  34  60  89 119 150 191 243 293 347
#     4  12  24  38  59  86 119 156 196 249 303 358
#
# _framework density 19.738420999999999
#
# number of rings (size 3 to 8) (size 9 to 14) (size 15 to 20)
#    0.000    1.750    2.500    2.250    1.750    3.250 
#    0.000    1.250    0.000    2.625    0.000    0.000 
#    0.000    0.000    0.000    0.000    0.000    0.000 
#
# Total GULP energy -793720.481117 kJ/mol
# GULP energy per Si atom -12401.882517 kJ/mol
# Density = 1.969350 g / cm^3
# Si number density = 19.738421 Si / 1000 Ang^3
#
#
#
# Elastic Constant Matrix: (Units=GPa)
#
#
# Indices 1 2 3 4 5 6 
#
# 1 143.1229 36.8948 84.2961 0.0000 0.0000 0.0000
# 2 36.8948 71.6035 45.6228 0.0000 0.0000 0.0000
# 3 84.2961 45.6228 172.2491 0.0000 0.0000 0.0000
# 4 0.0000 0.0000 0.0000 16.5833 0.0000 0.0000
# 5 0.0000 0.0000 0.0000 0.0000 36.2265 0.0000
# 6 0.0000 0.0000 0.0000 0.0000 0.0000 27.3451
#
#
#
# Elastic Compliance Matrix: (Units=1/GPa)
#
#
# Indices 1 2 3 4 5 6 
#
# 1 0.010173 -0.002490 -0.004319 0.000000 0.000000 0.000000
# 2 -0.002490 0.017411 -0.003393 0.000000 0.000000 0.000000
# 3 -0.004319 -0.003393 0.008818 0.000000 0.000000 0.000000
# 4 0.000000 0.000000 0.000000 0.060302 0.000000 0.000000
# 5 0.000000 0.000000 0.000000 0.000000 0.027604 0.000000
# 6 0.000000 0.000000 0.000000 0.000000 0.000000 0.036570
#
#
# Mechanical properties :
#
#
# Convention : Reuss Voigt Hill
#
# Bulk Modulus (GPa) = 62.50896 80.06701 71.28799
# Shear Modulus (GPa) = 26.79356 30.70842 28.75099
#
# Velocity S-wave (km/s) = 3.68833 3.94860 3.82068
# Velocity P-wave (km/s) = 7.06228 7.83841 7.46045
#
# Compressibility (1/GPa) = 0.01599771
#
# Stress axis : x y z
#
# Youngs Moduli (GPa) = 98.30409 57.43631 113.40694
#
# Poissons Ratio (x) = 0.14300 0.48978
# Poissons Ratio (y) = 0.24475 0.38479
# Poissons Ratio (z) = 0.42456 0.19488
#
# Static dielectric constant tensor:
#      x y z
#    x 3.645160 0.000000 0.000000 
#    y 0.000000 3.308870 0.000000 
#    z 0.000000 0.000000 3.859700 
# 
# 
# High freq. dielectric constant tensor:
#      x y z
#    x 1.777270 0.000000 0.000000 
#    y 0.000000 1.737280 0.000000 
#    z 0.000000 0.000000 1.782810 
# 
# From -- ./inp_files/19259.got.cif
#   From: 2010.03.12/outbox.cif.g09.slc.cpg/sg59_10_cif.got.tgz:19259.got - 2010.04.16 16:29:54.
