data_PCOD8244036
_publ_section_title
;
Structure prediction by ZEFSAII (Michael W. Deem and Ramdas Pophale) SiO2 
 PCOD8244036
Probable space group: P M M N
;
_chemical_formula_sum "Si O2"
_cell_formula_units_Z 64
_cell_length_a 8.740330
_cell_length_b 21.655872
_cell_length_c 17.682384
_cell_angle_alpha 90.000000
_cell_angle_beta 90.000000
_cell_angle_gamma 90.000000
_cell_volume 3346.912232
_symmetry_space_group_name_H-M "P M M N"
_symmetry_group_IT_number 59
_space_group.IT_coordinate_system_code '2'
_symmetry_cell_setting 'orthorhombic'
loop_
_space_group_symop_operation_xyz
x,y,z
1/2-x,1/2-y,z
1/2+x,-y,-z
-x,1/2+y,-z
-x,-y,-z
1/2+x,1/2+y,-z
1/2-x,y,z
x,1/2-y,z
loop_
_atom_site_type_symbol
_atom_site_label
_atom_site_fract_x
_atom_site_fract_y
_atom_site_fract_z
Si Si1 0.577021 0.893983 0.746565
Si Si2 0.431723 0.453497 0.934509
Si Si3 0.573937 0.516778 0.235397
Si Si4 0.576921 0.465316 0.614598
Si Si5 0.077231 0.820107 0.624013
Si Si6 0.421505 0.411094 0.472100
Si Si7 0.581963 0.816658 0.889815
Si Si8 0.926539 0.320122 0.960271
O O1 0.750000 0.918770 0.731880
O O2 0.540029 0.839020 0.689516
O O3 0.560697 0.870544 0.831204
O O4 0.450085 0.946429 0.739740
O O5 0.250000 0.457729 0.943759
O O6 0.485979 0.474776 0.850634
O O7 0.480376 0.380937 0.933857
O O8 0.500000 0.500000 0.000000
O O9 0.750000 0.536161 0.241535
O O10 0.478724 0.553199 0.300439
O O11 0.750000 0.441203 0.604611
O O12 0.464552 0.434563 0.554640
O O13 0.568528 0.538427 0.595688
O O14 0.250000 0.832789 0.650616
O O15 0.049158 0.750000 0.603174
O O16 0.039770 0.857334 0.547924
O O17 0.250000 0.385211 0.476650
O O18 0.750000 0.823610 0.929354
O O19 0.572615 0.750000 0.848681
O O20 0.446165 0.820975 0.949831
O O21 0.750000 0.329590 0.938681
O O22 0.979711 0.250000 0.931279
#
# Coordination Sequence:
#
# PCOD8244036 Si02
#       8
#     8   8   8   8   8   8   8   8
#     4  11  21  33  50  75 107 146 188 229 277 334
#     4  11  24  40  60  88 120 158 199 247 305 358
#     4  11  23  37  55  81 114 147 186 236 289 343
#     4  10  20  35  58  85 110 142 181 228 283 334
#     4  11  23  36  52  77 112 153 191 229 274 328
#     4  10  20  35  57  83 111 144 183 227 276 328
#     4   9  18  32  50  72 101 141 187 233 279 334
#     4  10  21  37  58  83 111 147 193 243 297 358
#
# _framework density 19.122102999999999
#
# number of rings (size 3 to 8) (size 9 to 14) (size 15 to 20)
#    0.000    1.625    1.250    3.750    0.000    8.250 
#    0.000    1.250    0.000    0.750    0.000    3.500 
#    0.000    0.000    0.000    0.000    0.000    0.000 
#
# Total GULP energy -792863.546129 kJ/mol
# GULP energy per Si atom -12388.492908 kJ/mol
# Density = 1.907858 g / cm^3
# Si number density = 19.122103 Si / 1000 Ang^3
#
#
#
# Elastic Constant Matrix: (Units=GPa)
#
#
# Indices 1 2 3 4 5 6 
#
# 1 67.4379 30.6678 29.7340 0.0000 0.0000 0.0000
# 2 30.6678 86.5881 27.9768 0.0000 0.0000 0.0000
# 3 29.7340 27.9768 106.9009 0.0000 0.0000 0.0000
# 4 0.0000 0.0000 0.0000 20.9144 0.0000 0.0000
# 5 0.0000 0.0000 0.0000 0.0000 29.1919 0.0000
# 6 0.0000 0.0000 0.0000 0.0000 0.0000 28.8392
#
#
#
# Elastic Compliance Matrix: (Units=1/GPa)
#
#
# Indices 1 2 3 4 5 6 
#
# 1 0.019026 -0.005493 -0.003854 0.000000 0.000000 0.000000
# 2 -0.005493 0.014202 -0.002189 0.000000 0.000000 0.000000
# 3 -0.003854 -0.002189 0.010999 0.000000 0.000000 0.000000
# 4 0.000000 0.000000 0.000000 0.047814 0.000000 0.000000
# 5 0.000000 0.000000 0.000000 0.000000 0.034256 0.000000
# 6 0.000000 0.000000 0.000000 0.000000 0.000000 0.034675
#
#
# Mechanical properties :
#
#
# Convention : Reuss Voigt Hill
#
# Bulk Modulus (GPa) = 47.27182 48.63156 47.95169
# Shear Modulus (GPa) = 26.16484 27.29234 26.72859
#
# Velocity S-wave (km/s) = 3.70307 3.78202 3.74275
# Velocity P-wave (km/s) = 6.56189 6.67524 6.61881
#
# Compressibility (1/GPa) = 0.02115425
#
# Stress axis : x y z
#
# Youngs Moduli (GPa) = 52.55974 70.41392 90.91445
#
# Poissons Ratio (x) = 0.38680 0.35042
# Poissons Ratio (y) = 0.28872 0.19899
# Poissons Ratio (z) = 0.20258 0.15412
#
# Static dielectric constant tensor:
#      x y z
#    x 3.557060 0.000000 0.000000 
#    y 0.000000 3.557300 0.000000 
#    z 0.000000 0.000000 3.468840 
# 
# 
# High freq. dielectric constant tensor:
#      x y z
#    x 1.752930 0.000000 0.000000 
#    y 0.000000 1.726980 0.000000 
#    z 0.000000 0.000000 1.733270 
# 
# From -- ./inp_files/26177.got.cif
#   From: 2010.03.12/outbox.cif.g09.slc.cpg/sg59_14_cif.got.tgz:26177.got - 2010.04.16 16:29:54.
