data_PCOD8244729
_publ_section_title
;
Structure prediction by ZEFSAII (Michael W. Deem and Ramdas Pophale) SiO2 
 PCOD8244729
Probable space group: P M M N
;
_chemical_formula_sum "Si O2"
_cell_formula_units_Z 40
_cell_length_a 18.436893
_cell_length_b 9.381029
_cell_length_c 13.043470
_cell_angle_alpha 90.000000
_cell_angle_beta 90.000000
_cell_angle_gamma 90.000000
_cell_volume 2255.959805
_symmetry_space_group_name_H-M "P M M N"
_symmetry_group_IT_number 59
_space_group.IT_coordinate_system_code '2'
_symmetry_cell_setting 'orthorhombic'
loop_
_space_group_symop_operation_xyz
x,y,z
1/2-x,1/2-y,z
1/2+x,-y,-z
-x,1/2+y,-z
-x,-y,-z
1/2+x,1/2+y,-z
1/2-x,y,z
x,1/2-y,z
loop_
_atom_site_type_symbol
_atom_site_label
_atom_site_fract_x
_atom_site_fract_y
_atom_site_fract_z
Si Si1 0.921504 0.416076 0.685876
Si Si2 0.931734 0.911708 0.097396
Si Si3 0.832994 0.417387 0.490756
Si Si4 0.073790 0.086586 0.122934
Si Si5 0.091307 0.410823 0.681540
O O1 0.906530 0.250000 0.701514
O O2 0.879611 0.474971 0.586530
O O3 0.889040 0.495316 0.786562
O O4 0.006322 0.451101 0.672725
O O5 0.965845 0.750000 0.099853
O O6 0.882465 0.928057 0.199639
O O7 0.887346 0.930192 0.989714
O O8 0.992466 0.032498 0.104306
O O9 0.750000 0.460312 0.509576
O O10 0.843074 0.250000 0.478259
O O11 0.860711 0.485954 0.386262
O O12 0.072796 0.250000 0.158886
O O13 0.103431 0.250000 0.642590
#
# Coordination Sequence:
#
# PCOD8244729 Si02
#       5
#     8   8   8   8   8
#     4   9  18  32  48  68  96 125 152 187 232 276
#     4   8  15  27  42  66  99 125 146 181 230 275
#     4  10  21  35  49  66  91 123 157 194 235 276
#     4   9  15  24  43  70  96 121 151 186 223 268
#     4   9  17  30  49  71  94 121 153 188 227 273
#
# _framework density 17.730812
#
# number of rings (size 3 to 8) (size 9 to 14) (size 15 to 20)
#    0.000    3.000    0.000    2.400    0.000    5.200 
#    0.000    0.000    0.000    1.200    0.000    5.600 
#    0.000    0.000    0.000    0.000    0.000    0.000 
#
# Total GULP energy -495584.126390 kJ/mol
# GULP energy per Si atom -12389.603160 kJ/mol
# Density = 1.769046 g / cm^3
# Si number density = 17.730812 Si / 1000 Ang^3
#
#
#
# Elastic Constant Matrix: (Units=GPa)
#
#
# Indices 1 2 3 4 5 6 
#
# 1 36.2858 22.3778 29.6885 0.0000 0.0000 0.0000
# 2 22.3778 56.2392 51.7021 0.0000 0.0000 0.0000
# 3 29.6885 51.7021 144.4466 0.0000 0.0000 0.0000
# 4 0.0000 0.0000 0.0000 35.2734 0.0000 0.0000
# 5 0.0000 0.0000 0.0000 0.0000 2.7835 0.0000
# 6 0.0000 0.0000 0.0000 0.0000 0.0000 15.5826
#
#
#
# Elastic Compliance Matrix: (Units=1/GPa)
#
#
# Indices 1 2 3 4 5 6 
#
# 1 0.037702 -0.011741 -0.003546 0.000000 0.000000 0.000000
# 2 -0.011741 0.030158 -0.008381 0.000000 0.000000 0.000000
# 3 -0.003546 -0.008381 0.010652 0.000000 0.000000 0.000000
# 4 0.000000 0.000000 0.000000 0.028350 0.000000 0.000000
# 5 0.000000 0.000000 0.000000 0.000000 0.359255 0.000000
# 6 0.000000 0.000000 0.000000 0.000000 0.000000 0.064174
#
#
# Mechanical properties :
#
#
# Convention : Reuss Voigt Hill
#
# Bulk Modulus (GPa) = 32.07848 49.38984 40.73416
# Shear Modulus (GPa) = 8.50310 19.60810 14.05560
#
# Velocity S-wave (km/s) = 2.19228 3.32908 2.81859
# Velocity P-wave (km/s) = 4.95372 6.53398 5.79794
#
# Compressibility (1/GPa) = 0.03117354
#
# Stress axis : x y z
#
# Youngs Moduli (GPa) = 26.52409 33.15823 93.88061
#
# Poissons Ratio (x) = 0.38933 0.33293
# Poissons Ratio (y) = 0.31143 0.78685
# Poissons Ratio (z) = 0.09406 0.27791
#
# Static dielectric constant tensor:
#      x y z
#    x 2.781340 0.000000 0.000000 
#    y 0.000000 3.281100 0.000000 
#    z 0.000000 0.000000 3.878870 
# 
# 
# High freq. dielectric constant tensor:
#      x y z
#    x 1.613700 0.000000 0.000000 
#    y 0.000000 1.687620 0.000000 
#    z 0.000000 0.000000 1.715180 
# 
# From -- ./inp_files/14062.got.cif
#   From: 2010.03.12/outbox.cif.g09.slc.cpg/sg59_8_cif.got.tgz:14062.got - 2010.04.16 16:29:54.
