data_PCOD8244953
_publ_section_title
;
Structure prediction by ZEFSAII (Michael W. Deem and Ramdas Pophale) SiO2 
 PCOD8244953
Probable space group: P M M N
;
_chemical_formula_sum "Si O2"
_cell_formula_units_Z 48
_cell_length_a 8.948129
_cell_length_b 9.652720
_cell_length_c 30.332217
_cell_angle_alpha 90.000000
_cell_angle_beta 90.000000
_cell_angle_gamma 90.000000
_cell_volume 2619.908352
_symmetry_space_group_name_H-M "P M M N"
_symmetry_group_IT_number 59
_space_group.IT_coordinate_system_code '2'
_symmetry_cell_setting 'orthorhombic'
loop_
_space_group_symop_operation_xyz
x,y,z
1/2-x,1/2-y,z
1/2+x,-y,-z
-x,1/2+y,-z
-x,-y,-z
1/2+x,1/2+y,-z
1/2-x,y,z
x,1/2-y,z
loop_
_atom_site_type_symbol
_atom_site_label
_atom_site_fract_x
_atom_site_fract_y
_atom_site_fract_z
Si Si1 0.577249 0.090960 0.706989
Si Si2 0.075513 0.409661 0.128400
Si Si3 0.076798 0.411575 0.797389
Si Si4 0.425028 0.904467 0.535629
Si Si5 0.075301 0.910434 0.962464
Si Si6 0.921224 0.087328 0.364847
O O1 0.750000 0.065962 0.718578
O O2 0.546627 0.250000 0.694125
O O3 0.479219 0.047247 0.748951
O O4 0.532116 0.996534 0.666119
O O5 0.250000 0.435507 0.121324
O O6 0.040470 0.250000 0.139527
O O7 0.017964 0.502312 0.168028
O O8 0.991818 0.456601 0.084206
O O9 0.250000 0.451315 0.801441
O O10 0.048854 0.250000 0.806599
O O11 0.250000 0.905572 0.527518
O O12 0.488664 0.750000 0.529305
O O13 0.460752 0.955764 0.585103
O O14 0.500000 0.000000 0.500000
O O15 0.250000 0.941512 0.961673
O O16 0.040169 0.750000 0.971923
O O17 0.000000 0.000000 0.000000
O O18 0.750000 0.048413 0.353943
O O19 0.947215 0.250000 0.357809
#
# Coordination Sequence:
#
# PCOD8244953 Si02
#       6
#     8   8   8   8   8   8
#     4  10  21  36  54  78 107 137 171 214 262 310
#     4  10  21  37  57  81 109 141 177 218 264 313
#     4  10  21  37  57  80 106 139 178 217 259 310
#     4   9  19  35  53  75 104 136 172 214 258 307
#     4  10  21  37  57  81 109 142 180 221 265 313
#     4   9  19  36  55  75 102 137 175 214 257 307
#
# _framework density 18.321251
#
# number of rings (size 3 to 8) (size 9 to 14) (size 15 to 20)
#    0.000    2.333    0.000    3.000    0.000    7.333 
#    0.000    5.000    0.000    0.000    0.000    0.000 
#    0.000    0.000    0.000    0.000    0.000    0.000 
#
# Total GULP energy -595345.745247 kJ/mol
# GULP energy per Si atom -12403.036359 kJ/mol
# Density = 1.827955 g / cm^3
# Si number density = 18.321251 Si / 1000 Ang^3
#
#
#
# Elastic Constant Matrix: (Units=GPa)
#
#
# Indices 1 2 3 4 5 6 
#
# 1 74.1689 38.2311 47.5497 0.0000 0.0000 0.0000
# 2 38.2311 64.4151 62.5701 0.0000 0.0000 0.0000
# 3 47.5497 62.5701 121.2465 0.0000 0.0000 0.0000
# 4 0.0000 0.0000 0.0000 40.2828 0.0000 0.0000
# 5 0.0000 0.0000 0.0000 0.0000 42.2716 0.0000
# 6 0.0000 0.0000 0.0000 0.0000 0.0000 34.2100
#
#
#
# Elastic Compliance Matrix: (Units=1/GPa)
#
#
# Indices 1 2 3 4 5 6 
#
# 1 0.020127 -0.008579 -0.003466 0.000000 0.000000 0.000000
# 2 -0.008579 0.034784 -0.014586 0.000000 0.000000 0.000000
# 3 -0.003466 -0.014586 0.017134 0.000000 0.000000 0.000000
# 4 0.000000 0.000000 0.000000 0.024824 0.000000 0.000000
# 5 0.000000 0.000000 0.000000 0.000000 0.023657 0.000000
# 6 0.000000 0.000000 0.000000 0.000000 0.000000 0.029231
#
#
# Mechanical properties :
#
#
# Convention : Reuss Voigt Hill
#
# Bulk Modulus (GPa) = 53.23887 61.83692 57.53790
# Shear Modulus (GPa) = 23.89126 30.78487 27.33807
#
# Velocity S-wave (km/s) = 3.61504 4.10357 3.86703
# Velocity P-wave (km/s) = 6.82248 7.50181 7.17020
#
# Compressibility (1/GPa) = 0.01878327
#
# Stress axis : x y z
#
# Youngs Moduli (GPa) = 49.68492 28.74845 58.36205
#
# Poissons Ratio (x) = 0.24662 0.20229
# Poissons Ratio (y) = 0.42623 0.85130
# Poissons Ratio (z) = 0.17221 0.41934
#
# Static dielectric constant tensor:
#      x y z
#    x 3.389600 0.000000 0.000000 
#    y 0.000000 3.112600 0.000000 
#    z 0.000000 0.000000 3.225400 
# 
# 
# High freq. dielectric constant tensor:
#      x y z
#    x 1.719870 0.000000 0.000000 
#    y 0.000000 1.706710 0.000000 
#    z 0.000000 0.000000 1.718710 
# 
# From -- ./inp_files/31869.got.cif
#   From: 2010.03.12/outbox.cif.g09.slc.cpg/sg59_16_cif.got.tgz:31869.got - 2010.04.16 16:29:54.
