data_PCOD8244513
_publ_section_title
;
Structure prediction by ZEFSAII (Michael W. Deem and Ramdas Pophale) SiO2 
 PCOD8244513
Probable space group: P M M N
;
_chemical_formula_sum "Si O2"
_cell_formula_units_Z 48
_cell_length_a 30.142756
_cell_length_b 8.640521
_cell_length_c 9.536282
_cell_angle_alpha 90.000000
_cell_angle_beta 90.000000
_cell_angle_gamma 90.000000
_cell_volume 2483.716219
_symmetry_space_group_name_H-M "P M M N"
_symmetry_group_IT_number 59
_space_group.IT_coordinate_system_code '2'
_symmetry_cell_setting 'orthorhombic'
loop_
_space_group_symop_operation_xyz
x,y,z
1/2-x,1/2-y,z
1/2+x,-y,-z
-x,1/2+y,-z
-x,-y,-z
1/2+x,1/2+y,-z
1/2-x,y,z
x,1/2-y,z
loop_
_atom_site_type_symbol
_atom_site_label
_atom_site_fract_x
_atom_site_fract_y
_atom_site_fract_z
Si Si1 0.250000 0.066997 0.152671
Si Si2 0.927023 0.431334 0.357899
Si Si3 0.497838 0.066992 0.845518
Si Si4 0.827465 0.932414 0.654053
Si Si5 0.825481 0.070426 0.361422
Si Si6 0.427529 0.066855 0.345014
Si Si7 0.250000 0.931663 0.848293
O O1 0.250000 0.250000 0.165988
O O2 0.293986 0.999718 0.229138
O O3 0.250000 0.020800 0.992767
O O4 0.935372 0.250000 0.381726
O O5 0.876012 0.467922 0.320094
O O6 0.941920 0.521469 0.497755
O O7 0.955522 0.491758 0.228932
O O8 0.492107 0.250000 0.850403
O O9 0.542649 0.022966 0.765527
O O10 0.500000 0.000000 0.000000
O O11 0.827668 0.750000 0.658057
O O12 0.877348 0.992211 0.682988
O O13 0.810758 0.982899 0.501464
O O14 0.818595 0.250000 0.392274
O O15 0.793856 0.015882 0.235548
O O16 0.433325 0.250000 0.325354
O O17 0.250000 0.750000 0.878263
#
# Coordination Sequence:
#
# PCOD8244513 Si02
#       7
#     4   8   8   8   8   8   4
#     4  10  21  36  52  78 112 146 181 220 266 320
#     4  10  20  37  59  84 111 143 182 226 271 322
#     4  12  25  40  57  80 110 146 182 224 275 328
#     4   9  19  35  57  82 109 140 180 224 267 315
#     4   9  19  35  57  82 109 140 180 224 267 315
#     4  10  20  37  59  84 111 143 182 226 271 322
#     4  10  21  36  52  78 112 146 181 220 266 320
#
# _framework density 19.325879
#
# number of rings (size 3 to 8) (size 9 to 14) (size 15 to 20)
#    0.000    2.000    0.000    3.500    0.000    4.000 
#    0.000    3.333    0.000    0.000    0.000    0.000 
#    0.000    0.000    0.000    0.000    0.000    0.000 
#
# Total GULP energy -595336.388460 kJ/mol
# GULP energy per Si atom -12402.841426 kJ/mol
# Density = 1.928189 g / cm^3
# Si number density = 19.325879 Si / 1000 Ang^3
#
#
#
# Elastic Constant Matrix: (Units=GPa)
#
#
# Indices 1 2 3 4 5 6 
#
# 1 120.9440 18.6515 72.9556 0.0000 0.0000 0.0000
# 2 18.6515 29.6066 2.3796 0.0000 0.0000 0.0000
# 3 72.9556 2.3796 120.9312 0.0000 0.0000 0.0000
# 4 0.0000 0.0000 0.0000 36.6561 0.0000 0.0000
# 5 0.0000 0.0000 0.0000 0.0000 20.3822 0.0000
# 6 0.0000 0.0000 0.0000 0.0000 0.0000 19.1812
#
#
#
# Elastic Compliance Matrix: (Units=1/GPa)
#
#
# Indices 1 2 3 4 5 6 
#
# 1 0.014947 -0.008705 -0.008846 0.000000 0.000000 0.000000
# 2 -0.008705 0.038900 0.004486 0.000000 0.000000 0.000000
# 3 -0.008846 0.004486 0.013517 0.000000 0.000000 0.000000
# 4 0.000000 0.000000 0.000000 0.027281 0.000000 0.000000
# 5 0.000000 0.000000 0.000000 0.000000 0.049062 0.000000
# 6 0.000000 0.000000 0.000000 0.000000 0.000000 0.052134
#
#
# Mechanical properties :
#
#
# Convention : Reuss Voigt Hill
#
# Bulk Modulus (GPa) = 24.25159 51.05056 37.65108
# Shear Modulus (GPa) = 21.21205 27.07692 24.14448
#
# Velocity S-wave (km/s) = 3.31660 3.74715 3.53843
# Velocity P-wave (km/s) = 5.21943 6.72268 6.01818
#
# Compressibility (1/GPa) = 0.04123440
#
# Stress axis : x y z
#
# Youngs Moduli (GPa) = 66.90452 25.70713 73.97886
#
# Poissons Ratio (x) = 0.22378 0.65440
# Poissons Ratio (y) = 0.58241 -0.33188
# Poissons Ratio (z) = 0.59182 -0.11533
#
# Static dielectric constant tensor:
#      x y z
#    x 3.979340 0.000000 0.000000 
#    y 0.000000 3.470960 0.000000 
#    z 0.000000 0.000000 3.505780 
# 
# 
# High freq. dielectric constant tensor:
#      x y z
#    x 1.768870 0.000000 0.000000 
#    y 0.000000 1.751120 0.000000 
#    z 0.000000 0.000000 1.748310 
# 
# From -- ./inp_files/13035.got.cif
#   From: 2010.03.12/outbox.cif.g09.slc.cpg/sg59_7_cif.got.tgz:13035.got - 2010.04.16 16:29:54.
