data_PCOD8244748
_publ_section_title
;
Structure prediction by ZEFSAII (Michael W. Deem and Ramdas Pophale) SiO2 
 PCOD8244748
Probable space group: P M M N
;
_chemical_formula_sum "Si O2"
_cell_formula_units_Z 64
_cell_length_a 9.077882
_cell_length_b 22.696343
_cell_length_c 16.602419
_cell_angle_alpha 90.000000
_cell_angle_beta 90.000000
_cell_angle_gamma 90.000000
_cell_volume 3420.674810
_symmetry_space_group_name_H-M "P M M N"
_symmetry_group_IT_number 59
_space_group.IT_coordinate_system_code '2'
_symmetry_cell_setting 'orthorhombic'
loop_
_space_group_symop_operation_xyz
x,y,z
1/2-x,1/2-y,z
1/2+x,-y,-z
-x,1/2+y,-z
-x,-y,-z
1/2+x,1/2+y,-z
1/2-x,y,z
x,1/2-y,z
loop_
_atom_site_type_symbol
_atom_site_label
_atom_site_fract_x
_atom_site_fract_y
_atom_site_fract_z
Si Si1 0.422132 0.461902 0.118883
Si Si2 0.924660 0.183376 0.387131
Si Si3 0.076178 0.480216 0.580915
Si Si4 0.919243 0.182453 0.850536
Si Si5 0.076862 0.925783 0.717013
Si Si6 0.080196 0.919447 0.032892
Si Si7 0.075551 0.861206 0.438858
Si Si8 0.589466 0.683757 0.300410
O O1 0.250000 0.451660 0.128890
O O2 0.496467 0.441128 0.200977
O O3 0.461030 0.529713 0.097769
O O4 0.480511 0.421781 0.046207
O O5 0.750000 0.186759 0.391276
O O6 0.987905 0.250000 0.373425
O O7 0.974599 0.138768 0.316218
O O8 0.980120 0.156494 0.472175
O O9 0.250000 0.477897 0.567471
O O10 0.034139 0.525121 0.651581
O O11 0.000000 0.500000 0.500000
O O12 0.009141 0.416817 0.599929
O O13 0.750000 0.176296 0.824592
O O14 0.958852 0.250000 0.871269
O O15 0.952915 0.144003 0.929217
O O16 0.012187 0.154169 0.777028
O O17 0.250000 0.925324 0.733290
O O18 0.250000 0.926814 0.006994
O O19 0.250000 0.871128 0.437515
O O20 0.020866 0.812106 0.376730
O O21 0.750000 0.653738 0.318386
O O22 0.617656 0.750000 0.273971
#
# Coordination Sequence:
#
# PCOD8244748 Si02
#       8
#     8   8   8   8   8   8   8   8
#     4  10  21  36  57  84 110 140 178 223 275 332
#     4   9  18  35  58  80 104 141 190 236 275 319
#     4  11  22  37  55  81 113 147 183 226 279 331
#     4   9  18  34  56  81 109 143 184 228 273 329
#     4  10  21  38  57  81 111 143 183 228 275 328
#     4   9  19  37  58  82 109 139 178 222 271 331
#     4  11  21  35  55  80 109 146 192 235 277 327
#     4  10  21  35  50  76 114 150 186 228 275 328
#
# _framework density 18.709759999999999
#
# number of rings (size 3 to 8) (size 9 to 14) (size 15 to 20)
#    0.000    2.125    1.250    1.875    1.750    3.250 
#    0.000    0.625    0.000    5.625    0.000    0.000 
#    0.000    0.000    0.000    0.000    0.000    0.000 
#
# Total GULP energy -793305.493333 kJ/mol
# GULP energy per Si atom -12395.398333 kJ/mol
# Density = 1.866718 g / cm^3
# Si number density = 18.709760 Si / 1000 Ang^3
#
#
#
# Elastic Constant Matrix: (Units=GPa)
#
#
# Indices 1 2 3 4 5 6 
#
# 1 68.2326 43.5905 64.4003 0.0000 0.0000 0.0000
# 2 43.5905 105.3982 69.0093 0.0000 0.0000 0.0000
# 3 64.4003 69.0093 149.6257 0.0000 0.0000 0.0000
# 4 0.0000 0.0000 0.0000 24.7159 0.0000 0.0000
# 5 0.0000 0.0000 0.0000 0.0000 35.3274 0.0000
# 6 0.0000 0.0000 0.0000 0.0000 0.0000 24.9287
#
#
#
# Elastic Compliance Matrix: (Units=1/GPa)
#
#
# Indices 1 2 3 4 5 6 
#
# 1 0.026391 -0.004982 -0.009061 0.000000 0.000000 0.000000
# 2 -0.004982 0.014533 -0.004559 0.000000 0.000000 0.000000
# 3 -0.009061 -0.004559 0.012686 0.000000 0.000000 0.000000
# 4 0.000000 0.000000 0.000000 0.040460 0.000000 0.000000
# 5 0.000000 0.000000 0.000000 0.000000 0.028307 0.000000
# 6 0.000000 0.000000 0.000000 0.000000 0.000000 0.040114
#
#
# Mechanical properties :
#
#
# Convention : Reuss Voigt Hill
#
# Bulk Modulus (GPa) = 60.95200 75.25072 68.10136
# Shear Modulus (GPa) = 24.37102 26.74483 25.55792
#
# Velocity S-wave (km/s) = 3.61305 3.78492 3.69998
# Velocity P-wave (km/s) = 7.07487 7.70767 7.39804
#
# Compressibility (1/GPa) = 0.01640635
#
# Stress axis : x y z
#
# Youngs Moduli (GPa) = 37.89234 68.80936 78.82861
#
# Poissons Ratio (x) = 0.34280 0.71427
# Poissons Ratio (y) = 0.18877 0.35934
# Poissons Ratio (z) = 0.34334 0.31367
#
# Static dielectric constant tensor:
#      x y z
#    x 3.656380 0.000000 0.000000 
#    y 0.000000 2.920400 0.000000 
#    z 0.000000 0.000000 3.327600 
# 
# 
# High freq. dielectric constant tensor:
#      x y z
#    x 1.719890 0.000000 0.000000 
#    y 0.000000 1.726980 0.000000 
#    z 0.000000 0.000000 1.721210 
# 
# From -- ./inp_files/21487.got.cif
#   From: 2010.03.12/outbox.cif.g09.slc.cpg/sg59_11_cif.got.tgz:21487.got - 2010.04.16 16:29:54.
