data_PCOD8244210
_publ_section_title
;
Structure prediction by ZEFSAII (Michael W. Deem and Ramdas Pophale) SiO2 
 PCOD8244210
Probable space group: P M M N
;
_chemical_formula_sum "Si O2"
_cell_formula_units_Z 48
_cell_length_a 14.423055
_cell_length_b 17.206292
_cell_length_c 9.681315
_cell_angle_alpha 90.000000
_cell_angle_beta 90.000000
_cell_angle_gamma 90.000000
_cell_volume 2402.585764
_symmetry_space_group_name_H-M "P M M N"
_symmetry_group_IT_number 59
_space_group.IT_coordinate_system_code '2'
_symmetry_cell_setting 'orthorhombic'
loop_
_space_group_symop_operation_xyz
x,y,z
1/2-x,1/2-y,z
1/2+x,-y,-z
-x,1/2+y,-z
-x,-y,-z
1/2+x,1/2+y,-z
1/2-x,y,z
x,1/2-y,z
loop_
_atom_site_type_symbol
_atom_site_label
_atom_site_fract_x
_atom_site_fract_y
_atom_site_fract_z
Si Si1 0.005710 0.842828 0.946847
Si Si2 0.352050 0.659535 0.179058
Si Si3 0.044522 0.585343 0.420223
Si Si4 0.852635 0.584853 0.121695
Si Si5 0.853324 0.660891 0.401299
Si Si6 0.947913 0.047386 0.287271
O O1 0.992239 0.750000 0.942677
O O2 0.026048 0.873999 0.793554
O O3 0.086300 0.870687 0.051812
O O4 0.914329 0.888540 0.993603
O O5 0.250000 0.619729 0.174443
O O6 0.339843 0.750000 0.160833
O O7 0.400709 0.646183 0.326685
O O8 0.098524 0.572752 0.565582
O O9 0.939683 0.612933 0.463267
O O10 0.036607 0.505869 0.330621
O O11 0.750000 0.575038 0.061975
O O12 0.859074 0.652898 0.235504
O O13 0.880094 0.502964 0.191547
O O14 0.750000 0.631421 0.450509
O O15 0.865883 0.750000 0.443157
#
# Coordination Sequence:
#
# PCOD8244210 Si02
#       6
#     8   8   8   8   8   8
#     4  11  22  39  59  85 120 151 192 244 295 352
#     4  10  21  37  59  85 114 154 200 242 287 341
#     4  10  20  37  59  81 120 156 196 241 284 348
#     4  10  20  35  60  87 115 150 192 241 294 351
#     4   9  16  29  54  85 114 149 193 237 285 342
#     4  10  22  38  57  86 118 154 192 237 292 347
#
# _framework density 19.978476000000001
#
# number of rings (size 3 to 8) (size 9 to 14) (size 15 to 20)
#    0.000    2.000    3.333    1.500    0.000    3.667 
#    0.000    3.333    0.000    2.000    0.000    0.000 
#    0.000    0.000    0.000    0.000    0.000    0.000 
#
# Total GULP energy -594787.488539 kJ/mol
# GULP energy per Si atom -12391.406011 kJ/mol
# Density = 1.993300 g / cm^3
# Si number density = 19.978476 Si / 1000 Ang^3
#
#
#
# Elastic Constant Matrix: (Units=GPa)
#
#
# Indices 1 2 3 4 5 6 
#
# 1 115.2823 34.1783 42.7513 0.0000 0.0000 0.0000
# 2 34.1783 68.2115 41.2276 0.0000 0.0000 0.0000
# 3 42.7513 41.2276 104.3585 0.0000 0.0000 0.0000
# 4 0.0000 0.0000 0.0000 33.9641 0.0000 0.0000
# 5 0.0000 0.0000 0.0000 0.0000 6.8131 0.0000
# 6 0.0000 0.0000 0.0000 0.0000 0.0000 15.2766
#
#
#
# Elastic Compliance Matrix: (Units=1/GPa)
#
#
# Indices 1 2 3 4 5 6 
#
# 1 0.010868 -0.003619 -0.003023 0.000000 0.000000 0.000000
# 2 -0.003619 0.020464 -0.006602 0.000000 0.000000 0.000000
# 3 -0.003023 -0.006602 0.013429 0.000000 0.000000 0.000000
# 4 0.000000 0.000000 0.000000 0.029443 0.000000 0.000000
# 5 0.000000 0.000000 0.000000 0.000000 0.146775 0.000000
# 6 0.000000 0.000000 0.000000 0.000000 0.000000 0.065460
#
#
# Mechanical properties :
#
#
# Convention : Reuss Voigt Hill
#
# Bulk Modulus (GPa) = 54.72228 58.24073 56.48150
# Shear Modulus (GPa) = 15.67318 22.52377 19.09848
#
# Velocity S-wave (km/s) = 2.80394 3.36132 3.09520
# Velocity P-wave (km/s) = 6.15896 6.65430 6.41142
#
# Compressibility (1/GPa) = 0.01827409
#
# Stress axis : x y z
#
# Youngs Moduli (GPa) = 92.01221 48.86695 74.46732
#
# Poissons Ratio (x) = 0.17684 0.22509
# Poissons Ratio (y) = 0.33297 0.49163
# Poissons Ratio (z) = 0.27812 0.32261
#
# Static dielectric constant tensor:
#      x y z
#    x 3.906060 0.000000 0.000000 
#    y 0.000000 3.527420 0.000000 
#    z 0.000000 0.000000 3.457970 
# 
# 
# High freq. dielectric constant tensor:
#      x y z
#    x 1.766640 0.000000 0.000000 
#    y 0.000000 1.776650 0.000000 
#    z 0.000000 0.000000 1.761910 
# 
# From -- ./inp_files/9015.got.cif
#   From: 2010.03.12/outbox.cif.g09.slc.cpg/sg59_5_cif.got.tgz:9015.got - 2010.04.16 16:29:54.
