data_PCOD8244459
_publ_section_title
;
Structure prediction by ZEFSAII (Michael W. Deem and Ramdas Pophale) SiO2 
 PCOD8244459
Probable space group: P M M N
;
_chemical_formula_sum "Si O2"
_cell_formula_units_Z 48
_cell_length_a 8.913664
_cell_length_b 27.857755
_cell_length_c 9.767726
_cell_angle_alpha 90.000000
_cell_angle_beta 90.000000
_cell_angle_gamma 90.000000
_cell_volume 2425.469637
_symmetry_space_group_name_H-M "P M M N"
_symmetry_group_IT_number 59
_space_group.IT_coordinate_system_code '2'
_symmetry_cell_setting 'orthorhombic'
loop_
_space_group_symop_operation_xyz
x,y,z
1/2-x,1/2-y,z
1/2+x,-y,-z
-x,1/2+y,-z
-x,-y,-z
1/2+x,1/2+y,-z
1/2-x,y,z
x,1/2-y,z
loop_
_atom_site_type_symbol
_atom_site_label
_atom_site_fract_x
_atom_site_fract_y
_atom_site_fract_z
Si Si1 0.072311 0.304112 0.227095
Si Si2 0.420469 0.364485 0.480601
Si Si3 0.576848 0.354473 0.977598
Si Si4 0.081573 0.304926 0.744210
Si Si5 0.571964 0.041446 0.590466
Si Si6 0.574539 0.460861 0.904510
O O1 0.250000 0.301838 0.234197
O O2 0.007273 0.250000 0.244707
O O3 0.012441 0.340529 0.343114
O O4 0.023887 0.325369 0.082654
O O5 0.250000 0.383476 0.459586
O O6 0.423866 0.321707 0.588753
O O7 0.524760 0.408027 0.526101
O O8 0.750000 0.345816 0.011985
O O9 0.539930 0.335090 0.827376
O O10 0.536384 0.410545 0.976700
O O11 0.250000 0.312217 0.803773
O O12 0.033041 0.250000 0.749595
O O13 0.750000 0.037207 0.584273
O O14 0.513614 0.037481 0.747832
O O15 0.500000 0.000000 0.500000
O O16 0.750000 0.470635 0.900933
O O17 0.500000 0.500000 0.000000
#
# Coordination Sequence:
#
# PCOD8244459 Si02
#       6
#     8   8   8   8   8   8
#     4  10  22  40  61  88 123 162 204 248 294 349
#     4  10  21  39  63  90 120 157 199 247 299 353
#     4  11  23  40  59  87 123 158 198 247 298 354
#     4  10  20  36  61  90 118 154 199 244 293 353
#     4  11  24  43  64  91 123 156 197 247 302 362
#     4  10  24  43  63  88 120 156 198 246 300 357
#
# _framework density 19.789981000000001
#
# number of rings (size 3 to 8) (size 9 to 14) (size 15 to 20)
#    0.000    1.667    1.667    2.000    2.333    8.000 
#    0.000    0.000    0.000    3.000    0.000    0.000 
#    0.000    0.000    0.000    0.000    0.000    0.000 
#
# Total GULP energy -595286.002872 kJ/mol
# GULP energy per Si atom -12401.791727 kJ/mol
# Density = 1.974494 g / cm^3
# Si number density = 19.789981 Si / 1000 Ang^3
#
#
#
# Elastic Constant Matrix: (Units=GPa)
#
#
# Indices 1 2 3 4 5 6 
#
# 1 36.5328 43.9481 26.3553 0.0000 0.0000 0.0000
# 2 43.9481 120.4738 36.0345 0.0000 0.0000 0.0000
# 3 26.3553 36.0345 97.0329 0.0000 0.0000 0.0000
# 4 0.0000 0.0000 0.0000 39.7341 0.0000 0.0000
# 5 0.0000 0.0000 0.0000 0.0000 27.0005 0.0000
# 6 0.0000 0.0000 0.0000 0.0000 0.0000 30.0116
#
#
#
# Elastic Compliance Matrix: (Units=1/GPa)
#
#
# Indices 1 2 3 4 5 6 
#
# 1 0.054119 -0.017263 -0.008289 0.000000 0.000000 0.000000
# 2 -0.017263 0.014844 -0.000824 0.000000 0.000000 0.000000
# 3 -0.008289 -0.000824 0.012863 0.000000 0.000000 0.000000
# 4 0.000000 0.000000 0.000000 0.025167 0.000000 0.000000
# 5 0.000000 0.000000 0.000000 0.000000 0.037036 0.000000
# 6 0.000000 0.000000 0.000000 0.000000 0.000000 0.033320
#
#
# Mechanical properties :
#
#
# Convention : Reuss Voigt Hill
#
# Bulk Modulus (GPa) = 34.39298 51.85726 43.12512
# Shear Modulus (GPa) = 20.85121 29.19602 25.02362
#
# Velocity S-wave (km/s) = 3.24948 3.84512 3.55978
# Velocity P-wave (km/s) = 5.61209 6.78041 6.22372
#
# Compressibility (1/GPa) = 0.02907570
#
# Stress axis : x y z
#
# Youngs Moduli (GPa) = 18.47763 67.36503 77.74245
#
# Poissons Ratio (x) = 1.16294 0.64437
# Poissons Ratio (y) = 0.31898 0.06404
# Poissons Ratio (z) = 0.15315 0.05549
#
# Static dielectric constant tensor:
#      x y z
#    x 3.528260 0.000000 0.000000 
#    y 0.000000 4.527910 0.000000 
#    z 0.000000 0.000000 8.695870 
# 
# 
# High freq. dielectric constant tensor:
#      x y z
#    x 1.759010 0.000000 0.000000 
#    y 0.000000 1.786210 0.000000 
#    z 0.000000 0.000000 1.782120 
# 
# From -- ./inp_files/6195.got.cif
#   From: 2010.03.12/outbox.cif.g09.slc.cpg/sg59_4_cif.got.tgz:6195.got - 2010.04.16 16:29:54.
