data_PCOD8244340
_publ_section_title
;
Structure prediction by ZEFSAII (Michael W. Deem and Ramdas Pophale) SiO2 
 PCOD8244340
Probable space group: P M M N
;
_chemical_formula_sum "Si O2"
_cell_formula_units_Z 48
_cell_length_a 28.139630
_cell_length_b 9.022279
_cell_length_c 9.993960
_cell_angle_alpha 90.000000
_cell_angle_beta 90.000000
_cell_angle_gamma 90.000000
_cell_volume 2537.302471
_symmetry_space_group_name_H-M "P M M N"
_symmetry_group_IT_number 59
_space_group.IT_coordinate_system_code '2'
_symmetry_cell_setting 'orthorhombic'
loop_
_space_group_symop_operation_xyz
x,y,z
1/2-x,1/2-y,z
1/2+x,-y,-z
-x,1/2+y,-z
-x,-y,-z
1/2+x,1/2+y,-z
1/2-x,y,z
x,1/2-y,z
loop_
_atom_site_type_symbol
_atom_site_label
_atom_site_fract_x
_atom_site_fract_y
_atom_site_fract_z
Si Si1 0.550516 0.423560 0.986204
Si Si2 0.696571 0.576928 0.660113
Si Si3 0.950123 0.579422 0.489904
Si Si4 0.106090 0.576315 0.280742
Si Si5 0.801877 0.925823 0.356498
Si Si6 0.895513 0.920662 0.218043
O O1 0.543216 0.250000 0.005547
O O2 0.571635 0.462295 0.841649
O O3 0.500000 0.500000 0.000000
O O4 0.587240 0.480790 0.095991
O O5 0.750000 0.547866 0.713815
O O6 0.684030 0.750000 0.669373
O O7 0.659123 0.484960 0.749646
O O8 0.692107 0.517377 0.508026
O O9 0.955984 0.750000 0.531215
O O10 0.912388 0.504676 0.587294
O O11 0.932428 0.564240 0.338757
O O12 0.000000 0.500000 0.500000
O O13 0.108039 0.750000 0.307445
O O14 0.750000 0.975765 0.300525
O O15 0.805292 0.750000 0.362319
O O16 0.843975 0.985481 0.261989
O O17 0.891821 0.750000 0.171820
#
# Coordination Sequence:
#
# PCOD8244340 Si02
#       6
#     8   8   8   8   8   8
#     4  11  25  42  58  79 110 152 194 235 282 337
#     4   9  17  33  59  88 116 148 188 233 281 333
#     4  11  22  36  56  84 113 143 186 239 290 340
#     4  11  23  38  56  82 116 152 190 232 285 341
#     4   8  14  29  55  85 114 142 176 224 278 328
#     4  10  20  36  58  84 112 145 185 231 283 335
#
# _framework density 18.917728
#
# number of rings (size 3 to 8) (size 9 to 14) (size 15 to 20)
#    0.000    2.000    1.667    3.500    0.000    8.333 
#    0.000    0.833    0.000    3.500    0.000    0.000 
#    0.000    0.000    0.000    0.000    0.000    0.000 
#
# Total GULP energy -595204.078282 kJ/mol
# GULP energy per Si atom -12400.084964 kJ/mol
# Density = 1.887467 g / cm^3
# Si number density = 18.917728 Si / 1000 Ang^3
#
#
#
# Elastic Constant Matrix: (Units=GPa)
#
#
# Indices 1 2 3 4 5 6 
#
# 1 132.9482 44.8533 13.9221 0.0000 0.0000 0.0000
# 2 44.8533 78.3391 37.0039 0.0000 0.0000 0.0000
# 3 13.9221 37.0039 41.2375 0.0000 0.0000 0.0000
# 4 0.0000 0.0000 0.0000 30.1538 0.0000 0.0000
# 5 0.0000 0.0000 0.0000 0.0000 30.7631 0.0000
# 6 0.0000 0.0000 0.0000 0.0000 0.0000 32.6462
#
#
#
# Elastic Compliance Matrix: (Units=1/GPa)
#
#
# Indices 1 2 3 4 5 6 
#
# 1 0.009520 -0.006825 0.002911 0.000000 0.000000 0.000000
# 2 -0.006825 0.027050 -0.021969 0.000000 0.000000 0.000000
# 3 0.002911 -0.021969 0.042980 0.000000 0.000000 0.000000
# 4 0.000000 0.000000 0.000000 0.033163 0.000000 0.000000
# 5 0.000000 0.000000 0.000000 0.000000 0.032506 0.000000
# 6 0.000000 0.000000 0.000000 0.000000 0.000000 0.030631
#
#
# Mechanical properties :
#
#
# Convention : Reuss Voigt Hill
#
# Bulk Modulus (GPa) = 35.99266 49.34260 42.66763
# Shear Modulus (GPa) = 21.10786 29.16232 25.13509
#
# Velocity S-wave (km/s) = 3.34394 3.93050 3.64902
# Velocity P-wave (km/s) = 5.82893 6.83650 6.35272
#
# Compressibility (1/GPa) = 0.02778344
#
# Stress axis : x y z
#
# Youngs Moduli (GPa) = 105.04589 36.96865 23.26650
#
# Poissons Ratio (x) = 0.25233 -0.06772
# Poissons Ratio (y) = 0.71699 0.51113
# Poissons Ratio (z) = -0.30577 0.81215
#
# Static dielectric constant tensor:
#      x y z
#    x 3.784470 0.000000 0.000000 
#    y 0.000000 3.293170 0.000000 
#    z 0.000000 0.000000 3.327580 
# 
# 
# High freq. dielectric constant tensor:
#      x y z
#    x 1.758400 0.000000 0.000000 
#    y 0.000000 1.720480 0.000000 
#    z 0.000000 0.000000 1.714250 
# 
# From -- ./inp_files/12972.got.cif
#   From: 2010.03.12/outbox.cif.g09.slc.cpg/sg59_7_cif.got.tgz:12972.got - 2010.04.16 16:29:54.
