data_PCOD8244381
_publ_section_title
;
Structure prediction by ZEFSAII (Michael W. Deem and Ramdas Pophale) SiO2 
 PCOD8244381
Probable space group: P M M N
;
_chemical_formula_sum "Si O2"
_cell_formula_units_Z 56
_cell_length_a 18.869865
_cell_length_b 9.100514
_cell_length_c 17.650351
_cell_angle_alpha 90.000000
_cell_angle_beta 90.000000
_cell_angle_gamma 90.000000
_cell_volume 3031.014832
_symmetry_space_group_name_H-M "P M M N"
_symmetry_group_IT_number 59
_space_group.IT_coordinate_system_code '2'
_symmetry_cell_setting 'orthorhombic'
loop_
_space_group_symop_operation_xyz
x,y,z
1/2-x,1/2-y,z
1/2+x,-y,-z
-x,1/2+y,-z
-x,-y,-z
1/2+x,1/2+y,-z
1/2-x,y,z
x,1/2-y,z
loop_
_atom_site_type_symbol
_atom_site_label
_atom_site_fract_x
_atom_site_fract_y
_atom_site_fract_z
Si Si1 0.429571 0.579896 0.795074
Si Si2 0.167585 0.421997 0.381403
Si Si3 0.088368 0.075951 0.233365
Si Si4 0.332764 0.078971 0.679716
Si Si5 0.832846 0.921298 0.915537
Si Si6 0.334282 0.584196 0.530704
Si Si7 0.070339 0.920934 0.972197
O O1 0.418617 0.750000 0.773747
O O2 0.507147 0.524867 0.769576
O O3 0.371465 0.482997 0.753196
O O4 0.419416 0.553118 0.883577
O O5 0.250000 0.455876 0.367334
O O6 0.154580 0.250000 0.393773
O O7 0.124708 0.485173 0.309533
O O8 0.137614 0.504222 0.455350
O O9 0.094940 0.250000 0.232384
O O10 0.129516 0.015692 0.159836
O O11 0.250000 0.046781 0.690513
O O12 0.348552 0.250000 0.670812
O O13 0.363011 0.999417 0.604748
O O14 0.750000 0.949435 0.907351
O O15 0.850597 0.750000 0.927621
O O16 0.861247 0.011011 0.987240
O O17 0.250000 0.579686 0.530682
O O18 0.363414 0.750000 0.532105
O O19 0.063523 0.750000 0.991730
O O20 0.000000 0.000000 0.000000
#
# Coordination Sequence:
#
# PCOD8244381 Si02
#       7
#     8   8   8   8   8   8   8
#     4  10  21  37  57  79 107 143 181 221 270 330
#     4   9  16  28  51  80 107 139 180 223 264 311
#     4   9  17  33  54  79 110 145 184 221 265 322
#     4  10  21  37  57  81 107 135 177 230 275 322
#     4  10  20  36  59  85 114 148 187 230 277 330
#     4   9  17  31  52  77 107 142 177 217 270 325
#     4  11  22  38  59  81 110 147 188 231 277 332
#
# _framework density 18.475660999999999
#
# number of rings (size 3 to 8) (size 9 to 14) (size 15 to 20)
#    0.000    2.286    1.429    1.714    0.000    6.286 
#    0.000    5.000    0.000    1.714    0.000    0.000 
#    0.000    0.000    0.000    0.000    0.000    0.000 
#
# Total GULP energy -694539.870107 kJ/mol
# GULP energy per Si atom -12402.497680 kJ/mol
# Density = 1.843361 g / cm^3
# Si number density = 18.475661 Si / 1000 Ang^3
#
#
#
# Elastic Constant Matrix: (Units=GPa)
#
#
# Indices 1 2 3 4 5 6 
#
# 1 76.0056 49.8666 63.2058 0.0000 0.0000 0.0000
# 2 49.8666 92.5454 71.2742 0.0000 0.0000 0.0000
# 3 63.2058 71.2742 141.7347 0.0000 0.0000 0.0000
# 4 0.0000 0.0000 0.0000 32.4734 0.0000 0.0000
# 5 0.0000 0.0000 0.0000 0.0000 30.6365 0.0000
# 6 0.0000 0.0000 0.0000 0.0000 0.0000 24.5709
#
#
#
# Elastic Compliance Matrix: (Units=1/GPa)
#
#
# Indices 1 2 3 4 5 6 
#
# 1 0.023779 -0.007583 -0.006791 0.000000 0.000000 0.000000
# 2 -0.007583 0.020054 -0.006703 0.000000 0.000000 0.000000
# 3 -0.006791 -0.006703 0.013454 0.000000 0.000000 0.000000
# 4 0.000000 0.000000 0.000000 0.030794 0.000000 0.000000
# 5 0.000000 0.000000 0.000000 0.000000 0.032641 0.000000
# 6 0.000000 0.000000 0.000000 0.000000 0.000000 0.040699
#
#
# Mechanical properties :
#
#
# Convention : Reuss Voigt Hill
#
# Bulk Modulus (GPa) = 66.07677 75.44212 70.75944
# Shear Modulus (GPa) = 23.96703 25.93209 24.94956
#
# Velocity S-wave (km/s) = 3.60560 3.75050 3.67877
# Velocity P-wave (km/s) = 7.29217 7.72508 7.51175
#
# Compressibility (1/GPa) = 0.01513391
#
# Stress axis : x y z
#
# Youngs Moduli (GPa) = 42.05303 49.86611 74.32460
#
# Poissons Ratio (x) = 0.37814 0.50474
# Poissons Ratio (y) = 0.31889 0.49818
# Poissons Ratio (z) = 0.28558 0.33424
#
# Static dielectric constant tensor:
#      x y z
#    x 3.261670 0.000000 0.000000 
#    y 0.000000 3.365590 0.000000 
#    z 0.000000 0.000000 3.653120 
# 
# 
# High freq. dielectric constant tensor:
#      x y z
#    x 1.701370 0.000000 0.000000 
#    y 0.000000 1.703880 0.000000 
#    z 0.000000 0.000000 1.731170 
# 
# From -- ./inp_files/28034.got.cif
#   From: 2010.03.12/outbox.cif.g09.slc.cpg/sg59_15_cif.got.tgz:28034.got - 2010.04.16 16:29:54.
