data_PCOD8244599
_publ_section_title
;
Structure prediction by ZEFSAII (Michael W. Deem and Ramdas Pophale) SiO2 
 PCOD8244599
Probable space group: P M M N
;
_chemical_formula_sum "Si O2"
_cell_formula_units_Z 56
_cell_length_a 19.376734
_cell_length_b 14.616839
_cell_length_c 9.961261
_cell_angle_alpha 90.000000
_cell_angle_beta 90.000000
_cell_angle_gamma 90.000000
_cell_volume 2821.294097
_symmetry_space_group_name_H-M "P M M N"
_symmetry_group_IT_number 59
_space_group.IT_coordinate_system_code '2'
_symmetry_cell_setting 'orthorhombic'
loop_
_space_group_symop_operation_xyz
x,y,z
1/2-x,1/2-y,z
1/2+x,-y,-z
-x,1/2+y,-z
-x,-y,-z
1/2+x,1/2+y,-z
1/2-x,y,z
x,1/2-y,z
loop_
_atom_site_type_symbol
_atom_site_label
_atom_site_fract_x
_atom_site_fract_y
_atom_site_fract_z
Si Si1 0.537187 0.855134 0.340838
Si Si2 0.625747 0.353915 0.257932
Si Si3 0.827303 0.853834 0.189905
Si Si4 0.528866 0.646370 0.652136
Si Si5 0.828653 0.478401 0.014967
Si Si6 0.671264 0.146875 0.546596
Si Si7 0.085099 0.532411 0.247069
O O1 0.518625 0.750000 0.309348
O O2 0.617223 0.876134 0.306475
O O3 0.522405 0.878818 0.495352
O O4 0.490223 0.920269 0.247499
O O5 0.644735 0.250000 0.222329
O O6 0.544309 0.365668 0.276741
O O7 0.664305 0.385209 0.393182
O O8 0.654474 0.415094 0.140097
O O9 0.750000 0.870363 0.248997
O O10 0.836123 0.750000 0.139320
O O11 0.839704 0.916700 0.059746
O O12 0.557194 0.750000 0.668871
O O13 0.580909 0.575930 0.722836
O O14 0.750000 0.462030 0.967464
O O15 0.880389 0.452499 0.896455
O O16 0.750000 0.144996 0.592258
O O17 0.640465 0.250000 0.561057
O O18 0.630256 0.078335 0.638866
#
# Coordination Sequence:
#
# PCOD8244599 Si02
#       7
#     8   8   8   8   8   8   8
#     4  10  20  37  62  92 121 151 198 262 313 356
#     4  10  21  40  63  87 119 160 202 247 302 364
#     4   9  20  39  61  83 115 162 207 245 296 363
#     4  10  22  39  61  91 124 156 201 257 309 362
#     4  11  25  41  57  87 126 162 204 251 299 359
#     4  10  21  38  61  88 119 160 207 250 301 366
#     4  12  23  37  61  90 124 161 200 248 313 359
#
# _framework density 19.849048
#
# number of rings (size 3 to 8) (size 9 to 14) (size 15 to 20)
#    0.000    1.714    1.429    2.571    2.000    4.857 
#    0.000    3.571    0.000    2.143    0.000    0.000 
#    0.000    0.000    0.000    0.000    0.000    0.000 
#
# Total GULP energy -694527.644555 kJ/mol
# GULP energy per Si atom -12402.279367 kJ/mol
# Density = 1.980387 g / cm^3
# Si number density = 19.849048 Si / 1000 Ang^3
#
#
#
# Elastic Constant Matrix: (Units=GPa)
#
#
# Indices 1 2 3 4 5 6 
#
# 1 85.6303 45.6792 48.2053 0.0000 0.0000 0.0000
# 2 45.6792 103.7289 46.6881 0.0000 0.0000 0.0000
# 3 48.2053 46.6881 75.2812 0.0000 0.0000 0.0000
# 4 0.0000 0.0000 0.0000 -8.0377 0.0000 0.0000
# 5 0.0000 0.0000 0.0000 0.0000 -4.0632 0.0000
# 6 0.0000 0.0000 0.0000 0.0000 0.0000 31.2350
#
#
#
# Elastic Compliance Matrix: (Units=1/GPa)
#
#
# Indices 1 2 3 4 5 6 
#
# 1 0.019443 -0.004104 -0.009905 0.000000 0.000000 0.000000
# 2 -0.004104 0.014240 -0.006203 0.000000 0.000000 0.000000
# 3 -0.009905 -0.006203 0.023473 0.000000 0.000000 0.000000
# 4 0.000000 0.000000 0.000000 -0.124413 0.000000 0.000000
# 5 0.000000 0.000000 0.000000 0.000000 -0.246109 0.000000
# 6 0.000000 0.000000 0.000000 0.000000 0.000000 0.032015
#
#
# Mechanical properties :
#
#
# Convention : Reuss Voigt Hill
#
# Bulk Modulus (GPa) = 59.76689 60.64286 60.20487
# Shear Modulus (GPa) = -21.24513 12.09798 -4.57357
#
# Velocity S-wave (km/s) = -3.27515 2.47148 -1.51960
# Velocity P-wave (km/s) = 3.98421 6.22597 5.22669
#
# Compressibility (1/GPa) = 0.01673167
#
# Stress axis : x y z
#
# Youngs Moduli (GPa) = 51.43123 70.22493 42.60145
#
# Poissons Ratio (x) = 0.28821 0.42197
# Poissons Ratio (y) = 0.21108 0.26427
# Poissons Ratio (z) = 0.50943 0.43563
#
# Static dielectric constant tensor:
#      x y z
#    x 3.794010 0.000000 0.000000 
#    y 0.000000 3.865310 0.000000 
#    z 0.000000 0.000000 3.355510 
# 
# 
# High freq. dielectric constant tensor:
#      x y z
#    x 1.780040 0.000000 0.000000 
#    y 0.000000 1.788330 0.000000 
#    z 0.000000 0.000000 1.751900 
# 
# From -- ./inp_files/11417.got.cif
#   From: 2010.03.12/outbox.cif.g09.slc.cpg/sg59_6_cif.got.tgz:11417.got - 2010.04.16 16:29:54.
