data_PCOD8244108
_publ_section_title
;
Structure prediction by ZEFSAII (Michael W. Deem and Ramdas Pophale) SiO2 
 PCOD8244108
Probable space group: P M M N
;
_chemical_formula_sum "Si O2"
_cell_formula_units_Z 64
_cell_length_a 8.818293
_cell_length_b 14.437985
_cell_length_c 24.837460
_cell_angle_alpha 90.000000
_cell_angle_beta 90.000000
_cell_angle_gamma 90.000000
_cell_volume 3162.265222
_symmetry_space_group_name_H-M "P M M N"
_symmetry_group_IT_number 59
_space_group.IT_coordinate_system_code '2'
_symmetry_cell_setting 'orthorhombic'
loop_
_space_group_symop_operation_xyz
x,y,z
1/2-x,1/2-y,z
1/2+x,-y,-z
-x,1/2+y,-z
-x,-y,-z
1/2+x,1/2+y,-z
1/2-x,y,z
x,1/2-y,z
loop_
_atom_site_type_symbol
_atom_site_label
_atom_site_fract_x
_atom_site_fract_y
_atom_site_fract_z
Si Si1 0.929018 0.467166 0.378459
Si Si2 0.071444 0.141909 0.281814
Si Si3 0.572748 0.145638 0.587437
Si Si4 0.426012 0.144339 0.471878
Si Si5 0.580160 0.149926 0.085746
Si Si6 0.425070 0.037373 0.176631
Si Si7 0.076809 0.852738 0.125749
Si Si8 0.928305 0.903119 0.015436
O O1 0.750000 0.479235 0.375040
O O2 0.984507 0.396727 0.333076
O O3 0.007328 0.568523 0.371358
O O4 0.975496 0.424000 0.435546
O O5 0.250000 0.127172 0.290677
O O6 0.032436 0.250000 0.273549
O O7 0.009035 0.083264 0.230762
O O8 0.750000 0.128334 0.577359
O O9 0.545728 0.250000 0.610298
O O10 0.482286 0.132635 0.532341
O O11 0.250000 0.115888 0.468455
O O12 0.449076 0.250000 0.452163
O O13 0.750000 0.114556 0.073836
O O14 0.581497 0.250000 0.114909
O O15 0.502792 0.075582 0.123520
O O16 0.491917 0.165685 0.029807
O O17 0.250000 0.064276 0.173269
O O18 0.453629 0.926363 0.174131
O O19 0.250000 0.862959 0.105902
O O20 0.045304 0.750000 0.149189
O O21 0.970899 0.869601 0.074742
O O22 0.750000 0.908009 0.011384
O O23 0.000000 0.000000 0.000000
#
# Coordination Sequence:
#
# PCOD8244108 Si02
#       8
#     8   8   8   8   8   8   8   8
#     4  12  24  37  57  85 119 158 199 245 298 355
#     4  10  22  41  63  87 116 150 194 246 296 348
#     4  10  21  38  60  86 118 157 200 244 291 348
#     4  10  20  35  57  86 122 161 200 245 295 349
#     4  11  23  37  56  84 117 151 187 231 284 343
#     4  10  21  39  63  86 112 150 193 240 290 342
#     4  10  21  38  60  87 119 153 190 235 287 344
#     4  12  23  36  56  83 116 154 193 234 284 341
#
# _framework density 20.238657
#
# number of rings (size 3 to 8) (size 9 to 14) (size 15 to 20)
#    0.000    1.375    1.250    4.875    0.000    7.000 
#    0.000    0.625    0.000    2.250    0.000    0.000 
#    0.000    0.000    0.000    0.000    0.000    0.000 
#
# Total GULP energy -793575.308370 kJ/mol
# GULP energy per Si atom -12399.614193 kJ/mol
# Density = 2.019259 g / cm^3
# Si number density = 20.238657 Si / 1000 Ang^3
#
#
#
# Elastic Constant Matrix: (Units=GPa)
#
#
# Indices 1 2 3 4 5 6 
#
# 1 88.9304 41.3694 26.3500 0.0000 0.0000 0.0000
# 2 41.3694 142.8735 41.2675 0.0000 0.0000 0.0000
# 3 26.3500 41.2675 64.6773 0.0000 0.0000 0.0000
# 4 0.0000 0.0000 0.0000 33.2115 0.0000 0.0000
# 5 0.0000 0.0000 0.0000 0.0000 24.5659 0.0000
# 6 0.0000 0.0000 0.0000 0.0000 0.0000 23.8402
#
#
#
# Elastic Compliance Matrix: (Units=1/GPa)
#
#
# Indices 1 2 3 4 5 6 
#
# 1 0.013695 -0.002886 -0.003738 0.000000 0.000000 0.000000
# 2 -0.002886 0.009189 -0.004687 0.000000 0.000000 0.000000
# 3 -0.003738 -0.004687 0.019975 0.000000 0.000000 0.000000
# 4 0.000000 0.000000 0.000000 0.030110 0.000000 0.000000
# 5 0.000000 0.000000 0.000000 0.000000 0.040707 0.000000
# 6 0.000000 0.000000 0.000000 0.000000 0.000000 0.041946
#
#
# Mechanical properties :
#
#
# Convention : Reuss Voigt Hill
#
# Bulk Modulus (GPa) = 49.41592 57.16166 53.28879
# Shear Modulus (GPa) = 27.02870 28.82313 27.92592
#
# Velocity S-wave (km/s) = 3.65841 3.77790 3.71864
# Velocity P-wave (km/s) = 6.50499 6.88006 6.69515
#
# Compressibility (1/GPa) = 0.02023639
#
# Stress axis : x y z
#
# Youngs Moduli (GPa) = 73.02082 108.83087 50.06261
#
# Poissons Ratio (x) = 0.31404 0.18714
# Poissons Ratio (y) = 0.21071 0.23465
# Poissons Ratio (z) = 0.27296 0.51011
#
# Static dielectric constant tensor:
#      x y z
#    x 3.692880 0.000000 0.000000 
#    y 0.000000 4.166810 0.000000 
#    z 0.000000 0.000000 3.542590 
# 
# 
# High freq. dielectric constant tensor:
#      x y z
#    x 1.792660 0.000000 0.000000 
#    y 0.000000 1.813610 0.000000 
#    z 0.000000 0.000000 1.760760 
# 
# From -- ./inp_files/31409.got.cif
#   From: 2010.03.12/outbox.cif.g09.slc.cpg/sg59_16_cif.got.tgz:31409.got - 2010.04.16 16:29:54.
