data_PCOD8244389
_publ_section_title
;
Structure prediction by ZEFSAII (Michael W. Deem and Ramdas Pophale) SiO2 
 PCOD8244389
Probable space group: P M M N
;
_chemical_formula_sum "Si O2"
_cell_formula_units_Z 64
_cell_length_a 30.897050
_cell_length_b 9.012281
_cell_length_c 11.915018
_cell_angle_alpha 90.000000
_cell_angle_beta 90.000000
_cell_angle_gamma 90.000000
_cell_volume 3317.771276
_symmetry_space_group_name_H-M "P M M N"
_symmetry_group_IT_number 59
_space_group.IT_coordinate_system_code '2'
_symmetry_cell_setting 'orthorhombic'
loop_
_space_group_symop_operation_xyz
x,y,z
1/2-x,1/2-y,z
1/2+x,-y,-z
-x,1/2+y,-z
-x,-y,-z
1/2+x,1/2+y,-z
1/2-x,y,z
x,1/2-y,z
loop_
_atom_site_type_symbol
_atom_site_label
_atom_site_fract_x
_atom_site_fract_y
_atom_site_fract_z
Si Si1 0.297937 0.420544 0.972157
Si Si2 0.419839 0.580977 0.760076
Si Si3 0.679294 0.075780 0.251394
Si Si4 0.876031 0.926007 0.878215
Si Si5 0.798096 0.920066 0.475997
Si Si6 0.954540 0.078913 0.487472
Si Si7 0.378689 0.073852 0.375773
Si Si8 0.044628 0.074944 0.969860
O O1 0.250000 0.435068 0.026193
O O2 0.309267 0.250000 0.945248
O O3 0.333221 0.487395 0.058537
O O4 0.297504 0.508610 0.856278
O O5 0.423478 0.750000 0.803998
O O6 0.370635 0.529520 0.749675
O O7 0.441894 0.562761 0.641025
O O8 0.443411 0.470492 0.844270
O O9 0.686114 0.250000 0.250087
O O10 0.700858 0.014804 0.363418
O O11 0.874259 0.750000 0.875688
O O12 0.876853 0.986885 0.751525
O O13 0.918511 0.981932 0.944152
O O14 0.750000 0.937706 0.529536
O O15 0.807445 0.750000 0.443923
O O16 0.833971 0.975608 0.564725
O O17 0.958154 0.250000 0.523706
O O18 0.919247 0.001034 0.565003
O O19 0.000000 0.000000 0.500000
O O20 0.385167 0.250000 0.379436
O O21 0.039199 0.250000 0.977034
O O22 0.000000 0.000000 0.000000
#
# Coordination Sequence:
#
# PCOD8244389 Si02
#       8
#     8   8   8   8   8   8   8   8
#     4  10  20  36  59  86 116 151 193 238 285 342
#     4  10  22  40  61  85 117 153 192 240 289 341
#     4  11  21  36  58  85 118 153 190 237 292 344
#     4   9  20  38  58  83 114 151 189 234 286 337
#     4  10  21  36  57  86 117 151 194 240 285 343
#     4  11  24  42  62  88 119 151 194 241 292 349
#     4  10  21  39  61  84 116 155 194 238 291 344
#     4  11  23  39  61  87 119 153 193 238 289 347
#
# _framework density 19.290057000000001
#
# number of rings (size 3 to 8) (size 9 to 14) (size 15 to 20)
#    0.000    1.750    2.500    1.500    1.750    4.000 
#    0.000    3.750    0.000    0.000    0.000    1.750 
#    0.000    0.000    0.000    0.000    0.000    0.000 
#
# Total GULP energy -793757.875544 kJ/mol
# GULP energy per Si atom -12402.466805 kJ/mol
# Density = 1.924615 g / cm^3
# Si number density = 19.290057 Si / 1000 Ang^3
#
#
#
# Elastic Constant Matrix: (Units=GPa)
#
#
# Indices 1 2 3 4 5 6 
#
# 1 168.4733 43.8568 66.2332 0.0000 0.0000 0.0000
# 2 43.8568 54.1592 36.1188 0.0000 0.0000 0.0000
# 3 66.2332 36.1188 123.5417 0.0000 0.0000 0.0000
# 4 0.0000 0.0000 0.0000 20.4179 0.0000 0.0000
# 5 0.0000 0.0000 0.0000 0.0000 34.0941 0.0000
# 6 0.0000 0.0000 0.0000 0.0000 0.0000 28.6594
#
#
#
# Elastic Compliance Matrix: (Units=1/GPa)
#
#
# Indices 1 2 3 4 5 6 
#
# 1 0.008389 -0.004713 -0.003120 0.000000 0.000000 0.000000
# 2 -0.004713 0.025583 -0.004953 0.000000 0.000000 0.000000
# 3 -0.003120 -0.004953 0.011215 0.000000 0.000000 0.000000
# 4 0.000000 0.000000 0.000000 0.048977 0.000000 0.000000
# 5 0.000000 0.000000 0.000000 0.000000 0.029331 0.000000
# 6 0.000000 0.000000 0.000000 0.000000 0.000000 0.034893
#
#
# Mechanical properties :
#
#
# Convention : Reuss Voigt Hill
#
# Bulk Modulus (GPa) = 50.97706 70.95464 60.96585
# Shear Modulus (GPa) = 26.24716 29.96530 28.10623
#
# Velocity S-wave (km/s) = 3.69271 3.94560 3.82125
# Velocity P-wave (km/s) = 6.68322 7.59078 7.15141
#
# Compressibility (1/GPa) = 0.01961667
#
# Stress axis : x y z
#
# Youngs Moduli (GPa) = 119.20507 39.08776 89.16597
#
# Poissons Ratio (x) = 0.18421 0.27817
# Poissons Ratio (y) = 0.56177 0.44165
# Poissons Ratio (z) = 0.37188 0.19360
#
# Static dielectric constant tensor:
#      x y z
#    x 3.881560 0.000000 0.000000 
#    y 0.000000 3.425310 0.000000 
#    z 0.000000 0.000000 3.437070 
# 
# 
# High freq. dielectric constant tensor:
#      x y z
#    x 1.770620 0.000000 0.000000 
#    y 0.000000 1.736400 0.000000 
#    z 0.000000 0.000000 1.750250 
# 
# From -- ./inp_files/19204.got.cif
#   From: 2010.03.12/outbox.cif.g09.slc.cpg/sg59_10_cif.got.tgz:19204.got - 2010.04.16 16:29:54.
