data_PCOD8244632
_publ_section_title
;
Structure prediction by ZEFSAII (Michael W. Deem and Ramdas Pophale) SiO2 
 PCOD8244632
Probable space group: P M M N
;
_chemical_formula_sum "Si O2"
_cell_formula_units_Z 64
_cell_length_a 8.835864
_cell_length_b 25.641350
_cell_length_c 14.386591
_cell_angle_alpha 90.000000
_cell_angle_beta 90.000000
_cell_angle_gamma 90.000000
_cell_volume 3259.476142
_symmetry_space_group_name_H-M "P M M N"
_symmetry_group_IT_number 59
_space_group.IT_coordinate_system_code '2'
_symmetry_cell_setting 'orthorhombic'
loop_
_space_group_symop_operation_xyz
x,y,z
1/2-x,1/2-y,z
1/2+x,-y,-z
-x,1/2+y,-z
-x,-y,-z
1/2+x,1/2+y,-z
1/2-x,y,z
x,1/2-y,z
loop_
_atom_site_type_symbol
_atom_site_label
_atom_site_fract_x
_atom_site_fract_y
_atom_site_fract_z
Si Si1 0.927654 0.600279 0.091327
Si Si2 0.070836 0.496906 0.790863
Si Si3 0.074108 0.809378 0.754224
Si Si4 0.428398 0.525597 0.590208
Si Si5 0.923889 0.809287 0.227381
Si Si6 0.427539 0.136670 0.413021
Si Si7 0.923940 0.310670 0.581948
Si Si8 0.428760 0.899778 0.890675
O O1 0.750000 0.593563 0.076569
O O2 0.993596 0.552836 0.153593
O O3 0.968356 0.654388 0.141370
O O4 0.005721 0.600784 0.992813
O O5 0.250000 0.498092 0.798062
O O6 0.024120 0.492943 0.682234
O O7 0.005655 0.549995 0.836157
O O8 0.250000 0.818635 0.730091
O O9 0.044067 0.750000 0.785992
O O10 0.020243 0.847450 0.836874
O O11 0.977932 0.820455 0.661963
O O12 0.500000 0.500000 0.500000
O O13 0.250000 0.526377 0.576343
O O14 0.484660 0.583738 0.607491
O O15 0.750000 0.818155 0.257573
O O16 0.952252 0.750000 0.195354
O O17 0.029849 0.824442 0.313305
O O18 0.250000 0.126454 0.407446
O O19 0.468833 0.156491 0.515154
O O20 0.750000 0.326495 0.566057
O O21 0.950746 0.250000 0.561534
O O22 0.250000 0.902637 0.898280
#
# Coordination Sequence:
#
# PCOD8244632 Si02
#       8
#     8   8   8   8   8   8   8   8
#     4  10  21  36  58  86 113 150 195 241 294 354
#     4   9  19  38  61  82 114 153 190 237 292 348
#     4  10  21  39  62  86 117 159 202 247 303 361
#     4  11  23  41  62  89 123 159 197 242 297 355
#     4   9  19  36  56  81 117 155 190 236 295 354
#     4  12  24  38  59  87 120 157 197 243 296 357
#     4  10  21  37  58  84 115 152 194 241 292 348
#     4  10  20  38  59  83 114 151 193 244 300 351
#
# _framework density 19.635055000000001
#
# number of rings (size 3 to 8) (size 9 to 14) (size 15 to 20)
#    0.000    1.875    1.250    2.625    1.750    4.000 
#    0.000    1.250    0.000    0.000    0.000    0.000 
#    0.000    0.000    0.000    0.000    0.000    0.000 
#
# Total GULP energy -793788.439123 kJ/mol
# GULP energy per Si atom -12402.944361 kJ/mol
# Density = 1.959037 g / cm^3
# Si number density = 19.635055 Si / 1000 Ang^3
#
#
#
# Elastic Constant Matrix: (Units=GPa)
#
#
# Indices 1 2 3 4 5 6 
#
# 1 56.9062 27.9262 40.3517 0.0000 0.0000 0.0000
# 2 27.9262 120.9133 69.4969 0.0000 0.0000 0.0000
# 3 40.3517 69.4969 147.1869 0.0000 0.0000 0.0000
# 4 0.0000 0.0000 0.0000 37.6237 0.0000 0.0000
# 5 0.0000 0.0000 0.0000 0.0000 37.7490 0.0000
# 6 0.0000 0.0000 0.0000 0.0000 0.0000 17.8213
#
#
#
# Elastic Compliance Matrix: (Units=1/GPa)
#
#
# Indices 1 2 3 4 5 6 
#
# 1 0.022247 -0.002241 -0.005041 0.000000 0.000000 0.000000
# 2 -0.002241 0.011577 -0.004852 0.000000 0.000000 0.000000
# 3 -0.005041 -0.004852 0.010467 0.000000 0.000000 0.000000
# 4 0.000000 0.000000 0.000000 0.026579 0.000000 0.000000
# 5 0.000000 0.000000 0.000000 0.000000 0.026491 0.000000
# 6 0.000000 0.000000 0.000000 0.000000 0.000000 0.056113
#
#
# Mechanical properties :
#
#
# Convention : Reuss Voigt Hill
#
# Bulk Modulus (GPa) = 49.94176 66.72847 58.33512
# Shear Modulus (GPa) = 27.11287 31.12092 29.11689
#
# Velocity S-wave (km/s) = 3.72000 3.98548 3.85503
# Velocity P-wave (km/s) = 6.62883 7.43215 7.04196
#
# Compressibility (1/GPa) = 0.02002332
#
# Stress axis : x y z
#
# Youngs Moduli (GPa) = 44.94994 86.38161 95.53879
#
# Poissons Ratio (x) = 0.19356 0.48162
# Poissons Ratio (y) = 0.10072 0.46353
# Poissons Ratio (z) = 0.22660 0.41910
#
# Static dielectric constant tensor:
#      x y z
#    x 3.494280 0.000000 0.000000 
#    y 0.000000 3.873220 0.000000 
#    z 0.000000 0.000000 3.609420 
# 
# 
# High freq. dielectric constant tensor:
#      x y z
#    x 1.748060 0.000000 0.000000 
#    y 0.000000 1.774590 0.000000 
#    z 0.000000 0.000000 1.772030 
# 
# From -- ./inp_files/21610.got.cif
#   From: 2010.03.12/outbox.cif.g09.slc.cpg/sg59_11_cif.got.tgz:21610.got - 2010.04.16 16:29:54.
