data_PCOD8244094
_publ_section_title
;
Structure prediction by ZEFSAII (Michael W. Deem and Ramdas Pophale) SiO2 
 PCOD8244094
Probable space group: P M M N
;
_chemical_formula_sum "Si O2"
_cell_formula_units_Z 56
_cell_length_a 8.782315
_cell_length_b 14.199062
_cell_length_c 22.938808
_cell_angle_alpha 90.000000
_cell_angle_beta 90.000000
_cell_angle_gamma 90.000000
_cell_volume 2860.483928
_symmetry_space_group_name_H-M "P M M N"
_symmetry_group_IT_number 59
_space_group.IT_coordinate_system_code '2'
_symmetry_cell_setting 'orthorhombic'
loop_
_space_group_symop_operation_xyz
x,y,z
1/2-x,1/2-y,z
1/2+x,-y,-z
-x,1/2+y,-z
-x,-y,-z
1/2+x,1/2+y,-z
1/2-x,y,z
x,1/2-y,z
loop_
_atom_site_type_symbol
_atom_site_label
_atom_site_fract_x
_atom_site_fract_y
_atom_site_fract_z
Si Si1 0.929065 0.146176 0.088914
Si Si2 0.429814 0.039305 0.855337
Si Si3 0.927206 0.143896 0.406655
Si Si4 0.574340 0.642004 0.468776
Si Si5 0.575330 0.639821 0.030667
Si Si6 0.071158 0.359728 0.740424
Si Si7 0.071120 0.966637 0.365707
O O1 0.750000 0.153604 0.083221
O O2 0.998187 0.250000 0.103573
O O3 0.972771 0.071860 0.139829
O O4 0.988511 0.106671 0.027325
O O5 0.250000 0.056047 0.854620
O O6 0.497412 0.090915 0.912354
O O7 0.496014 0.083741 0.796142
O O8 0.750000 0.126240 0.418711
O O9 0.954740 0.250000 0.382954
O O10 0.019660 0.127036 0.465690
O O11 0.990486 0.069107 0.359475
O O12 0.750000 0.611070 0.463737
O O13 0.553412 0.750000 0.449383
O O14 0.472025 0.577411 0.427786
O O15 0.750000 0.610076 0.022848
O O16 0.555757 0.750000 0.040141
O O17 0.250000 0.377367 0.731677
O O18 0.035283 0.250000 0.749279
O O19 0.984985 0.396810 0.684129
O O20 0.250000 0.980350 0.361017
#
# Coordination Sequence:
#
# PCOD8244094 Si02
#       7
#     8   8   8   8   8   8   8
#     4   9  17  29  46  71 102 132 162 201 252 311
#     4   9  17  31  51  72  96 130 172 215 259 309
#     4  10  21  38  60  85 112 142 179 222 265 313
#     4  10  20  35  57  85 116 148 182 222 268 317
#     4   9  16  27  46  72  99 128 164 206 254 308
#     4  10  21  38  58  77  99 132 178 228 271 315
#     4  12  24  37  55  79 111 147 180 219 268 322
#
# _framework density 19.577106000000001
#
# number of rings (size 3 to 8) (size 9 to 14) (size 15 to 20)
#    0.000    2.143    0.000    3.857    0.000    5.429 
#    0.000    2.143    0.000    4.286    0.000    0.000 
#    0.000    0.000    0.000    0.000    0.000    0.000 
#
# Total GULP energy -694366.192260 kJ/mol
# GULP energy per Si atom -12399.396290 kJ/mol
# Density = 1.953255 g / cm^3
# Si number density = 19.577106 Si / 1000 Ang^3
#
#
#
# Elastic Constant Matrix: (Units=GPa)
#
#
# Indices 1 2 3 4 5 6 
#
# 1 53.1169 38.0218 20.1460 0.0000 0.0000 0.0000
# 2 38.0218 100.9795 41.6599 0.0000 0.0000 0.0000
# 3 20.1460 41.6599 58.5419 0.0000 0.0000 0.0000
# 4 0.0000 0.0000 0.0000 35.9532 0.0000 0.0000
# 5 0.0000 0.0000 0.0000 0.0000 22.1767 0.0000
# 6 0.0000 0.0000 0.0000 0.0000 0.0000 23.0518
#
#
#
# Elastic Compliance Matrix: (Units=1/GPa)
#
#
# Indices 1 2 3 4 5 6 
#
# 1 0.026096 -0.008665 -0.002814 0.000000 0.000000 0.000000
# 2 -0.008665 0.016896 -0.009042 0.000000 0.000000 0.000000
# 3 -0.002814 -0.009042 0.024485 0.000000 0.000000 0.000000
# 4 0.000000 0.000000 0.000000 0.027814 0.000000 0.000000
# 5 0.000000 0.000000 0.000000 0.000000 0.045092 0.000000
# 6 0.000000 0.000000 0.000000 0.000000 0.000000 0.043381
#
#
# Mechanical properties :
#
#
# Convention : Reuss Voigt Hill
#
# Bulk Modulus (GPa) = 37.82883 45.81040 41.81962
# Shear Modulus (GPa) = 21.40255 23.75703 22.57979
#
# Velocity S-wave (km/s) = 3.31001 3.48733 3.39983
# Velocity P-wave (km/s) = 5.82865 6.29810 6.06792
#
# Compressibility (1/GPa) = 0.02643486
#
# Stress axis : x y z
#
# Youngs Moduli (GPa) = 38.31963 59.18620 40.84211
#
# Poissons Ratio (x) = 0.51285 0.11494
# Poissons Ratio (y) = 0.33204 0.36928
# Poissons Ratio (z) = 0.10784 0.53514
#
# Static dielectric constant tensor:
#      x y z
#    x 3.586860 0.000000 0.000000 
#    y 0.000000 4.005050 0.000000 
#    z 0.000000 0.000000 3.484530 
# 
# 
# High freq. dielectric constant tensor:
#      x y z
#    x 1.742590 0.000000 0.000000 
#    y 0.000000 1.783920 0.000000 
#    z 0.000000 0.000000 1.740630 
# 
# From -- ./inp_files/29046.got.cif
#   From: 2010.03.12/outbox.cif.g09.slc.cpg/sg59_15_cif.got.tgz:29046.got - 2010.04.16 16:29:54.
