data_PCOD8244384
_publ_section_title
;
Structure prediction by ZEFSAII (Michael W. Deem and Ramdas Pophale) SiO2 
 PCOD8244384
Probable space group: P M M N
;
_chemical_formula_sum "Si O2"
_cell_formula_units_Z 56
_cell_length_a 22.201507
_cell_length_b 8.837134
_cell_length_c 14.688466
_cell_angle_alpha 90.000000
_cell_angle_beta 90.000000
_cell_angle_gamma 90.000000
_cell_volume 2881.843134
_symmetry_space_group_name_H-M "P M M N"
_symmetry_group_IT_number 59
_space_group.IT_coordinate_system_code '2'
_symmetry_cell_setting 'orthorhombic'
loop_
_space_group_symop_operation_xyz
x,y,z
1/2-x,1/2-y,z
1/2+x,-y,-z
-x,1/2+y,-z
-x,-y,-z
1/2+x,1/2+y,-z
1/2-x,y,z
x,1/2-y,z
loop_
_atom_site_type_symbol
_atom_site_label
_atom_site_fract_x
_atom_site_fract_y
_atom_site_fract_z
Si Si1 0.078851 0.073435 0.575181
Si Si2 0.414761 0.427276 0.207818
Si Si3 0.516259 0.926611 0.095055
Si Si4 0.638838 0.422345 0.113706
Si Si5 0.182377 0.923871 0.690026
Si Si6 0.818521 0.422340 0.915522
Si Si7 0.942594 0.426321 0.612531
O O1 0.083713 0.250000 0.551823
O O2 0.013980 0.037031 0.620129
O O3 0.132704 0.028314 0.642490
O O4 0.084966 0.978243 0.483138
O O5 0.425555 0.250000 0.204490
O O6 0.473818 0.511409 0.173322
O O7 0.357759 0.466277 0.145573
O O8 0.405592 0.482338 0.311048
O O9 0.506456 0.750000 0.085862
O O10 0.583887 0.962706 0.123169
O O11 0.500000 0.000000 0.000000
O O12 0.614528 0.250000 0.109831
O O13 0.681024 0.446863 0.200982
O O14 0.675449 0.461456 0.022288
O O15 0.250000 0.968312 0.657782
O O16 0.168347 0.750000 0.664990
O O17 0.750000 0.447065 0.886149
O O18 0.839264 0.250000 0.897344
O O19 0.929823 0.250000 0.625226
#
# Coordination Sequence:
#
# PCOD8244384 Si02
#       7
#     8   8   8   8   8   8   8
#     4  10  21  38  61  90 119 149 188 238 294 349
#     4  12  24  38  58  86 119 154 192 239 288 342
#     4  12  23  36  55  83 117 153 193 240 293 345
#     4  10  20  36  59  85 116 154 197 242 289 346
#     4  10  21  37  58  86 120 159 200 239 286 348
#     4  10  21  38  59  81 111 154 199 241 286 340
#     4  10  21  39  64  90 117 150 188 236 295 356
#
# _framework density 19.432009000000001
#
# number of rings (size 3 to 8) (size 9 to 14) (size 15 to 20)
#    0.000    1.429    1.429    4.714    0.000    6.857 
#    0.000    0.714    0.000    6.857    0.000    0.000 
#    0.000    0.000    0.000    0.000    0.000    0.000 
#
# Total GULP energy -694612.224248 kJ/mol
# GULP energy per Si atom -12403.789719 kJ/mol
# Density = 1.938778 g / cm^3
# Si number density = 19.432009 Si / 1000 Ang^3
#
#
#
# Elastic Constant Matrix: (Units=GPa)
#
#
# Indices 1 2 3 4 5 6 
#
# 1 75.9414 35.1133 32.1146 0.0000 0.0000 0.0000
# 2 35.1133 118.1560 40.5250 0.0000 0.0000 0.0000
# 3 32.1146 40.5250 98.2392 0.0000 0.0000 0.0000
# 4 0.0000 0.0000 0.0000 31.3821 0.0000 0.0000
# 5 0.0000 0.0000 0.0000 0.0000 20.9141 0.0000
# 6 0.0000 0.0000 0.0000 0.0000 0.0000 29.9872
#
#
#
# Elastic Compliance Matrix: (Units=1/GPa)
#
#
# Indices 1 2 3 4 5 6 
#
# 1 0.016466 -0.003549 -0.003919 0.000000 0.000000 0.000000
# 2 -0.003549 0.010623 -0.003222 0.000000 0.000000 0.000000
# 3 -0.003919 -0.003222 0.012789 0.000000 0.000000 0.000000
# 4 0.000000 0.000000 0.000000 0.031865 0.000000 0.000000
# 5 0.000000 0.000000 0.000000 0.000000 0.047815 0.000000
# 6 0.000000 0.000000 0.000000 0.000000 0.000000 0.033348
#
#
# Mechanical properties :
#
#
# Convention : Reuss Voigt Hill
#
# Bulk Modulus (GPa) = 54.05729 56.42694 55.24211
# Shear Modulus (GPa) = 27.70808 28.76226 28.23517
#
# Velocity S-wave (km/s) = 3.78020 3.85144 3.81599
# Velocity P-wave (km/s) = 6.85072 6.99138 6.92140
#
# Compressibility (1/GPa) = 0.01849889
#
# Stress axis : x y z
#
# Youngs Moduli (GPa) = 60.72981 94.13316 78.18993
#
# Poissons Ratio (x) = 0.33412 0.30640
# Poissons Ratio (y) = 0.21555 0.25192
# Poissons Ratio (z) = 0.23798 0.30329
#
# Static dielectric constant tensor:
#      x y z
#    x 3.404860 0.000000 0.000000 
#    y 0.000000 3.443860 0.000000 
#    z 0.000000 0.000000 3.624210 
# 
# 
# High freq. dielectric constant tensor:
#      x y z
#    x 1.747290 0.000000 0.000000 
#    y 0.000000 1.758470 0.000000 
#    z 0.000000 0.000000 1.760540 
# 
# From -- ./inp_files/24223.got.cif
#   From: 2010.03.12/outbox.cif.g09.slc.cpg/sg59_13_cif.got.tgz:24223.got - 2010.04.16 16:29:54.
