data_PCOD8244501
_publ_section_title
;
Structure prediction by ZEFSAII (Michael W. Deem and Ramdas Pophale) SiO2 
 PCOD8244501
Probable space group: P M M N
;
_chemical_formula_sum "Si O2"
_cell_formula_units_Z 48
_cell_length_a 13.388761
_cell_length_b 15.789523
_cell_length_c 11.687163
_cell_angle_alpha 90.000000
_cell_angle_beta 90.000000
_cell_angle_gamma 90.000000
_cell_volume 2470.691383
_symmetry_space_group_name_H-M "P M M N"
_symmetry_group_IT_number 59
_space_group.IT_coordinate_system_code '2'
_symmetry_cell_setting 'orthorhombic'
loop_
_space_group_symop_operation_xyz
x,y,z
1/2-x,1/2-y,z
1/2+x,-y,-z
-x,1/2+y,-z
-x,-y,-z
1/2+x,1/2+y,-z
1/2-x,y,z
x,1/2-y,z
loop_
_atom_site_type_symbol
_atom_site_label
_atom_site_fract_x
_atom_site_fract_y
_atom_site_fract_z
Si Si1 0.636599 0.507374 0.716748
Si Si2 0.133167 0.850227 0.748635
Si Si3 0.359665 0.347002 0.878597
Si Si4 0.970715 0.576374 0.921326
Si Si5 0.995608 0.592361 0.552673
Si Si6 0.494239 0.653838 0.315461
O O1 0.750000 0.497772 0.687668
O O2 0.617245 0.538450 0.844330
O O3 0.595619 0.585587 0.640591
O O4 0.595143 0.412940 0.693938
O O5 0.250000 0.875501 0.763580
O O6 0.119230 0.750000 0.754411
O O7 0.067009 0.890504 0.850948
O O8 0.095155 0.882588 0.624380
O O9 0.250000 0.391727 0.886821
O O10 0.341901 0.250000 0.852791
O O11 0.419533 0.383291 0.768321
O O12 0.422582 0.353292 0.995997
O O13 0.000000 0.500000 0.000000
O O14 0.000000 0.500000 0.500000
O O15 0.972588 0.657281 0.449168
O O16 0.462759 0.750000 0.279341
#
# Coordination Sequence:
#
# PCOD8244501 Si02
#       6
#     8   8   8   8   8   8
#     4  10  21  37  56  83 114 149 193 235 285 339
#     4  10  22  40  64  91 118 154 198 245 299 354
#     4  10  21  37  58  83 114 155 197 236 284 343
#     4  11  21  39  58  84 117 154 192 241 290 341
#     4   9  20  37  56  84 117 151 190 237 287 340
#     4  10  20  37  58  84 117 151 189 235 288 343
#
# _framework density 19.427759999999999
#
# number of rings (size 3 to 8) (size 9 to 14) (size 15 to 20)
#    0.000    2.000    1.667    1.500    0.000    5.000 
#    0.000    0.000    0.000    9.500    0.000    0.000 
#    0.000    0.000    0.000    0.000    0.000    0.000 
#
# Total GULP energy -594696.238379 kJ/mol
# GULP energy per Si atom -12389.504966 kJ/mol
# Density = 1.938354 g / cm^3
# Si number density = 19.427760 Si / 1000 Ang^3
#
#
#
# Elastic Constant Matrix: (Units=GPa)
#
#
# Indices 1 2 3 4 5 6 
#
# 1 144.9109 35.8787 60.3085 0.0000 0.0000 0.0000
# 2 35.8787 64.9708 22.0839 0.0000 0.0000 0.0000
# 3 60.3085 22.0839 138.9859 0.0000 0.0000 0.0000
# 4 0.0000 0.0000 0.0000 35.4182 0.0000 0.0000
# 5 0.0000 0.0000 0.0000 0.0000 15.9228 0.0000
# 6 0.0000 0.0000 0.0000 0.0000 0.0000 27.3733
#
#
#
# Elastic Compliance Matrix: (Units=1/GPa)
#
#
# Indices 1 2 3 4 5 6 
#
# 1 0.009303 -0.003980 -0.003404 0.000000 0.000000 0.000000
# 2 -0.003980 0.017973 -0.001129 0.000000 0.000000 0.000000
# 3 -0.003404 -0.001129 0.008852 0.000000 0.000000 0.000000
# 4 0.000000 0.000000 0.000000 0.028234 0.000000 0.000000
# 5 0.000000 0.000000 0.000000 0.000000 0.062803 0.000000
# 6 0.000000 0.000000 0.000000 0.000000 0.000000 0.036532
#
#
# Mechanical properties :
#
#
# Convention : Reuss Voigt Hill
#
# Bulk Modulus (GPa) = 52.35281 65.04555 58.69918
# Shear Modulus (GPa) = 26.72504 31.11596 28.92050
#
# Velocity S-wave (km/s) = 3.71295 4.00637 3.86245
# Velocity P-wave (km/s) = 6.73700 7.41315 7.08315
#
# Compressibility (1/GPa) = 0.01910117
#
# Stress axis : x y z
#
# Youngs Moduli (GPa) = 107.49120 55.63840 112.97494
#
# Poissons Ratio (x) = 0.22146 0.38461
# Poissons Ratio (y) = 0.42785 0.12751
# Poissons Ratio (z) = 0.36594 0.06280
#
# Static dielectric constant tensor:
#      x y z
#    x 3.727700 0.000000 0.000000 
#    y 0.000000 3.630430 0.000000 
#    z 0.000000 0.000000 4.037800 
# 
# 
# High freq. dielectric constant tensor:
#      x y z
#    x 1.742670 0.000000 0.000000 
#    y 0.000000 1.755550 0.000000 
#    z 0.000000 0.000000 1.775230 
# 
# From -- ./inp_files/15756.got.cif
#   From: 2010.03.12/outbox.cif.g09.slc.cpg/sg59_8_cif.got.tgz:15756.got - 2010.04.16 16:29:54.
