data_PCOD8244295
_publ_section_title
;
Structure prediction by ZEFSAII (Michael W. Deem and Ramdas Pophale) SiO2 
 PCOD8244295
Probable space group: P M M N
;
_chemical_formula_sum "Si O2"
_cell_formula_units_Z 64
_cell_length_a 19.823748
_cell_length_b 8.817604
_cell_length_c 19.791978
_cell_angle_alpha 90.000000
_cell_angle_beta 90.000000
_cell_angle_gamma 90.000000
_cell_volume 3459.597372
_symmetry_space_group_name_H-M "P M M N"
_symmetry_group_IT_number 59
_space_group.IT_coordinate_system_code '2'
_symmetry_cell_setting 'orthorhombic'
loop_
_space_group_symop_operation_xyz
x,y,z
1/2-x,1/2-y,z
1/2+x,-y,-z
-x,1/2+y,-z
-x,-y,-z
1/2+x,1/2+y,-z
1/2-x,y,z
x,1/2-y,z
loop_
_atom_site_type_symbol
_atom_site_label
_atom_site_fract_x
_atom_site_fract_y
_atom_site_fract_z
Si Si1 0.827798 0.926681 0.553437
Si Si2 0.433029 0.571737 0.969932
Si Si3 0.929684 0.924664 0.315660
Si Si4 0.326852 0.924837 0.587345
Si Si5 0.901355 0.927830 0.805499
Si Si6 0.958240 0.926632 0.164259
Si Si7 0.583896 0.427547 0.666945
Si Si8 0.326493 0.923695 0.080697
O O1 0.750000 0.964717 0.570712
O O2 0.843334 0.750000 0.563097
O O3 0.844607 0.972501 0.476988
O O4 0.876574 0.023721 0.600459
O O5 0.442970 0.750000 0.964999
O O6 0.416731 0.507399 0.895286
O O7 0.500000 0.500000 0.000000
O O8 0.371003 0.524701 0.017175
O O9 0.913581 0.750000 0.332093
O O10 0.922463 0.957409 0.235864
O O11 0.004790 0.967371 0.340914
O O12 0.875905 0.031150 0.351867
O O13 0.250000 0.953907 0.610799
O O14 0.338082 0.750000 0.567788
O O15 0.913670 0.750000 0.804306
O O16 0.884392 0.983694 0.730130
O O17 0.839742 0.971139 0.854243
O O18 0.966412 0.009857 0.835665
O O19 0.963373 0.750000 0.148521
O O20 0.592985 0.250000 0.680267
O O21 0.250000 0.946516 0.057835
O O22 0.341921 0.750000 0.100739
#
# Coordination Sequence:
#
# PCOD8244295 Si02
#       8
#     8   8   8   8   8   8   8   8
#     4  10  21  37  57  81 110 146 189 232 274 329
#     4  11  21  34  58  85 110 144 186 230 277 329
#     4   9  20  37  57  82 111 145 184 229 278 329
#     4  10  21  37  58  83 110 144 186 230 280 337
#     4  11  21  34  55  81 109 143 183 226 275 329
#     4  10  20  36  57  82 112 143 183 228 273 331
#     4  10  21  37  57  82 114 148 184 228 277 329
#     4  10  22  39  56  77 110 150 188 228 276 330
#
# _framework density 18.499264
#
# number of rings (size 3 to 8) (size 9 to 14) (size 15 to 20)
#    0.000    1.875    1.250    3.750    0.000    6.250 
#    0.000    0.625    0.000    2.250    0.000    0.000 
#    0.000    0.000    0.000    0.000    0.000    0.000 
#
# Total GULP energy -793862.604069 kJ/mol
# GULP energy per Si atom -12404.103189 kJ/mol
# Density = 1.845716 g / cm^3
# Si number density = 18.499264 Si / 1000 Ang^3
#
#
#
# Elastic Constant Matrix: (Units=GPa)
#
#
# Indices 1 2 3 4 5 6 
#
# 1 92.9032 41.2261 61.4237 0.0000 0.0000 0.0000
# 2 41.2261 79.0680 40.8088 0.0000 0.0000 0.0000
# 3 61.4237 40.8088 108.3012 0.0000 0.0000 0.0000
# 4 0.0000 0.0000 0.0000 39.0711 0.0000 0.0000
# 5 0.0000 0.0000 0.0000 0.0000 30.2709 0.0000
# 6 0.0000 0.0000 0.0000 0.0000 0.0000 27.9021
#
#
#
# Elastic Compliance Matrix: (Units=1/GPa)
#
#
# Indices 1 2 3 4 5 6 
#
# 1 0.018892 -0.005363 -0.008694 0.000000 0.000000 0.000000
# 2 -0.005363 0.017223 -0.003448 0.000000 0.000000 0.000000
# 3 -0.008694 -0.003448 0.015463 0.000000 0.000000 0.000000
# 4 0.000000 0.000000 0.000000 0.025594 0.000000 0.000000
# 5 0.000000 0.000000 0.000000 0.000000 0.033035 0.000000
# 6 0.000000 0.000000 0.000000 0.000000 0.000000 0.035840
#
#
# Mechanical properties :
#
#
# Convention : Reuss Voigt Hill
#
# Bulk Modulus (GPa) = 60.35521 63.02107 61.68814
# Shear Modulus (GPa) = 26.79811 28.56975 27.68393
#
# Velocity S-wave (km/s) = 3.81018 3.93411 3.87264
# Velocity P-wave (km/s) = 7.21479 7.40115 7.30857
#
# Compressibility (1/GPa) = 0.01656858
#
# Stress axis : x y z
#
# Youngs Moduli (GPa) = 52.93332 58.06066 64.66857
#
# Poissons Ratio (x) = 0.31139 0.56221
# Poissons Ratio (y) = 0.28389 0.22299
# Poissons Ratio (z) = 0.46018 0.20020
#
# Static dielectric constant tensor:
#      x y z
#    x 3.256410 0.000000 0.000000 
#    y 0.000000 3.456160 0.000000 
#    z 0.000000 0.000000 3.481360 
# 
# 
# High freq. dielectric constant tensor:
#      x y z
#    x 1.701420 0.000000 0.000000 
#    y 0.000000 1.728730 0.000000 
#    z 0.000000 0.000000 1.724420 
# 
# From -- ./inp_files/28278.got.cif
#   From: 2010.03.12/outbox.cif.g09.slc.cpg/sg59_15_cif.got.tgz:28278.got - 2010.04.16 16:29:54.
