data_PCOD8244367
_publ_section_title
;
Structure prediction by ZEFSAII (Michael W. Deem and Ramdas Pophale) SiO2 
 PCOD8244367
Probable space group: P M M N
;
_chemical_formula_sum "Si O2"
_cell_formula_units_Z 64
_cell_length_a 15.133819
_cell_length_b 17.971139
_cell_length_c 11.988660
_cell_angle_alpha 90.000000
_cell_angle_beta 90.000000
_cell_angle_gamma 90.000000
_cell_volume 3260.579416
_symmetry_space_group_name_H-M "P M M N"
_symmetry_group_IT_number 59
_space_group.IT_coordinate_system_code '2'
_symmetry_cell_setting 'orthorhombic'
loop_
_space_group_symop_operation_xyz
x,y,z
1/2-x,1/2-y,z
1/2+x,-y,-z
-x,1/2+y,-z
-x,-y,-z
1/2+x,1/2+y,-z
1/2-x,y,z
x,1/2-y,z
loop_
_atom_site_type_symbol
_atom_site_label
_atom_site_fract_x
_atom_site_fract_y
_atom_site_fract_z
Si Si1 0.849382 0.918836 0.663917
Si Si2 0.473279 0.927920 0.563579
Si Si3 0.652147 0.166140 0.058975
Si Si4 0.350518 0.335138 0.103788
Si Si5 0.940490 0.941506 0.069792
Si Si6 0.150073 0.907273 0.372364
Si Si7 0.647925 0.048443 0.226914
Si Si8 0.059936 0.834505 0.174586
O O1 0.750000 0.900566 0.614644
O O2 0.858004 0.882355 0.784030
O O3 0.933618 0.885975 0.594069
O O4 0.862610 0.007817 0.670036
O O5 0.411920 0.882309 0.476846
O O6 0.416160 0.956369 0.668045
O O7 0.500000 0.000000 0.500000
O O8 0.750000 0.135767 0.034303
O O9 0.652291 0.250000 0.099005
O O10 0.613458 0.122272 0.164075
O O11 0.599663 0.153821 0.947179
O O12 0.250000 0.332597 0.062903
O O13 0.385753 0.250000 0.119671
O O14 0.407053 0.377032 0.011546
O O15 0.985753 0.898130 0.174221
O O16 0.862309 0.983186 0.135163
O O17 0.000000 0.000000 0.000000
O O18 0.250000 0.894092 0.411621
O O19 0.130389 0.851904 0.270496
O O20 0.750000 0.051165 0.266422
O O21 0.024915 0.750000 0.189936
#
# Coordination Sequence:
#
# PCOD8244367 Si02
#       8
#     8   8   8   8   8   8   8   8
#     4   9  19  35  59  86 112 150 195 245 301 352
#     4  10  20  38  58  84 116 149 196 252 298 342
#     4   9  19  35  54  82 119 153 186 228 284 351
#     4  10  21  37  56  81 116 153 190 237 295 359
#     4  12  21  35  54  85 117 152 191 242 288 352
#     4  10  20  36  59  83 113 155 203 247 289 343
#     4  11  22  36  59  88 116 154 196 241 297 353
#     4  11  22  36  55  81 116 158 194 234 292 353
#
# _framework density 19.628413999999999
#
# number of rings (size 3 to 8) (size 9 to 14) (size 15 to 20)
#    0.000    1.750    1.250    4.500    0.000    1.250 
#    0.000    1.250    0.000    1.500    0.000    0.000 
#    0.000    0.000    0.000    0.000    0.000    0.000 
#
# Total GULP energy -792925.464443 kJ/mol
# GULP energy per Si atom -12389.460382 kJ/mol
# Density = 1.958374 g / cm^3
# Si number density = 19.628414 Si / 1000 Ang^3
#
#
#
# Elastic Constant Matrix: (Units=GPa)
#
#
# Indices 1 2 3 4 5 6 
#
# 1 119.3432 36.5266 60.0069 0.0000 0.0000 0.0000
# 2 36.5266 75.0166 35.4654 0.0000 0.0000 0.0000
# 3 60.0069 35.4654 96.4095 0.0000 0.0000 0.0000
# 4 0.0000 0.0000 0.0000 12.0476 0.0000 0.0000
# 5 0.0000 0.0000 0.0000 0.0000 33.5094 0.0000
# 6 0.0000 0.0000 0.0000 0.0000 0.0000 24.7037
#
#
#
# Elastic Compliance Matrix: (Units=1/GPa)
#
#
# Indices 1 2 3 4 5 6 
#
# 1 0.012719 -0.002966 -0.006825 0.000000 0.000000 0.000000
# 2 -0.002966 0.016829 -0.004344 0.000000 0.000000 0.000000
# 3 -0.006825 -0.004344 0.016219 0.000000 0.000000 0.000000
# 4 0.000000 0.000000 0.000000 0.083004 0.000000 0.000000
# 5 0.000000 0.000000 0.000000 0.000000 0.029842 0.000000
# 6 0.000000 0.000000 0.000000 0.000000 0.000000 0.040480
#
#
# Mechanical properties :
#
#
# Convention : Reuss Voigt Hill
#
# Bulk Modulus (GPa) = 57.16109 61.64078 59.40093
# Shear Modulus (GPa) = 21.44123 24.63683 23.03903
#
# Velocity S-wave (km/s) = 3.30867 3.54667 3.42973
# Velocity P-wave (km/s) = 6.61674 6.94578 6.78325
#
# Compressibility (1/GPa) = 0.01749442
#
# Stress axis : x y z
#
# Youngs Moduli (GPa) = 78.62335 59.42289 61.65717
#
# Poissons Ratio (x) = 0.17626 0.42083
# Poissons Ratio (y) = 0.23321 0.26786
# Poissons Ratio (z) = 0.53663 0.25815
#
# Static dielectric constant tensor:
#      x y z
#    x 4.894420 0.000000 0.000000 
#    y 0.000000 3.084600 0.000000 
#    z 0.000000 0.000000 3.623820 
# 
# 
# High freq. dielectric constant tensor:
#      x y z
#    x 1.777560 0.000000 0.000000 
#    y 0.000000 1.751150 0.000000 
#    z 0.000000 0.000000 1.757400 
# 
# From -- ./inp_files/17222.got.cif
#   From: 2010.03.12/outbox.cif.g09.slc.cpg/sg59_9_cif.got.tgz:17222.got - 2010.04.16 16:29:54.
