data_PCOD8244348
_publ_section_title
;
Structure prediction by ZEFSAII (Michael W. Deem and Ramdas Pophale) SiO2 
 PCOD8244348
Probable space group: P M M N
;
_chemical_formula_sum "Si O2"
_cell_formula_units_Z 48
_cell_length_a 30.339186
_cell_length_b 8.784368
_cell_length_c 9.339115
_cell_angle_alpha 90.000000
_cell_angle_beta 90.000000
_cell_angle_gamma 90.000000
_cell_volume 2488.972905
_symmetry_space_group_name_H-M "P M M N"
_symmetry_group_IT_number 59
_space_group.IT_coordinate_system_code '2'
_symmetry_cell_setting 'orthorhombic'
loop_
_space_group_symop_operation_xyz
x,y,z
1/2-x,1/2-y,z
1/2+x,-y,-z
-x,1/2+y,-z
-x,-y,-z
1/2+x,1/2+y,-z
1/2-x,y,z
x,1/2-y,z
loop_
_atom_site_type_symbol
_atom_site_label
_atom_site_fract_x
_atom_site_fract_y
_atom_site_fract_z
Si Si1 0.952174 0.068709 0.981930
Si Si2 0.821816 0.588600 0.992748
Si Si3 0.750000 0.068943 0.534271
Si Si4 0.250000 0.920920 0.153745
Si Si5 0.894102 0.580778 0.757870
Si Si6 0.651238 0.068946 0.487180
Si Si7 0.389065 0.073502 0.783332
O O1 0.953337 0.250000 0.980106
O O2 0.935079 0.011908 0.825516
O O3 0.924087 0.016147 0.120066
O O4 0.000000 0.000000 0.000000
O O5 0.795522 0.750000 0.989823
O O6 0.791887 0.450965 0.944025
O O7 0.863490 0.604445 0.892914
O O8 0.840095 0.556693 0.150535
O O9 0.750000 0.250000 0.536366
O O10 0.750000 0.992675 0.694117
O O11 0.703003 0.015519 0.464405
O O12 0.250000 0.750000 0.200929
O O13 0.908339 0.750000 0.701351
O O14 0.867534 0.487020 0.638945
O O15 0.648750 0.250000 0.482896
O O16 0.617239 0.000482 0.372195
O O17 0.403615 0.250000 0.770166
#
# Coordination Sequence:
#
# PCOD8244348 Si02
#       7
#     8   8   4   4   8   8   8
#     4  11  22  40  66  93 118 150 189 237 293 353
#     4   9  19  34  52  75 107 145 188 236 285 337
#     4   9  20  34  51  80 118 156 199 245 288 341
#     4  11  19  30  51  78 108 144 191 245 288 335
#     4  10  20  36  58  85 115 152 193 237 286 344
#     4  11  21  37  58  85 120 160 202 244 293 347
#     4  10  22  40  58  83 117 152 191 239 294 350
#
# _framework density 19.285062
#
# number of rings (size 3 to 8) (size 9 to 14) (size 15 to 20)
#    0.000    1.833    1.667    4.250    0.000    4.000 
#    0.000    4.167    0.000    0.000    0.000    0.000 
#    0.000    0.000    0.000    0.000    0.000    0.000 
#
# Total GULP energy -594630.750571 kJ/mol
# GULP energy per Si atom -12388.140637 kJ/mol
# Density = 1.924117 g / cm^3
# Si number density = 19.285062 Si / 1000 Ang^3
#
#
#
# Elastic Constant Matrix: (Units=GPa)
#
#
# Indices 1 2 3 4 5 6 
#
# 1 103.6755 44.4068 31.1103 0.0000 0.0000 0.0000
# 2 44.4068 120.7671 26.7800 0.0000 0.0000 0.0000
# 3 31.1103 26.7800 69.8706 0.0000 0.0000 0.0000
# 4 0.0000 0.0000 0.0000 30.9579 0.0000 0.0000
# 5 0.0000 0.0000 0.0000 0.0000 22.6152 0.0000
# 6 0.0000 0.0000 0.0000 0.0000 0.0000 30.4138
#
#
#
# Elastic Compliance Matrix: (Units=1/GPa)
#
#
# Indices 1 2 3 4 5 6 
#
# 1 0.012457 -0.003662 -0.004143 0.000000 0.000000 0.000000
# 2 -0.003662 0.010126 -0.002251 0.000000 0.000000 0.000000
# 3 -0.004143 -0.002251 0.017020 0.000000 0.000000 0.000000
# 4 0.000000 0.000000 0.000000 0.032302 0.000000 0.000000
# 5 0.000000 0.000000 0.000000 0.000000 0.044218 0.000000
# 6 0.000000 0.000000 0.000000 0.000000 0.000000 0.032880
#
#
# Mechanical properties :
#
#
# Convention : Reuss Voigt Hill
#
# Bulk Modulus (GPa) = 51.30439 55.43415 53.36927
# Shear Modulus (GPa) = 28.47205 29.59845 29.03525
#
# Velocity S-wave (km/s) = 3.84654 3.92188 3.88439
# Velocity P-wave (km/s) = 6.81093 7.02248 6.91751
#
# Compressibility (1/GPa) = 0.01949151
#
# Stress axis : x y z
#
# Youngs Moduli (GPa) = 80.27499 98.75612 58.75598
#
# Poissons Ratio (x) = 0.36163 0.24343
# Poissons Ratio (y) = 0.29395 0.13224
# Poissons Ratio (z) = 0.33259 0.22226
#
# Static dielectric constant tensor:
#      x y z
#    x 3.734430 0.000000 0.000000 
#    y 0.000000 3.707690 0.000000 
#    z 0.000000 0.000000 3.464420 
# 
# 
# High freq. dielectric constant tensor:
#      x y z
#    x 1.737980 0.000000 0.000000 
#    y 0.000000 1.756560 0.000000 
#    z 0.000000 0.000000 1.745020 
# 
# From -- ./inp_files/13033.got.cif
#   From: 2010.03.12/outbox.cif.g09.slc.cpg/sg59_7_cif.got.tgz:13033.got - 2010.04.16 16:29:54.
