data_PCOD8244941
_publ_section_title
;
Structure prediction by ZEFSAII (Michael W. Deem and Ramdas Pophale) SiO2 
 PCOD8244941
Probable space group: P M M N
;
_chemical_formula_sum "Si O2"
_cell_formula_units_Z 48
_cell_length_a 9.178003
_cell_length_b 9.114749
_cell_length_c 30.779411
_cell_angle_alpha 90.000000
_cell_angle_beta 90.000000
_cell_angle_gamma 90.000000
_cell_volume 2574.857588
_symmetry_space_group_name_H-M "P M M N"
_symmetry_group_IT_number 59
_space_group.IT_coordinate_system_code '2'
_symmetry_cell_setting 'orthorhombic'
loop_
_space_group_symop_operation_xyz
x,y,z
1/2-x,1/2-y,z
1/2+x,-y,-z
-x,1/2+y,-z
-x,-y,-z
1/2+x,1/2+y,-z
1/2-x,y,z
x,1/2-y,z
loop_
_atom_site_type_symbol
_atom_site_label
_atom_site_fract_x
_atom_site_fract_y
_atom_site_fract_z
Si Si1 0.578917 0.581045 0.038798
Si Si2 0.918449 0.421432 0.126596
Si Si3 0.582103 0.922866 0.538899
Si Si4 0.583057 0.578864 0.289354
Si Si5 0.416952 0.921957 0.624311
Si Si6 0.421623 0.918792 0.202957
O O1 0.750000 0.564608 0.031419
O O2 0.529942 0.750000 0.040179
O O3 0.530382 0.505670 0.083536
O O4 0.500000 0.500000 0.000000
O O5 0.750000 0.454851 0.137008
O O6 0.946590 0.250000 0.119429
O O7 0.015134 0.478197 0.165898
O O8 0.750000 0.969777 0.538174
O O9 0.561428 0.750000 0.533611
O O10 0.513103 0.977803 0.584091
O O11 0.500000 0.000000 0.500000
O O12 0.750000 0.535053 0.279799
O O13 0.565671 0.750000 0.297973
O O14 0.523867 0.497764 0.332093
O O15 0.487365 0.527545 0.248603
O O16 0.250000 0.967291 0.615207
O O17 0.433636 0.750000 0.631082
O O18 0.250000 0.939110 0.204871
O O19 0.465859 0.750000 0.193709
#
# Coordination Sequence:
#
# PCOD8244941 Si02
#       6
#     8   8   8   8   8   8
#     4  10  21  37  58  83 110 142 179 219 265 316
#     4  10  21  37  57  80 106 139 180 222 264 314
#     4  10  21  36  54  77 105 138 176 217 262 313
#     4   9  18  33  53  76 103 137 176 216 258 308
#     4   9  18  33  52  74 102 135 171 212 258 309
#     4  10  21  36  54  78 108 141 177 218 264 312
#
# _framework density 18.641808999999999
#
# number of rings (size 3 to 8) (size 9 to 14) (size 15 to 20)
#    0.000    2.333    0.000    2.000    0.000    6.667 
#    0.000    3.333    0.000    0.000    0.000    0.000 
#    0.000    0.000    0.000    0.000    0.000    0.000 
#
# Total GULP energy -595397.371134 kJ/mol
# GULP energy per Si atom -12404.111899 kJ/mol
# Density = 1.859938 g / cm^3
# Si number density = 18.641809 Si / 1000 Ang^3
#
#
#
# Elastic Constant Matrix: (Units=GPa)
#
#
# Indices 1 2 3 4 5 6 
#
# 1 87.7232 46.8507 80.9917 0.0000 0.0000 0.0000
# 2 46.8507 80.0880 76.0391 0.0000 0.0000 0.0000
# 3 80.9917 76.0391 184.8121 0.0000 0.0000 0.0000
# 4 0.0000 0.0000 0.0000 41.9242 0.0000 0.0000
# 5 0.0000 0.0000 0.0000 0.0000 39.7676 0.0000
# 6 0.0000 0.0000 0.0000 0.0000 0.0000 27.0265
#
#
#
# Elastic Compliance Matrix: (Units=1/GPa)
#
#
# Indices 1 2 3 4 5 6 
#
# 1 0.020627 -0.005718 -0.006687 0.000000 0.000000 0.000000
# 2 -0.005718 0.022076 -0.006577 0.000000 0.000000 0.000000
# 3 -0.006687 -0.006577 0.011048 0.000000 0.000000 0.000000
# 4 0.000000 0.000000 0.000000 0.023853 0.000000 0.000000
# 5 0.000000 0.000000 0.000000 0.000000 0.025146 0.000000
# 6 0.000000 0.000000 0.000000 0.000000 0.000000 0.037001
#
#
# Mechanical properties :
#
#
# Convention : Reuss Voigt Hill
#
# Bulk Modulus (GPa) = 63.34498 84.48736 73.91617
# Shear Modulus (GPa) = 27.32606 31.65978 29.49292
#
# Velocity S-wave (km/s) = 3.83279 4.12554 3.98186
# Velocity P-wave (km/s) = 7.32399 8.25308 7.80238
#
# Compressibility (1/GPa) = 0.01578657
#
# Stress axis : x y z
#
# Youngs Moduli (GPa) = 48.47998 45.29885 90.51773
#
# Poissons Ratio (x) = 0.25900 0.60530
# Poissons Ratio (y) = 0.27719 0.59535
# Poissons Ratio (z) = 0.32419 0.29794
#
# Static dielectric constant tensor:
#      x y z
#    x 3.426700 0.000000 0.000000 
#    y 0.000000 3.330560 0.000000 
#    z 0.000000 0.000000 3.589860 
# 
# 
# High freq. dielectric constant tensor:
#      x y z
#    x 1.719920 0.000000 0.000000 
#    y 0.000000 1.722010 0.000000 
#    z 0.000000 0.000000 1.736970 
# 
# From -- ./inp_files/32802.got.cif
#   From: 2010.03.12/outbox.cif.g09.slc.cpg/sg59_17_cif.got.tgz:32802.got - 2010.04.16 16:29:54.
