data_PCOD8244341
_publ_section_title
;
Structure prediction by ZEFSAII (Michael W. Deem and Ramdas Pophale) SiO2 
 PCOD8244341
Probable space group: P M M N
;
_chemical_formula_sum "Si O2"
_cell_formula_units_Z 56
_cell_length_a 9.217086
_cell_length_b 15.643705
_cell_length_c 19.875899
_cell_angle_alpha 90.000000
_cell_angle_beta 90.000000
_cell_angle_gamma 90.000000
_cell_volume 2865.893441
_symmetry_space_group_name_H-M "P M M N"
_symmetry_group_IT_number 59
_space_group.IT_coordinate_system_code '2'
_symmetry_cell_setting 'orthorhombic'
loop_
_space_group_symop_operation_xyz
x,y,z
1/2-x,1/2-y,z
1/2+x,-y,-z
-x,1/2+y,-z
-x,-y,-z
1/2+x,1/2+y,-z
1/2-x,y,z
x,1/2-y,z
loop_
_atom_site_type_symbol
_atom_site_label
_atom_site_fract_x
_atom_site_fract_y
_atom_site_fract_z
Si Si1 0.580088 0.151544 0.322649
Si Si2 0.576272 0.932257 0.950498
Si Si3 0.583791 0.933912 0.795671
Si Si4 0.087070 0.158493 0.646410
Si Si5 0.420412 0.509381 0.569950
Si Si6 0.908828 0.750000 0.989201
Si Si7 0.416174 0.873757 0.227152
Si Si8 0.090292 0.250000 0.854230
O O1 0.750000 0.137068 0.312059
O O2 0.544908 0.250000 0.342375
O O3 0.506622 0.131371 0.250547
O O4 0.525012 0.088690 0.383011
O O5 0.750000 0.940096 0.961058
O O6 0.530808 0.944361 0.872689
O O7 0.513166 0.837674 0.967156
O O8 0.500000 0.000000 0.000000
O O9 0.750000 0.902891 0.794323
O O10 0.562395 0.025996 0.762806
O O11 0.250000 0.139483 0.672858
O O12 0.083546 0.250000 0.606715
O O13 0.978115 0.171698 0.707552
O O14 0.034249 0.080286 0.602215
O O15 0.500000 0.500000 0.500000
O O16 0.250000 0.518462 0.556921
O O17 0.750000 0.750000 0.954378
O O18 0.890659 0.750000 0.067637
O O19 0.250000 0.848798 0.216387
O O20 0.503904 0.836247 0.164134
O O21 0.250000 0.250000 0.819868
#
# Coordination Sequence:
#
# PCOD8244341 Si02
#       8
#     8   8   8   8   8   4   8   4
#     4  10  22  40  62  89 120 155 198 242 291 351
#     4  10  21  39  59  83 115 155 199 247 299 356
#     4  10  22  37  59  87 117 153 197 247 303 352
#     4  10  20  36  58  84 113 149 191 230 275 335
#     4  10  22  40  61  87 120 156 192 236 284 340
#     4   9  20  37  57  79 109 152 199 236 285 355
#     4  11  21  33  52  84 117 146 186 239 294 344
#     4  11  21  33  53  81 111 152 197 236 289 355
#
# _framework density 19.540154000000001
#
# number of rings (size 3 to 8) (size 9 to 14) (size 15 to 20)
#    0.000    1.857    2.143    1.500    1.000    3.143 
#    0.000    1.071    0.000    0.000    0.000    0.000 
#    0.000    0.000    0.000    0.000    0.000    0.000 
#
# Total GULP energy -693986.525884 kJ/mol
# GULP energy per Si atom -12392.616534 kJ/mol
# Density = 1.949568 g / cm^3
# Si number density = 19.540154 Si / 1000 Ang^3
#
#
#
# Elastic Constant Matrix: (Units=GPa)
#
#
# Indices 1 2 3 4 5 6 
#
# 1 68.2273 39.5397 39.0726 0.0000 0.0000 0.0000
# 2 39.5397 155.2199 62.8893 0.0000 0.0000 0.0000
# 3 39.0726 62.8893 123.5503 0.0000 0.0000 0.0000
# 4 0.0000 0.0000 0.0000 22.7726 0.0000 0.0000
# 5 0.0000 0.0000 0.0000 0.0000 30.3091 0.0000
# 6 0.0000 0.0000 0.0000 0.0000 0.0000 33.8580
#
#
#
# Elastic Compliance Matrix: (Units=1/GPa)
#
#
# Indices 1 2 3 4 5 6 
#
# 1 0.018962 -0.003024 -0.004457 0.000000 0.000000 0.000000
# 2 -0.003024 0.008599 -0.003420 0.000000 0.000000 0.000000
# 3 -0.004457 -0.003420 0.011245 0.000000 0.000000 0.000000
# 4 0.000000 0.000000 0.000000 0.043913 0.000000 0.000000
# 5 0.000000 0.000000 0.000000 0.000000 0.032993 0.000000
# 6 0.000000 0.000000 0.000000 0.000000 0.000000 0.029535
#
#
# Mechanical properties :
#
#
# Convention : Reuss Voigt Hill
#
# Bulk Modulus (GPa) = 58.81925 70.00007 64.40966
# Shear Modulus (GPa) = 28.94893 31.08765 30.01829
#
# Velocity S-wave (km/s) = 3.85321 3.99301 3.92374
# Velocity P-wave (km/s) = 7.06848 7.56045 7.31860
#
# Compressibility (1/GPa) = 0.01700124
#
# Stress axis : x y z
#
# Youngs Moduli (GPa) = 52.73637 116.29637 88.93193
#
# Poissons Ratio (x) = 0.35172 0.39640
# Poissons Ratio (y) = 0.15949 0.30419
# Poissons Ratio (z) = 0.23506 0.39779
#
# Static dielectric constant tensor:
#      x y z
#    x 3.141810 0.000000 0.000000 
#    y 0.000000 3.216110 0.000000 
#    z 0.000000 0.000000 3.437010 
# 
# 
# High freq. dielectric constant tensor:
#      x y z
#    x 1.746480 0.000000 0.000000 
#    y 0.000000 1.781550 0.000000 
#    z 0.000000 0.000000 1.751340 
# 
# From -- ./inp_files/29255.got.cif
#   From: 2010.03.12/outbox.cif.g09.slc.cpg/sg59_15_cif.got.tgz:29255.got - 2010.04.16 16:29:54.
