data_PCOD8244126
_publ_section_title
;
Structure prediction by ZEFSAII (Michael W. Deem and Ramdas Pophale) SiO2 
 PCOD8244126
Probable space group: P M M N
;
_chemical_formula_sum "Si O2"
_cell_formula_units_Z 48
_cell_length_a 28.016716
_cell_length_b 8.890319
_cell_length_c 10.199377
_cell_angle_alpha 90.000000
_cell_angle_beta 90.000000
_cell_angle_gamma 90.000000
_cell_volume 2540.435759
_symmetry_space_group_name_H-M "P M M N"
_symmetry_group_IT_number 59
_space_group.IT_coordinate_system_code '2'
_symmetry_cell_setting 'orthorhombic'
loop_
_space_group_symop_operation_xyz
x,y,z
1/2-x,1/2-y,z
1/2+x,-y,-z
-x,1/2+y,-z
-x,-y,-z
1/2+x,1/2+y,-z
1/2-x,y,z
x,1/2-y,z
loop_
_atom_site_type_symbol
_atom_site_label
_atom_site_fract_x
_atom_site_fract_y
_atom_site_fract_z
Si Si1 0.006380 0.423981 0.139670
Si Si2 0.104393 0.073058 0.251033
Si Si3 0.645782 0.573565 0.477315
Si Si4 0.250000 0.077424 0.611018
Si Si5 0.343923 0.426558 0.989067
Si Si6 0.750000 0.426909 0.111641
Si Si7 0.903548 0.075776 0.231373
O O1 0.015974 0.250000 0.109332
O O2 0.960590 0.446694 0.233012
O O3 0.051894 0.493244 0.217229
O O4 0.000000 0.500000 0.000000
O O5 0.100421 0.250000 0.267433
O O6 0.125283 0.007287 0.386464
O O7 0.140721 0.030909 0.135608
O O8 0.635226 0.750000 0.459629
O O9 0.702747 0.542982 0.474128
O O10 0.618899 0.484155 0.364402
O O11 0.250000 0.250000 0.659251
O O12 0.250000 0.973234 0.737465
O O13 0.336415 0.250000 0.969034
O O14 0.295285 0.511029 0.963386
O O15 0.384465 0.481236 0.890452
O O16 0.750000 0.250000 0.104051
O O17 0.889436 0.250000 0.213657
#
# Coordination Sequence:
#
# PCOD8244126 Si02
#       7
#     8   8   8   4   8   4   8
#     4  10  20  36  58  85 118 155 197 241 293 349
#     4   9  20  38  60  87 117 152 196 247 290 341
#     4  10  21  38  60  84 115 153 197 242 291 351
#     4  10  20  35  58  84 110 150 198 235 286 352
#     4  11  21  37  62  87 114 150 197 241 285 343
#     4  12  24  37  58  88 122 150 188 243 296 344
#     4  11  22  35  56  87 120 153 193 241 292 346
#
# _framework density 18.894396
#
# number of rings (size 3 to 8) (size 9 to 14) (size 15 to 20)
#    0.000    1.667    3.333    1.750    0.000    2.000 
#    0.000    5.000    0.000    1.000    0.000    0.000 
#    0.000    0.000    0.000    0.000    0.000    0.000 
#
# Total GULP energy -595252.617194 kJ/mol
# GULP energy per Si atom -12401.096192 kJ/mol
# Density = 1.885139 g / cm^3
# Si number density = 18.894396 Si / 1000 Ang^3
#
#
#
# Elastic Constant Matrix: (Units=GPa)
#
#
# Indices 1 2 3 4 5 6 
#
# 1 135.2313 50.9161 47.6193 0.0000 0.0000 0.0000
# 2 50.9161 77.5861 45.1419 0.0000 0.0000 0.0000
# 3 47.6193 45.1419 120.4028 0.0000 0.0000 0.0000
# 4 0.0000 0.0000 0.0000 12.7673 0.0000 0.0000
# 5 0.0000 0.0000 0.0000 0.0000 42.8460 0.0000
# 6 0.0000 0.0000 0.0000 0.0000 0.0000 -8.1794
#
#
#
# Elastic Compliance Matrix: (Units=1/GPa)
#
#
# Indices 1 2 3 4 5 6 
#
# 1 0.010165 -0.005540 -0.001943 0.000000 0.000000 0.000000
# 2 -0.005540 0.019505 -0.005122 0.000000 0.000000 0.000000
# 3 -0.001943 -0.005122 0.010994 0.000000 0.000000 0.000000
# 4 0.000000 0.000000 0.000000 0.078325 0.000000 0.000000
# 5 0.000000 0.000000 0.000000 0.000000 0.023339 0.000000
# 6 0.000000 0.000000 0.000000 0.000000 0.000000 -0.122259
#
#
# Mechanical properties :
#
#
# Convention : Reuss Voigt Hill
#
# Bulk Modulus (GPa) = 64.70855 68.95277 66.83066
# Shear Modulus (GPa) = 99.14626 22.12297 60.63462
#
# Velocity S-wave (km/s) = 7.25175 3.42552 5.67107
# Velocity P-wave (km/s) = 10.21954 7.22624 8.85035
#
# Compressibility (1/GPa) = 0.01545391
#
# Stress axis : x y z
#
# Youngs Moduli (GPa) = 98.37769 51.27001 90.95761
#
# Poissons Ratio (x) = 0.28405 0.17674
# Poissons Ratio (y) = 0.54503 0.46585
# Poissons Ratio (z) = 0.19115 0.26258
#
# Static dielectric constant tensor:
#      x y z
#    x 3.826670 0.000000 0.000000 
#    y 0.000000 3.381820 0.000000 
#    z 0.000000 0.000000 3.611610 
# 
# 
# High freq. dielectric constant tensor:
#      x y z
#    x 1.753840 0.000000 0.000000 
#    y 0.000000 1.719830 0.000000 
#    z 0.000000 0.000000 1.730720 
# 
# From -- ./inp_files/13068.got.cif
#   From: 2010.03.12/outbox.cif.g09.slc.cpg/sg59_7_cif.got.tgz:13068.got - 2010.04.16 16:29:54.
