data_PCOD8244458
_publ_section_title
;
Structure prediction by ZEFSAII (Michael W. Deem and Ramdas Pophale) SiO2 
 PCOD8244458
Probable space group: P M M N
;
_chemical_formula_sum "Si O2"
_cell_formula_units_Z 64
_cell_length_a 8.883628
_cell_length_b 22.382164
_cell_length_c 16.600041
_cell_angle_alpha 90.000000
_cell_angle_beta 90.000000
_cell_angle_gamma 90.000000
_cell_volume 3300.666144
_symmetry_space_group_name_H-M "P M M N"
_symmetry_group_IT_number 59
_space_group.IT_coordinate_system_code '2'
_symmetry_cell_setting 'orthorhombic'
loop_
_space_group_symop_operation_xyz
x,y,z
1/2-x,1/2-y,z
1/2+x,-y,-z
-x,1/2+y,-z
-x,-y,-z
1/2+x,1/2+y,-z
1/2-x,y,z
x,1/2-y,z
loop_
_atom_site_type_symbol
_atom_site_label
_atom_site_fract_x
_atom_site_fract_y
_atom_site_fract_z
Si Si1 0.073421 0.081941 0.710660
Si Si2 0.928047 0.180395 0.609911
Si Si3 0.076129 0.180204 0.147316
Si Si4 0.572173 0.639106 0.555815
Si Si5 0.086237 0.683180 0.697460
Si Si6 0.072078 0.518507 0.583070
Si Si7 0.075733 0.912522 0.958111
Si Si8 0.425010 0.460982 0.888086
O O1 0.250000 0.095400 0.704383
O O2 0.026592 0.060955 0.799598
O O3 0.985312 0.142780 0.687005
O O4 0.025728 0.028601 0.651144
O O5 0.750000 0.174003 0.600749
O O6 0.974566 0.250000 0.619646
O O7 0.005422 0.151604 0.531776
O O8 0.250000 0.166929 0.159375
O O9 0.045452 0.250000 0.132877
O O10 0.995100 0.152527 0.226554
O O11 0.015643 0.145023 0.070370
O O12 0.750000 0.633238 0.546416
O O13 0.520675 0.689297 0.618622
O O14 0.500631 0.582256 0.602270
O O15 0.250000 0.652332 0.680041
O O16 0.116399 0.750000 0.725439
O O17 0.250000 0.523261 0.573909
O O18 0.000000 0.500000 0.500000
O O19 0.250000 0.896188 0.958121
O O20 0.041872 0.968621 0.899294
O O21 0.025189 0.924808 0.049083
O O22 0.250000 0.447723 0.904734
#
# Coordination Sequence:
#
# PCOD8244458 Si02
#       8
#     8   8   8   8   8   8   8   8
#     4  10  22  40  62  87 116 152 193 238 292 351
#     4  11  24  41  61  84 113 152 197 248 300 346
#     4  10  21  37  57  84 119 156 194 238 289 350
#     4  12  24  37  56  84 115 154 198 239 286 343
#     4  10  21  37  56  80 113 152 194 240 287 338
#     4  11  22  37  58  85 117 152 189 235 288 341
#     4  10  20  36  61  90 118 152 192 236 289 348
#     4   9  20  39  61  87 118 151 189 238 292 349
#
# _framework density 19.390024
#
# number of rings (size 3 to 8) (size 9 to 14) (size 15 to 20)
#    0.000    1.625    1.250    3.375    1.750    5.500 
#    0.000    0.625    0.000    0.750    0.000    0.000 
#    0.000    0.000    0.000    0.000    0.000    0.000 
#
# Total GULP energy -793513.600571 kJ/mol
# GULP energy per Si atom -12398.650009 kJ/mol
# Density = 1.934589 g / cm^3
# Si number density = 19.390024 Si / 1000 Ang^3
#
#
#
# Elastic Constant Matrix: (Units=GPa)
#
#
# Indices 1 2 3 4 5 6 
#
# 1 100.2582 58.7058 47.4331 0.0000 0.0000 0.0000
# 2 58.7058 89.3317 58.0278 0.0000 0.0000 0.0000
# 3 47.4331 58.0278 118.8693 0.0000 0.0000 0.0000
# 4 0.0000 0.0000 0.0000 27.4428 0.0000 0.0000
# 5 0.0000 0.0000 0.0000 0.0000 35.3586 0.0000
# 6 0.0000 0.0000 0.0000 0.0000 0.0000 31.4676
#
#
#
# Elastic Compliance Matrix: (Units=1/GPa)
#
#
# Indices 1 2 3 4 5 6 
#
# 1 0.016498 -0.009614 -0.001890 0.000000 0.000000 0.000000
# 2 -0.009614 0.021995 -0.006901 0.000000 0.000000 0.000000
# 3 -0.001890 -0.006901 0.012535 0.000000 0.000000 0.000000
# 4 0.000000 0.000000 0.000000 0.036439 0.000000 0.000000
# 5 0.000000 0.000000 0.000000 0.000000 0.028282 0.000000
# 6 0.000000 0.000000 0.000000 0.000000 0.000000 0.031779
#
#
# Mechanical properties :
#
#
# Convention : Reuss Voigt Hill
#
# Bulk Modulus (GPa) = 70.33077 70.75474 70.54275
# Shear Modulus (GPa) = 26.44415 28.47329 27.45872
#
# Velocity S-wave (km/s) = 3.69698 3.83619 3.76723
# Velocity P-wave (km/s) = 7.38741 7.49609 7.44195
#
# Compressibility (1/GPa) = 0.01421853
#
# Stress axis : x y z
#
# Youngs Moduli (GPa) = 60.61336 45.46488 79.77374
#
# Poissons Ratio (x) = 0.43711 0.15077
# Poissons Ratio (y) = 0.58275 0.55050
# Poissons Ratio (z) = 0.11456 0.31374
#
# Static dielectric constant tensor:
#      x y z
#    x 3.674330 0.000000 0.000000 
#    y 0.000000 3.120560 0.000000 
#    z 0.000000 0.000000 3.460160 
# 
# 
# High freq. dielectric constant tensor:
#      x y z
#    x 1.765720 0.000000 0.000000 
#    y 0.000000 1.752410 0.000000 
#    z 0.000000 0.000000 1.750210 
# 
# From -- ./inp_files/21629.got.cif
#   From: 2010.03.12/outbox.cif.g09.slc.cpg/sg59_11_cif.got.tgz:21629.got - 2010.04.16 16:29:54.
