data_PCOD8244221
_publ_section_title
;
Structure prediction by ZEFSAII (Michael W. Deem and Ramdas Pophale) SiO2 
 PCOD8244221
Probable space group: P M M N
;
_chemical_formula_sum "Si O2"
_cell_formula_units_Z 56
_cell_length_a 16.660971
_cell_length_b 8.890488
_cell_length_c 20.512562
_cell_angle_alpha 90.000000
_cell_angle_beta 90.000000
_cell_angle_gamma 90.000000
_cell_volume 3038.406072
_symmetry_space_group_name_H-M "P M M N"
_symmetry_group_IT_number 59
_space_group.IT_coordinate_system_code '2'
_symmetry_cell_setting 'orthorhombic'
loop_
_space_group_symop_operation_xyz
x,y,z
1/2-x,1/2-y,z
1/2+x,-y,-z
-x,1/2+y,-z
-x,-y,-z
1/2+x,1/2+y,-z
1/2-x,y,z
x,1/2-y,z
loop_
_atom_site_type_symbol
_atom_site_label
_atom_site_fract_x
_atom_site_fract_y
_atom_site_fract_z
Si Si1 0.840176 0.425519 0.845930
Si Si2 0.937847 0.927418 0.588676
Si Si3 0.750000 0.571424 0.233242
Si Si4 0.434291 0.427031 0.265441
Si Si5 0.392067 0.574492 0.533996
Si Si6 0.250000 0.573524 0.628054
Si Si7 0.490588 0.928143 0.070051
Si Si8 0.587558 0.071613 0.183130
O O1 0.750000 0.475789 0.865930
O O2 0.844266 0.250000 0.832083
O O3 0.864619 0.504476 0.778794
O O4 0.901599 0.469737 0.903543
O O5 0.929554 0.750000 0.589031
O O6 0.922994 0.990866 0.661374
O O7 0.025569 0.980670 0.566193
O O8 0.875754 0.995134 0.535921
O O9 0.750000 0.750000 0.225257
O O10 0.750000 0.527621 0.308474
O O11 0.828059 0.503060 0.199250
O O12 0.423456 0.250000 0.264200
O O13 0.523014 0.469755 0.239290
O O14 0.390723 0.750000 0.520135
O O15 0.325953 0.527224 0.585691
O O16 0.250000 0.750000 0.647412
O O17 0.504148 0.750000 0.067274
O O18 0.557865 0.002899 0.115216
O O19 0.500000 0.000000 0.000000
O O20 0.598313 0.250000 0.176195
#
# Coordination Sequence:
#
# PCOD8244221 Si02
#       8
#     8   8   4   8   8   4   8   8
#     4   9  19  36  56  80 109 142 181 225 267 317
#     4   9  17  31  49  71  98 130 169 216 267 320
#     4  12  24  36  54  84 116 143 180 229 278 330
#     4   9  18  33  55  79 104 139 181 224 274 327
#     4   9  18  32  50  70  95 130 174 218 262 321
#     4  10  20  36  54  72 100 139 178 221 274 326
#     4  10  20  37  60  85 116 150 187 227 272 323
#     4  10  20  37  59  82 111 148 187 226 273 327
#
# _framework density 18.430717999999999
#
# number of rings (size 3 to 8) (size 9 to 14) (size 15 to 20)
#    0.000    2.429    0.000    2.357    0.000    4.857 
#    2.571    2.857    0.000    0.000    0.000    0.000 
#    0.000    0.000    0.000    0.000    0.000    0.000 
#
# Total GULP energy -694364.784296 kJ/mol
# GULP energy per Si atom -12399.371148 kJ/mol
# Density = 1.838877 g / cm^3
# Si number density = 18.430718 Si / 1000 Ang^3
#
#
#
# Elastic Constant Matrix: (Units=GPa)
#
#
# Indices 1 2 3 4 5 6 
#
# 1 118.7933 43.9349 66.6455 0.0000 0.0000 0.0000
# 2 43.9349 64.0843 55.0790 0.0000 0.0000 0.0000
# 3 66.6455 55.0790 171.1711 0.0000 0.0000 0.0000
# 4 0.0000 0.0000 0.0000 35.9395 0.0000 0.0000
# 5 0.0000 0.0000 0.0000 0.0000 24.7959 0.0000
# 6 0.0000 0.0000 0.0000 0.0000 0.0000 25.5996
#
#
#
# Elastic Compliance Matrix: (Units=1/GPa)
#
#
# Indices 1 2 3 4 5 6 
#
# 1 0.012205 -0.005921 -0.002847 0.000000 0.000000 0.000000
# 2 -0.005921 0.024442 -0.005560 0.000000 0.000000 0.000000
# 3 -0.002847 -0.005560 0.008740 0.000000 0.000000 0.000000
# 4 0.000000 0.000000 0.000000 0.027825 0.000000 0.000000
# 5 0.000000 0.000000 0.000000 0.000000 0.040329 0.000000
# 6 0.000000 0.000000 0.000000 0.000000 0.000000 0.039063
#
#
# Mechanical properties :
#
#
# Convention : Reuss Voigt Hill
#
# Bulk Modulus (GPa) = 59.76561 76.15195 67.95878
# Shear Modulus (GPa) = 26.76163 29.82628 28.29395
#
# Velocity S-wave (km/s) = 3.81466 4.02716 3.92235
# Velocity P-wave (km/s) = 7.20415 7.93925 7.58062
#
# Compressibility (1/GPa) = 0.01673203
#
# Stress axis : x y z
#
# Youngs Moduli (GPa) = 81.93485 40.91330 114.42298
#
# Poissons Ratio (x) = 0.24223 0.32574
# Poissons Ratio (y) = 0.48510 0.63615
# Poissons Ratio (z) = 0.23325 0.22746
#
# Static dielectric constant tensor:
#      x y z
#    x 3.551150 0.000000 0.000000 
#    y 0.000000 3.351090 0.000000 
#    z 0.000000 0.000000 4.398980 
# 
# 
# High freq. dielectric constant tensor:
#      x y z
#    x 1.710200 0.000000 0.000000 
#    y 0.000000 1.711760 0.000000 
#    z 0.000000 0.000000 1.720880 
# 
# From -- ./inp_files/30420.got.cif
#   From: 2010.03.12/outbox.cif.g09.slc.cpg/sg59_16_cif.got.tgz:30420.got - 2010.04.16 16:29:54.
