data_PCOD8244311
_publ_section_title
;
Structure prediction by ZEFSAII (Michael W. Deem and Ramdas Pophale) SiO2 
 PCOD8244311
Probable space group: P M M N
;
_chemical_formula_sum "Si O2"
_cell_formula_units_Z 48
_cell_length_a 16.463063
_cell_length_b 9.552225
_cell_length_c 16.310816
_cell_angle_alpha 90.000000
_cell_angle_beta 90.000000
_cell_angle_gamma 90.000000
_cell_volume 2565.020688
_symmetry_space_group_name_H-M "P M M N"
_symmetry_group_IT_number 59
_space_group.IT_coordinate_system_code '2'
_symmetry_cell_setting 'orthorhombic'
loop_
_space_group_symop_operation_xyz
x,y,z
1/2-x,1/2-y,z
1/2+x,-y,-z
-x,1/2+y,-z
-x,-y,-z
1/2+x,1/2+y,-z
1/2-x,y,z
x,1/2-y,z
loop_
_atom_site_type_symbol
_atom_site_label
_atom_site_fract_x
_atom_site_fract_y
_atom_site_fract_z
Si Si1 0.425814 0.417145 0.956525
Si Si2 0.159412 0.588567 0.647083
Si Si3 0.619884 0.406292 0.700837
Si Si4 0.750000 0.585621 0.976279
Si Si5 0.922262 0.089136 0.519633
Si Si6 0.942095 0.905309 0.231025
Si Si7 0.750000 0.915510 0.788428
O O1 0.437397 0.250000 0.971481
O O2 0.430098 0.458121 0.861246
O O3 0.500000 0.500000 0.000000
O O4 0.335577 0.469702 0.985159
O O5 0.250000 0.538301 0.666139
O O6 0.146720 0.750000 0.668431
O O7 0.143577 0.561682 0.550976
O O8 0.099942 0.505266 0.704766
O O9 0.658772 0.250000 0.704579
O O10 0.614238 0.456270 0.606730
O O11 0.535831 0.404052 0.747773
O O12 0.671359 0.522129 0.746303
O O13 0.750000 0.750000 0.987838
O O14 0.750000 0.538422 0.882517
O O15 0.950016 0.250000 0.523836
O O16 0.000000 0.000000 0.500000
O O17 0.904807 0.750000 0.240346
O O18 0.750000 0.750000 0.777917
#
# Coordination Sequence:
#
# PCOD8244311 Si02
#       7
#     8   8   8   4   8   8   4
#     4  10  21  38  61  87 116 152 191 235 291 349
#     4  10  22  37  55  81 114 152 191 231 281 337
#     4  10  21  37  57  83 116 150 185 233 288 334
#     4   9  20  39  59  82 115 152 186 231 293 349
#     4  10  20  36  58  80 110 150 189 229 279 334
#     4  10  21  37  60  87 112 147 193 234 284 343
#     4  11  23  37  57  84 111 146 194 235 277 339
#
# _framework density 18.713298000000002
#
# number of rings (size 3 to 8) (size 9 to 14) (size 15 to 20)
#    0.000    2.000    1.667    1.250    2.333    2.333 
#    0.000    1.250    0.000    0.000    0.000    0.000 
#    0.000    0.000    0.000    0.000    0.000    0.000 
#
# Total GULP energy -595081.124001 kJ/mol
# GULP energy per Si atom -12397.523417 kJ/mol
# Density = 1.867071 g / cm^3
# Si number density = 18.713298 Si / 1000 Ang^3
#
#
#
# Elastic Constant Matrix: (Units=GPa)
#
#
# Indices 1 2 3 4 5 6 
#
# 1 104.8884 37.8602 54.6564 0.0000 0.0000 0.0000
# 2 37.8602 54.4070 49.3901 0.0000 0.0000 0.0000
# 3 54.6564 49.3901 154.3844 0.0000 0.0000 0.0000
# 4 0.0000 0.0000 0.0000 29.3398 0.0000 0.0000
# 5 0.0000 0.0000 0.0000 0.0000 35.9394 0.0000
# 6 0.0000 0.0000 0.0000 0.0000 0.0000 16.8909
#
#
#
# Elastic Compliance Matrix: (Units=1/GPa)
#
#
# Indices 1 2 3 4 5 6 
#
# 1 0.013372 -0.007057 -0.002476 0.000000 0.000000 0.000000
# 2 -0.007057 0.029627 -0.006980 0.000000 0.000000 0.000000
# 3 -0.002476 -0.006980 0.009587 0.000000 0.000000 0.000000
# 4 0.000000 0.000000 0.000000 0.034083 0.000000 0.000000
# 5 0.000000 0.000000 0.000000 0.000000 0.027825 0.000000
# 6 0.000000 0.000000 0.000000 0.000000 0.000000 0.059204
#
#
# Mechanical properties :
#
#
# Convention : Reuss Voigt Hill
#
# Bulk Modulus (GPa) = 51.12625 66.38814 58.75720
# Shear Modulus (GPa) = 23.44746 27.88556 25.66651
#
# Velocity S-wave (km/s) = 3.54359 3.86443 3.70748
# Velocity P-wave (km/s) = 6.64250 7.44750 7.05649
#
# Compressibility (1/GPa) = 0.01955942
#
# Stress axis : x y z
#
# Youngs Moduli (GPa) = 74.78568 33.75315 104.30842
#
# Poissons Ratio (x) = 0.23819 0.25830
# Poissons Ratio (y) = 0.52776 0.72805
# Poissons Ratio (z) = 0.18519 0.23559
#
# Static dielectric constant tensor:
#      x y z
#    x 3.545650 0.000000 0.000000 
#    y 0.000000 3.400300 0.000000 
#    z 0.000000 0.000000 3.696120 
# 
# 
# High freq. dielectric constant tensor:
#      x y z
#    x 1.732680 0.000000 0.000000 
#    y 0.000000 1.715210 0.000000 
#    z 0.000000 0.000000 1.743280 
# 
# From -- ./inp_files/20528.got.cif
#   From: 2010.03.12/outbox.cif.g09.slc.cpg/sg59_11_cif.got.tgz:20528.got - 2010.04.16 16:29:54.
