data_PCOD8244277
_publ_section_title
;
Structure prediction by ZEFSAII (Michael W. Deem and Ramdas Pophale) SiO2 
 PCOD8244277
Probable space group: P M M N
;
_chemical_formula_sum "Si O2"
_cell_formula_units_Z 40
_cell_length_a 14.305118
_cell_length_b 8.806582
_cell_length_c 17.105535
_cell_angle_alpha 90.000000
_cell_angle_beta 90.000000
_cell_angle_gamma 90.000000
_cell_volume 2154.941524
_symmetry_space_group_name_H-M "P M M N"
_symmetry_group_IT_number 59
_space_group.IT_coordinate_system_code '2'
_symmetry_cell_setting 'orthorhombic'
loop_
_space_group_symop_operation_xyz
x,y,z
1/2-x,1/2-y,z
1/2+x,-y,-z
-x,1/2+y,-z
-x,-y,-z
1/2+x,1/2+y,-z
1/2-x,y,z
x,1/2-y,z
loop_
_atom_site_type_symbol
_atom_site_label
_atom_site_fract_x
_atom_site_fract_y
_atom_site_fract_z
Si Si1 0.062895 0.071262 0.781011
Si Si2 0.250000 0.569945 0.839672
Si Si3 0.642033 0.426124 0.516546
Si Si4 0.553765 0.429058 0.928669
Si Si5 0.750000 0.429768 0.983191
Si Si6 0.994973 0.074175 0.377168
O O1 0.080221 0.250000 0.784737
O O2 0.990129 0.016346 0.847280
O O3 0.160360 0.987182 0.792915
O O4 0.018418 0.027147 0.698904
O O5 0.250000 0.750000 0.838988
O O6 0.250000 0.504030 0.928252
O O7 0.750000 0.475682 0.509966
O O8 0.632163 0.250000 0.539550
O O9 0.592626 0.458271 0.433840
O O10 0.592313 0.525907 0.582904
O O11 0.547855 0.250000 0.937333
O O12 0.660557 0.486885 0.934475
O O13 0.500000 0.500000 0.000000
O O14 0.750000 0.250000 0.990680
O O15 0.000714 0.250000 0.353877
#
# Coordination Sequence:
#
# PCOD8244277 Si02
#       6
#     8   4   8   8   4   8
#     4  11  23  37  55  85 119 149 186 236 287 338
#     4  11  21  35  59  83 110 147 190 237 287 340
#     4   9  19  38  62  85 111 148 189 231 283 340
#     4  10  20  36  57  79 109 146 189 232 281 334
#     4   9  18  35  57  79 102 143 192 233 281 336
#     4  10  21  37  59  86 117 150 188 232 281 339
#
# _framework density 18.561987999999999
#
# number of rings (size 3 to 8) (size 9 to 14) (size 15 to 20)
#    0.000    2.000    2.000    1.500    1.400    2.000 
#    1.800    0.500    0.000    0.000    0.000    0.000 
#    0.000    0.000    0.000    0.000    0.000    0.000 
#
# Total GULP energy -496096.698790 kJ/mol
# GULP energy per Si atom -12402.417470 kJ/mol
# Density = 1.851974 g / cm^3
# Si number density = 18.561988 Si / 1000 Ang^3
#
#
#
# Elastic Constant Matrix: (Units=GPa)
#
#
# Indices 1 2 3 4 5 6 
#
# 1 156.6860 31.5999 60.7406 0.0000 0.0000 0.0000
# 2 31.5999 48.5243 34.0049 0.0000 0.0000 0.0000
# 3 60.7406 34.0049 117.9531 0.0000 0.0000 0.0000
# 4 0.0000 0.0000 0.0000 30.8296 0.0000 0.0000
# 5 0.0000 0.0000 0.0000 0.0000 19.5712 0.0000
# 6 0.0000 0.0000 0.0000 0.0000 0.0000 25.6302
#
#
#
# Elastic Compliance Matrix: (Units=1/GPa)
#
#
# Indices 1 2 3 4 5 6 
#
# 1 0.008314 -0.003025 -0.003409 0.000000 0.000000 0.000000
# 2 -0.003025 0.026927 -0.006205 0.000000 0.000000 0.000000
# 3 -0.003409 -0.006205 0.012022 0.000000 0.000000 0.000000
# 4 0.000000 0.000000 0.000000 0.032436 0.000000 0.000000
# 5 0.000000 0.000000 0.000000 0.000000 0.051095 0.000000
# 6 0.000000 0.000000 0.000000 0.000000 0.000000 0.039017
#
#
# Mechanical properties :
#
#
# Convention : Reuss Voigt Hill
#
# Bulk Modulus (GPa) = 45.48677 63.98381 54.73529
# Shear Modulus (GPa) = 24.70143 28.32741 26.51442
#
# Velocity S-wave (km/s) = 3.65191 3.91077 3.78355
# Velocity P-wave (km/s) = 6.50695 7.41197 6.97416
#
# Compressibility (1/GPa) = 0.02198441
#
# Stress axis : x y z
#
# Youngs Moduli (GPa) = 120.28097 37.13812 83.17837
#
# Poissons Ratio (x) = 0.11234 0.28357
# Poissons Ratio (y) = 0.36386 0.51612
# Poissons Ratio (z) = 0.41006 0.23044
#
# Static dielectric constant tensor:
#      x y z
#    x 3.225150 0.000000 0.000000 
#    y 0.000000 3.331670 0.000000 
#    z 0.000000 0.000000 3.402350 
# 
# 
# High freq. dielectric constant tensor:
#      x y z
#    x 1.729880 0.000000 0.000000 
#    y 0.000000 1.714550 0.000000 
#    z 0.000000 0.000000 1.719100 
# 
# From -- ./inp_files/19933.got.cif
#   From: 2010.03.12/outbox.cif.g09.slc.cpg/sg59_10_cif.got.tgz:19933.got - 2010.04.16 16:29:54.
