data_PCOD8244058
_publ_section_title
;
Structure prediction by ZEFSAII (Michael W. Deem and Ramdas Pophale) SiO2 
 PCOD8244058
Probable space group: P M M N
;
_chemical_formula_sum "Si O2"
_cell_formula_units_Z 48
_cell_length_a 8.881012
_cell_length_b 9.015734
_cell_length_c 30.982130
_cell_angle_alpha 90.000000
_cell_angle_beta 90.000000
_cell_angle_gamma 90.000000
_cell_volume 2480.703267
_symmetry_space_group_name_H-M "P M M N"
_symmetry_group_IT_number 59
_space_group.IT_coordinate_system_code '2'
_symmetry_cell_setting 'orthorhombic'
loop_
_space_group_symop_operation_xyz
x,y,z
1/2-x,1/2-y,z
1/2+x,-y,-z
-x,1/2+y,-z
-x,-y,-z
1/2+x,1/2+y,-z
1/2-x,y,z
x,1/2-y,z
loop_
_atom_site_type_symbol
_atom_site_label
_atom_site_fract_x
_atom_site_fract_y
_atom_site_fract_z
Si Si1 0.924757 0.075633 0.700560
Si Si2 0.572338 0.580489 0.959828
Si Si3 0.425358 0.923625 0.620907
Si Si4 0.427660 0.920382 0.459501
Si Si5 0.081038 0.073932 0.787560
Si Si6 0.574616 0.422599 0.873630
O O1 0.750000 0.036106 0.694876
O O2 0.953637 0.250000 0.693787
O O3 0.978336 0.021925 0.747668
O O4 0.023535 0.985728 0.666730
O O5 0.750000 0.562490 0.963361
O O6 0.520511 0.750000 0.960125
O O7 0.513449 0.507463 0.915603
O O8 0.500000 0.500000 0.000000
O O9 0.250000 0.957378 0.613968
O O10 0.459669 0.750000 0.618733
O O11 0.519873 0.004024 0.584248
O O12 0.250000 0.934749 0.463267
O O13 0.479392 0.750000 0.459166
O O14 0.500000 0.000000 0.500000
O O15 0.250000 0.011816 0.781746
O O16 0.081278 0.250000 0.789613
O O17 0.011675 0.012197 0.832029
O O18 0.750000 0.452163 0.865928
O O19 0.540416 0.250000 0.880669
#
# Coordination Sequence:
#
# PCOD8244058 Si02
#       6
#     8   8   8   8   8   8
#     4  10  20  35  57  84 112 145 187 230 272 323
#     4  10  21  36  54  77 105 138 177 220 267 321
#     4  11  24  40  58  83 115 150 189 232 278 329
#     4  11  24  41  62  89 118 149 188 231 276 329
#     4   9  17  30  51  79 108 139 178 224 272 321
#     4   9  17  31  51  74 102 137 176 219 268 322
#
# _framework density 19.349353000000001
#
# number of rings (size 3 to 8) (size 9 to 14) (size 15 to 20)
#    0.000    2.000    0.000    3.500    0.000   11.333 
#    0.000    2.500    0.000    3.000    0.000    0.000 
#    0.000    0.000    0.000    0.000    0.000    0.000 
#
# Total GULP energy -595368.977275 kJ/mol
# GULP energy per Si atom -12403.520360 kJ/mol
# Density = 1.930531 g / cm^3
# Si number density = 19.349353 Si / 1000 Ang^3
#
#
#
# Elastic Constant Matrix: (Units=GPa)
#
#
# Indices 1 2 3 4 5 6 
#
# 1 54.8320 40.5279 31.7406 0.0000 0.0000 0.0000
# 2 40.5279 91.4450 58.8721 0.0000 0.0000 0.0000
# 3 31.7406 58.8721 151.3383 0.0000 0.0000 0.0000
# 4 0.0000 0.0000 0.0000 33.3427 0.0000 0.0000
# 5 0.0000 0.0000 0.0000 0.0000 43.7070 0.0000
# 6 0.0000 0.0000 0.0000 0.0000 0.0000 25.2620
#
#
#
# Elastic Compliance Matrix: (Units=1/GPa)
#
#
# Indices 1 2 3 4 5 6 
#
# 1 0.027331 -0.011237 -0.001361 0.000000 0.000000 0.000000
# 2 -0.011237 0.019209 -0.005116 0.000000 0.000000 0.000000
# 3 -0.001361 -0.005116 0.008883 0.000000 0.000000 0.000000
# 4 0.000000 0.000000 0.000000 0.029992 0.000000 0.000000
# 5 0.000000 0.000000 0.000000 0.000000 0.022880 0.000000
# 6 0.000000 0.000000 0.000000 0.000000 0.000000 0.039585
#
#
# Mechanical properties :
#
#
# Convention : Reuss Voigt Hill
#
# Bulk Modulus (GPa) = 50.00957 62.21070 56.11014
# Shear Modulus (GPa) = 26.31971 31.56065 28.94018
#
# Velocity S-wave (km/s) = 3.69214 4.04306 3.87158
# Velocity P-wave (km/s) = 6.63909 7.34958 7.00335
#
# Compressibility (1/GPa) = 0.01999617
#
# Stress axis : x y z
#
# Youngs Moduli (GPa) = 36.58892 52.05861 112.57113
#
# Poissons Ratio (x) = 0.58496 0.15321
# Poissons Ratio (y) = 0.41114 0.57590
# Poissons Ratio (z) = 0.04980 0.26632
#
# Static dielectric constant tensor:
#      x y z
#    x 3.623130 0.000000 0.000000 
#    y 0.000000 3.494450 0.000000 
#    z 0.000000 0.000000 4.508030 
# 
# 
# High freq. dielectric constant tensor:
#      x y z
#    x 1.758560 0.000000 0.000000 
#    y 0.000000 1.736740 0.000000 
#    z 0.000000 0.000000 1.773180 
# 
# From -- ./inp_files/32795.got.cif
#   From: 2010.03.12/outbox.cif.g09.slc.cpg/sg59_17_cif.got.tgz:32795.got - 2010.04.16 16:29:54.
