data_PCOD8244625
_publ_section_title
;
Structure prediction by ZEFSAII (Michael W. Deem and Ramdas Pophale) SiO2 
 PCOD8244625
Probable space group: P M M N
;
_chemical_formula_sum "Si O2"
_cell_formula_units_Z 48
_cell_length_a 9.770813
_cell_length_b 9.170474
_cell_length_c 28.821154
_cell_angle_alpha 90.000000
_cell_angle_beta 90.000000
_cell_angle_gamma 90.000000
_cell_volume 2582.461475
_symmetry_space_group_name_H-M "P M M N"
_symmetry_group_IT_number 59
_space_group.IT_coordinate_system_code '2'
_symmetry_cell_setting 'orthorhombic'
loop_
_space_group_symop_operation_xyz
x,y,z
1/2-x,1/2-y,z
1/2+x,-y,-z
-x,1/2+y,-z
-x,-y,-z
1/2+x,1/2+y,-z
1/2-x,y,z
x,1/2-y,z
loop_
_atom_site_type_symbol
_atom_site_label
_atom_site_fract_x
_atom_site_fract_y
_atom_site_fract_z
Si Si1 0.404537 0.419267 0.706170
Si Si2 0.592204 0.081074 0.036591
Si Si3 0.592777 0.576711 0.777733
Si Si4 0.037026 0.079146 0.601165
Si Si5 0.097734 0.923423 0.859910
Si Si6 0.250000 0.576161 0.538918
Si Si7 0.750000 0.079358 0.565268
O O1 0.250000 0.454186 0.723326
O O2 0.440037 0.250000 0.713424
O O3 0.515762 0.513277 0.733333
O O4 0.414156 0.462259 0.652415
O O5 0.750000 0.052840 0.024305
O O6 0.555541 0.250000 0.033698
O O7 0.559937 0.021319 0.088427
O O8 0.500000 0.000000 0.000000
O O9 0.750000 0.522477 0.778998
O O10 0.585781 0.750000 0.774878
O O11 0.515111 0.517834 0.823743
O O12 0.062023 0.250000 0.591315
O O13 0.879996 0.031509 0.595430
O O14 0.116549 0.984911 0.563770
O O15 0.250000 0.980174 0.845961
O O16 0.100138 0.750000 0.860262
O O17 0.250000 0.750000 0.541367
O O18 0.250000 0.512978 0.486506
O O19 0.750000 0.250000 0.557896
#
# Coordination Sequence:
#
# PCOD8244625 Si02
#       7
#     8   8   8   8   8   4   4
#     4  10  21  37  57  79 101 135 182 218 251 309
#     4   9  18  32  51  77 107 140 181 224 263 311
#     4  10  21  35  54  82 110 135 168 215 270 321
#     4  10  20  38  59  78 104 143 181 212 255 316
#     4   8  15  31  53  74 101 141 183 217 257 313
#     4  11  21  35  55  85 113 135 173 221 262 305
#     4   9  20  35  57  83 107 139 179 217 258 309
#
# _framework density 18.586917
#
# number of rings (size 3 to 8) (size 9 to 14) (size 15 to 20)
#    0.000    2.500    0.833    2.250    1.167    3.000 
#    0.000    3.750    0.000    1.000    0.000    0.000 
#    0.000    0.000    0.000    0.000    0.000    0.000 
#
# Total GULP energy -595110.263641 kJ/mol
# GULP energy per Si atom -12398.130493 kJ/mol
# Density = 1.854461 g / cm^3
# Si number density = 18.586917 Si / 1000 Ang^3
#
#
#
# Elastic Constant Matrix: (Units=GPa)
#
#
# Indices 1 2 3 4 5 6 
#
# 1 137.8177 31.5884 59.2918 0.0000 0.0000 0.0000
# 2 31.5884 33.1634 28.1248 0.0000 0.0000 0.0000
# 3 59.2918 28.1248 99.9996 0.0000 0.0000 0.0000
# 4 0.0000 0.0000 0.0000 27.2190 0.0000 0.0000
# 5 0.0000 0.0000 0.0000 0.0000 4.3884 0.0000
# 6 0.0000 0.0000 0.0000 0.0000 0.0000 29.0695
#
#
#
# Elastic Compliance Matrix: (Units=1/GPa)
#
#
# Indices 1 2 3 4 5 6 
#
# 1 0.010655 -0.006292 -0.004548 0.000000 0.000000 0.000000
# 2 -0.006292 0.043314 -0.008452 0.000000 0.000000 0.000000
# 3 -0.004548 -0.008452 0.015074 0.000000 0.000000 0.000000
# 4 0.000000 0.000000 0.000000 0.036739 0.000000 0.000000
# 5 0.000000 0.000000 0.000000 0.000000 0.227874 0.000000
# 6 0.000000 0.000000 0.000000 0.000000 0.000000 0.034400
#
#
# Mechanical properties :
#
#
# Convention : Reuss Voigt Hill
#
# Bulk Modulus (GPa) = 32.82990 56.55453 44.69222
# Shear Modulus (GPa) = 11.99641 22.26709 17.13175
#
# Velocity S-wave (km/s) = 2.54327 3.46497 3.03926
# Velocity P-wave (km/s) = 5.13084 6.81917 6.03435
#
# Compressibility (1/GPa) = 0.03046004
#
# Stress axis : x y z
#
# Youngs Moduli (GPa) = 93.85625 23.08716 66.34158
#
# Poissons Ratio (x) = 0.14526 0.30171
# Poissons Ratio (y) = 0.59052 0.56069
# Poissons Ratio (z) = 0.42684 0.19512
#
# Static dielectric constant tensor:
#      x y z
#    x 4.035900 0.000000 0.000000 
#    y 0.000000 3.139210 0.000000 
#    z 0.000000 0.000000 3.404450 
# 
# 
# High freq. dielectric constant tensor:
#      x y z
#    x 1.733030 0.000000 0.000000 
#    y 0.000000 1.686680 0.000000 
#    z 0.000000 0.000000 1.730240 
# 
# From -- ./inp_files/32968.got.cif
#   From: 2010.03.12/outbox.cif.g09.slc.cpg/sg59_17_cif.got.tgz:32968.got - 2010.04.16 16:29:54.
