data_PCOD8244329
_publ_section_title
;
Structure prediction by ZEFSAII (Michael W. Deem and Ramdas Pophale) SiO2 
 PCOD8244329
Probable space group: P M M N
;
_chemical_formula_sum "Si O2"
_cell_formula_units_Z 48
_cell_length_a 17.942518
_cell_length_b 8.377164
_cell_length_c 15.344124
_cell_angle_alpha 90.000000
_cell_angle_beta 90.000000
_cell_angle_gamma 90.000000
_cell_volume 2306.335627
_symmetry_space_group_name_H-M "P M M N"
_symmetry_group_IT_number 59
_space_group.IT_coordinate_system_code '2'
_symmetry_cell_setting 'orthorhombic'
loop_
_space_group_symop_operation_xyz
x,y,z
1/2-x,1/2-y,z
1/2+x,-y,-z
-x,1/2+y,-z
-x,-y,-z
1/2+x,1/2+y,-z
1/2-x,y,z
x,1/2-y,z
loop_
_atom_site_type_symbol
_atom_site_label
_atom_site_fract_x
_atom_site_fract_y
_atom_site_fract_z
Si Si1 0.332818 0.562480 0.992889
Si Si2 0.664130 0.435332 0.334779
Si Si3 0.083153 0.435479 0.500836
Si Si4 0.584109 0.439398 0.838902
Si Si5 0.162993 0.936649 0.336234
Si Si6 0.583551 0.564555 0.170969
O O1 0.250000 0.487104 0.994268
O O2 0.327003 0.750000 0.006255
O O3 0.369931 0.528823 0.900739
O O4 0.380693 0.488338 0.072442
O O5 0.750000 0.488623 0.333432
O O6 0.655695 0.250000 0.311381
O O7 0.631569 0.466903 0.429964
O O8 0.619117 0.539035 0.265301
O O9 0.083101 0.250000 0.525751
O O10 0.119594 0.459986 0.406921
O O11 0.000000 0.500000 0.500000
O O12 0.582583 0.250000 0.843207
O O13 0.633994 0.495039 0.757646
O O14 0.500276 0.504779 0.828427
O O15 0.250000 0.973921 0.342508
O O16 0.146122 0.750000 0.351351
O O17 0.584481 0.750000 0.147278
#
# Coordination Sequence:
#
# PCOD8244329 Si02
#       6
#     8   8   8   8   8   8
#     4  10  20  36  58  82 111 150 195 241 290 347
#     4  11  24  42  63  87 117 155 198 242 291 350
#     4  12  25  41  62  88 120 156 195 240 290 347
#     4   9  19  36  58  84 113 150 195 239 288 347
#     4  10  20  37  62  89 117 151 194 244 296 351
#     4  11  22  36  57  85 118 154 193 241 294 349
#
# _framework density 20.812235000000001
#
# number of rings (size 3 to 8) (size 9 to 14) (size 15 to 20)
#    0.000    1.500    0.000    5.500    0.000    9.333 
#    0.000    2.500    0.000    2.000    0.000    0.000 
#    0.000    0.000    0.000    0.000    0.000    0.000 
#
# Total GULP energy -595466.155763 kJ/mol
# GULP energy per Si atom -12405.544912 kJ/mol
# Density = 2.076487 g / cm^3
# Si number density = 20.812235 Si / 1000 Ang^3
#
#
#
# Elastic Constant Matrix: (Units=GPa)
#
#
# Indices 1 2 3 4 5 6 
#
# 1 147.3386 30.0859 28.4462 0.0000 0.0000 0.0000
# 2 30.0859 34.7897 9.9159 0.0000 0.0000 0.0000
# 3 28.4462 9.9159 97.4643 0.0000 0.0000 0.0000
# 4 0.0000 0.0000 0.0000 26.5995 0.0000 0.0000
# 5 0.0000 0.0000 0.0000 0.0000 49.4478 0.0000
# 6 0.0000 0.0000 0.0000 0.0000 0.0000 23.7714
#
#
#
# Elastic Compliance Matrix: (Units=1/GPa)
#
#
# Indices 1 2 3 4 5 6 
#
# 1 0.008536 -0.006871 -0.001792 0.000000 0.000000 0.000000
# 2 -0.006871 0.035133 -0.001569 0.000000 0.000000 0.000000
# 3 -0.001792 -0.001569 0.010943 0.000000 0.000000 0.000000
# 4 0.000000 0.000000 0.000000 0.037595 0.000000 0.000000
# 5 0.000000 0.000000 0.000000 0.000000 0.020223 0.000000
# 6 0.000000 0.000000 0.000000 0.000000 0.000000 0.042067
#
#
# Mechanical properties :
#
#
# Convention : Reuss Voigt Hill
#
# Bulk Modulus (GPa) = 29.28467 46.27653 37.78060
# Shear Modulus (GPa) = 26.83187 34.04003 30.43595
#
# Velocity S-wave (km/s) = 3.59449 4.04862 3.82829
# Velocity P-wave (km/s) = 5.59719 6.64369 6.14277
#
# Compressibility (1/GPa) = 0.03414756
#
# Stress axis : x y z
#
# Youngs Moduli (GPa) = 117.14822 28.46290 91.38335
#
# Poissons Ratio (x) = 0.19557 0.16379
# Poissons Ratio (y) = 0.80495 0.14338
# Poissons Ratio (z) = 0.20997 0.04466
#
# Static dielectric constant tensor:
#      x y z
#    x 4.092750 0.000000 0.000000 
#    y 0.000000 3.898950 0.000000 
#    z 0.000000 0.000000 3.816720 
# 
# 
# High freq. dielectric constant tensor:
#      x y z
#    x 1.835620 0.000000 0.000000 
#    y 0.000000 1.790440 0.000000 
#    z 0.000000 0.000000 1.829800 
# 
# From -- ./inp_files/23662.got.cif
#   From: 2010.03.12/outbox.cif.g09.slc.cpg/sg59_12_cif.got.tgz:23662.got - 2010.04.16 16:29:54.
