data_PCOD8244347
_publ_section_title
;
Structure prediction by ZEFSAII (Michael W. Deem and Ramdas Pophale) SiO2 
 PCOD8244347
Probable space group: P M M N
;
_chemical_formula_sum "Si O2"
_cell_formula_units_Z 64
_cell_length_a 15.200281
_cell_length_b 8.864249
_cell_length_c 23.954242
_cell_angle_alpha 90.000000
_cell_angle_beta 90.000000
_cell_angle_gamma 90.000000
_cell_volume 3227.572425
_symmetry_space_group_name_H-M "P M M N"
_symmetry_group_IT_number 59
_space_group.IT_coordinate_system_code '2'
_symmetry_cell_setting 'orthorhombic'
loop_
_space_group_symop_operation_xyz
x,y,z
1/2-x,1/2-y,z
1/2+x,-y,-z
-x,1/2+y,-z
-x,-y,-z
1/2+x,1/2+y,-z
1/2-x,y,z
x,1/2-y,z
loop_
_atom_site_type_symbol
_atom_site_label
_atom_site_fract_x
_atom_site_fract_y
_atom_site_fract_z
Si Si1 0.489979 0.571690 0.580364
Si Si2 0.932718 0.424324 0.103337
Si Si3 0.152645 0.920480 0.232525
Si Si4 0.147054 0.428261 0.500099
Si Si5 0.111546 0.924275 0.109525
Si Si6 0.998381 0.071844 0.293781
Si Si7 0.348747 0.081866 0.997300
Si Si8 0.154678 0.926769 0.783450
O O1 0.477603 0.750000 0.577158
O O2 0.583926 0.525499 0.552194
O O3 0.402378 0.499432 0.553336
O O4 0.492855 0.509359 0.643408
O O5 0.962892 0.250000 0.103352
O O6 0.900594 0.465400 0.041506
O O7 0.860648 0.455848 0.150818
O O8 0.010600 0.535653 0.119029
O O9 0.250000 0.935783 0.258203
O O10 0.116575 0.750000 0.238263
O O11 0.159353 0.964255 0.167317
O O12 0.091218 0.031014 0.266970
O O13 0.250000 0.485297 0.493613
O O14 0.148695 0.250000 0.507713
O O15 0.123927 0.750000 0.093412
O O16 0.151562 0.025262 0.060622
O O17 0.991480 0.250000 0.294360
O O18 0.919930 0.000119 0.256213
O O19 0.250000 0.088553 0.975064
O O20 0.390883 0.250000 0.994518
O O21 0.250000 0.997108 0.768381
O O22 0.155662 0.750000 0.771729
#
# Coordination Sequence:
#
# PCOD8244347 Si02
#       8
#     8   8   8   8   8   8   8   8
#     4   9  19  34  55  84 116 151 191 236 283 329
#     4  11  21  36  58  80 107 142 184 228 281 343
#     4  10  22  39  58  81 112 150 189 231 282 339
#     4   9  18  34  55  80 115 156 195 234 278 330
#     4  11  22  38  59  80 107 142 184 230 282 340
#     4  10  20  36  58  85 115 147 189 237 281 328
#     4  11  24  39  55  79 109 139 179 231 284 342
#     4   9  18  33  54  80 110 144 182 226 278 335
#
# _framework density 19.829145
#
# number of rings (size 3 to 8) (size 9 to 14) (size 15 to 20)
#    0.000    2.000    1.250    2.250    0.000    4.500 
#    0.000    2.500    0.000    1.125    0.000    0.000 
#    0.000    0.000    0.000    0.000    0.000    0.000 
#
# Total GULP energy -793335.379344 kJ/mol
# GULP energy per Si atom -12395.865302 kJ/mol
# Density = 1.978401 g / cm^3
# Si number density = 19.829145 Si / 1000 Ang^3
#
#
#
# Elastic Constant Matrix: (Units=GPa)
#
#
# Indices 1 2 3 4 5 6 
#
# 1 132.1859 18.2218 47.0884 0.0000 0.0000 0.0000
# 2 18.2218 32.9668 31.2740 0.0000 0.0000 0.0000
# 3 47.0884 31.2740 124.3315 0.0000 0.0000 0.0000
# 4 0.0000 0.0000 0.0000 22.2604 0.0000 0.0000
# 5 0.0000 0.0000 0.0000 0.0000 54.1489 0.0000
# 6 0.0000 0.0000 0.0000 0.0000 0.0000 21.6509
#
#
#
# Elastic Compliance Matrix: (Units=1/GPa)
#
#
# Indices 1 2 3 4 5 6 
#
# 1 0.008871 -0.002254 -0.002793 0.000000 0.000000 0.000000
# 2 -0.002254 0.040413 -0.009312 0.000000 0.000000 0.000000
# 3 -0.002793 -0.009312 0.011443 0.000000 0.000000 0.000000
# 4 0.000000 0.000000 0.000000 0.044923 0.000000 0.000000
# 5 0.000000 0.000000 0.000000 0.000000 0.018468 0.000000
# 6 0.000000 0.000000 0.000000 0.000000 0.000000 0.046187
#
#
# Mechanical properties :
#
#
# Convention : Reuss Voigt Hill
#
# Bulk Modulus (GPa) = 31.24021 53.62808 42.43414
# Shear Modulus (GPa) = 23.84462 32.47205 28.15834
#
# Velocity S-wave (km/s) = 3.47148 4.05111 3.77244
# Velocity P-wave (km/s) = 5.64421 6.99898 6.35778
#
# Compressibility (1/GPa) = 0.03201003
#
# Stress axis : x y z
#
# Youngs Moduli (GPa) = 112.73161 24.74451 87.39001
#
# Poissons Ratio (x) = 0.05577 0.24405
# Poissons Ratio (y) = 0.25407 0.81376
# Poissons Ratio (z) = 0.31482 0.23042
#
# Static dielectric constant tensor:
#      x y z
#    x 4.135900 0.000000 0.000000 
#    y 0.000000 3.417470 0.000000 
#    z 0.000000 0.000000 3.675780 
# 
# 
# High freq. dielectric constant tensor:
#      x y z
#    x 1.782830 0.000000 0.000000 
#    y 0.000000 1.753180 0.000000 
#    z 0.000000 0.000000 1.769700 
# 
# From -- ./inp_files/31506.got.cif
#   From: 2010.03.12/outbox.cif.g09.slc.cpg/sg59_16_cif.got.tgz:31506.got - 2010.04.16 16:29:54.
