data_PCOD8244305
_publ_section_title
;
Structure prediction by ZEFSAII (Michael W. Deem and Ramdas Pophale) SiO2 
 PCOD8244305
Probable space group: P M M N
;
_chemical_formula_sum "Si O2"
_cell_formula_units_Z 40
_cell_length_a 15.780417
_cell_length_b 9.123835
_cell_length_c 13.564261
_cell_angle_alpha 90.000000
_cell_angle_beta 90.000000
_cell_angle_gamma 90.000000
_cell_volume 1952.954098
_symmetry_space_group_name_H-M "P M M N"
_symmetry_group_IT_number 59
_space_group.IT_coordinate_system_code '2'
_symmetry_cell_setting 'orthorhombic'
loop_
_space_group_symop_operation_xyz
x,y,z
1/2-x,1/2-y,z
1/2+x,-y,-z
-x,1/2+y,-z
-x,-y,-z
1/2+x,1/2+y,-z
1/2-x,y,z
x,1/2-y,z
loop_
_atom_site_type_symbol
_atom_site_label
_atom_site_fract_x
_atom_site_fract_y
_atom_site_fract_z
Si Si1 0.250000 0.420700 0.319245
Si Si2 0.516252 0.915697 0.258056
Si Si3 0.750000 0.922667 0.897465
Si Si4 0.152947 0.918145 0.643019
Si Si5 0.062505 0.424912 0.076960
Si Si6 0.110940 0.588438 0.425459
O O1 0.250000 0.250000 0.305377
O O2 0.250000 0.495486 0.211270
O O3 0.168099 0.464117 0.379396
O O4 0.524400 0.750000 0.216245
O O5 0.477578 0.915968 0.367921
O O6 0.609567 0.985881 0.270677
O O7 0.459132 0.012896 0.184975
O O8 0.750000 0.750000 0.886212
O O9 0.839089 0.967862 0.950303
O O10 0.250000 0.969568 0.629380
O O11 0.148673 0.750000 0.676846
O O12 0.101019 0.942356 0.541511
O O13 0.049845 0.250000 0.076289
O O14 0.000000 0.500000 0.000000
O O15 0.153014 0.750000 0.412451
#
# Coordination Sequence:
#
# PCOD8244305 Si02
#       6
#     4   8   4   8   8   8
#     4  11  19  31  57  90 117 154 199 245 300 348
#     4  11  23  38  60  90 121 157 200 252 307 358
#     4   9  20  39  65  92 121 154 193 249 310 360
#     4  10  21  38  58  81 119 168 208 247 298 356
#     4  11  23  44  68  94 124 157 200 252 311 371
#     4  10  20  36  57  85 122 160 200 248 299 352
#
# _framework density 20.481791000000001
#
# number of rings (size 3 to 8) (size 9 to 14) (size 15 to 20)
#    0.000    1.600    3.000    2.100    0.000    2.000 
#    1.800    2.000    0.000    0.000    0.000    0.000 
#    0.000    0.000    0.000    0.000    0.000    0.000 
#
# Total GULP energy -495756.979182 kJ/mol
# GULP energy per Si atom -12393.924480 kJ/mol
# Density = 2.043517 g / cm^3
# Si number density = 20.481791 Si / 1000 Ang^3
#
#
#
# Elastic Constant Matrix: (Units=GPa)
#
#
# Indices 1 2 3 4 5 6 
#
# 1 126.0315 59.2241 52.9310 0.0000 0.0000 0.0000
# 2 59.2241 96.7484 35.3923 0.0000 0.0000 0.0000
# 3 52.9310 35.3923 54.9081 0.0000 0.0000 0.0000
# 4 0.0000 0.0000 0.0000 32.8567 0.0000 0.0000
# 5 0.0000 0.0000 0.0000 0.0000 30.4049 0.0000
# 6 0.0000 0.0000 0.0000 0.0000 0.0000 31.8469
#
#
#
# Elastic Compliance Matrix: (Units=1/GPa)
#
#
# Indices 1 2 3 4 5 6 
#
# 1 0.015042 -0.005108 -0.011208 0.000000 0.000000 0.000000
# 2 -0.005108 0.015260 -0.004912 0.000000 0.000000 0.000000
# 3 -0.011208 -0.004912 0.032183 0.000000 0.000000 0.000000
# 4 0.000000 0.000000 0.000000 0.030435 0.000000 0.000000
# 5 0.000000 0.000000 0.000000 0.000000 0.032889 0.000000
# 6 0.000000 0.000000 0.000000 0.000000 0.000000 0.031400
#
#
# Mechanical properties :
#
#
# Convention : Reuss Voigt Hill
#
# Bulk Modulus (GPa) = 49.92822 63.64254 56.78538
# Shear Modulus (GPa) = 24.23171 27.69775 25.96473
#
# Velocity S-wave (km/s) = 3.44333 3.68137 3.56434
# Velocity P-wave (km/s) = 6.34338 7.01500 6.68763
#
# Compressibility (1/GPa) = 0.02002875
#
# Stress axis : x y z
#
# Youngs Moduli (GPa) = 66.48111 65.53196 31.07244
#
# Poissons Ratio (x) = 0.33472 0.34826
# Poissons Ratio (y) = 0.33957 0.15263
# Poissons Ratio (z) = 0.74512 0.32190
#
# Static dielectric constant tensor:
#      x y z
#    x 3.911150 0.000000 0.000000 
#    y 0.000000 3.698750 0.000000 
#    z 0.000000 0.000000 3.485610 
# 
# 
# High freq. dielectric constant tensor:
#      x y z
#    x 1.805170 0.000000 0.000000 
#    y 0.000000 1.796470 0.000000 
#    z 0.000000 0.000000 1.780090 
# 
# From -- ./inp_files/19899.got.cif
#   From: 2010.03.12/outbox.cif.g09.slc.cpg/sg59_10_cif.got.tgz:19899.got - 2010.04.16 16:29:54.
