data_PCOD8244929
_publ_section_title
;
Structure prediction by ZEFSAII (Michael W. Deem and Ramdas Pophale) SiO2 
 PCOD8244929
Probable space group: P M M N
;
_chemical_formula_sum "Si O2"
_cell_formula_units_Z 48
_cell_length_a 8.996349
_cell_length_b 9.333944
_cell_length_c 30.852460
_cell_angle_alpha 90.000000
_cell_angle_beta 90.000000
_cell_angle_gamma 90.000000
_cell_volume 2590.724808
_symmetry_space_group_name_H-M "P M M N"
_symmetry_group_IT_number 59
_space_group.IT_coordinate_system_code '2'
_symmetry_cell_setting 'orthorhombic'
loop_
_space_group_symop_operation_xyz
x,y,z
1/2-x,1/2-y,z
1/2+x,-y,-z
-x,1/2+y,-z
-x,-y,-z
1/2+x,1/2+y,-z
1/2-x,y,z
x,1/2-y,z
loop_
_atom_site_type_symbol
_atom_site_label
_atom_site_fract_x
_atom_site_fract_y
_atom_site_fract_z
Si Si1 0.577055 0.584076 0.373862
Si Si2 0.074701 0.415701 0.038947
Si Si3 0.073742 0.091652 0.788587
Si Si4 0.072752 0.589344 0.709086
Si Si5 0.577411 0.082901 0.538444
Si Si6 0.422763 0.417285 0.886063
O O1 0.750000 0.554246 0.382166
O O2 0.546301 0.750000 0.364043
O O3 0.515747 0.495995 0.332911
O O4 0.489523 0.530291 0.416022
O O5 0.250000 0.431523 0.034474
O O6 0.025790 0.250000 0.037243
O O7 0.023303 0.483898 0.083982
O O8 0.000000 0.500000 0.000000
O O9 0.250000 0.099061 0.784795
O O10 0.008322 0.250000 0.779566
O O11 0.031215 0.041610 0.836972
O O12 0.008153 0.983527 0.752744
O O13 0.250000 0.587784 0.710224
O O14 0.010152 0.750000 0.706884
O O15 0.750000 0.046023 0.538150
O O16 0.545596 0.250000 0.531830
O O17 0.500000 0.000000 0.500000
O O18 0.250000 0.450905 0.894784
O O19 0.454416 0.250000 0.895206
#
# Coordination Sequence:
#
# PCOD8244929 Si02
#       6
#     8   8   8   8   8   8
#     4   9  17  30  48  69  96 131 167 203 247 297
#     4  11  24  39  55  77 104 134 170 211 255 305
#     4   8  14  26  45  70 101 134 165 200 244 293
#     4   9  16  25  41  69 101 130 164 206 247 288
#     4  10  21  36  54  76 101 130 166 208 253 303
#     4   9  18  33  54  80 107 135 171 213 254 299
#
# _framework density 18.527633000000002
#
# number of rings (size 3 to 8) (size 9 to 14) (size 15 to 20)
#    0.000    2.667    0.000    3.000    0.000    8.000 
#    0.000    3.333    0.000    1.000    0.000    2.333 
#    0.000    0.000    0.000    0.000    0.000    0.000 
#
# Total GULP energy -595184.819983 kJ/mol
# GULP energy per Si atom -12399.683750 kJ/mol
# Density = 1.848546 g / cm^3
# Si number density = 18.527633 Si / 1000 Ang^3
#
#
#
# Elastic Constant Matrix: (Units=GPa)
#
#
# Indices 1 2 3 4 5 6 
#
# 1 49.5376 43.3963 50.6290 0.0000 0.0000 0.0000
# 2 43.3963 120.2970 99.0239 0.0000 0.0000 0.0000
# 3 50.6290 99.0239 183.8070 0.0000 0.0000 0.0000
# 4 0.0000 0.0000 0.0000 38.8127 0.0000 0.0000
# 5 0.0000 0.0000 0.0000 0.0000 25.6224 0.0000
# 6 0.0000 0.0000 0.0000 0.0000 0.0000 20.9418
#
#
#
# Elastic Compliance Matrix: (Units=1/GPa)
#
#
# Indices 1 2 3 4 5 6 
#
# 1 0.031535 -0.007593 -0.004595 0.000000 0.000000 0.000000
# 2 -0.007593 0.016765 -0.006940 0.000000 0.000000 0.000000
# 3 -0.004595 -0.006940 0.010445 0.000000 0.000000 0.000000
# 4 0.000000 0.000000 0.000000 0.025765 0.000000 0.000000
# 5 0.000000 0.000000 0.000000 0.000000 0.039028 0.000000
# 6 0.000000 0.000000 0.000000 0.000000 0.000000 0.047751
#
#
# Mechanical properties :
#
#
# Convention : Reuss Voigt Hill
#
# Bulk Modulus (GPa) = 48.81065 82.19334 65.50200
# Shear Modulus (GPa) = 23.10769 27.78153 25.44461
#
# Velocity S-wave (km/s) = 3.53541 3.87649 3.70987
# Velocity P-wave (km/s) = 6.56258 8.03089 7.33357
#
# Compressibility (1/GPa) = 0.02048733
#
# Stress axis : x y z
#
# Youngs Moduli (GPa) = 31.71040 59.64764 95.73603
#
# Poissons Ratio (x) = 0.45293 0.43995
# Poissons Ratio (y) = 0.24079 0.66445
# Poissons Ratio (z) = 0.14572 0.41398
#
# Static dielectric constant tensor:
#      x y z
#    x 3.053380 0.000000 0.000000 
#    y 0.000000 3.547230 0.000000 
#    z 0.000000 0.000000 3.676570 
# 
# 
# High freq. dielectric constant tensor:
#      x y z
#    x 1.679440 0.000000 0.000000 
#    y 0.000000 1.718610 0.000000 
#    z 0.000000 0.000000 1.736780 
# 
# From -- ./inp_files/32773.got.cif
#   From: 2010.03.12/outbox.cif.g09.slc.cpg/sg59_17_cif.got.tgz:32773.got - 2010.04.16 16:29:54.
