data_PCOD8244105
_publ_section_title
;
Structure prediction by ZEFSAII (Michael W. Deem and Ramdas Pophale) SiO2 
 PCOD8244105
Probable space group: P M M N
;
_chemical_formula_sum "Si O2"
_cell_formula_units_Z 64
_cell_length_a 23.590269
_cell_length_b 8.876897
_cell_length_c 14.674893
_cell_angle_alpha 90.000000
_cell_angle_beta 90.000000
_cell_angle_gamma 90.000000
_cell_volume 3073.045689
_symmetry_space_group_name_H-M "P M M N"
_symmetry_group_IT_number 59
_space_group.IT_coordinate_system_code '2'
_symmetry_cell_setting 'orthorhombic'
loop_
_space_group_symop_operation_xyz
x,y,z
1/2-x,1/2-y,z
1/2+x,-y,-z
-x,1/2+y,-z
-x,-y,-z
1/2+x,1/2+y,-z
1/2-x,y,z
x,1/2-y,z
loop_
_atom_site_type_symbol
_atom_site_label
_atom_site_fract_x
_atom_site_fract_y
_atom_site_fract_z
Si Si1 0.112980 0.423968 0.871998
Si Si2 0.031406 0.426194 0.584119
Si Si3 0.145146 0.580479 0.547218
Si Si4 0.314410 0.924773 0.349875
Si Si5 0.312649 0.581879 0.738012
Si Si6 0.378141 0.427506 0.192526
Si Si7 0.315199 0.927056 0.028535
Si Si8 0.004141 0.572599 0.215592
O O1 0.119878 0.250000 0.898637
O O2 0.145316 0.457054 0.777738
O O3 0.141223 0.524316 0.950040
O O4 0.047272 0.464950 0.853999
O O5 0.021443 0.250000 0.579603
O O6 0.096900 0.463034 0.572905
O O7 0.009035 0.487209 0.681961
O O8 0.000000 0.500000 0.500000
O O9 0.119894 0.750000 0.537902
O O10 0.176706 0.533262 0.455177
O O11 0.190244 0.572217 0.628766
O O12 0.250000 0.962666 0.322724
O O13 0.328011 0.750000 0.331043
O O14 0.357534 0.026242 0.292829
O O15 0.250000 0.551122 0.776713
O O16 0.332502 0.750000 0.768334
O O17 0.379909 0.250000 0.182277
O O18 0.441071 0.490192 0.175033
O O19 0.333232 0.493672 0.121602
O O20 0.250000 0.972053 0.005235
O O21 0.320480 0.750000 0.042815
O O22 0.015374 0.750000 0.218341
#
# Coordination Sequence:
#
# PCOD8244105 Si02
#       8
#     8   8   8   8   8   8   8   8
#     4  11  23  41  65  94 127 164 206 256 308 362
#     4  11  22  37  57  84 120 164 213 260 309 367
#     4  10  20  35  57  86 120 161 209 256 304 363
#     4  10  21  39  62  88 123 168 213 258 314 378
#     4  10  20  35  57  87 124 164 205 249 300 363
#     4  12  26  42  65  95 124 159 207 264 320 371
#     4  11  25  46  71  97 126 164 206 249 308 380
#     4  10  23  43  63  87 126 170 210 252 309 378
#
# _framework density 20.826243999999999
#
# number of rings (size 3 to 8) (size 9 to 14) (size 15 to 20)
#    0.000    1.375    1.250    4.125    0.000   12.000 
#    0.000    0.000    0.000    2.250    0.000    0.000 
#    0.000    0.000    0.000    0.000    0.000    0.000 
#
# Total GULP energy -793716.135118 kJ/mol
# GULP energy per Si atom -12401.814611 kJ/mol
# Density = 2.077884 g / cm^3
# Si number density = 20.826244 Si / 1000 Ang^3
#
#
#
# Elastic Constant Matrix: (Units=GPa)
#
#
# Indices 1 2 3 4 5 6 
#
# 1 117.8428 49.3851 29.2583 0.0000 0.0000 0.0000
# 2 49.3851 77.8964 31.7454 0.0000 0.0000 0.0000
# 3 29.2583 31.7454 90.1248 0.0000 0.0000 0.0000
# 4 0.0000 0.0000 0.0000 31.7297 0.0000 0.0000
# 5 0.0000 0.0000 0.0000 0.0000 37.0372 0.0000
# 6 0.0000 0.0000 0.0000 0.0000 0.0000 33.5926
#
#
#
# Elastic Compliance Matrix: (Units=1/GPa)
#
#
# Indices 1 2 3 4 5 6 
#
# 1 0.011702 -0.006855 -0.001385 0.000000 0.000000 0.000000
# 2 -0.006855 0.019005 -0.004469 0.000000 0.000000 0.000000
# 3 -0.001385 -0.004469 0.013119 0.000000 0.000000 0.000000
# 4 0.000000 0.000000 0.000000 0.031516 0.000000 0.000000
# 5 0.000000 0.000000 0.000000 0.000000 0.027000 0.000000
# 6 0.000000 0.000000 0.000000 0.000000 0.000000 0.029768
#
#
# Mechanical properties :
#
#
# Convention : Reuss Voigt Hill
#
# Bulk Modulus (GPa) = 54.31861 56.29353 55.30607
# Shear Modulus (GPa) = 30.55044 32.17025 31.36034
#
# Velocity S-wave (km/s) = 3.83419 3.93453 3.88469
# Velocity P-wave (km/s) = 6.76312 6.90865 6.83627
#
# Compressibility (1/GPa) = 0.01840990
#
# Stress axis : x y z
#
# Youngs Moduli (GPa) = 85.45298 52.61878 76.22371
#
# Poissons Ratio (x) = 0.36069 0.10553
# Poissons Ratio (y) = 0.58577 0.34063
# Poissons Ratio (z) = 0.11831 0.23514
#
# Static dielectric constant tensor:
#      x y z
#    x 4.288930 0.000000 0.000000 
#    y 0.000000 3.794310 0.000000 
#    z 0.000000 0.000000 3.896460 
# 
# 
# High freq. dielectric constant tensor:
#      x y z
#    x 1.823010 0.000000 0.000000 
#    y 0.000000 1.805250 0.000000 
#    z 0.000000 0.000000 1.823050 
# 
# From -- ./inp_files/24648.got.cif
#   From: 2010.03.12/outbox.cif.g09.slc.cpg/sg59_13_cif.got.tgz:24648.got - 2010.04.16 16:29:54.
