data_PCOD8244481
_publ_section_title
;
Structure prediction by ZEFSAII (Michael W. Deem and Ramdas Pophale) SiO2 
 PCOD8244481
Probable space group: P M M N
;
_chemical_formula_sum "Si O2"
_cell_formula_units_Z 40
_cell_length_a 10.962484
_cell_length_b 9.023387
_cell_length_c 19.509473
_cell_angle_alpha 90.000000
_cell_angle_beta 90.000000
_cell_angle_gamma 90.000000
_cell_volume 1929.852402
_symmetry_space_group_name_H-M "P M M N"
_symmetry_group_IT_number 59
_space_group.IT_coordinate_system_code '2'
_symmetry_cell_setting 'orthorhombic'
loop_
_space_group_symop_operation_xyz
x,y,z
1/2-x,1/2-y,z
1/2+x,-y,-z
-x,1/2+y,-z
-x,-y,-z
1/2+x,1/2+y,-z
1/2-x,y,z
x,1/2-y,z
loop_
_atom_site_type_symbol
_atom_site_label
_atom_site_fract_x
_atom_site_fract_y
_atom_site_fract_z
Si Si1 0.889801 0.075078 0.457829
Si Si2 0.750000 0.081279 0.704366
Si Si3 0.250000 0.075120 0.151848
Si Si4 0.512228 0.578560 0.330699
Si Si5 0.487946 0.424451 0.072725
Si Si6 0.111801 0.083927 0.813185
O O1 0.750000 0.031899 0.480510
O O2 0.906881 0.250000 0.464403
O O3 0.000000 0.000000 0.500000
O O4 0.907115 0.024708 0.379376
O O5 0.750000 0.250000 0.731011
O O6 0.632216 0.052069 0.656211
O O7 0.750000 0.980743 0.771078
O O8 0.250000 0.250000 0.155677
O O9 0.133939 0.017377 0.109719
O O10 0.549006 0.750000 0.343106
O O11 0.533285 0.531260 0.251959
O O12 0.490303 0.250000 0.061917
O O13 0.597203 0.474649 0.122417
O O14 0.500000 0.500000 0.000000
O O15 0.250000 0.079629 0.788415
O O16 0.073379 0.250000 0.835621
#
# Coordination Sequence:
#
# PCOD8244481 Si02
#       6
#     8   4   4   8   8   8
#     4  11  26  46  69  99 134 173 217 264 315 375
#     4  10  20  36  64  96 124 159 206 257 306 370
#     4  10  22  40  60  84 118 153 196 255 310 364
#     4  10  21  39  65  96 129 165 206 255 310 369
#     4  11  24  40  58  83 115 156 201 250 308 367
#     4  10  21  38  61  88 118 155 199 248 304 365
#
# _framework density 20.726973000000001
#
# number of rings (size 3 to 8) (size 9 to 14) (size 15 to 20)
#    0.000    1.600    2.000    1.800    2.800    5.200 
#    0.000    0.000    0.000    0.000    0.000    0.000 
#    0.000    0.000    0.000    0.000    0.000    0.000 
#
# Total GULP energy -495974.383931 kJ/mol
# GULP energy per Si atom -12399.359598 kJ/mol
# Density = 2.067980 g / cm^3
# Si number density = 20.726973 Si / 1000 Ang^3
#
#
#
# Elastic Constant Matrix: (Units=GPa)
#
#
# Indices 1 2 3 4 5 6 
#
# 1 124.6732 43.4357 38.2442 0.0000 0.0000 0.0000
# 2 43.4357 71.1098 40.6956 0.0000 0.0000 0.0000
# 3 38.2442 40.6956 88.2602 0.0000 0.0000 0.0000
# 4 0.0000 0.0000 0.0000 41.4426 0.0000 0.0000
# 5 0.0000 0.0000 0.0000 0.0000 31.5583 0.0000
# 6 0.0000 0.0000 0.0000 0.0000 0.0000 30.8274
#
#
#
# Elastic Compliance Matrix: (Units=1/GPa)
#
#
# Indices 1 2 3 4 5 6 
#
# 1 0.010484 -0.005168 -0.002160 0.000000 0.000000 0.000000
# 2 -0.005168 0.021651 -0.007744 0.000000 0.000000 0.000000
# 3 -0.002160 -0.007744 0.015837 0.000000 0.000000 0.000000
# 4 0.000000 0.000000 0.000000 0.024130 0.000000 0.000000
# 5 0.000000 0.000000 0.000000 0.000000 0.031687 0.000000
# 6 0.000000 0.000000 0.000000 0.000000 0.000000 0.032439
#
#
# Mechanical properties :
#
#
# Convention : Reuss Voigt Hill
#
# Bulk Modulus (GPa) = 56.08969 58.75490 57.42229
# Shear Modulus (GPa) = 29.01689 31.54351 30.28020
#
# Velocity S-wave (km/s) = 3.74566 3.90533 3.82633
# Velocity P-wave (km/s) = 6.76953 6.98170 6.87643
#
# Compressibility (1/GPa) = 0.01782859
#
# Stress axis : x y z
#
# Youngs Moduli (GPa) = 95.38358 46.18726 63.14459
#
# Poissons Ratio (x) = 0.23868 0.13640
# Poissons Ratio (y) = 0.49291 0.48898
# Poissons Ratio (z) = 0.20604 0.35766
#
# Static dielectric constant tensor:
#      x y z
#    x 4.131800 0.000000 0.000000 
#    y 0.000000 3.669120 0.000000 
#    z 0.000000 0.000000 3.619830 
# 
# 
# High freq. dielectric constant tensor:
#      x y z
#    x 1.828040 0.000000 0.000000 
#    y 0.000000 1.800630 0.000000 
#    z 0.000000 0.000000 1.809710 
# 
# From -- ./inp_files/29958.got.cif
#   From: 2010.03.12/outbox.cif.g09.slc.cpg/sg59_15_cif.got.tgz:29958.got - 2010.04.16 16:29:54.
