data_PCOD8244444
_publ_section_title
;
Structure prediction by ZEFSAII (Michael W. Deem and Ramdas Pophale) SiO2 
 PCOD8244444
Probable space group: P M M N
;
_chemical_formula_sum "Si O2"
_cell_formula_units_Z 56
_cell_length_a 23.497053
_cell_length_b 8.381440
_cell_length_c 13.527218
_cell_angle_alpha 90.000000
_cell_angle_beta 90.000000
_cell_angle_gamma 90.000000
_cell_volume 2664.038678
_symmetry_space_group_name_H-M "P M M N"
_symmetry_group_IT_number 59
_space_group.IT_coordinate_system_code '2'
_symmetry_cell_setting 'orthorhombic'
loop_
_space_group_symop_operation_xyz
x,y,z
1/2-x,1/2-y,z
1/2+x,-y,-z
-x,1/2+y,-z
-x,-y,-z
1/2+x,1/2+y,-z
1/2-x,y,z
x,1/2-y,z
loop_
_atom_site_type_symbol
_atom_site_label
_atom_site_fract_x
_atom_site_fract_y
_atom_site_fract_z
Si Si1 0.628691 0.438733 0.565152
Si Si2 0.250000 0.565899 0.369381
Si Si3 0.591216 0.060120 0.352536
Si Si4 0.033273 0.064335 0.291318
Si Si5 0.313657 0.565125 0.799739
Si Si6 0.345109 0.066469 0.005592
Si Si7 0.543671 0.067422 0.923037
Si Si8 0.250000 0.564343 0.136919
O O1 0.634011 0.250000 0.561100
O O2 0.691654 0.512086 0.587567
O O3 0.606596 0.507713 0.460780
O O4 0.583616 0.479315 0.649859
O O5 0.250000 0.750000 0.399156
O O6 0.250000 0.543315 0.253033
O O7 0.591621 0.250000 0.352564
O O8 0.528738 0.995374 0.322703
O O9 0.639234 0.997436 0.276306
O O10 0.036276 0.250000 0.315454
O O11 0.042454 0.036563 0.175788
O O12 0.250000 0.543118 0.754761
O O13 0.325498 0.750000 0.823299
O O14 0.316215 0.466097 0.900535
O O15 0.364468 0.250000 0.011638
O O16 0.397184 0.947445 0.020245
O O17 0.303890 0.027800 0.095512
O O18 0.530739 0.250000 0.896008
O O19 0.500000 0.000000 0.000000
O O20 0.250000 0.750000 0.104734
#
# Coordination Sequence:
#
# PCOD8244444 Si02
#       8
#     8   4   8   8   8   8   8   4
#     4  10  20  38  62  89 120 159 207 260 314 372
#     4   9  20  35  58  87 114 146 195 253 306 363
#     4   9  20  36  60  90 121 157 205 260 311 371
#     4  11  22  39  60  89 126 165 208 255 311 374
#     4  10  20  36  60  89 122 164 211 260 316 378
#     4  12  24  39  60  89 123 163 206 256 313 372
#     4  12  25  42  64  91 123 161 205 255 313 379
#     4  11  21  37  58  85 120 164 207 251 304 369
#
# _framework density 21.020714000000002
#
# number of rings (size 3 to 8) (size 9 to 14) (size 15 to 20)
#    0.000    1.429    0.714    5.357    1.000    2.286 
#    0.000    3.214    0.000    0.000    0.000    0.000 
#    0.000    0.000    0.000    0.000    0.000    0.000 
#
# Total GULP energy -694487.528360 kJ/mol
# GULP energy per Si atom -12401.563006 kJ/mol
# Density = 2.097287 g / cm^3
# Si number density = 21.020714 Si / 1000 Ang^3
#
#
#
# Elastic Constant Matrix: (Units=GPa)
#
#
# Indices 1 2 3 4 5 6 
#
# 1 172.7633 11.1426 54.2685 0.0000 0.0000 0.0000
# 2 11.1426 43.4222 13.8153 0.0000 0.0000 0.0000
# 3 54.2685 13.8153 108.0578 0.0000 0.0000 0.0000
# 4 0.0000 0.0000 0.0000 18.6238 0.0000 0.0000
# 5 0.0000 0.0000 0.0000 0.0000 -121.9128 0.0000
# 6 0.0000 0.0000 0.0000 0.0000 0.0000 27.8004
#
#
#
# Elastic Compliance Matrix: (Units=1/GPa)
#
#
# Indices 1 2 3 4 5 6 
#
# 1 0.006893 -0.000696 -0.003373 0.000000 0.000000 0.000000
# 2 -0.000696 0.024076 -0.002729 0.000000 0.000000 0.000000
# 3 -0.003373 -0.002729 0.011297 0.000000 0.000000 0.000000
# 4 0.000000 0.000000 0.000000 0.053695 0.000000 0.000000
# 5 0.000000 0.000000 0.000000 0.000000 -0.008203 0.000000
# 6 0.000000 0.000000 0.000000 0.000000 0.000000 0.035971
#
#
# Mechanical properties :
#
#
# Convention : Reuss Voigt Hill
#
# Bulk Modulus (GPa) = 34.87758 53.63293 44.25525
# Shear Modulus (GPa) = 34.04133 1.23673 17.63903
#
# Velocity S-wave (km/s) = 4.02857 0.76787 2.89991
# Velocity P-wave (km/s) = 6.18604 5.13380 5.68432
#
# Compressibility (1/GPa) = 0.02867172
#
# Stress axis : x y z
#
# Youngs Moduli (GPa) = 145.08436 41.53446 88.51929
#
# Poissons Ratio (x) = 0.02889 0.29854
# Poissons Ratio (y) = 0.10093 0.24155
# Poissons Ratio (z) = 0.48931 0.11334
#
# Static dielectric constant tensor:
#      x y z
#    x 4.058440 0.000000 0.000000 
#    y 0.000000 3.513190 0.000000 
#    z 0.000000 0.000000 3.911410 
# 
# 
# High freq. dielectric constant tensor:
#      x y z
#    x 1.845700 0.000000 0.000000 
#    y 0.000000 1.795680 0.000000 
#    z 0.000000 0.000000 1.830330 
# 
# From -- ./inp_files/24420.got.cif
#   From: 2010.03.12/outbox.cif.g09.slc.cpg/sg59_13_cif.got.tgz:24420.got - 2010.04.16 16:29:54.
