data_PCOD8244571
_publ_section_title
;
Structure prediction by ZEFSAII (Michael W. Deem and Ramdas Pophale) SiO2 
 PCOD8244571
Probable space group: P M M N
;
_chemical_formula_sum "Si O2"
_cell_formula_units_Z 64
_cell_length_a 15.528887
_cell_length_b 23.436577
_cell_length_c 8.625607
_cell_angle_alpha 90.000000
_cell_angle_beta 90.000000
_cell_angle_gamma 90.000000
_cell_volume 3139.237534
_symmetry_space_group_name_H-M "P M M N"
_symmetry_group_IT_number 59
_space_group.IT_coordinate_system_code '2'
_symmetry_cell_setting 'orthorhombic'
loop_
_space_group_symop_operation_xyz
x,y,z
1/2-x,1/2-y,z
1/2+x,-y,-z
-x,1/2+y,-z
-x,-y,-z
1/2+x,1/2+y,-z
1/2-x,y,z
x,1/2-y,z
loop_
_atom_site_type_symbol
_atom_site_label
_atom_site_fract_x
_atom_site_fract_y
_atom_site_fract_z
Si Si1 0.845662 0.315834 0.904533
Si Si2 0.151107 0.396760 0.049980
Si Si3 0.545371 0.974345 0.150713
Si Si4 0.499455 0.314335 0.114010
Si Si5 0.847548 0.916915 0.605286
Si Si6 0.352544 0.523667 0.586526
Si Si7 0.922164 0.391493 0.658025
Si Si8 0.963755 0.684590 0.541668
O O1 0.750000 0.321672 0.975925
O O2 0.862108 0.250000 0.853635
O O3 0.851271 0.359601 0.761533
O O4 0.914395 0.337365 0.031805
O O5 0.250000 0.375958 0.032030
O O6 0.086321 0.343943 0.050554
O O7 0.138452 0.430467 0.212743
O O8 0.126280 0.436604 0.906362
O O9 0.476860 0.937019 0.244830
O O10 0.589653 0.023740 0.256452
O O11 0.500000 0.000000 0.000000
O O12 0.483472 0.250000 0.065619
O O13 0.515705 0.320803 0.297130
O O14 0.750000 0.916167 0.557868
O O15 0.879890 0.854618 0.557192
O O16 0.888913 0.968312 0.507264
O O17 0.250000 0.522178 0.620536
O O18 0.374182 0.579274 0.486312
O O19 0.980879 0.339650 0.598552
O O20 0.936919 0.750000 0.507614
#
# Coordination Sequence:
#
# PCOD8244571 Si02
#       8
#     8   8   8   8   8   8   8   8
#     4  10  21  40  64  92 127 168 216 266 317 372
#     4  10  20  37  61  90 123 164 202 248 306 371
#     4  12  25  39  62  89 122 163 209 257 314 381
#     4   9  19  37  61  91 123 161 205 257 311 368
#     4   9  19  37  62  90 125 161 203 250 305 370
#     4  11  24  42  62  91 124 160 207 261 315 378
#     4  12  23  39  63  90 122 168 209 260 320 381
#     4  10  21  37  61  90 123 163 208 254 313 376
#
# _framework density 20.387117
#
# number of rings (size 3 to 8) (size 9 to 14) (size 15 to 20)
#    0.000    1.625    2.500    2.250    3.500    0.500 
#    0.000    6.875    0.000    3.000    0.000    0.000 
#    0.000    0.000    0.000    0.000    0.000    0.000 
#
# Total GULP energy -793386.178106 kJ/mol
# GULP energy per Si atom -12396.659033 kJ/mol
# Density = 2.034072 g / cm^3
# Si number density = 20.387117 Si / 1000 Ang^3
#
#
#
# Elastic Constant Matrix: (Units=GPa)
#
#
# Indices 1 2 3 4 5 6 
#
# 1 99.2715 19.6963 43.0099 0.0000 0.0000 0.0000
# 2 19.6963 68.2318 27.4425 0.0000 0.0000 0.0000
# 3 43.0099 27.4425 82.5383 0.0000 0.0000 0.0000
# 4 0.0000 0.0000 0.0000 37.8228 0.0000 0.0000
# 5 0.0000 0.0000 0.0000 0.0000 33.8392 0.0000
# 6 0.0000 0.0000 0.0000 0.0000 0.0000 31.2497
#
#
#
# Elastic Compliance Matrix: (Units=1/GPa)
#
#
# Indices 1 2 3 4 5 6 
#
# 1 0.013095 -0.001195 -0.006426 0.000000 0.000000 0.000000
# 2 -0.001195 0.017027 -0.005038 0.000000 0.000000 0.000000
# 3 -0.006426 -0.005038 0.017139 0.000000 0.000000 0.000000
# 4 0.000000 0.000000 0.000000 0.026439 0.000000 0.000000
# 5 0.000000 0.000000 0.000000 0.000000 0.029552 0.000000
# 6 0.000000 0.000000 0.000000 0.000000 0.000000 0.032000
#
#
# Mechanical properties :
#
#
# Convention : Reuss Voigt Hill
#
# Bulk Modulus (GPa) = 45.57545 47.81547 46.69546
# Shear Modulus (GPa) = 29.78212 31.24187 30.51199
#
# Velocity S-wave (km/s) = 3.82623 3.91888 3.87283
# Velocity P-wave (km/s) = 6.47484 6.63185 6.55382
#
# Compressibility (1/GPa) = 0.02194164
#
# Stress axis : x y z
#
# Youngs Moduli (GPa) = 76.36675 58.72881 58.34542
#
# Poissons Ratio (x) = 0.07021 0.37493
# Poissons Ratio (y) = 0.09130 0.29396
# Poissons Ratio (z) = 0.49074 0.29590
#
# Static dielectric constant tensor:
#      x y z
#    x 3.671830 0.000000 0.000000 
#    y 0.000000 3.791840 0.000000 
#    z 0.000000 0.000000 3.825260 
# 
# 
# High freq. dielectric constant tensor:
#      x y z
#    x 1.796440 0.000000 0.000000 
#    y 0.000000 1.794490 0.000000 
#    z 0.000000 0.000000 1.799150 
# 
# From -- ./inp_files/9555.got.cif
#   From: 2010.03.12/outbox.cif.g09.slc.cpg/sg59_5_cif.got.tgz:9555.got - 2010.04.16 16:29:54.
