data_PCOD8244637
_publ_section_title
;
Structure prediction by ZEFSAII (Michael W. Deem and Ramdas Pophale) SiO2 
 PCOD8244637
Probable space group: P M M N
;
_chemical_formula_sum "Si O2"
_cell_formula_units_Z 48
_cell_length_a 8.857496
_cell_length_b 9.661542
_cell_length_c 28.436057
_cell_angle_alpha 90.000000
_cell_angle_beta 90.000000
_cell_angle_gamma 90.000000
_cell_volume 2433.474430
_symmetry_space_group_name_H-M "P M M N"
_symmetry_group_IT_number 59
_space_group.IT_coordinate_system_code '2'
_symmetry_cell_setting 'orthorhombic'
loop_
_space_group_symop_operation_xyz
x,y,z
1/2-x,1/2-y,z
1/2+x,-y,-z
-x,1/2+y,-z
-x,-y,-z
1/2+x,1/2+y,-z
1/2-x,y,z
x,1/2-y,z
loop_
_atom_site_type_symbol
_atom_site_label
_atom_site_fract_x
_atom_site_fract_y
_atom_site_fract_z
Si Si1 0.926941 0.090626 0.879005
Si Si2 0.927191 0.750000 0.428847
Si Si3 0.577928 0.592119 0.218123
Si Si4 0.070478 0.250000 0.465897
Si Si5 0.579576 0.906757 0.708647
Si Si6 0.571109 0.411288 0.041671
Si Si7 0.074062 0.017896 0.396257
O O1 0.750000 0.066691 0.886618
O O2 0.970694 0.250000 0.891720
O O3 0.969431 0.057177 0.825433
O O4 0.018196 0.981571 0.910158
O O5 0.750000 0.750000 0.433549
O O6 0.998105 0.750000 0.481572
O O7 0.979926 0.620977 0.398704
O O8 0.750000 0.562066 0.203065
O O9 0.556585 0.750000 0.233925
O O10 0.535950 0.499833 0.262589
O O11 0.250000 0.250000 0.465693
O O12 0.012942 0.115544 0.437979
O O13 0.750000 0.960238 0.717378
O O14 0.561864 0.750000 0.726186
O O15 0.540691 0.911507 0.653596
O O16 0.750000 0.420076 0.037568
O O17 0.518838 0.250000 0.039549
O O18 0.500000 0.500000 0.000000
O O19 0.250000 0.984916 0.402542
#
# Coordination Sequence:
#
# PCOD8244637 Si02
#       7
#     8   4   8   4   8   8   8
#     4  10  21  39  63  90 119 154 199 247 292 344
#     4  11  23  35  53  85 117 145 179 229 284 337
#     4  10  22  39  60  87 119 154 188 231 290 351
#     4   9  18  37  61  81 109 145 187 233 278 333
#     4  10  21  38  60  83 107 143 191 238 283 336
#     4  11  24  40  60  89 124 163 206 250 298 351
#     4  10  20  38  60  81 107 146 190 231 278 337
#
# _framework density 19.724882000000001
#
# number of rings (size 3 to 8) (size 9 to 14) (size 15 to 20)
#    0.000    1.833    0.833    2.750    1.167    7.000 
#    0.000    1.250    0.000    0.000    0.000    0.000 
#    0.000    0.000    0.000    0.000    0.000    0.000 
#
# Total GULP energy -595328.828274 kJ/mol
# GULP energy per Si atom -12402.683922 kJ/mol
# Density = 1.967999 g / cm^3
# Si number density = 19.724882 Si / 1000 Ang^3
#
#
#
# Elastic Constant Matrix: (Units=GPa)
#
#
# Indices 1 2 3 4 5 6 
#
# 1 63.2126 44.4115 30.9558 0.0000 0.0000 0.0000
# 2 44.4115 119.5666 40.8296 0.0000 0.0000 0.0000
# 3 30.9558 40.8296 78.8290 0.0000 0.0000 0.0000
# 4 0.0000 0.0000 0.0000 40.3597 0.0000 0.0000
# 5 0.0000 0.0000 0.0000 0.0000 33.3798 0.0000
# 6 0.0000 0.0000 0.0000 0.0000 0.0000 21.4423
#
#
#
# Elastic Compliance Matrix: (Units=1/GPa)
#
#
# Indices 1 2 3 4 5 6 
#
# 1 0.023324 -0.006725 -0.005676 0.000000 0.000000 0.000000
# 2 -0.006725 0.012100 -0.003626 0.000000 0.000000 0.000000
# 3 -0.005676 -0.003626 0.016793 0.000000 0.000000 0.000000
# 4 0.000000 0.000000 0.000000 0.024777 0.000000 0.000000
# 5 0.000000 0.000000 0.000000 0.000000 0.029958 0.000000
# 6 0.000000 0.000000 0.000000 0.000000 0.000000 0.046637
#
#
# Mechanical properties :
#
#
# Convention : Reuss Voigt Hill
#
# Bulk Modulus (GPa) = 49.59806 54.88912 52.24359
# Shear Modulus (GPa) = 25.99237 28.73047 27.36142
#
# Velocity S-wave (km/s) = 3.63401 3.82063 3.72849
# Velocity P-wave (km/s) = 6.54275 6.88119 6.71410
#
# Compressibility (1/GPa) = 0.02016208
#
# Stress axis : x y z
#
# Youngs Moduli (GPa) = 42.87399 82.64597 59.54948
#
# Poissons Ratio (x) = 0.55581 0.33800
# Poissons Ratio (y) = 0.28834 0.21593
# Poissons Ratio (z) = 0.24335 0.29969
#
# Static dielectric constant tensor:
#      x y z
#    x 3.489990 0.000000 0.000000 
#    y 0.000000 3.774970 0.000000 
#    z 0.000000 0.000000 3.612040 
# 
# 
# High freq. dielectric constant tensor:
#      x y z
#    x 1.760830 0.000000 0.000000 
#    y 0.000000 1.775730 0.000000 
#    z 0.000000 0.000000 1.774700 
# 
# From -- ./inp_files/33048.got.cif
#   From: 2010.03.12/outbox.cif.g09.slc.cpg/sg59_17_cif.got.tgz:33048.got - 2010.04.16 16:29:54.
