data_PCOD8244891
_publ_section_title
;
Structure prediction by ZEFSAII (Michael W. Deem and Ramdas Pophale) SiO2 
 PCOD8244891
Probable space group: P M M N
;
_chemical_formula_sum "Si O2"
_cell_formula_units_Z 48
_cell_length_a 9.204448
_cell_length_b 8.874842
_cell_length_c 30.960295
_cell_angle_alpha 90.000000
_cell_angle_beta 90.000000
_cell_angle_gamma 90.000000
_cell_volume 2529.085250
_symmetry_space_group_name_H-M "P M M N"
_symmetry_group_IT_number 59
_space_group.IT_coordinate_system_code '2'
_symmetry_cell_setting 'orthorhombic'
loop_
_space_group_symop_operation_xyz
x,y,z
1/2-x,1/2-y,z
1/2+x,-y,-z
-x,1/2+y,-z
-x,-y,-z
1/2+x,1/2+y,-z
1/2-x,y,z
x,1/2-y,z
loop_
_atom_site_type_symbol
_atom_site_label
_atom_site_fract_x
_atom_site_fract_y
_atom_site_fract_z
Si Si1 0.920769 0.925119 0.695589
Si Si2 0.080709 0.073676 0.618863
Si Si3 0.589733 0.571161 0.791952
Si Si4 0.918617 0.425314 0.126450
Si Si5 0.082405 0.071878 0.460072
Si Si6 0.580996 0.574411 0.039493
O O1 0.750000 0.954717 0.687763
O O2 0.956355 0.750000 0.686800
O O3 0.966204 0.973296 0.744244
O O4 0.017837 0.029691 0.665321
O O5 0.250000 0.030452 0.616321
O O6 0.057616 0.250000 0.610536
O O7 0.992406 0.980324 0.583729
O O8 0.750000 0.504128 0.799255
O O9 0.594880 0.750000 0.794383
O O10 0.489065 0.506418 0.830033
O O11 0.750000 0.457618 0.131233
O O12 0.954562 0.250000 0.120950
O O13 0.981663 0.509045 0.084398
O O14 0.250000 0.019447 0.460304
O O15 0.070795 0.250000 0.463811
O O16 0.000000 0.000000 0.500000
O O17 0.750000 0.534626 0.035232
O O18 0.550218 0.750000 0.038664
O O19 0.500000 0.500000 0.000000
#
# Coordination Sequence:
#
# PCOD8244891 Si02
#       6
#     8   8   8   8   8   8
#     4   9  18  34  56  81 108 140 180 223 266 314
#     4  11  24  39  55  80 113 147 185 226 268 317
#     4   8  15  29  50  76 104 133 169 214 260 308
#     4   9  17  30  49  73 101 133 169 209 255 309
#     4  11  24  41  62  88 115 144 181 223 267 318
#     4  10  21  36  53  74 101 134 171 212 260 312
#
# _framework density 18.979192999999999
#
# number of rings (size 3 to 8) (size 9 to 14) (size 15 to 20)
#    0.000    2.333    0.000    3.500    0.000    9.333 
#    0.000    4.167    0.000    3.000    0.000    0.000 
#    0.000    0.000    0.000    0.000    0.000    0.000 
#
# Total GULP energy -595197.417452 kJ/mol
# GULP energy per Si atom -12399.946197 kJ/mol
# Density = 1.893600 g / cm^3
# Si number density = 18.979193 Si / 1000 Ang^3
#
#
#
# Elastic Constant Matrix: (Units=GPa)
#
#
# Indices 1 2 3 4 5 6 
#
# 1 100.1116 46.9841 77.3881 0.0000 0.0000 0.0000
# 2 46.9841 48.3450 43.5568 0.0000 0.0000 0.0000
# 3 77.3881 43.5568 172.2029 0.0000 0.0000 0.0000
# 4 0.0000 0.0000 0.0000 33.2761 0.0000 0.0000
# 5 0.0000 0.0000 0.0000 0.0000 42.1007 0.0000
# 6 0.0000 0.0000 0.0000 0.0000 0.0000 26.1810
#
#
#
# Elastic Compliance Matrix: (Units=1/GPa)
#
#
# Indices 1 2 3 4 5 6 
#
# 1 0.022121 -0.016243 -0.005833 0.000000 0.000000 0.000000
# 2 -0.016243 0.038717 -0.002493 0.000000 0.000000 0.000000
# 3 -0.005833 -0.002493 0.009059 0.000000 0.000000 0.000000
# 4 0.000000 0.000000 0.000000 0.030052 0.000000 0.000000
# 5 0.000000 0.000000 0.000000 0.000000 0.023753 0.000000
# 6 0.000000 0.000000 0.000000 0.000000 0.000000 0.038196
#
#
# Mechanical properties :
#
#
# Convention : Reuss Voigt Hill
#
# Bulk Modulus (GPa) = 48.17301 72.94641 60.55971
# Shear Modulus (GPa) = 22.94063 30.49360 26.71711
#
# Velocity S-wave (km/s) = 3.48044 4.01270 3.75601
# Velocity P-wave (km/s) = 6.44891 7.74515 7.12656
#
# Compressibility (1/GPa) = 0.02075851
#
# Stress axis : x y z
#
# Youngs Moduli (GPa) = 45.20647 25.82847 110.38854
#
# Poissons Ratio (x) = 0.41954 0.64385
# Poissons Ratio (y) = 0.73430 0.27524
# Poissons Ratio (z) = 0.26367 0.06440
#
# Static dielectric constant tensor:
#      x y z
#    x 3.541060 0.000000 0.000000 
#    y 0.000000 3.263990 0.000000 
#    z 0.000000 0.000000 3.943310 
# 
# 
# High freq. dielectric constant tensor:
#      x y z
#    x 1.735010 0.000000 0.000000 
#    y 0.000000 1.720000 0.000000 
#    z 0.000000 0.000000 1.757930 
# 
# From -- ./inp_files/32889.got.cif
#   From: 2010.03.12/outbox.cif.g09.slc.cpg/sg59_17_cif.got.tgz:32889.got - 2010.04.16 16:29:54.
