data_PCOD8244003
_publ_section_title
;
Structure prediction by ZEFSAII (Michael W. Deem and Ramdas Pophale) SiO2 
 PCOD8244003
Probable space group: P M M N
;
_chemical_formula_sum "Si O2"
_cell_formula_units_Z 56
_cell_length_a 15.269711
_cell_length_b 8.928314
_cell_length_c 21.015387
_cell_angle_alpha 90.000000
_cell_angle_beta 90.000000
_cell_angle_gamma 90.000000
_cell_volume 2865.086017
_symmetry_space_group_name_H-M "P M M N"
_symmetry_group_IT_number 59
_space_group.IT_coordinate_system_code '2'
_symmetry_cell_setting 'orthorhombic'
loop_
_space_group_symop_operation_xyz
x,y,z
1/2-x,1/2-y,z
1/2+x,-y,-z
-x,1/2+y,-z
-x,-y,-z
1/2+x,1/2+y,-z
1/2-x,y,z
x,1/2-y,z
loop_
_atom_site_type_symbol
_atom_site_label
_atom_site_fract_x
_atom_site_fract_y
_atom_site_fract_z
Si Si1 0.404648 0.081485 0.810910
Si Si2 0.651498 0.917643 0.855190
Si Si3 0.750000 0.427645 0.403213
Si Si4 0.585343 0.079629 0.738982
Si Si5 0.903436 0.427808 0.497109
Si Si6 0.651114 0.579557 0.621634
Si Si7 0.009153 0.926244 0.067857
Si Si8 0.750000 0.425723 0.259030
O O1 0.366901 0.250000 0.813225
O O2 0.487985 0.074649 0.765568
O O3 0.431734 0.029160 0.882459
O O4 0.333819 0.972262 0.781553
O O5 0.750000 0.910129 0.879888
O O6 0.610942 0.750000 0.852392
O O7 0.649920 0.990865 0.785594
O O8 0.601149 0.020474 0.904808
O O9 0.750000 0.250000 0.402704
O O10 0.840713 0.480115 0.438073
O O11 0.750000 0.493948 0.330940
O O12 0.618382 0.250000 0.731358
O O13 0.585526 0.995849 0.671705
O O14 0.914777 0.250000 0.497303
O O15 0.851100 0.482149 0.558343
O O16 0.000000 0.500000 0.500000
O O17 0.750000 0.576431 0.648325
O O18 0.620203 0.750000 0.608524
O O19 0.011889 0.750000 0.059507
O O20 0.000000 0.000000 0.000000
O O21 0.750000 0.250000 0.265509
#
# Coordination Sequence:
#
# PCOD8244003 Si02
#       8
#     8   8   4   8   8   8   8   4
#     4   9  21  41  60  86 120 156 195 244 298 355
#     4  10  20  35  56  85 119 154 193 236 286 345
#     4   9  22  43  63  87 123 160 201 258 319 369
#     4  10  21  36  58  86 117 155 195 239 298 358
#     4  11  23  42  63  86 118 157 202 255 313 377
#     4  11  23  38  57  85 119 154 196 246 301 363
#     4  10  21  39  63  88 120 158 198 243 297 353
#     4  11  23  39  63  91 117 156 205 252 301 357
#
# _framework density 19.545660000000002
#
# number of rings (size 3 to 8) (size 9 to 14) (size 15 to 20)
#    0.000    1.857    0.714    3.643    2.000    7.143 
#    1.286    2.143    0.000    0.000    0.000    0.000 
#    0.000    0.000    0.000    0.000    0.000    0.000 
#
# Total GULP energy -694295.291089 kJ/mol
# GULP energy per Si atom -12398.130198 kJ/mol
# Density = 1.950117 g / cm^3
# Si number density = 19.545660 Si / 1000 Ang^3
#
#
#
# Elastic Constant Matrix: (Units=GPa)
#
#
# Indices 1 2 3 4 5 6 
#
# 1 95.4900 44.0163 52.5081 0.0000 0.0000 0.0000
# 2 44.0163 101.6705 57.9297 0.0000 0.0000 0.0000
# 3 52.5081 57.9297 154.2664 0.0000 0.0000 0.0000
# 4 0.0000 0.0000 0.0000 36.8059 0.0000 0.0000
# 5 0.0000 0.0000 0.0000 0.0000 18.6613 0.0000
# 6 0.0000 0.0000 0.0000 0.0000 0.0000 33.0486
#
#
#
# Elastic Compliance Matrix: (Units=1/GPa)
#
#
# Indices 1 2 3 4 5 6 
#
# 1 0.014239 -0.004329 -0.003221 0.000000 0.000000 0.000000
# 2 -0.004329 0.013829 -0.003720 0.000000 0.000000 0.000000
# 3 -0.003221 -0.003720 0.008975 0.000000 0.000000 0.000000
# 4 0.000000 0.000000 0.000000 0.027170 0.000000 0.000000
# 5 0.000000 0.000000 0.000000 0.000000 0.053587 0.000000
# 6 0.000000 0.000000 0.000000 0.000000 0.000000 0.030258
#
#
# Mechanical properties :
#
#
# Convention : Reuss Voigt Hill
#
# Bulk Modulus (GPa) = 68.94558 73.37059 71.15808
# Shear Modulus (GPa) = 28.50097 30.83468 29.66782
#
# Velocity S-wave (km/s) = 3.82275 3.97617 3.90022
# Velocity P-wave (km/s) = 7.40508 7.66156 7.53441
#
# Compressibility (1/GPa) = 0.01450419
#
# Stress axis : x y z
#
# Youngs Moduli (GPa) = 70.22968 72.31000 111.41637
#
# Poissons Ratio (x) = 0.31306 0.35885
# Poissons Ratio (y) = 0.30405 0.41442
# Poissons Ratio (z) = 0.22620 0.26896
#
# Static dielectric constant tensor:
#      x y z
#    x 3.531540 0.000000 0.000000 
#    y 0.000000 3.195620 0.000000 
#    z 0.000000 0.000000 3.697390 
# 
# 
# High freq. dielectric constant tensor:
#      x y z
#    x 1.757430 0.000000 0.000000 
#    y 0.000000 1.768160 0.000000 
#    z 0.000000 0.000000 1.763240 
# 
# From -- ./inp_files/30456.got.cif
#   From: 2010.03.12/outbox.cif.g09.slc.cpg/sg59_16_cif.got.tgz:30456.got - 2010.04.16 16:29:54.
