data_PCOD8244854
_publ_section_title
;
Structure prediction by ZEFSAII (Michael W. Deem and Ramdas Pophale) SiO2 
 PCOD8244854
Probable space group: P M M N
;
_chemical_formula_sum "Si O2"
_cell_formula_units_Z 48
_cell_length_a 7.682170
_cell_length_b 18.010010
_cell_length_c 17.269620
_cell_angle_alpha 90.000000
_cell_angle_beta 90.000000
_cell_angle_gamma 90.000000
_cell_volume 2389.354828
_symmetry_space_group_name_H-M "P M M N"
_symmetry_group_IT_number 59
_space_group.IT_coordinate_system_code '2'
_symmetry_cell_setting 'orthorhombic'
loop_
_space_group_symop_operation_xyz
x,y,z
1/2-x,1/2-y,z
1/2+x,-y,-z
-x,1/2+y,-z
-x,-y,-z
1/2+x,1/2+y,-z
1/2-x,y,z
x,1/2-y,z
loop_
_atom_site_type_symbol
_atom_site_label
_atom_site_fract_x
_atom_site_fract_y
_atom_site_fract_z
Si Si1 0.956659 0.404920 0.848235
Si Si2 0.750000 0.661437 0.430169
Si Si3 0.250000 0.337969 0.744820
Si Si4 0.943295 0.161949 0.463426
Si Si5 0.552531 0.571840 0.843920
Si Si6 0.956979 0.833470 0.704045
Si Si7 0.953854 0.334221 0.011951
O O1 0.750000 0.397031 0.829601
O O2 0.025379 0.489626 0.854077
O O3 0.070589 0.365600 0.782712
O O4 0.004066 0.365846 0.928633
O O5 0.750000 0.750000 0.431111
O O6 0.750000 0.631503 0.342935
O O7 0.579738 0.629723 0.474423
O O8 0.250000 0.250000 0.747363
O O9 0.750000 0.137949 0.489697
O O10 0.963997 0.250000 0.459648
O O11 0.981685 0.131158 0.377302
O O12 0.750000 0.560532 0.819629
O O13 0.461933 0.616963 0.773653
O O14 0.545385 0.616484 0.923577
O O15 0.750000 0.831555 0.706784
O O16 0.030706 0.750000 0.714547
O O17 0.750000 0.338405 0.026408
O O18 0.022773 0.250000 0.017876
#
# Coordination Sequence:
#
# PCOD8244854 Si02
#       7
#     8   4   4   8   8   8   8
#     4  10  23  42  60  84 119 156 195 243 288 347
#     4   9  18  34  54  83 115 138 183 243 285 338
#     4  11  24  40  66  91 108 150 195 237 302 346
#     4   9  16  28  50  80 113 148 182 229 291 343
#     4  10  21  35  56  85 115 161 197 236 289 345
#     4   9  16  29  50  80 118 153 192 240 285 338
#     4  10  21  36  56  83 118 154 195 248 294 333
#
# _framework density 20.089105
#
# number of rings (size 3 to 8) (size 9 to 14) (size 15 to 20)
#    0.000    2.333    0.833    1.500    2.333    3.333 
#    0.000    3.333    0.000    1.000    0.000    0.000 
#    0.000    0.000    0.000    0.000    0.000    0.000 
#
# Total GULP energy -595101.756834 kJ/mol
# GULP energy per Si atom -12397.953267 kJ/mol
# Density = 2.004338 g / cm^3
# Si number density = 20.089105 Si / 1000 Ang^3
#
#
#
# Elastic Constant Matrix: (Units=GPa)
#
#
# Indices 1 2 3 4 5 6 
#
# 1 80.1769 21.4173 52.8168 0.0000 0.0000 0.0000
# 2 21.4173 98.0981 40.2614 0.0000 0.0000 0.0000
# 3 52.8168 40.2614 143.2675 0.0000 0.0000 0.0000
# 4 0.0000 0.0000 0.0000 0.7095 0.0000 0.0000
# 5 0.0000 0.0000 0.0000 0.0000 8.9672 0.0000
# 6 0.0000 0.0000 0.0000 0.0000 0.0000 11.2894
#
#
#
# Elastic Compliance Matrix: (Units=1/GPa)
#
#
# Indices 1 2 3 4 5 6 
#
# 1 0.016609 -0.001258 -0.005770 0.000000 0.000000 0.000000
# 2 -0.001258 0.011618 -0.002801 0.000000 0.000000 0.000000
# 3 -0.005770 -0.002801 0.009894 0.000000 0.000000 0.000000
# 4 0.000000 0.000000 0.000000 1.409448 0.000000 0.000000
# 5 0.000000 0.000000 0.000000 0.000000 0.111517 0.000000
# 6 0.000000 0.000000 0.000000 0.000000 0.000000 0.088579
#
#
# Mechanical properties :
#
#
# Convention : Reuss Voigt Hill
#
# Bulk Modulus (GPa) = 54.16023 61.17037 57.66530
# Shear Modulus (GPa) = 2.98779 17.99637 10.49208
#
# Velocity S-wave (km/s) = 1.22086 2.99628 2.28782
# Velocity P-wave (km/s) = 5.38571 6.51812 5.97879
#
# Compressibility (1/GPa) = 0.01846373
#
# Stress axis : x y z
#
# Youngs Moduli (GPa) = 60.20746 86.07167 101.07024
#
# Poissons Ratio (x) = 0.10830 0.58313
# Poissons Ratio (y) = 0.07576 0.28311
# Poissons Ratio (z) = 0.34737 0.24110
#
# Static dielectric constant tensor:
#      x y z
#    x 3.619100 0.000000 0.000000 
#    y 0.000000 3.633870 0.000000 
#    z 0.000000 0.000000 3.739250 
# 
# 
# High freq. dielectric constant tensor:
#      x y z
#    x 1.782640 0.000000 0.000000 
#    y 0.000000 1.759080 0.000000 
#    z 0.000000 0.000000 1.788380 
# 
# From -- ./inp_files/20585.got.cif
#   From: 2010.03.12/outbox.cif.g09.slc.cpg/sg59_11_cif.got.tgz:20585.got - 2010.04.16 16:29:54.
