data_PCOD8244360
_publ_section_title
;
Structure prediction by ZEFSAII (Michael W. Deem and Ramdas Pophale) SiO2 
 PCOD8244360
Probable space group: P M M N
;
_chemical_formula_sum "Si O2"
_cell_formula_units_Z 48
_cell_length_a 8.870612
_cell_length_b 30.293880
_cell_length_c 9.392172
_cell_angle_alpha 90.000000
_cell_angle_beta 90.000000
_cell_angle_gamma 90.000000
_cell_volume 2523.913820
_symmetry_space_group_name_H-M "P M M N"
_symmetry_group_IT_number 59
_space_group.IT_coordinate_system_code '2'
_symmetry_cell_setting 'orthorhombic'
loop_
_space_group_symop_operation_xyz
x,y,z
1/2-x,1/2-y,z
1/2+x,-y,-z
-x,1/2+y,-z
-x,-y,-z
1/2+x,1/2+y,-z
1/2-x,y,z
x,1/2-y,z
loop_
_atom_site_type_symbol
_atom_site_label
_atom_site_fract_x
_atom_site_fract_y
_atom_site_fract_z
Si Si1 0.922183 0.198694 0.336315
Si Si2 0.428551 0.878236 0.152473
Si Si3 0.425313 0.455009 0.673018
Si Si4 0.575091 0.954482 0.653737
Si Si5 0.429292 0.798714 0.343022
Si Si6 0.425927 0.372159 0.151935
O O1 0.750000 0.182292 0.319111
O O2 0.933752 0.250000 0.297874
O O3 0.981473 0.189971 0.496541
O O4 0.029150 0.173096 0.228059
O O5 0.250000 0.877440 0.155645
O O6 0.483741 0.922547 0.226304
O O7 0.494444 0.835464 0.235894
O O8 0.483189 0.877123 0.992221
O O9 0.250000 0.450200 0.707586
O O10 0.463367 0.443284 0.509791
O O11 0.476445 0.504650 0.708536
O O12 0.750000 0.967035 0.670177
O O13 0.528955 0.912505 0.746248
O O14 0.250000 0.797822 0.340454
O O15 0.490089 0.750000 0.298445
O O16 0.250000 0.371722 0.117297
#
# Coordination Sequence:
#
# PCOD8244360 Si02
#       6
#     8   8   8   8   8   8
#     4   9  18  35  59  83 106 136 177 222 266 315
#     4  11  22  35  54  80 111 146 181 219 267 321
#     4  10  20  36  59  83 106 135 176 226 274 321
#     4   9  20  38  58  80 106 139 179 222 270 323
#     4   8  16  33  57  82 105 134 177 224 264 307
#     4  11  23  37  53  77 112 147 178 217 265 318
#
# _framework density 19.018083000000001
#
# number of rings (size 3 to 8) (size 9 to 14) (size 15 to 20)
#    0.000    2.333    0.000    3.500    0.000    3.667 
#    0.000    2.500    0.000    3.500    0.000    0.000 
#    0.000    0.000    0.000    0.000    0.000    0.000 
#
# Total GULP energy -595315.877046 kJ/mol
# GULP energy per Si atom -12402.414105 kJ/mol
# Density = 1.897480 g / cm^3
# Si number density = 19.018083 Si / 1000 Ang^3
#
#
#
# Elastic Constant Matrix: (Units=GPa)
#
#
# Indices 1 2 3 4 5 6 
#
# 1 55.9476 39.6105 33.5526 0.0000 0.0000 0.0000
# 2 39.6105 108.6415 66.3850 0.0000 0.0000 0.0000
# 3 33.5526 66.3850 105.7150 0.0000 0.0000 0.0000
# 4 0.0000 0.0000 0.0000 11.1956 0.0000 0.0000
# 5 0.0000 0.0000 0.0000 0.0000 30.2655 0.0000
# 6 0.0000 0.0000 0.0000 0.0000 0.0000 28.9839
#
#
#
# Elastic Compliance Matrix: (Units=1/GPa)
#
#
# Indices 1 2 3 4 5 6 
#
# 1 0.024898 -0.006895 -0.003573 0.000000 0.000000 0.000000
# 2 -0.006895 0.016845 -0.008390 0.000000 0.000000 0.000000
# 3 -0.003573 -0.008390 0.015862 0.000000 0.000000 0.000000
# 4 0.000000 0.000000 0.000000 0.089320 0.000000 0.000000
# 5 0.000000 0.000000 0.000000 0.000000 0.033041 0.000000
# 6 0.000000 0.000000 0.000000 0.000000 0.000000 0.034502
#
#
# Mechanical properties :
#
#
# Convention : Reuss Voigt Hill
#
# Bulk Modulus (GPa) = 50.27542 61.04446 55.65994
# Shear Modulus (GPa) = 19.31908 22.80609 21.06258
#
# Velocity S-wave (km/s) = 3.19066 3.46667 3.33153
# Velocity P-wave (km/s) = 6.32983 6.94201 6.64298
#
# Compressibility (1/GPa) = 0.01989044
#
# Stress axis : x y z
#
# Youngs Moduli (GPa) = 40.16416 59.36543 63.04499
#
# Poissons Ratio (x) = 0.40930 0.22524
# Poissons Ratio (y) = 0.27692 0.52892
# Poissons Ratio (z) = 0.14349 0.49805
#
# Static dielectric constant tensor:
#      x y z
#    x 3.317390 0.000000 0.000000 
#    y 0.000000 3.648730 0.000000 
#    z 0.000000 0.000000 3.523680 
# 
# 
# High freq. dielectric constant tensor:
#      x y z
#    x 1.725720 0.000000 0.000000 
#    y 0.000000 1.750160 0.000000 
#    z 0.000000 0.000000 1.738640 
# 
# From -- ./inp_files/6258.got.cif
#   From: 2010.03.12/outbox.cif.g09.slc.cpg/sg59_4_cif.got.tgz:6258.got - 2010.04.16 16:29:54.
