data_PCOD8244681
_publ_section_title
;
Structure prediction by ZEFSAII (Michael W. Deem and Ramdas Pophale) SiO2 
 PCOD8244681
Probable space group: P M M N
;
_chemical_formula_sum "Si O2"
_cell_formula_units_Z 48
_cell_length_a 15.068526
_cell_length_b 13.597726
_cell_length_c 10.174958
_cell_angle_alpha 90.000000
_cell_angle_beta 90.000000
_cell_angle_gamma 90.000000
_cell_volume 2084.825367
_symmetry_space_group_name_H-M "P M M N"
_symmetry_group_IT_number 59
_space_group.IT_coordinate_system_code '2'
_symmetry_cell_setting 'orthorhombic'
loop_
_space_group_symop_operation_xyz
x,y,z
1/2-x,1/2-y,z
1/2+x,-y,-z
-x,1/2+y,-z
-x,-y,-z
1/2+x,1/2+y,-z
1/2-x,y,z
x,1/2-y,z
loop_
_atom_site_type_symbol
_atom_site_label
_atom_site_fract_x
_atom_site_fract_y
_atom_site_fract_z
Si Si1 0.343312 0.055417 0.865090
Si Si2 0.892917 0.140761 0.237699
Si Si3 0.153404 0.136603 0.587575
Si Si4 0.991189 0.140332 0.981257
Si Si5 0.035747 0.866164 0.478253
Si Si6 0.850035 0.366072 0.766781
O O1 0.250000 0.083320 0.936103
O O2 0.359242 0.128506 0.743895
O O3 0.427461 0.064808 0.960677
O O4 0.328189 0.943968 0.812840
O O5 0.847951 0.250000 0.239729
O O6 0.922538 0.108416 0.382107
O O7 0.975462 0.142421 0.137155
O O8 0.250000 0.089155 0.545736
O O9 0.156183 0.250000 0.547158
O O10 0.064608 0.086680 0.524113
O O11 0.018240 0.250000 0.933345
O O12 0.903874 0.105762 0.899583
O O13 0.025657 0.750000 0.457899
O O14 0.097615 0.908337 0.360856
O O15 0.750000 0.411423 0.774361
O O16 0.841081 0.250000 0.753825
#
# Coordination Sequence:
#
# PCOD8244681 Si02
#       6
#     8   8   8   8   8   8
#     4  11  22  36  59  88 117 152 197 241 286 341
#     4  10  23  39  58  82 117 160 192 231 293 349
#     4   9  17  32  57  87 116 149 191 239 290 341
#     4  10  20  39  61  85 116 151 194 242 291 343
#     4   9  17  34  57  83 114 151 192 237 287 340
#     4   9  17  31  55  83 111 148 194 239 282 333
#
# _framework density 23.023510999999999
#
# number of rings (size 3 to 8) (size 9 to 14) (size 15 to 20)
#    0.000    2.333    1.667    1.000    0.000    3.333 
#    0.000    4.167    0.000    3.000    0.000    0.000 
#    0.000    0.000    0.000    0.000    0.000    0.000 
#
# Total GULP energy -594677.435187 kJ/mol
# GULP energy per Si atom -12389.113233 kJ/mol
# Density = 2.297111 g / cm^3
# Si number density = 23.023511 Si / 1000 Ang^3
#
#
#
# Elastic Constant Matrix: (Units=GPa)
#
#
# Indices 1 2 3 4 5 6 
#
# 1 160.8810 5.3330 28.4847 0.0000 0.0000 0.0000
# 2 5.3330 41.7108 1.6539 0.0000 0.0000 0.0000
# 3 28.4847 1.6539 93.8432 0.0000 0.0000 0.0000
# 4 0.0000 0.0000 0.0000 13.9752 0.0000 0.0000
# 5 0.0000 0.0000 0.0000 0.0000 8.7496 0.0000
# 6 0.0000 0.0000 0.0000 0.0000 0.0000 14.4120
#
#
#
# Elastic Compliance Matrix: (Units=1/GPa)
#
#
# Indices 1 2 3 4 5 6 
#
# 1 0.006593 -0.000764 -0.001988 0.000000 0.000000 0.000000
# 2 -0.000764 0.024080 -0.000192 0.000000 0.000000 0.000000
# 3 -0.001988 -0.000192 0.011263 0.000000 0.000000 0.000000
# 4 0.000000 0.000000 0.000000 0.071556 0.000000 0.000000
# 5 0.000000 0.000000 0.000000 0.000000 0.114291 0.000000
# 6 0.000000 0.000000 0.000000 0.000000 0.000000 0.069386
#
#
# Mechanical properties :
#
#
# Convention : Reuss Voigt Hill
#
# Bulk Modulus (GPa) = 27.74149 40.81982 34.28066
# Shear Modulus (GPa) = 15.86931 24.82491 20.34711
#
# Velocity S-wave (km/s) = 2.62823 3.28722 2.97602
# Velocity P-wave (km/s) = 4.61362 5.67238 5.17017
#
# Compressibility (1/GPa) = 0.03604708
#
# Stress axis : x y z
#
# Youngs Moduli (GPa) = 151.67497 41.52839 88.78775
#
# Poissons Ratio (x) = 0.03173 0.17649
# Poissons Ratio (y) = 0.11590 0.01709
# Poissons Ratio (z) = 0.30149 0.00799
#
# Static dielectric constant tensor:
#      x y z
#    x 4.354960 0.000000 0.000000 
#    y 0.000000 4.046570 0.000000 
#    z 0.000000 0.000000 3.906520 
# 
# 
# High freq. dielectric constant tensor:
#      x y z
#    x 1.910750 0.000000 0.000000 
#    y 0.000000 1.900580 0.000000 
#    z 0.000000 0.000000 1.885750 
# 
# From -- ./inp_files/16850.got.cif
#   From: 2010.03.12/outbox.cif.g09.slc.cpg/sg59_9_cif.got.tgz:16850.got - 2010.04.16 16:29:54.
