data_PCOD8244988
_publ_section_title
;
Structure prediction by ZEFSAII (Michael W. Deem and Ramdas Pophale) SiO2 
 PCOD8244988
Probable space group: P M M N
;
_chemical_formula_sum "Si O2"
_cell_formula_units_Z 56
_cell_length_a 8.941266
_cell_length_b 22.966494
_cell_length_c 15.388998
_cell_angle_alpha 90.000000
_cell_angle_beta 90.000000
_cell_angle_gamma 90.000000
_cell_volume 3160.123536
_symmetry_space_group_name_H-M "P M M N"
_symmetry_group_IT_number 59
_space_group.IT_coordinate_system_code '2'
_symmetry_cell_setting 'orthorhombic'
loop_
_space_group_symop_operation_xyz
x,y,z
1/2-x,1/2-y,z
1/2+x,-y,-z
-x,1/2+y,-z
-x,-y,-z
1/2+x,1/2+y,-z
1/2-x,y,z
x,1/2-y,z
loop_
_atom_site_type_symbol
_atom_site_label
_atom_site_fract_x
_atom_site_fract_y
_atom_site_fract_z
Si Si1 0.426292 0.817478 0.320966
Si Si2 0.572794 0.877828 0.163041
Si Si3 0.915115 0.180852 0.486290
Si Si4 0.074051 0.184153 0.316661
Si Si5 0.421740 0.118673 0.146756
Si Si6 0.576292 0.316468 0.992659
Si Si7 0.077560 0.508960 0.092028
O O1 0.250000 0.827322 0.305727
O O2 0.466798 0.750000 0.305148
O O3 0.522967 0.857458 0.257901
O O4 0.473343 0.837752 0.418330
O O5 0.750000 0.882237 0.157269
O O6 0.503729 0.940802 0.145145
O O7 0.515105 0.830900 0.093778
O O8 0.750000 0.155268 0.471082
O O9 0.910329 0.250000 0.484887
O O10 0.017203 0.157293 0.407837
O O11 0.250000 0.183794 0.321234
O O12 0.013740 0.250000 0.302264
O O13 0.017037 0.144240 0.237512
O O14 0.250000 0.137961 0.130128
O O15 0.523973 0.142553 0.070130
O O16 0.435666 0.049173 0.149684
O O17 0.750000 0.327925 0.973833
O O18 0.545134 0.250000 0.018834
O O19 0.250000 0.525890 0.076053
O O20 0.000000 0.500000 0.000000
#
# Coordination Sequence:
#
# PCOD8244988 Si02
#       7
#     8   8   8   8   8   8   8
#     4   9  18  34  55  79 108 140 174 215 263 314
#     4  12  24  36  53  77 105 139 176 219 266 314
#     4   8  15  29  50  76 106 139 172 207 253 311
#     4   9  17  30  50  78 110 139 167 205 256 313
#     4  10  21  36  55  77 103 138 177 218 263 312
#     4  11  23  36  52  76 106 139 172 212 263 315
#     4  11  22  38  58  77 100 136 183 227 266 311
#
# _framework density 17.720825999999999
#
# number of rings (size 3 to 8) (size 9 to 14) (size 15 to 20)
#    0.000    2.000    1.429    3.857    0.000    5.429 
#    0.000    2.857    0.000    0.857    0.000    0.000 
#    0.000    0.000    0.000    0.000    0.000    0.000 
#
# Total GULP energy -694409.206272 kJ/mol
# GULP energy per Si atom -12400.164398 kJ/mol
# Density = 1.768049 g / cm^3
# Si number density = 17.720826 Si / 1000 Ang^3
#
#
#
# Elastic Constant Matrix: (Units=GPa)
#
#
# Indices 1 2 3 4 5 6 
#
# 1 89.1314 35.6896 46.0252 0.0000 0.0000 0.0000
# 2 35.6896 72.6485 35.8659 0.0000 0.0000 0.0000
# 3 46.0252 35.8659 129.9855 0.0000 0.0000 0.0000
# 4 0.0000 0.0000 0.0000 12.7284 0.0000 0.0000
# 5 0.0000 0.0000 0.0000 0.0000 32.3807 0.0000
# 6 0.0000 0.0000 0.0000 0.0000 0.0000 24.0333
#
#
#
# Elastic Compliance Matrix: (Units=1/GPa)
#
#
# Indices 1 2 3 4 5 6 
#
# 1 0.015525 -0.005688 -0.003928 0.000000 0.000000 0.000000
# 2 -0.005688 0.018019 -0.002958 0.000000 0.000000 0.000000
# 3 -0.003928 -0.002958 0.009900 0.000000 0.000000 0.000000
# 4 0.000000 0.000000 0.000000 0.078564 0.000000 0.000000
# 5 0.000000 0.000000 0.000000 0.000000 0.030883 0.000000
# 6 0.000000 0.000000 0.000000 0.000000 0.000000 0.041609
#
#
# Mechanical properties :
#
#
# Convention : Reuss Voigt Hill
#
# Bulk Modulus (GPa) = 54.65234 58.54743 56.59989
# Shear Modulus (GPa) = 22.14871 25.44079 23.79475
#
# Velocity S-wave (km/s) = 3.53918 3.79310 3.66834
# Velocity P-wave (km/s) = 6.89991 7.23146 7.06763
#
# Compressibility (1/GPa) = 0.01829748
#
# Stress axis : x y z
#
# Youngs Moduli (GPa) = 64.41203 55.49549 101.00934
#
# Poissons Ratio (x) = 0.31565 0.39674
# Poissons Ratio (y) = 0.36636 0.29879
# Poissons Ratio (z) = 0.25299 0.16416
#
# Static dielectric constant tensor:
#      x y z
#    x 3.536370 0.000000 0.000000 
#    y 0.000000 2.032460 0.000000 
#    z 0.000000 0.000000 3.515550 
# 
# 
# High freq. dielectric constant tensor:
#      x y z
#    x 1.687310 0.000000 0.000000 
#    y 0.000000 1.664060 0.000000 
#    z 0.000000 0.000000 1.690870 
# 
# From -- ./inp_files/21052.got.cif
#   From: 2010.03.12/outbox.cif.g09.slc.cpg/sg59_11_cif.got.tgz:21052.got - 2010.04.16 16:29:54.
