data_PCOD8244114
_publ_section_title
;
Structure prediction by ZEFSAII (Michael W. Deem and Ramdas Pophale) SiO2 
 PCOD8244114
Probable space group: P M M N
;
_chemical_formula_sum "Si O2"
_cell_formula_units_Z 48
_cell_length_a 8.869286
_cell_length_b 16.107670
_cell_length_c 16.427232
_cell_angle_alpha 90.000000
_cell_angle_beta 90.000000
_cell_angle_gamma 90.000000
_cell_volume 2346.852385
_symmetry_space_group_name_H-M "P M M N"
_symmetry_group_IT_number 59
_space_group.IT_coordinate_system_code '2'
_symmetry_cell_setting 'orthorhombic'
loop_
_space_group_symop_operation_xyz
x,y,z
1/2-x,1/2-y,z
1/2+x,-y,-z
-x,1/2+y,-z
-x,-y,-z
1/2+x,1/2+y,-z
1/2-x,y,z
x,1/2-y,z
loop_
_atom_site_type_symbol
_atom_site_label
_atom_site_fract_x
_atom_site_fract_y
_atom_site_fract_z
Si Si1 0.923133 0.569262 0.223538
Si Si2 0.425803 0.153533 0.475276
Si Si3 0.928847 0.424830 0.949329
Si Si4 0.570899 0.250000 0.205713
Si Si5 0.922956 0.101694 0.316019
Si Si6 0.083308 0.653225 0.363402
Si Si7 0.429249 0.750000 0.976486
O O1 0.750000 0.586477 0.199723
O O2 0.942491 0.485155 0.272748
O O3 0.023695 0.565461 0.143594
O O4 0.984173 0.640546 0.282700
O O5 0.250000 0.140077 0.487305
O O6 0.466390 0.250000 0.460728
O O7 0.481860 0.100985 0.398469
O O8 0.504057 0.116232 0.556085
O O9 0.750000 0.431217 0.958097
O O10 0.986960 0.334318 0.979809
O O11 0.000000 0.500000 0.000000
O O12 0.750000 0.250000 0.199021
O O13 0.511887 0.330356 0.253559
O O14 0.503492 0.250000 0.114804
O O15 0.750000 0.121504 0.338077
O O16 0.250000 0.613316 0.353279
O O17 0.097848 0.750000 0.376949
O O18 0.250000 0.750000 0.976139
#
# Coordination Sequence:
#
# PCOD8244114 Si02
#       7
#     8   8   8   4   8   8   4
#     4  11  24  40  60  90 123 158 203 254 307 360
#     4  10  20  35  57  87 122 156 195 248 305 354
#     4  11  23  42  66  93 128 166 209 261 316 378
#     4   9  16  32  59  86 111 146 195 241 284 353
#     4  10  20  35  59  86 117 157 200 243 295 359
#     4  10  22  40  62  85 115 159 209 251 298 362
#     4   9  20  38  63  90 119 162 207 249 310 381
#
# _framework density 20.452926000000001
#
# number of rings (size 3 to 8) (size 9 to 14) (size 15 to 20)
#    0.000    1.833    0.833    3.000    1.167    6.333 
#    0.000    1.250    0.000    1.000    0.000    0.000 
#    0.000    0.000    0.000    0.000    0.000    0.000 
#
# Total GULP energy -595293.663310 kJ/mol
# GULP energy per Si atom -12401.951319 kJ/mol
# Density = 2.040637 g / cm^3
# Si number density = 20.452926 Si / 1000 Ang^3
#
#
#
# Elastic Constant Matrix: (Units=GPa)
#
#
# Indices 1 2 3 4 5 6 
#
# 1 78.5266 41.7157 46.0329 0.0000 0.0000 0.0000
# 2 41.7157 74.6089 38.3553 0.0000 0.0000 0.0000
# 3 46.0329 38.3553 154.4649 0.0000 0.0000 0.0000
# 4 0.0000 0.0000 0.0000 30.3635 0.0000 0.0000
# 5 0.0000 0.0000 0.0000 0.0000 38.1466 0.0000
# 6 0.0000 0.0000 0.0000 0.0000 0.0000 18.6691
#
#
#
# Elastic Compliance Matrix: (Units=1/GPa)
#
#
# Indices 1 2 3 4 5 6 
#
# 1 0.019718 -0.009175 -0.003598 0.000000 0.000000 0.000000
# 2 -0.009175 0.019634 -0.002141 0.000000 0.000000 0.000000
# 3 -0.003598 -0.002141 0.008078 0.000000 0.000000 0.000000
# 4 0.000000 0.000000 0.000000 0.032934 0.000000 0.000000
# 5 0.000000 0.000000 0.000000 0.000000 0.026215 0.000000
# 6 0.000000 0.000000 0.000000 0.000000 0.000000 0.053565
#
#
# Mechanical properties :
#
#
# Convention : Reuss Voigt Hill
#
# Bulk Modulus (GPa) = 56.81328 62.20090 59.50709
# Shear Modulus (GPa) = 25.53131 29.53560 27.53346
#
# Velocity S-wave (km/s) = 3.53696 3.80422 3.67302
# Velocity P-wave (km/s) = 6.67218 7.05506 6.86629
#
# Compressibility (1/GPa) = 0.01760152
#
# Stress axis : x y z
#
# Youngs Moduli (GPa) = 50.71581 50.93239 123.79562
#
# Poissons Ratio (x) = 0.46731 0.44541
# Poissons Ratio (y) = 0.46532 0.26505
# Poissons Ratio (z) = 0.18247 0.10905
#
# Static dielectric constant tensor:
#      x y z
#    x 3.714160 0.000000 0.000000 
#    y 0.000000 3.713440 0.000000 
#    z 0.000000 0.000000 3.859270 
# 
# 
# High freq. dielectric constant tensor:
#      x y z
#    x 1.787980 0.000000 0.000000 
#    y 0.000000 1.798550 0.000000 
#    z 0.000000 0.000000 1.813930 
# 
# From -- ./inp_files/20530.got.cif
#   From: 2010.03.12/outbox.cif.g09.slc.cpg/sg59_11_cif.got.tgz:20530.got - 2010.04.16 16:29:54.
