data_PCOD8244201
_publ_section_title
;
Structure prediction by ZEFSAII (Michael W. Deem and Ramdas Pophale) SiO2 
 PCOD8244201
Probable space group: P M M N
;
_chemical_formula_sum "Si O2"
_cell_formula_units_Z 64
_cell_length_a 19.435941
_cell_length_b 15.569389
_cell_length_c 10.808816
_cell_angle_alpha 90.000000
_cell_angle_beta 90.000000
_cell_angle_gamma 90.000000
_cell_volume 3270.809613
_symmetry_space_group_name_H-M "P M M N"
_symmetry_group_IT_number 59
_space_group.IT_coordinate_system_code '2'
_symmetry_cell_setting 'orthorhombic'
loop_
_space_group_symop_operation_xyz
x,y,z
1/2-x,1/2-y,z
1/2+x,-y,-z
-x,1/2+y,-z
-x,-y,-z
1/2+x,1/2+y,-z
1/2-x,y,z
x,1/2-y,z
loop_
_atom_site_type_symbol
_atom_site_label
_atom_site_fract_x
_atom_site_fract_y
_atom_site_fract_z
Si Si1 0.925913 0.648875 0.282771
Si Si2 0.095054 0.849742 0.913376
Si Si3 0.956336 0.656329 0.780378
Si Si4 0.173389 0.535755 0.342117
Si Si5 0.563184 0.940442 0.531038
Si Si6 0.829075 0.984989 0.147768
Si Si7 0.675710 0.906762 0.883857
Si Si8 0.074514 0.849065 0.197097
O O1 0.909948 0.750000 0.256223
O O2 0.928832 0.635209 0.431032
O O3 0.867207 0.586573 0.229874
O O4 0.997245 0.616570 0.221275
O O5 0.116719 0.750000 0.886407
O O6 0.142710 0.917007 0.838065
O O7 0.017226 0.868535 0.872875
O O8 0.099283 0.869789 0.058944
O O9 0.968595 0.750000 0.723931
O O10 0.953350 0.591999 0.667726
O O11 0.886503 0.658901 0.861958
O O12 0.250000 0.565372 0.383426
O O13 0.134849 0.493509 0.460470
O O14 0.179146 0.469585 0.231234
O O15 0.128559 0.615402 0.295689
O O16 0.500000 0.000000 0.500000
O O17 0.750000 0.984968 0.189846
O O18 0.838955 0.961338 0.005413
O O19 0.750000 0.858668 0.895246
O O20 0.072140 0.750000 0.225143
#
# Coordination Sequence:
#
# PCOD8244201 Si02
#       8
#     8   8   8   8   8   8   8   8
#     4  11  24  40  60  89 121 158 209 258 300 361
#     4  10  21  36  59  92 123 155 199 249 302 368
#     4  10  21  36  56  84 114 148 193 243 294 348
#     4  10  20  36  57  86 117 148 193 244 296 356
#     4  11  21  38  61  83 109 158 201 250 301 352
#     4  11  23  38  59  85 119 163 201 245 308 365
#     4   9  19  34  55  83 114 149 190 235 293 360
#     4  10  20  35  59  91 122 155 193 241 307 369
#
# _framework density 19.567021
#
# number of rings (size 3 to 8) (size 9 to 14) (size 15 to 20)
#    0.000    1.750    2.500    1.875    1.750    4.000 
#    0.000    2.500    0.000    2.250    0.000    1.750 
#    0.000    0.000    0.000    0.000    0.000    0.000 
#
# Total GULP energy -793298.739429 kJ/mol
# GULP energy per Si atom -12395.292804 kJ/mol
# Density = 1.952249 g / cm^3
# Si number density = 19.567021 Si / 1000 Ang^3
#
#
#
# Elastic Constant Matrix: (Units=GPa)
#
#
# Indices 1 2 3 4 5 6 
#
# 1 134.1338 60.1911 30.8134 0.0000 0.0000 0.0000
# 2 60.1911 87.8727 34.2193 0.0000 0.0000 0.0000
# 3 30.8134 34.2193 42.8629 0.0000 0.0000 0.0000
# 4 0.0000 0.0000 0.0000 30.6939 0.0000 0.0000
# 5 0.0000 0.0000 0.0000 0.0000 13.9535 0.0000
# 6 0.0000 0.0000 0.0000 0.0000 0.0000 19.7222
#
#
#
# Elastic Compliance Matrix: (Units=1/GPa)
#
#
# Indices 1 2 3 4 5 6 
#
# 1 0.010981 -0.006454 -0.002741 0.000000 0.000000 0.000000
# 2 -0.006454 0.020308 -0.011573 0.000000 0.000000 0.000000
# 3 -0.002741 -0.011573 0.034540 0.000000 0.000000 0.000000
# 4 0.000000 0.000000 0.000000 0.032580 0.000000 0.000000
# 5 0.000000 0.000000 0.000000 0.000000 0.071666 0.000000
# 6 0.000000 0.000000 0.000000 0.000000 0.000000 0.050704
#
#
# Mechanical properties :
#
#
# Convention : Reuss Voigt Hill
#
# Bulk Modulus (GPa) = 41.16569 57.25745 49.21157
# Shear Modulus (GPa) = 18.49014 22.18364 20.33689
#
# Velocity S-wave (km/s) = 3.07736 3.37074 3.22739
# Velocity P-wave (km/s) = 5.80611 6.66895 6.25243
#
# Compressibility (1/GPa) = 0.02429207
#
# Stress axis : x y z
#
# Youngs Moduli (GPa) = 91.06326 49.24187 28.95193
#
# Poissons Ratio (x) = 0.31783 0.07937
# Poissons Ratio (y) = 0.58776 0.33505
# Poissons Ratio (z) = 0.24964 0.56986
#
# Static dielectric constant tensor:
#      x y z
#    x 4.006240 0.000000 0.000000 
#    y 0.000000 3.533680 0.000000 
#    z 0.000000 0.000000 3.541670 
# 
# 
# High freq. dielectric constant tensor:
#      x y z
#    x 1.770050 0.000000 0.000000 
#    y 0.000000 1.758080 0.000000 
#    z 0.000000 0.000000 1.751620 
# 
# From -- ./inp_files/17244.got.cif
#   From: 2010.03.12/outbox.cif.g09.slc.cpg/sg59_9_cif.got.tgz:17244.got - 2010.04.16 16:29:54.
