data_PCOD8244116
_publ_section_title
;
Structure prediction by ZEFSAII (Michael W. Deem and Ramdas Pophale) SiO2 
 PCOD8244116
Probable space group: P M M N
;
_chemical_formula_sum "Si O2"
_cell_formula_units_Z 64
_cell_length_a 14.422474
_cell_length_b 8.730290
_cell_length_c 25.005648
_cell_angle_alpha 90.000000
_cell_angle_beta 90.000000
_cell_angle_gamma 90.000000
_cell_volume 3148.520667
_symmetry_space_group_name_H-M "P M M N"
_symmetry_group_IT_number 59
_space_group.IT_coordinate_system_code '2'
_symmetry_cell_setting 'orthorhombic'
loop_
_space_group_symop_operation_xyz
x,y,z
1/2-x,1/2-y,z
1/2+x,-y,-z
-x,1/2+y,-z
-x,-y,-z
1/2+x,1/2+y,-z
1/2-x,y,z
x,1/2-y,z
loop_
_atom_site_type_symbol
_atom_site_label
_atom_site_fract_x
_atom_site_fract_y
_atom_site_fract_z
Si Si1 0.857174 0.573326 0.532895
Si Si2 0.143041 0.070981 0.280338
Si Si3 0.348171 0.071177 0.846831
Si Si4 0.616653 0.421633 0.048297
Si Si5 0.473186 0.570735 0.374480
Si Si6 0.569660 0.075352 0.937757
Si Si7 0.051311 0.927469 0.180527
Si Si8 0.354914 0.571539 0.580859
O O1 0.750000 0.549173 0.547822
O O2 0.886334 0.750000 0.538977
O O3 0.917128 0.471568 0.572485
O O4 0.877577 0.520390 0.472990
O O5 0.250000 0.021913 0.286046
O O6 0.130752 0.250000 0.291431
O O7 0.082996 0.978123 0.322577
O O8 0.107713 0.030852 0.221437
O O9 0.250000 0.016689 0.818931
O O10 0.357587 0.250000 0.840998
O O11 0.444586 0.005497 0.822700
O O12 0.335096 0.033593 0.909723
O O13 0.641885 0.250000 0.066106
O O14 0.506820 0.446796 0.051362
O O15 0.646285 0.447262 0.985353
O O16 0.490967 0.750000 0.372555
O O17 0.573380 0.486777 0.374250
O O18 0.529468 0.250000 0.942202
O O19 0.604298 0.053905 0.876629
O O20 0.051853 0.750000 0.198946
O O21 0.250000 0.537687 0.600444
O O22 0.369197 0.750000 0.569349
#
# Coordination Sequence:
#
# PCOD8244116 Si02
#       8
#     8   8   8   8   8   8   8   8
#     4  10  20  35  57  87 124 162 199 240 283 328
#     4  11  25  44  63  83 108 138 178 232 289 340
#     4   9  18  33  52  76 110 148 181 216 264 324
#     4   9  15  24  43  72 103 136 176 219 260 308
#     4  12  24  38  60  87 116 152 193 236 283 336
#     4   8  15  28  46  70 102 138 173 212 264 323
#     4   9  18  35  58  80 103 138 183 227 275 330
#     4  10  21  38  60  87 122 161 197 233 275 327
#
# _framework density 20.327005
#
# number of rings (size 3 to 8) (size 9 to 14) (size 15 to 20)
#    0.000    2.250    0.000    4.125    0.000    6.750 
#    0.000    1.250    0.000    6.000    0.000    0.000 
#    0.000    0.000    0.000    0.000    0.000    0.000 
#
# Total GULP energy -792913.739897 kJ/mol
# GULP energy per Si atom -12389.277186 kJ/mol
# Density = 2.028074 g / cm^3
# Si number density = 20.327005 Si / 1000 Ang^3
#
#
#
# Elastic Constant Matrix: (Units=GPa)
#
#
# Indices 1 2 3 4 5 6 
#
# 1 89.4837 29.1068 48.5215 0.0000 0.0000 0.0000
# 2 29.1068 48.6630 20.5650 0.0000 0.0000 0.0000
# 3 48.5215 20.5650 75.5299 0.0000 0.0000 0.0000
# 4 0.0000 0.0000 0.0000 32.7983 0.0000 0.0000
# 5 0.0000 0.0000 0.0000 0.0000 -3.0994 0.0000
# 6 0.0000 0.0000 0.0000 0.0000 0.0000 22.0967
#
#
#
# Elastic Compliance Matrix: (Units=1/GPa)
#
#
# Indices 1 2 3 4 5 6 
#
# 1 0.019067 -0.007038 -0.010333 0.000000 0.000000 0.000000
# 2 -0.007038 0.025819 -0.002509 0.000000 0.000000 0.000000
# 3 -0.010333 -0.002509 0.020561 0.000000 0.000000 0.000000
# 4 0.000000 0.000000 0.000000 0.030489 0.000000 0.000000
# 5 0.000000 0.000000 0.000000 0.000000 -0.322638 0.000000
# 6 0.000000 0.000000 0.000000 0.000000 0.000000 0.045256
#
#
# Mechanical properties :
#
#
# Convention : Reuss Voigt Hill
#
# Bulk Modulus (GPa) = 38.92811 45.56258 42.24534
# Shear Modulus (GPa) = -37.55913 18.05800 -9.75057
#
# Velocity S-wave (km/s) = -4.30320 2.98380 -2.19255
# Velocity P-wave (km/s) = 2.34469 5.85954 3.79714
#
# Compressibility (1/GPa) = 0.02568838
#
# Stress axis : x y z
#
# Youngs Moduli (GPa) = 52.44539 38.73065 48.63614
#
# Poissons Ratio (x) = 0.27259 0.50255
# Poissons Ratio (y) = 0.36912 0.12201
# Poissons Ratio (z) = 0.54191 0.09716
#
# Static dielectric constant tensor:
#      x y z
#    x 3.970210 0.000000 0.000000 
#    y 0.000000 3.633360 0.000000 
#    z 0.000000 0.000000 3.640070 
# 
# 
# High freq. dielectric constant tensor:
#      x y z
#    x 1.790040 0.000000 0.000000 
#    y 0.000000 1.791930 0.000000 
#    z 0.000000 0.000000 1.778450 
# 
# From -- ./inp_files/32167.got.cif
#   From: 2010.03.12/outbox.cif.g09.slc.cpg/sg59_17_cif.got.tgz:32167.got - 2010.04.16 16:29:54.
