data_PCOD8244217
_publ_section_title
;
Structure prediction by ZEFSAII (Michael W. Deem and Ramdas Pophale) SiO2 
 PCOD8244217
Probable space group: P M M N
;
_chemical_formula_sum "Si O2"
_cell_formula_units_Z 64
_cell_length_a 18.090963
_cell_length_b 15.482571
_cell_length_c 11.648028
_cell_angle_alpha 90.000000
_cell_angle_beta 90.000000
_cell_angle_gamma 90.000000
_cell_volume 3262.549966
_symmetry_space_group_name_H-M "P M M N"
_symmetry_group_IT_number 59
_space_group.IT_coordinate_system_code '2'
_symmetry_cell_setting 'orthorhombic'
loop_
_space_group_symop_operation_xyz
x,y,z
1/2-x,1/2-y,z
1/2+x,-y,-z
-x,1/2+y,-z
-x,-y,-z
1/2+x,1/2+y,-z
1/2-x,y,z
x,1/2-y,z
loop_
_atom_site_type_symbol
_atom_site_label
_atom_site_fract_x
_atom_site_fract_y
_atom_site_fract_z
Si Si1 0.088484 0.348413 0.669792
Si Si2 0.665795 0.487955 0.730871
Si Si3 0.516673 0.849554 0.977859
Si Si4 0.331349 0.071010 0.021280
Si Si5 0.050885 0.427836 0.441136
Si Si6 0.560264 0.348489 0.799816
Si Si7 0.166449 0.506635 0.787031
Si Si8 0.447697 0.850928 0.742562
O O1 0.115769 0.250000 0.692105
O O2 0.092221 0.369842 0.535238
O O3 0.138937 0.414371 0.740274
O O4 0.003513 0.359660 0.705949
O O5 0.750000 0.481289 0.686212
O O6 0.661650 0.536993 0.850694
O O7 0.616141 0.533653 0.635712
O O8 0.634010 0.392893 0.753540
O O9 0.498672 0.750000 0.984815
O O10 0.603940 0.860261 0.998624
O O11 0.491626 0.885216 0.854732
O O12 0.469466 0.892905 0.081335
O O13 0.250000 0.114419 0.005075
O O14 0.339879 0.994864 0.926121
O O15 0.000000 0.500000 0.500000
O O16 0.999418 0.364918 0.366656
O O17 0.582016 0.250000 0.819864
O O18 0.250000 0.519494 0.746197
O O19 0.123846 0.588259 0.733111
O O20 0.424908 0.750000 0.750051
#
# Coordination Sequence:
#
# PCOD8244217 Si02
#       8
#     8   8   8   8   8   8   8   8
#     4  11  23  40  63  90 119 158 207 257 308 364
#     4  11  23  39  61  88 122 164 203 247 310 371
#     4  10  20  35  61  92 120 158 206 250 301 370
#     4  10  21  36  58  90 126 159 194 246 315 378
#     4  12  22  41  64  88 118 163 212 261 301 355
#     4  10  20  36  60  91 122 153 196 251 305 364
#     4  11  23  39  62  93 127 161 197 250 315 375
#     4  11  23  40  64  91 120 162 209 252 303 365
#
# _framework density 19.616558000000001
#
# number of rings (size 3 to 8) (size 9 to 14) (size 15 to 20)
#    0.000    1.250    5.000    1.125    0.000    2.500 
#    0.000    1.250    0.000    5.625    0.000    0.000 
#    0.000    0.000    0.000    0.000    0.000    0.000 
#
# Total GULP energy -793452.081489 kJ/mol
# GULP energy per Si atom -12397.688773 kJ/mol
# Density = 1.957191 g / cm^3
# Si number density = 19.616558 Si / 1000 Ang^3
#
#
#
# Elastic Constant Matrix: (Units=GPa)
#
#
# Indices 1 2 3 4 5 6 
#
# 1 130.5360 59.1550 37.6189 0.0000 0.0000 0.0000
# 2 59.1550 88.2514 37.7537 0.0000 0.0000 0.0000
# 3 37.6189 37.7537 112.2474 0.0000 0.0000 0.0000
# 4 0.0000 0.0000 0.0000 28.3632 0.0000 0.0000
# 5 0.0000 0.0000 0.0000 0.0000 22.9185 0.0000
# 6 0.0000 0.0000 0.0000 0.0000 0.0000 23.3567
#
#
#
# Elastic Compliance Matrix: (Units=1/GPa)
#
#
# Indices 1 2 3 4 5 6 
#
# 1 0.011197 -0.006892 -0.001435 0.000000 0.000000 0.000000
# 2 -0.006892 0.017478 -0.003569 0.000000 0.000000 0.000000
# 3 -0.001435 -0.003569 0.010590 0.000000 0.000000 0.000000
# 4 0.000000 0.000000 0.000000 0.035257 0.000000 0.000000
# 5 0.000000 0.000000 0.000000 0.000000 0.043633 0.000000
# 6 0.000000 0.000000 0.000000 0.000000 0.000000 0.042814
#
#
# Mechanical properties :
#
#
# Convention : Reuss Voigt Hill
#
# Bulk Modulus (GPa) = 64.62261 66.67668 65.64964
# Shear Modulus (GPa) = 26.32718 28.02815 27.17766
#
# Velocity S-wave (km/s) = 3.66743 3.78405 3.72619
# Velocity P-wave (km/s) = 7.13777 7.29080 7.21469
#
# Compressibility (1/GPa) = 0.01547446
#
# Stress axis : x y z
#
# Youngs Moduli (GPa) = 89.30678 57.21620 94.42843
#
# Poissons Ratio (x) = 0.39433 0.13548
# Poissons Ratio (y) = 0.61549 0.33699
# Poissons Ratio (z) = 0.12813 0.20419
#
# Static dielectric constant tensor:
#      x y z
#    x 3.610630 0.000000 0.000000 
#    y 0.000000 3.377830 0.000000 
#    z 0.000000 0.000000 3.934580 
# 
# 
# High freq. dielectric constant tensor:
#      x y z
#    x 1.758840 0.000000 0.000000 
#    y 0.000000 1.751130 0.000000 
#    z 0.000000 0.000000 1.779070 
# 
# From -- ./inp_files/17220.got.cif
#   From: 2010.03.12/outbox.cif.g09.slc.cpg/sg59_9_cif.got.tgz:17220.got - 2010.04.16 16:29:54.
