data_PCOD8244043
_publ_section_title
;
Structure prediction by ZEFSAII (Michael W. Deem and Ramdas Pophale) SiO2 
 PCOD8244043
Probable space group: P M M N
;
_chemical_formula_sum "Si O2"
_cell_formula_units_Z 48
_cell_length_a 18.863712
_cell_length_b 8.729163
_cell_length_c 14.860150
_cell_angle_alpha 90.000000
_cell_angle_beta 90.000000
_cell_angle_gamma 90.000000
_cell_volume 2446.937934
_symmetry_space_group_name_H-M "P M M N"
_symmetry_group_IT_number 59
_space_group.IT_coordinate_system_code '2'
_symmetry_cell_setting 'orthorhombic'
loop_
_space_group_symop_operation_xyz
x,y,z
1/2-x,1/2-y,z
1/2+x,-y,-z
-x,1/2+y,-z
-x,-y,-z
1/2+x,1/2+y,-z
1/2-x,y,z
x,1/2-y,z
loop_
_atom_site_type_symbol
_atom_site_label
_atom_site_fract_x
_atom_site_fract_y
_atom_site_fract_z
Si Si1 0.331276 0.575323 0.786318
Si Si2 0.444873 0.572042 0.120303
Si Si3 0.601956 0.572577 0.054339
Si Si4 0.436029 0.070048 0.312948
Si Si5 0.419698 0.069654 0.633701
Si Si6 0.329315 0.069184 0.465903
O O1 0.250000 0.558699 0.757736
O O2 0.357326 0.750000 0.775252
O O3 0.340141 0.522526 0.889589
O O4 0.377867 0.463711 0.725205
O O5 0.427823 0.750000 0.111597
O O6 0.526551 0.536474 0.099998
O O7 0.425931 0.516316 0.219419
O O8 0.396241 0.482609 0.048774
O O9 0.621600 0.750000 0.057296
O O10 0.441124 0.250000 0.294825
O O11 0.368211 0.025934 0.373293
O O12 0.505594 0.016696 0.366432
O O13 0.434149 0.250000 0.626799
O O14 0.373979 0.004527 0.550290
O O15 0.250000 0.997742 0.465555
O O16 0.324322 0.250000 0.477114
#
# Coordination Sequence:
#
# PCOD8244043 Si02
#       6
#     8   8   8   8   8   8
#     4  11  23  37  55  83 120 156 191 238 293 345
#     4  10  20  35  57  84 114 147 187 235 283 338
#     4  10  20  35  57  83 112 150 190 232 282 340
#     4  11  21  35  59  87 115 149 192 243 290 340
#     4  11  21  36  59  85 114 151 193 239 289 344
#     4   9  20  38  58  82 113 151 194 238 287 343
#
# _framework density 19.616353
#
# number of rings (size 3 to 8) (size 9 to 14) (size 15 to 20)
#    0.000    1.667    1.667    3.500    0.000    3.333 
#    0.000    3.333    0.000    9.000    0.000    0.000 
#    0.000    0.000    0.000    0.000    0.000    0.000 
#
# Total GULP energy -595405.405373 kJ/mol
# GULP energy per Si atom -12404.279279 kJ/mol
# Density = 1.957171 g / cm^3
# Si number density = 19.616353 Si / 1000 Ang^3
#
#
#
# Elastic Constant Matrix: (Units=GPa)
#
#
# Indices 1 2 3 4 5 6 
#
# 1 72.9771 11.6428 33.7371 0.0000 0.0000 0.0000
# 2 11.6428 48.8905 8.4205 0.0000 0.0000 0.0000
# 3 33.7371 8.4205 114.9633 0.0000 0.0000 0.0000
# 4 0.0000 0.0000 0.0000 29.6024 0.0000 0.0000
# 5 0.0000 0.0000 0.0000 0.0000 24.0794 0.0000
# 6 0.0000 0.0000 0.0000 0.0000 0.0000 20.5097
#
#
#
# Elastic Compliance Matrix: (Units=1/GPa)
#
#
# Indices 1 2 3 4 5 6 
#
# 1 0.016304 -0.003098 -0.004558 0.000000 0.000000 0.000000
# 2 -0.003098 0.021304 -0.000651 0.000000 0.000000 0.000000
# 3 -0.004558 -0.000651 0.010084 0.000000 0.000000 0.000000
# 4 0.000000 0.000000 0.000000 0.033781 0.000000 0.000000
# 5 0.000000 0.000000 0.000000 0.000000 0.041529 0.000000
# 6 0.000000 0.000000 0.000000 0.000000 0.000000 0.048757
#
#
# Mechanical properties :
#
#
# Convention : Reuss Voigt Hill
#
# Bulk Modulus (GPa) = 32.17710 38.27018 35.22364
# Shear Modulus (GPa) = 25.15948 27.04032 26.09990
#
# Velocity S-wave (km/s) = 3.58519 3.71679 3.65158
# Velocity P-wave (km/s) = 5.79456 6.16206 5.98114
#
# Compressibility (1/GPa) = 0.03107800
#
# Stress axis : x y z
#
# Youngs Moduli (GPa) = 61.33402 46.94015 99.17055
#
# Poissons Ratio (x) = 0.14541 0.45199
# Poissons Ratio (y) = 0.19000 0.06459
# Poissons Ratio (z) = 0.27954 0.03057
#
# Static dielectric constant tensor:
#      x y z
#    x 3.579670 0.000000 0.000000 
#    y 0.000000 3.472360 0.000000 
#    z 0.000000 0.000000 3.656150 
# 
# 
# High freq. dielectric constant tensor:
#      x y z
#    x 1.748110 0.000000 0.000000 
#    y 0.000000 1.760630 0.000000 
#    z 0.000000 0.000000 1.775150 
# 
# From -- ./inp_files/23632.got.cif
#   From: 2010.03.12/outbox.cif.g09.slc.cpg/sg59_12_cif.got.tgz:23632.got - 2010.04.16 16:29:54.
