data_PCOD8244817
_publ_section_title
;
Structure prediction by ZEFSAII (Michael W. Deem and Ramdas Pophale) SiO2 
 PCOD8244817
Probable space group: P M M N
;
_chemical_formula_sum "Si O2"
_cell_formula_units_Z 32
_cell_length_a 7.478841
_cell_length_b 8.954352
_cell_length_c 24.112591
_cell_angle_alpha 90.000000
_cell_angle_beta 90.000000
_cell_angle_gamma 90.000000
_cell_volume 1614.776211
_symmetry_space_group_name_H-M "P M M N"
_symmetry_group_IT_number 59
_space_group.IT_coordinate_system_code '2'
_symmetry_cell_setting 'orthorhombic'
loop_
_space_group_symop_operation_xyz
x,y,z
1/2-x,1/2-y,z
1/2+x,-y,-z
-x,1/2+y,-z
-x,-y,-z
1/2+x,1/2+y,-z
1/2-x,y,z
x,1/2-y,z
loop_
_atom_site_type_symbol
_atom_site_label
_atom_site_fract_x
_atom_site_fract_y
_atom_site_fract_z
Si Si1 0.546369 0.923455 0.164034
Si Si2 0.750000 0.076136 0.748175
Si Si3 0.957115 0.923994 0.441996
Si Si4 0.540947 0.414048 0.055739
Si Si5 0.250000 0.072739 0.368208
O O1 0.750000 0.972610 0.177290
O O2 0.535406 0.750000 0.150025
O O3 0.426902 0.963321 0.216985
O O4 0.463556 0.004018 0.109972
O O5 0.750000 0.250000 0.729946
O O6 0.750000 0.967537 0.696100
O O7 0.750000 0.945096 0.426539
O O8 0.008504 0.750000 0.445556
O O9 0.000000 0.000000 0.500000
O O10 0.072250 0.003607 0.394873
O O11 0.750000 0.402677 0.063925
O O12 0.453715 0.250000 0.051723
O O13 0.500000 0.500000 0.000000
O O14 0.250000 0.250000 0.376970
#
# Coordination Sequence:
#
# PCOD8244817 Si02
#       5
#     8   4   8   8   4
#     4   9  19  37  59  82 112 150 193 246 304 357
#     4  10  22  40  62  86 116 158 207 252 297 362
#     4  11  23  40  66  96 129 168 209 258 313 367
#     4  10  21  35  53  80 113 147 187 237 295 358
#     4  12  26  42  62  94 132 170 213 256 305 368
#
# _framework density 19.816989
#
# number of rings (size 3 to 8) (size 9 to 14) (size 15 to 20)
#    0.000    1.750    1.250    2.625    1.750    5.000 
#    0.000    2.500    0.000    0.000    0.000    0.000 
#    0.000    0.000    0.000    0.000    0.000    0.000 
#
# Total GULP energy -396843.681819 kJ/mol
# GULP energy per Si atom -12401.365057 kJ/mol
# Density = 1.977188 g / cm^3
# Si number density = 19.816989 Si / 1000 Ang^3
#
#
#
# Elastic Constant Matrix: (Units=GPa)
#
#
# Indices 1 2 3 4 5 6 
#
# 1 106.5996 57.1418 57.6869 0.0000 0.0000 0.0000
# 2 57.1418 146.8494 81.2511 0.0000 0.0000 0.0000
# 3 57.6869 81.2511 152.6281 0.0000 0.0000 0.0000
# 4 0.0000 0.0000 0.0000 43.0260 0.0000 0.0000
# 5 0.0000 0.0000 0.0000 0.0000 31.1760 0.0000
# 6 0.0000 0.0000 0.0000 0.0000 0.0000 22.6382
#
#
#
# Elastic Compliance Matrix: (Units=1/GPa)
#
#
# Indices 1 2 3 4 5 6 
#
# 1 0.012812 -0.003269 -0.003102 0.000000 0.000000 0.000000
# 2 -0.003269 0.010487 -0.004347 0.000000 0.000000 0.000000
# 3 -0.003102 -0.004347 0.010039 0.000000 0.000000 0.000000
# 4 0.000000 0.000000 0.000000 0.023242 0.000000 0.000000
# 5 0.000000 0.000000 0.000000 0.000000 0.032076 0.000000
# 6 0.000000 0.000000 0.000000 0.000000 0.000000 0.044173
#
#
# Mechanical properties :
#
#
# Convention : Reuss Voigt Hill
#
# Bulk Modulus (GPa) = 84.02721 88.69295 86.36008
# Shear Modulus (GPa) = 31.59920 33.36787 32.48353
#
# Velocity S-wave (km/s) = 3.99752 4.10787 4.05307
# Velocity P-wave (km/s) = 7.98752 8.20686 8.09793
#
# Compressibility (1/GPa) = 0.01190091
#
# Stress axis : x y z
#
# Youngs Moduli (GPa) = 78.05225 95.35634 99.61589
#
# Poissons Ratio (x) = 0.31172 0.30902
# Poissons Ratio (y) = 0.25515 0.43305
# Poissons Ratio (z) = 0.24213 0.41453
#
# Static dielectric constant tensor:
#      x y z
#    x 4.644310 0.000000 0.000000 
#    y 0.000000 3.641020 0.000000 
#    z 0.000000 0.000000 4.761650 
# 
# 
# High freq. dielectric constant tensor:
#      x y z
#    x 1.782040 0.000000 0.000000 
#    y 0.000000 1.779150 0.000000 
#    z 0.000000 0.000000 1.771210 
# 
# From -- ./inp_files/31107.got.cif
#   From: 2010.03.12/outbox.cif.g09.slc.cpg/sg59_16_cif.got.tgz:31107.got - 2010.04.16 16:29:54.
