data_PCOD8244800
_publ_section_title
;
Structure prediction by ZEFSAII (Michael W. Deem and Ramdas Pophale) SiO2 
 PCOD8244800
Probable space group: P M M N
;
_chemical_formula_sum "Si O2"
_cell_formula_units_Z 32
_cell_length_a 13.423083
_cell_length_b 18.324600
_cell_length_c 7.113609
_cell_angle_alpha 90.000000
_cell_angle_beta 90.000000
_cell_angle_gamma 90.000000
_cell_volume 1749.753091
_symmetry_space_group_name_H-M "P M M N"
_symmetry_group_IT_number 59
_space_group.IT_coordinate_system_code '2'
_symmetry_cell_setting 'orthorhombic'
loop_
_space_group_symop_operation_xyz
x,y,z
1/2-x,1/2-y,z
1/2+x,-y,-z
-x,1/2+y,-z
-x,-y,-z
1/2+x,1/2+y,-z
1/2-x,y,z
x,1/2-y,z
loop_
_atom_site_type_symbol
_atom_site_label
_atom_site_fract_x
_atom_site_fract_y
_atom_site_fract_z
Si Si1 0.635307 0.332352 0.179136
Si Si2 0.997896 0.915130 0.549531
Si Si3 0.476106 0.898987 0.144473
Si Si4 0.866549 0.951566 0.864349
O O1 0.750000 0.351832 0.145494
O O2 0.621797 0.250000 0.254979
O O3 0.593979 0.390225 0.330284
O O4 0.577335 0.337505 0.980374
O O5 0.996129 0.869745 0.354026
O O6 0.901340 0.903210 0.683171
O O7 0.000000 0.000000 0.500000
O O8 0.397248 0.964744 0.165129
O O9 0.579911 0.923505 0.052411
O O10 0.750000 0.942888 0.892452
#
# Coordination Sequence:
#
# PCOD8244800 Si02
#       4
#     8   8   8   8
#     4  10  21  35  52  78 111 143 176 219 272 330
#     4   9  19  33  50  76 107 139 178 221 264 313
#     4   9  18  32  49  73 103 135 170 210 259 314
#     4   9  17  30  50  76 103 130 167 216 262 307
#
# _framework density 18.288295000000002
#
# number of rings (size 3 to 8) (size 9 to 14) (size 15 to 20)
#    0.000    2.750    0.000    2.250    0.000    7.000 
#    0.000    2.500    0.000   12.000    0.000   14.000 
#    0.000    0.000    0.000    0.000    0.000    0.000 
#
# Total GULP energy -396536.394403 kJ/mol
# GULP energy per Si atom -12391.762325 kJ/mol
# Density = 1.824667 g / cm^3
# Si number density = 18.288295 Si / 1000 Ang^3
#
#
#
# Elastic Constant Matrix: (Units=GPa)
#
#
# Indices 1 2 3 4 5 6 
#
# 1 136.9771 32.4494 46.4642 0.0000 0.0000 0.0000
# 2 32.4494 51.9436 22.5988 0.0000 0.0000 0.0000
# 3 46.4642 22.5988 143.2190 0.0000 0.0000 0.0000
# 4 0.0000 0.0000 0.0000 22.9864 0.0000 0.0000
# 5 0.0000 0.0000 0.0000 0.0000 16.4584 0.0000
# 6 0.0000 0.0000 0.0000 0.0000 0.0000 23.0833
#
#
#
# Elastic Compliance Matrix: (Units=1/GPa)
#
#
# Indices 1 2 3 4 5 6 
#
# 1 0.009186 -0.004769 -0.002228 0.000000 0.000000 0.000000
# 2 -0.004769 0.023147 -0.002105 0.000000 0.000000 0.000000
# 3 -0.002228 -0.002105 0.008037 0.000000 0.000000 0.000000
# 4 0.000000 0.000000 0.000000 0.043504 0.000000 0.000000
# 5 0.000000 0.000000 0.000000 0.000000 0.060759 0.000000
# 6 0.000000 0.000000 0.000000 0.000000 0.000000 0.043321
#
#
# Mechanical properties :
#
#
# Convention : Reuss Voigt Hill
#
# Bulk Modulus (GPa) = 45.11421 59.46271 52.28846
# Shear Modulus (GPa) = 23.41398 27.88076 25.64737
#
# Velocity S-wave (km/s) = 3.58197 3.90874 3.74892
# Velocity P-wave (km/s) = 6.46755 7.27706 6.88422
#
# Compressibility (1/GPa) = 0.02216597
#
# Stress axis : x y z
#
# Youngs Moduli (GPa) = 108.86160 43.20223 124.42179
#
# Poissons Ratio (x) = 0.20605 0.27716
# Poissons Ratio (y) = 0.51920 0.26192
# Poissons Ratio (z) = 0.24250 0.09094
#
# Static dielectric constant tensor:
#      x y z
#    x 3.222740 0.000000 0.000000 
#    y 0.000000 3.097820 0.000000 
#    z 0.000000 0.000000 4.008350 
# 
# 
# High freq. dielectric constant tensor:
#      x y z
#    x 1.697580 0.000000 0.000000 
#    y 0.000000 1.669580 0.000000 
#    z 0.000000 0.000000 1.727210 
# 
# From -- ./inp_files/7217.got.cif
#   From: 2010.03.12/outbox.cif.g09.slc.cpg/sg59_4_cif.got.tgz:7217.got - 2010.04.16 16:29:54.
