data_PCOD8244676
_publ_section_title
;
Structure prediction by ZEFSAII (Michael W. Deem and Ramdas Pophale) SiO2 
 PCOD8244676
Probable space group: P M M N
;
_chemical_formula_sum "Si O2"
_cell_formula_units_Z 64
_cell_length_a 14.320648
_cell_length_b 18.726745
_cell_length_c 11.915293
_cell_angle_alpha 90.000000
_cell_angle_beta 90.000000
_cell_angle_gamma 90.000000
_cell_volume 3195.432831
_symmetry_space_group_name_H-M "P M M N"
_symmetry_group_IT_number 59
_space_group.IT_coordinate_system_code '2'
_symmetry_cell_setting 'orthorhombic'
loop_
_space_group_symop_operation_xyz
x,y,z
1/2-x,1/2-y,z
1/2+x,-y,-z
-x,1/2+y,-z
-x,-y,-z
1/2+x,1/2+y,-z
1/2-x,y,z
x,1/2-y,z
loop_
_atom_site_type_symbol
_atom_site_label
_atom_site_fract_x
_atom_site_fract_y
_atom_site_fract_z
Si Si1 0.355835 0.619879 0.639053
Si Si2 0.857285 0.949789 0.679006
Si Si3 0.982729 0.421868 0.736777
Si Si4 0.353984 0.668268 0.407688
Si Si5 0.645031 0.955914 0.417795
Si Si6 0.858784 0.167357 0.123820
Si Si7 0.003944 0.415145 0.989199
Si Si8 0.357674 0.168105 0.147922
O O1 0.250000 0.648363 0.644720
O O2 0.403734 0.654416 0.528539
O O3 0.361901 0.535580 0.628551
O O4 0.403584 0.646655 0.754495
O O5 0.750000 0.976246 0.696294
O O6 0.883424 0.949956 0.547871
O O7 0.869884 0.870748 0.731263
O O8 0.933112 0.000477 0.739429
O O9 0.905729 0.367244 0.694884
O O10 0.071701 0.412285 0.655603
O O11 0.016678 0.397883 0.858534
O O12 0.250000 0.634233 0.413931
O O13 0.349452 0.750000 0.378260
O O14 0.750000 0.925914 0.400516
O O15 0.750000 0.148427 0.119634
O O16 0.878341 0.250000 0.098429
O O17 0.906720 0.118329 0.030736
O O18 0.088671 0.377509 0.054131
O O19 0.000000 0.500000 0.000000
O O20 0.250000 0.168193 0.111473
O O21 0.395058 0.250000 0.156583
#
# Coordination Sequence:
#
# PCOD8244676 Si02
#       8
#     8   8   8   8   8   8   8   8
#     4   9  17  33  58  87 120 157 197 241 296 365
#     4  10  20  38  64  94 123 155 200 257 313 367
#     4  12  23  37  61  86 124 158 204 242 305 365
#     4  10  21  36  56  87 124 160 196 239 299 370
#     4  10  21  37  61  92 125 158 197 249 306 369
#     4  10  22  39  60  88 123 163 206 257 313 367
#     4  12  25  40  59  88 121 160 208 259 306 367
#     4  10  23  44  68  90 118 163 217 270 318 362
#
# _framework density 20.028587000000002
#
# number of rings (size 3 to 8) (size 9 to 14) (size 15 to 20)
#    0.000    1.625    2.500    2.250    0.000    4.500 
#    0.000    3.125    0.000    1.125    0.000    0.000 
#    0.000    0.000    0.000    0.000    0.000    0.000 
#
# Total GULP energy -793489.717236 kJ/mol
# GULP energy per Si atom -12398.276832 kJ/mol
# Density = 1.998300 g / cm^3
# Si number density = 20.028587 Si / 1000 Ang^3
#
#
#
# Elastic Constant Matrix: (Units=GPa)
#
#
# Indices 1 2 3 4 5 6 
#
# 1 75.1158 32.6322 33.7193 0.0000 0.0000 0.0000
# 2 32.6322 89.5468 40.8352 0.0000 0.0000 0.0000
# 3 33.7193 40.8352 121.6618 0.0000 0.0000 0.0000
# 4 0.0000 0.0000 0.0000 31.9288 0.0000 0.0000
# 5 0.0000 0.0000 0.0000 0.0000 33.0410 0.0000
# 6 0.0000 0.0000 0.0000 0.0000 0.0000 25.3215
#
#
#
# Elastic Compliance Matrix: (Units=1/GPa)
#
#
# Indices 1 2 3 4 5 6 
#
# 1 0.016728 -0.004701 -0.003058 0.000000 0.000000 0.000000
# 2 -0.004701 0.014507 -0.003566 0.000000 0.000000 0.000000
# 3 -0.003058 -0.003566 0.010264 0.000000 0.000000 0.000000
# 4 0.000000 0.000000 0.000000 0.031320 0.000000 0.000000
# 5 0.000000 0.000000 0.000000 0.000000 0.030265 0.000000
# 6 0.000000 0.000000 0.000000 0.000000 0.000000 0.039492
#
#
# Mechanical properties :
#
#
# Convention : Reuss Voigt Hill
#
# Bulk Modulus (GPa) = 53.05764 55.63308 54.34536
# Shear Modulus (GPa) = 29.15281 30.00078 29.57679
#
# Velocity S-wave (km/s) = 3.81932 3.87447 3.84699
# Velocity P-wave (km/s) = 6.78219 6.91755 6.85020
#
# Compressibility (1/GPa) = 0.01884743
#
# Stress axis : x y z
#
# Youngs Moduli (GPa) = 59.78004 68.93323 97.42698
#
# Poissons Ratio (x) = 0.32407 0.29796
# Poissons Ratio (y) = 0.28104 0.34744
# Poissons Ratio (z) = 0.18283 0.24583
#
# Static dielectric constant tensor:
#      x y z
#    x 3.765130 0.000000 0.000000 
#    y 0.000000 3.544210 0.000000 
#    z 0.000000 0.000000 3.724100 
# 
# 
# High freq. dielectric constant tensor:
#      x y z
#    x 1.782620 0.000000 0.000000 
#    y 0.000000 1.770160 0.000000 
#    z 0.000000 0.000000 1.782390 
# 
# From -- ./inp_files/17227.got.cif
#   From: 2010.03.12/outbox.cif.g09.slc.cpg/sg59_9_cif.got.tgz:17227.got - 2010.04.16 16:29:54.
