data_PCOD8244735
_publ_section_title
;
Structure prediction by ZEFSAII (Michael W. Deem and Ramdas Pophale) SiO2 
 PCOD8244735
Probable space group: P M M N
;
_chemical_formula_sum "Si O2"
_cell_formula_units_Z 48
_cell_length_a 20.748159
_cell_length_b 19.050575
_cell_length_c 6.381112
_cell_angle_alpha 90.000000
_cell_angle_beta 90.000000
_cell_angle_gamma 90.000000
_cell_volume 2522.226145
_symmetry_space_group_name_H-M "P M M N"
_symmetry_group_IT_number 59
_space_group.IT_coordinate_system_code '2'
_symmetry_cell_setting 'orthorhombic'
loop_
_space_group_symop_operation_xyz
x,y,z
1/2-x,1/2-y,z
1/2+x,-y,-z
-x,1/2+y,-z
-x,-y,-z
1/2+x,1/2+y,-z
1/2-x,y,z
x,1/2-y,z
loop_
_atom_site_type_symbol
_atom_site_label
_atom_site_fract_x
_atom_site_fract_y
_atom_site_fract_z
Si Si1 0.603564 0.387370 0.715336
Si Si2 0.326748 0.543704 0.927408
Si Si3 0.071518 0.050098 0.743461
Si Si4 0.674356 0.173785 0.351905
Si Si5 0.504617 0.670015 0.013603
Si Si6 0.498603 0.920397 0.633113
O O1 0.654794 0.340012 0.592101
O O2 0.563857 0.337893 0.872889
O O3 0.556053 0.421576 0.546464
O O4 0.642685 0.448078 0.840953
O O5 0.250000 0.533753 0.937287
O O6 0.357244 0.476834 0.806658
O O7 0.349997 0.613251 0.803245
O O8 0.057006 0.117409 0.887194
O O9 0.066113 0.071691 0.495839
O O10 0.018659 0.987039 0.782659
O O11 0.750000 0.175818 0.343922
O O12 0.646426 0.250000 0.280922
O O13 0.528891 0.750000 0.032272
O O14 0.498448 0.650774 0.767041
#
# Coordination Sequence:
#
# PCOD8244735 Si02
#       6
#     8   8   8   8   8   8
#     4  11  20  35  55  82 114 147 186 228 281 339
#     4  11  23  38  58  83 112 153 201 238 277 335
#     4  10  21  38  59  82 113 150 187 235 292 336
#     4  10  21  35  49  71 110 155 195 234 274 326
#     4  11  23  36  58  87 116 147 184 233 291 346
#     4  10  21  35  59  82 114 149 179 235 292 338
#
# _framework density 19.030808
#
# number of rings (size 3 to 8) (size 9 to 14) (size 15 to 20)
#    0.000    1.500    3.333    1.500    4.667    6.000 
#    0.000    1.667    0.000    0.500    0.000    0.000 
#    0.000    0.000    0.000    0.000    0.000    0.000 
#
# Total GULP energy -594862.292678 kJ/mol
# GULP energy per Si atom -12392.964431 kJ/mol
# Density = 1.898749 g / cm^3
# Si number density = 19.030808 Si / 1000 Ang^3
#
#
#
# Elastic Constant Matrix: (Units=GPa)
#
#
# Indices 1 2 3 4 5 6 
#
# 1 64.1383 41.3610 45.0807 0.0000 0.0000 0.0000
# 2 41.3610 123.3812 51.9445 0.0000 0.0000 0.0000
# 3 45.0807 51.9445 106.5991 0.0000 0.0000 0.0000
# 4 0.0000 0.0000 0.0000 24.6386 0.0000 0.0000
# 5 0.0000 0.0000 0.0000 0.0000 28.0355 0.0000
# 6 0.0000 0.0000 0.0000 0.0000 0.0000 25.3356
#
#
#
# Elastic Compliance Matrix: (Units=1/GPa)
#
#
# Indices 1 2 3 4 5 6 
#
# 1 0.024249 -0.004795 -0.007918 0.000000 0.000000 0.000000
# 2 -0.004795 0.011145 -0.003403 0.000000 0.000000 0.000000
# 3 -0.007918 -0.003403 0.014388 0.000000 0.000000 0.000000
# 4 0.000000 0.000000 0.000000 0.040587 0.000000 0.000000
# 5 0.000000 0.000000 0.000000 0.000000 0.035669 0.000000
# 6 0.000000 0.000000 0.000000 0.000000 0.000000 0.039470
#
#
# Mechanical properties :
#
#
# Convention : Reuss Voigt Hill
#
# Bulk Modulus (GPa) = 56.98328 63.43231 60.20779
# Shear Modulus (GPa) = 24.55907 25.98412 25.27160
#
# Velocity S-wave (km/s) = 3.59624 3.69910 3.64803
# Velocity P-wave (km/s) = 6.87398 7.18667 7.03206
#
# Compressibility (1/GPa) = 0.01754901
#
# Stress axis : x y z
#
# Youngs Moduli (GPa) = 41.23848 89.72479 69.50345
#
# Poissons Ratio (x) = 0.43027 0.55034
# Poissons Ratio (y) = 0.19776 0.23652
# Poissons Ratio (z) = 0.32654 0.30533
#
# Static dielectric constant tensor:
#      x y z
#    x 3.300490 0.000000 0.000000 
#    y 0.000000 3.693830 0.000000 
#    z 0.000000 0.000000 3.767410 
# 
# 
# High freq. dielectric constant tensor:
#      x y z
#    x 1.708190 0.000000 0.000000 
#    y 0.000000 1.723250 0.000000 
#    z 0.000000 0.000000 1.754990 
# 
# From -- ./inp_files/3346.got.cif
#   From: 2010.03.12/outbox.cif.g09.slc.cpg/sg59_2_cif.got.tgz:3346.got - 2010.04.16 16:29:54.
