data_PCOD8244845
_publ_section_title
;
Structure prediction by ZEFSAII (Michael W. Deem and Ramdas Pophale) SiO2 
 PCOD8244845
Probable space group: P M M N
;
_chemical_formula_sum "Si O2"
_cell_formula_units_Z 48
_cell_length_a 7.866796
_cell_length_b 14.420119
_cell_length_c 20.847386
_cell_angle_alpha 90.000000
_cell_angle_beta 90.000000
_cell_angle_gamma 90.000000
_cell_volume 2364.930271
_symmetry_space_group_name_H-M "P M M N"
_symmetry_group_IT_number 59
_space_group.IT_coordinate_system_code '2'
_symmetry_cell_setting 'orthorhombic'
loop_
_space_group_symop_operation_xyz
x,y,z
1/2-x,1/2-y,z
1/2+x,-y,-z
-x,1/2+y,-z
-x,-y,-z
1/2+x,1/2+y,-z
1/2-x,y,z
x,1/2-y,z
loop_
_atom_site_type_symbol
_atom_site_label
_atom_site_fract_x
_atom_site_fract_y
_atom_site_fract_z
Si Si1 0.553671 0.648193 0.509998
Si Si2 0.058471 0.357871 0.847693
Si Si3 0.059769 0.357029 0.164860
Si Si4 0.552652 0.016909 0.594313
Si Si5 0.750000 0.360178 0.934931
Si Si6 0.054720 0.999077 0.738041
Si Si7 0.250000 0.639673 0.921729
O O1 0.750000 0.661355 0.524855
O O2 0.465306 0.750000 0.514594
O O3 0.531490 0.606626 0.438563
O O4 0.474231 0.577243 0.562712
O O5 0.250000 0.376354 0.874323
O O6 0.029510 0.250000 0.833409
O O7 0.028729 0.409710 0.780943
O O8 0.920519 0.394985 0.898981
O O9 0.250000 0.369944 0.136032
O O10 0.023623 0.250000 0.180569
O O11 0.044896 0.412642 0.231122
O O12 0.919512 0.396105 0.114773
O O13 0.750000 0.020829 0.578485
O O14 0.522198 0.021012 0.669482
O O15 0.750000 0.250000 0.938675
O O16 0.750000 0.402181 0.006663
O O17 0.250000 0.970835 0.731632
O O18 0.250000 0.750000 0.924660
#
# Coordination Sequence:
#
# PCOD8244845 Si02
#       7
#     8   8   8   8   4   8   4
#     4   9  19  38  59  79 113 151 188 232 279 337
#     4   9  20  37  56  81 113 149 191 238 289 345
#     4  10  21  37  58  82 113 152 191 239 293 343
#     4  10  21  35  55  86 113 147 190 233 285 339
#     4   9  18  34  60  84 109 148 189 238 293 344
#     4  11  22  37  59  82 116 153 190 237 286 340
#     4   9  18  36  58  84 113 144 191 240 289 350
#
# _framework density 20.296582999999998
#
# number of rings (size 3 to 8) (size 9 to 14) (size 15 to 20)
#    0.000    2.333    0.833    1.000    2.333    3.000 
#    0.000    7.500    0.000    0.000    0.000    0.000 
#    0.000    0.000    0.000    0.000    0.000    0.000 
#
# Total GULP energy -595149.644353 kJ/mol
# GULP energy per Si atom -12398.950924 kJ/mol
# Density = 2.025039 g / cm^3
# Si number density = 20.296583 Si / 1000 Ang^3
#
#
#
# Elastic Constant Matrix: (Units=GPa)
#
#
# Indices 1 2 3 4 5 6 
#
# 1 90.8873 20.5256 25.8250 0.0000 0.0000 0.0000
# 2 20.5256 70.4317 14.1879 0.0000 0.0000 0.0000
# 3 25.8250 14.1879 108.1069 0.0000 0.0000 0.0000
# 4 0.0000 0.0000 0.0000 21.3586 0.0000 0.0000
# 5 0.0000 0.0000 0.0000 0.0000 19.2975 0.0000
# 6 0.0000 0.0000 0.0000 0.0000 0.0000 22.6985
#
#
#
# Elastic Compliance Matrix: (Units=1/GPa)
#
#
# Indices 1 2 3 4 5 6 
#
# 1 0.012432 -0.003107 -0.002562 0.000000 0.000000 0.000000
# 2 -0.003107 0.015360 -0.001274 0.000000 0.000000 0.000000
# 3 -0.002562 -0.001274 0.010029 0.000000 0.000000 0.000000
# 4 0.000000 0.000000 0.000000 0.046820 0.000000 0.000000
# 5 0.000000 0.000000 0.000000 0.000000 0.051820 0.000000
# 6 0.000000 0.000000 0.000000 0.000000 0.000000 0.044056
#
#
# Mechanical properties :
#
#
# Convention : Reuss Voigt Hill
#
# Bulk Modulus (GPa) = 41.77757 43.38921 42.58339
# Shear Modulus (GPa) = 24.70581 26.59674 25.65128
#
# Velocity S-wave (km/s) = 3.49268 3.62388 3.55888
# Velocity P-wave (km/s) = 6.07399 6.23971 6.15741
#
# Compressibility (1/GPa) = 0.02393629
#
# Stress axis : x y z
#
# Youngs Moduli (GPa) = 80.43560 65.10339 99.70774
#
# Poissons Ratio (x) = 0.20227 0.25546
# Poissons Ratio (y) = 0.24991 0.12699
# Poissons Ratio (z) = 0.20609 0.08292
#
# Static dielectric constant tensor:
#      x y z
#    x 3.845880 0.000000 0.000000 
#    y 0.000000 3.796780 0.000000 
#    z 0.000000 0.000000 3.611730 
# 
# 
# High freq. dielectric constant tensor:
#      x y z
#    x 1.800680 0.000000 0.000000 
#    y 0.000000 1.791560 0.000000 
#    z 0.000000 0.000000 1.777480 
# 
# From -- ./inp_files/25524.got.cif
#   From: 2010.03.12/outbox.cif.g09.slc.cpg/sg59_13_cif.got.tgz:25524.got - 2010.04.16 16:29:54.
