data_PCOD8244530
_publ_section_title
;
Structure prediction by ZEFSAII (Michael W. Deem and Ramdas Pophale) SiO2 
 PCOD8244530
Probable space group: P M M N
;
_chemical_formula_sum "Si O2"
_cell_formula_units_Z 56
_cell_length_a 8.840151
_cell_length_b 15.028844
_cell_length_c 21.999841
_cell_angle_alpha 90.000000
_cell_angle_beta 90.000000
_cell_angle_gamma 90.000000
_cell_volume 2922.838383
_symmetry_space_group_name_H-M "P M M N"
_symmetry_group_IT_number 59
_space_group.IT_coordinate_system_code '2'
_symmetry_cell_setting 'orthorhombic'
loop_
_space_group_symop_operation_xyz
x,y,z
1/2-x,1/2-y,z
1/2+x,-y,-z
-x,1/2+y,-z
-x,-y,-z
1/2+x,1/2+y,-z
1/2-x,y,z
x,1/2-y,z
loop_
_atom_site_type_symbol
_atom_site_label
_atom_site_fract_x
_atom_site_fract_y
_atom_site_fract_z
Si Si1 0.429412 0.484293 0.711209
Si Si2 0.072050 0.569803 0.163627
Si Si3 0.570835 0.347026 0.361515
Si Si4 0.919993 0.651705 0.390782
Si Si5 0.070419 0.250000 0.883029
Si Si6 0.071616 0.055721 0.054043
Si Si7 0.929077 0.750000 0.978315
Si Si8 0.428647 0.904978 0.507760
O O1 0.250000 0.478182 0.723525
O O2 0.521475 0.464886 0.771372
O O3 0.483366 0.580817 0.687559
O O4 0.482872 0.414690 0.660043
O O5 0.250000 0.587170 0.162219
O O6 0.024834 0.492211 0.116508
O O7 0.989908 0.662170 0.149749
O O8 0.750000 0.350553 0.365450
O O9 0.513550 0.250000 0.339841
O O10 0.507645 0.364865 0.429245
O O11 0.750000 0.622172 0.408996
O O12 0.921545 0.750000 0.361933
O O13 0.021929 0.654597 0.450903
O O14 0.250000 0.250000 0.878632
O O15 0.012493 0.250000 0.952365
O O16 0.250000 0.055166 0.043759
O O17 0.011759 0.158826 0.054020
O O18 0.000000 0.000000 0.000000
O O19 0.750000 0.750000 0.976948
O O20 0.250000 0.911893 0.509322
O O21 0.500000 0.000000 0.500000
#
# Coordination Sequence:
#
# PCOD8244530 Si02
#       8
#     8   8   8   8   4   8   4   8
#     4  10  21  39  59  79 110 155 199 233 279 348
#     4  11  24  39  57  88 124 153 189 244 295 335
#     4   9  18  35  59  82 106 143 193 244 289 340
#     4  10  21  37  56  82 113 146 187 234 285 342
#     4  11  21  37  65  91 115 155 198 227 276 357
#     4  10  20  37  60  85 117 150 188 235 286 336
#     4   9  18  35  61  89 113 151 194 227 276 349
#     4  11  20  34  57  84 114 146 186 235 295 350
#
# _framework density 19.159458999999998
#
# number of rings (size 3 to 8) (size 9 to 14) (size 15 to 20)
#    0.000    1.857    2.857    1.500    1.000    2.000 
#    1.286    0.357    0.000    1.714    0.000    0.000 
#    0.000    0.000    0.000    0.000    0.000    0.000 
#
# Total GULP energy -694317.646277 kJ/mol
# GULP energy per Si atom -12398.529398 kJ/mol
# Density = 1.911585 g / cm^3
# Si number density = 19.159459 Si / 1000 Ang^3
#
#
#
# Elastic Constant Matrix: (Units=GPa)
#
#
# Indices 1 2 3 4 5 6 
#
# 1 45.3148 29.8899 34.0335 0.0000 0.0000 0.0000
# 2 29.8899 184.0200 78.2016 0.0000 0.0000 0.0000
# 3 34.0335 78.2016 133.9270 0.0000 0.0000 0.0000
# 4 0.0000 0.0000 0.0000 20.1976 0.0000 0.0000
# 5 0.0000 0.0000 0.0000 0.0000 30.1050 0.0000
# 6 0.0000 0.0000 0.0000 0.0000 0.0000 18.8646
#
#
#
# Elastic Compliance Matrix: (Units=1/GPa)
#
#
# Indices 1 2 3 4 5 6 
#
# 1 0.027823 -0.002014 -0.005894 0.000000 0.000000 0.000000
# 2 -0.002014 0.007374 -0.003794 0.000000 0.000000 0.000000
# 3 -0.005894 -0.003794 0.011180 0.000000 0.000000 0.000000
# 4 0.000000 0.000000 0.000000 0.049511 0.000000 0.000000
# 5 0.000000 0.000000 0.000000 0.000000 0.033217 0.000000
# 6 0.000000 0.000000 0.000000 0.000000 0.000000 0.053009
#
#
# Mechanical properties :
#
#
# Convention : Reuss Voigt Hill
#
# Bulk Modulus (GPa) = 43.53099 71.94577 57.73838
# Shear Modulus (GPa) = 23.45483 28.57590 26.01536
#
# Velocity S-wave (km/s) = 3.50264 3.86615 3.68888
# Velocity P-wave (km/s) = 6.25521 7.58697 6.95305
#
# Compressibility (1/GPa) = 0.02297214
#
# Stress axis : x y z
#
# Youngs Moduli (GPa) = 35.94095 135.62038 89.44773
#
# Poissons Ratio (x) = 0.27320 0.52722
# Poissons Ratio (y) = 0.07240 0.33933
# Poissons Ratio (z) = 0.21184 0.51449
#
# Static dielectric constant tensor:
#      x y z
#    x 3.372350 0.000000 0.000000 
#    y 0.000000 3.993150 0.000000 
#    z 0.000000 0.000000 3.590200 
# 
# 
# High freq. dielectric constant tensor:
#      x y z
#    x 1.720830 0.000000 0.000000 
#    y 0.000000 1.766460 0.000000 
#    z 0.000000 0.000000 1.739810 
# 
# From -- ./inp_files/29229.got.cif
#   From: 2010.03.12/outbox.cif.g09.slc.cpg/sg59_15_cif.got.tgz:29229.got - 2010.04.16 16:29:54.
