data_PCOD8244355
_publ_section_title
;
Structure prediction by ZEFSAII (Michael W. Deem and Ramdas Pophale) SiO2 
 PCOD8244355
Probable space group: P M M N
;
_chemical_formula_sum "Si O2"
_cell_formula_units_Z 64
_cell_length_a 8.867765
_cell_length_b 23.918770
_cell_length_c 15.473854
_cell_angle_alpha 90.000000
_cell_angle_beta 90.000000
_cell_angle_gamma 90.000000
_cell_volume 3282.097763
_symmetry_space_group_name_H-M "P M M N"
_symmetry_group_IT_number 59
_space_group.IT_coordinate_system_code '2'
_symmetry_cell_setting 'orthorhombic'
loop_
_space_group_symop_operation_xyz
x,y,z
1/2-x,1/2-y,z
1/2+x,-y,-z
-x,1/2+y,-z
-x,-y,-z
1/2+x,1/2+y,-z
1/2-x,y,z
x,1/2-y,z
loop_
_atom_site_type_symbol
_atom_site_label
_atom_site_fract_x
_atom_site_fract_y
_atom_site_fract_z
Si Si1 0.426718 0.685615 0.500975
Si Si2 0.078167 0.380944 0.349805
Si Si3 0.929698 0.687691 0.998345
Si Si4 0.425640 0.995775 0.407535
Si Si5 0.927782 0.884389 0.349741
Si Si6 0.571626 0.499836 0.093684
Si Si7 0.072534 0.118074 0.842151
Si Si8 0.925240 0.890571 0.843930
O O1 0.250000 0.679242 0.486442
O O2 0.476550 0.750000 0.507254
O O3 0.469709 0.654921 0.589594
O O4 0.509110 0.658104 0.419935
O O5 0.250000 0.368309 0.377714
O O6 0.044607 0.446803 0.357109
O O7 0.048856 0.363620 0.250569
O O8 0.750000 0.689523 0.000490
O O9 0.996619 0.750000 0.991850
O O10 0.985050 0.653169 0.914972
O O11 0.996400 0.659566 0.085635
O O12 0.250000 0.982648 0.418560
O O13 0.502147 0.945783 0.355652
O O14 0.500000 0.000000 0.500000
O O15 0.750000 0.889881 0.363407
O O16 0.969675 0.861230 0.254283
O O17 0.750000 0.498703 0.083899
O O18 0.513509 0.555218 0.142827
O O19 0.518470 0.447348 0.149391
O O20 0.500000 0.500000 0.000000
O O21 0.250000 0.118041 0.854659
O O22 0.750000 0.904889 0.858879
#
# Coordination Sequence:
#
# PCOD8244355 Si02
#       8
#     8   8   8   8   8   8   8   8
#     4  11  25  43  61  82 113 155 197 240 291 346
#     4  10  22  38  60  88 117 152 193 238 290 345
#     4   9  17  32  55  81 111 147 187 232 278 325
#     4  11  21  35  57  86 118 152 187 232 289 351
#     4  11  22  37  60  88 115 149 192 243 293 343
#     4  11  20  34  57  85 117 155 190 232 286 343
#     4   9  19  34  54  84 116 146 188 234 282 339
#     4  10  20  36  58  87 118 147 187 237 285 343
#
# _framework density 19.499722999999999
#
# number of rings (size 3 to 8) (size 9 to 14) (size 15 to 20)
#    0.000    1.750    2.500    2.250    0.000    3.000 
#    0.000    4.375    0.000    0.375    0.000    0.000 
#    0.000    0.000    0.000    0.000    0.000    0.000 
#
# Total GULP energy -793680.343224 kJ/mol
# GULP energy per Si atom -12401.255363 kJ/mol
# Density = 1.945534 g / cm^3
# Si number density = 19.499723 Si / 1000 Ang^3
#
#
#
# Elastic Constant Matrix: (Units=GPa)
#
#
# Indices 1 2 3 4 5 6 
#
# 1 68.9121 39.8212 39.1450 0.0000 0.0000 0.0000
# 2 39.8212 136.9169 64.3111 0.0000 0.0000 0.0000
# 3 39.1450 64.3111 151.8699 0.0000 0.0000 0.0000
# 4 0.0000 0.0000 0.0000 13.7216 0.0000 0.0000
# 5 0.0000 0.0000 0.0000 0.0000 19.1496 0.0000
# 6 0.0000 0.0000 0.0000 0.0000 0.0000 26.8449
#
#
#
# Elastic Compliance Matrix: (Units=1/GPa)
#
#
# Indices 1 2 3 4 5 6 
#
# 1 0.018554 -0.003932 -0.003117 0.000000 0.000000 0.000000
# 2 -0.003932 0.009950 -0.003200 0.000000 0.000000 0.000000
# 3 -0.003117 -0.003200 0.008743 0.000000 0.000000 0.000000
# 4 0.000000 0.000000 0.000000 0.072878 0.000000 0.000000
# 5 0.000000 0.000000 0.000000 0.000000 0.052220 0.000000
# 6 0.000000 0.000000 0.000000 0.000000 0.000000 0.037251
#
#
# Mechanical properties :
#
#
# Convention : Reuss Voigt Hill
#
# Bulk Modulus (GPa) = 59.70586 71.58372 65.64479
# Shear Modulus (GPa) = 22.15536 26.23799 24.19668
#
# Velocity S-wave (km/s) = 3.37440 3.67216 3.52642
# Velocity P-wave (km/s) = 6.77254 7.40064 7.09355
#
# Compressibility (1/GPa) = 0.01674877
#
# Stress axis : x y z
#
# Youngs Moduli (GPa) = 53.89613 100.49794 114.37439
#
# Poissons Ratio (x) = 0.39517 0.35654
# Poissons Ratio (y) = 0.21193 0.36601
# Poissons Ratio (z) = 0.16801 0.32161
#
# Static dielectric constant tensor:
#      x y z
#    x 3.457830 0.000000 0.000000 
#    y 0.000000 3.740620 0.000000 
#    z 0.000000 0.000000 3.705580 
# 
# 
# High freq. dielectric constant tensor:
#      x y z
#    x 1.736940 0.000000 0.000000 
#    y 0.000000 1.758170 0.000000 
#    z 0.000000 0.000000 1.776380 
# 
# From -- ./inp_files/21425.got.cif
#   From: 2010.03.12/outbox.cif.g09.slc.cpg/sg59_11_cif.got.tgz:21425.got - 2010.04.16 16:29:54.
