data_PCOD8244848
_publ_section_title
;
Structure prediction by ZEFSAII (Michael W. Deem and Ramdas Pophale) SiO2 
 PCOD8244848
Probable space group: P M M N
;
_chemical_formula_sum "Si O2"
_cell_formula_units_Z 40
_cell_length_a 9.723341
_cell_length_b 7.515768
_cell_length_c 27.211227
_cell_angle_alpha 90.000000
_cell_angle_beta 90.000000
_cell_angle_gamma 90.000000
_cell_volume 1988.552255
_symmetry_space_group_name_H-M "P M M N"
_symmetry_group_IT_number 59
_space_group.IT_coordinate_system_code '2'
_symmetry_cell_setting 'orthorhombic'
loop_
_space_group_symop_operation_xyz
x,y,z
1/2-x,1/2-y,z
1/2+x,-y,-z
-x,1/2+y,-z
-x,-y,-z
1/2+x,1/2+y,-z
1/2-x,y,z
x,1/2-y,z
loop_
_atom_site_type_symbol
_atom_site_label
_atom_site_fract_x
_atom_site_fract_y
_atom_site_fract_z
Si Si1 0.408344 0.957110 0.864158
Si Si2 0.750000 0.038108 0.541107
Si Si3 0.973737 0.547274 0.616596
Si Si4 0.402072 0.750000 0.307688
Si Si5 0.750000 0.039141 0.430473
Si Si6 0.594699 0.957630 0.953787
Si Si7 0.592252 0.750000 0.214295
O O1 0.250000 0.989507 0.881181
O O2 0.432634 0.750000 0.851627
O O3 0.511457 0.027586 0.906381
O O4 0.442769 0.072147 0.816218
O O5 0.750000 0.250000 0.544323
O O6 0.750000 0.962552 0.485726
O O7 0.617564 0.959907 0.567910
O O8 0.981657 0.750000 0.635981
O O9 0.916320 0.426874 0.660011
O O10 0.120670 0.470700 0.600356
O O11 0.250000 0.750000 0.284773
O O12 0.508383 0.750000 0.263889
O O13 0.750000 0.250000 0.434816
O O14 0.750000 0.042588 0.957381
O O15 0.612695 0.750000 0.948983
O O16 0.500000 0.000000 0.000000
O O17 0.750000 0.750000 0.230085
#
# Coordination Sequence:
#
# PCOD8244848 Si02
#       7
#     8   4   8   4   4   8   4
#     4   9  19  39  62  87 123 157 199 258 310 362
#     4  11  19  39  61  88 125 159 198 241 291 365
#     4  11  22  41  60  86 122 159 197 247 300 359
#     4  12  26  44  62  88 122 158 204 256 307 362
#     4   9  22  36  60  92 120 156 202 242 292 361
#     4  10  21  35  55  87 126 169 210 249 302 364
#     4  10  24  42  66  92 114 156 210 258 313 368
#
# _framework density 20.115137000000001
#
# number of rings (size 3 to 8) (size 9 to 14) (size 15 to 20)
#    0.000    1.800    2.000    1.500    2.800    2.800 
#    3.600    0.000    0.000    0.000    0.000    0.000 
#    0.000    0.000    0.000    0.000    0.000    0.000 
#
# Total GULP energy -495969.501258 kJ/mol
# GULP energy per Si atom -12399.237531 kJ/mol
# Density = 2.006935 g / cm^3
# Si number density = 20.115137 Si / 1000 Ang^3
#
#
#
# Elastic Constant Matrix: (Units=GPa)
#
#
# Indices 1 2 3 4 5 6 
#
# 1 139.7538 25.6968 54.5612 0.0000 0.0000 0.0000
# 2 25.6968 82.0515 39.3799 0.0000 0.0000 0.0000
# 3 54.5612 39.3799 114.2500 0.0000 0.0000 0.0000
# 4 0.0000 0.0000 0.0000 7.4514 0.0000 0.0000
# 5 0.0000 0.0000 0.0000 0.0000 46.0496 0.0000
# 6 0.0000 0.0000 0.0000 0.0000 0.0000 19.6852
#
#
#
# Elastic Compliance Matrix: (Units=1/GPa)
#
#
# Indices 1 2 3 4 5 6 
#
# 1 0.008849 -0.000890 -0.003919 0.000000 0.000000 0.000000
# 2 -0.000890 0.014693 -0.004639 0.000000 0.000000 0.000000
# 3 -0.003919 -0.004639 0.012223 0.000000 0.000000 0.000000
# 4 0.000000 0.000000 0.000000 0.134203 0.000000 0.000000
# 5 0.000000 0.000000 0.000000 0.000000 0.021716 0.000000
# 6 0.000000 0.000000 0.000000 0.000000 0.000000 0.050800
#
#
# Mechanical properties :
#
#
# Convention : Reuss Voigt Hill
#
# Bulk Modulus (GPa) = 59.28357 63.92568 61.60462
# Shear Modulus (GPa) = 18.72634 29.06507 23.89571
#
# Velocity S-wave (km/s) = 3.05447 3.80535 3.45040
# Velocity P-wave (km/s) = 6.47887 7.15238 6.82394
#
# Compressibility (1/GPa) = 0.01686808
#
# Stress axis : x y z
#
# Youngs Moduli (GPa) = 113.00420 68.06042 81.81054
#
# Poissons Ratio (x) = 0.06060 0.32063
# Poissons Ratio (y) = 0.10062 0.37953
# Poissons Ratio (z) = 0.44288 0.31574
#
# Static dielectric constant tensor:
#      x y z
#    x 3.965110 0.000000 0.000000 
#    y 0.000000 3.616850 0.000000 
#    z 0.000000 0.000000 3.374890 
# 
# 
# High freq. dielectric constant tensor:
#      x y z
#    x 1.801240 0.000000 0.000000 
#    y 0.000000 1.789710 0.000000 
#    z 0.000000 0.000000 1.767310 
# 
# From -- ./inp_files/32457.got.cif
#   From: 2010.03.12/outbox.cif.g09.slc.cpg/sg59_17_cif.got.tgz:32457.got - 2010.04.16 16:29:54.
