data_PCOD8244890
_publ_section_title
;
Structure prediction by ZEFSAII (Michael W. Deem and Ramdas Pophale) SiO2 
 PCOD8244890
Probable space group: P M M N
;
_chemical_formula_sum "Si O2"
_cell_formula_units_Z 40
_cell_length_a 9.388540
_cell_length_b 8.960554
_cell_length_c 25.733577
_cell_angle_alpha 90.000000
_cell_angle_beta 90.000000
_cell_angle_gamma 90.000000
_cell_volume 2164.876271
_symmetry_space_group_name_H-M "P M M N"
_symmetry_group_IT_number 59
_space_group.IT_coordinate_system_code '2'
_symmetry_cell_setting 'orthorhombic'
loop_
_space_group_symop_operation_xyz
x,y,z
1/2-x,1/2-y,z
1/2+x,-y,-z
-x,1/2+y,-z
-x,-y,-z
1/2+x,1/2+y,-z
1/2-x,y,z
x,1/2-y,z
loop_
_atom_site_type_symbol
_atom_site_label
_atom_site_fract_x
_atom_site_fract_y
_atom_site_fract_z
Si Si1 0.414755 0.926178 0.046620
Si Si2 0.416522 0.575988 0.863352
Si Si3 0.407155 0.572849 0.747060
Si Si4 0.915803 0.075794 0.546083
Si Si5 0.584680 0.576582 0.650886
O O1 0.250000 0.976662 0.044674
O O2 0.428258 0.750000 0.041260
O O3 0.484027 0.977238 0.100424
O O4 0.500000 0.000000 0.000000
O O5 0.250000 0.544225 0.874454
O O6 0.449247 0.750000 0.872891
O O7 0.457560 0.526402 0.804712
O O8 0.250000 0.508154 0.736293
O O9 0.403227 0.750000 0.744896
O O10 0.510269 0.509970 0.702380
O O11 0.750000 0.038194 0.538964
O O12 0.946776 0.250000 0.545238
O O13 0.972373 0.010612 0.600581
O O14 0.000000 0.000000 0.500000
O O15 0.750000 0.547852 0.659229
O O16 0.548870 0.750000 0.642641
#
# Coordination Sequence:
#
# PCOD8244890 Si02
#       5
#     8   8   8   8   8
#     4  11  24  39  55  78 106 136 173 215 259 308
#     4   9  18  34  56  81 108 138 173 212 253 300
#     4   8  15  29  50  76 104 133 167 207 249 295
#     4  10  21  36  53  74 101 134 171 212 260 310
#     4   9  17  30  49  73 101 133 169 208 250 299
#
# _framework density 18.476807000000001
#
# number of rings (size 3 to 8) (size 9 to 14) (size 15 to 20)
#    0.000    2.600    0.000    3.000    0.000    7.200 
#    0.000    5.000    0.000    3.600    0.000    0.000 
#    0.000    0.000    0.000    0.000    0.000    0.000 
#
# Total GULP energy -495963.638691 kJ/mol
# GULP energy per Si atom -12399.090967 kJ/mol
# Density = 1.843475 g / cm^3
# Si number density = 18.476807 Si / 1000 Ang^3
#
#
#
# Elastic Constant Matrix: (Units=GPa)
#
#
# Indices 1 2 3 4 5 6 
#
# 1 97.9024 48.8620 91.3218 0.0000 0.0000 0.0000
# 2 48.8620 57.5068 56.2732 0.0000 0.0000 0.0000
# 3 91.3218 56.2732 186.5320 0.0000 0.0000 0.0000
# 4 0.0000 0.0000 0.0000 32.1719 0.0000 0.0000
# 5 0.0000 0.0000 0.0000 0.0000 41.6305 0.0000
# 6 0.0000 0.0000 0.0000 0.0000 0.0000 24.8497
#
#
#
# Elastic Compliance Matrix: (Units=1/GPa)
#
#
# Indices 1 2 3 4 5 6 
#
# 1 0.023817 -0.012524 -0.007882 0.000000 0.000000 0.000000
# 2 -0.012524 0.031258 -0.003299 0.000000 0.000000 0.000000
# 3 -0.007882 -0.003299 0.010215 0.000000 0.000000 0.000000
# 4 0.000000 0.000000 0.000000 0.031083 0.000000 0.000000
# 5 0.000000 0.000000 0.000000 0.000000 0.024021 0.000000
# 6 0.000000 0.000000 0.000000 0.000000 0.000000 0.040242
#
#
# Mechanical properties :
#
#
# Convention : Reuss Voigt Hill
#
# Bulk Modulus (GPa) = 55.92427 81.65060 68.78743
# Shear Modulus (GPa) = 23.36390 29.42936 26.39663
#
# Velocity S-wave (km/s) = 3.55984 3.99529 3.78383
# Velocity P-wave (km/s) = 6.87238 8.09752 7.50997
#
# Compressibility (1/GPa) = 0.01788132
#
# Stress axis : x y z
#
# Youngs Moduli (GPa) = 41.98693 31.99162 97.89453
#
# Poissons Ratio (x) = 0.40065 0.77161
# Poissons Ratio (y) = 0.52583 0.32293
# Poissons Ratio (z) = 0.33095 0.10553
#
# Static dielectric constant tensor:
#      x y z
#    x 3.364820 0.000000 0.000000 
#    y 0.000000 3.186910 0.000000 
#    z 0.000000 0.000000 3.776820 
# 
# 
# High freq. dielectric constant tensor:
#      x y z
#    x 1.713410 0.000000 0.000000 
#    y 0.000000 1.694420 0.000000 
#    z 0.000000 0.000000 1.734760 
# 
# From -- ./inp_files/31145.got.cif
#   From: 2010.03.12/outbox.cif.g09.slc.cpg/sg59_16_cif.got.tgz:31145.got - 2010.04.16 16:29:54.
