data_PCOD8244142
_publ_section_title
;
Structure prediction by ZEFSAII (Michael W. Deem and Ramdas Pophale) SiO2 
 PCOD8244142
Probable space group: P M M N
;
_chemical_formula_sum "Si O2"
_cell_formula_units_Z 64
_cell_length_a 14.979884
_cell_length_b 9.221218
_cell_length_c 23.271192
_cell_angle_alpha 90.000000
_cell_angle_beta 90.000000
_cell_angle_gamma 90.000000
_cell_volume 3214.514351
_symmetry_space_group_name_H-M "P M M N"
_symmetry_group_IT_number 59
_space_group.IT_coordinate_system_code '2'
_symmetry_cell_setting 'orthorhombic'
loop_
_space_group_symop_operation_xyz
x,y,z
1/2-x,1/2-y,z
1/2+x,-y,-z
-x,1/2+y,-z
-x,-y,-z
1/2+x,1/2+y,-z
1/2-x,y,z
x,1/2-y,z
loop_
_atom_site_type_symbol
_atom_site_label
_atom_site_fract_x
_atom_site_fract_y
_atom_site_fract_z
Si Si1 0.348378 0.586868 0.759674
Si Si2 0.576258 0.419487 0.681049
Si Si3 0.988443 0.580298 0.917073
Si Si4 0.989411 0.080341 0.803956
Si Si5 0.644168 0.919248 0.020427
Si Si6 0.349976 0.406470 0.411440
Si Si7 0.591986 0.417237 0.362688
Si Si8 0.646300 0.090774 0.486829
O O1 0.250000 0.565916 0.785716
O O2 0.384053 0.750000 0.772855
O O3 0.410194 0.468853 0.789976
O O4 0.341552 0.562097 0.691081
O O5 0.585897 0.250000 0.671031
O O6 0.573392 0.455002 0.749087
O O7 0.655295 0.503086 0.648489
O O8 0.491000 0.478942 0.647505
O O9 0.006636 0.750000 0.909449
O O10 0.953396 0.509322 0.858119
O O11 0.084310 0.508685 0.933917
O O12 0.905910 0.551258 0.960085
O O13 0.989726 0.250000 0.818472
O O14 0.750000 0.967801 0.018463
O O15 0.639058 0.750000 0.036688
O O16 0.250000 0.378574 0.431233
O O17 0.397545 0.250000 0.402233
O O18 0.399676 0.489402 0.464333
O O19 0.562060 0.250000 0.366371
O O20 0.636205 0.469943 0.422060
O O21 0.750000 0.103168 0.501183
O O22 0.602249 0.250000 0.491797
#
# Coordination Sequence:
#
# PCOD8244142 Si02
#       8
#     8   8   8   8   8   8   8   8
#     4   9  17  30  49  73 101 134 174 218 261 309
#     4  10  21  36  53  72  96 129 168 208 252 303
#     4  10  20  35  58  86 115 148 185 224 265 310
#     4  10  21  36  53  75 105 141 178 215 258 305
#     4   9  19  37  60  86 117 151 184 220 264 311
#     4  10  21  36  53  72  93 120 158 206 259 312
#     4   9  17  30  49  72  98 128 162 204 255 309
#     4   9  17  30  49  72  97 126 160 200 251 310
#
# _framework density 19.909694999999999
#
# number of rings (size 3 to 8) (size 9 to 14) (size 15 to 20)
#    0.000    2.500    0.000    1.875    0.000    6.250 
#    0.000    0.625    0.000    4.500    0.000    0.000 
#    0.000    0.000    0.000    0.000    0.000    0.000 
#
# Total GULP energy -792965.626329 kJ/mol
# GULP energy per Si atom -12390.087911 kJ/mol
# Density = 1.986438 g / cm^3
# Si number density = 19.909695 Si / 1000 Ang^3
#
#
#
# Elastic Constant Matrix: (Units=GPa)
#
#
# Indices 1 2 3 4 5 6 
#
# 1 50.7559 14.5244 9.0057 0.0000 0.0000 0.0000
# 2 14.5244 104.2540 62.6335 0.0000 0.0000 0.0000
# 3 9.0057 62.6335 117.2282 0.0000 0.0000 0.0000
# 4 0.0000 0.0000 0.0000 34.3302 0.0000 0.0000
# 5 0.0000 0.0000 0.0000 0.0000 17.6792 0.0000
# 6 0.0000 0.0000 0.0000 0.0000 0.0000 23.4761
#
#
#
# Elastic Compliance Matrix: (Units=1/GPa)
#
#
# Indices 1 2 3 4 5 6 
#
# 1 0.020521 -0.002816 -0.000072 0.000000 0.000000 0.000000
# 2 -0.002816 0.014513 -0.007538 0.000000 0.000000 0.000000
# 3 -0.000072 -0.007538 0.012563 0.000000 0.000000 0.000000
# 4 0.000000 0.000000 0.000000 0.029129 0.000000 0.000000
# 5 0.000000 0.000000 0.000000 0.000000 0.056564 0.000000
# 6 0.000000 0.000000 0.000000 0.000000 0.000000 0.042596
#
#
# Mechanical properties :
#
#
# Convention : Reuss Voigt Hill
#
# Bulk Modulus (GPa) = 37.38896 49.39615 43.39256
# Shear Modulus (GPa) = 24.31299 27.50207 25.90753
#
# Velocity S-wave (km/s) = 3.49831 3.72067 3.61120
# Velocity P-wave (km/s) = 5.92769 6.58193 6.26336
#
# Compressibility (1/GPa) = 0.02674586
#
# Stress axis : x y z
#
# Youngs Moduli (GPa) = 48.73140 68.90536 79.59774
#
# Poissons Ratio (x) = 0.19401 0.00574
# Poissons Ratio (y) = 0.13721 0.59998
# Poissons Ratio (z) = 0.00351 0.51938
#
# Static dielectric constant tensor:
#      x y z
#    x 3.593990 0.000000 0.000000 
#    y 0.000000 3.864440 0.000000 
#    z 0.000000 0.000000 3.778650 
# 
# 
# High freq. dielectric constant tensor:
#      x y z
#    x 1.752930 0.000000 0.000000 
#    y 0.000000 1.778870 0.000000 
#    z 0.000000 0.000000 1.779900 
# 
# From -- ./inp_files/32122.got.cif
#   From: 2010.03.12/outbox.cif.g09.slc.cpg/sg59_17_cif.got.tgz:32122.got - 2010.04.16 16:29:54.
