data_PCOD8244773
_publ_section_title
;
Structure prediction by ZEFSAII (Michael W. Deem and Ramdas Pophale) SiO2 
 PCOD8244773
Probable space group: P M M N
;
_chemical_formula_sum "Si O2"
_cell_formula_units_Z 56
_cell_length_a 9.133788
_cell_length_b 14.885822
_cell_length_c 21.861435
_cell_angle_alpha 90.000000
_cell_angle_beta 90.000000
_cell_angle_gamma 90.000000
_cell_volume 2972.366888
_symmetry_space_group_name_H-M "P M M N"
_symmetry_group_IT_number 59
_space_group.IT_coordinate_system_code '2'
_symmetry_cell_setting 'orthorhombic'
loop_
_space_group_symop_operation_xyz
x,y,z
1/2-x,1/2-y,z
1/2+x,-y,-z
-x,1/2+y,-z
-x,-y,-z
1/2+x,1/2+y,-z
1/2-x,y,z
x,1/2-y,z
loop_
_atom_site_type_symbol
_atom_site_label
_atom_site_fract_x
_atom_site_fract_y
_atom_site_fract_z
Si Si1 0.085324 0.356670 0.496863
Si Si2 0.578522 0.647940 0.937598
Si Si3 0.423144 0.998184 0.154320
Si Si4 0.922128 0.147812 0.939372
Si Si5 0.921197 0.355223 0.376265
Si Si6 0.422203 0.491689 0.291510
Si Si7 0.080456 0.647410 0.383525
O O1 0.250000 0.394971 0.492971
O O2 0.084649 0.250000 0.497238
O O3 0.994686 0.391487 0.438656
O O4 0.010110 0.390996 0.558994
O O5 0.750000 0.636257 0.949452
O O6 0.535976 0.750000 0.921700
O O7 0.525541 0.588245 0.880504
O O8 0.498027 0.614610 0.998569
O O9 0.250000 0.993664 0.158442
O O10 0.485505 0.997399 0.222976
O O11 0.480958 0.911805 0.116924
O O12 0.750000 0.135474 0.948871
O O13 0.965072 0.250000 0.924279
O O14 0.750000 0.375696 0.379998
O O15 0.952532 0.250000 0.366154
O O16 0.992594 0.408144 0.320306
O O17 0.250000 0.469398 0.292833
O O18 0.456241 0.585134 0.325753
O O19 0.250000 0.642383 0.401822
O O20 0.036300 0.750000 0.366948
#
# Coordination Sequence:
#
# PCOD8244773 Si02
#       7
#     8   8   8   8   8   8   8
#     4   9  17  31  54  80 101 127 167 211 254 301
#     4   9  17  30  49  72  97 126 161 201 245 290
#     4   9  18  32  49  71  99 130 165 202 240 286
#     4   9  17  30  50  75 100 126 159 201 246 289
#     4  10  21  37  55  75 102 133 165 208 260 306
#     4  10  21  35  52  75 101 135 177 210 243 297
#     4   9  18  33  52  75 104 134 165 207 257 303
#
# _framework density 18.840205000000001
#
# number of rings (size 3 to 8) (size 9 to 14) (size 15 to 20)
#    0.000    2.714    0.000    1.286    0.000    4.857 
#    0.000    5.714    0.000    1.714    0.000    4.000 
#    0.000    0.000    0.000    0.000    0.000    0.000 
#
# Total GULP energy -694431.577320 kJ/mol
# GULP energy per Si atom -12400.563881 kJ/mol
# Density = 1.879732 g / cm^3
# Si number density = 18.840205 Si / 1000 Ang^3
#
#
#
# Elastic Constant Matrix: (Units=GPa)
#
#
# Indices 1 2 3 4 5 6 
#
# 1 65.0612 38.7501 57.5740 0.0000 0.0000 0.0000
# 2 38.7501 93.3439 80.6267 0.0000 0.0000 0.0000
# 3 57.5740 80.6267 193.7025 0.0000 0.0000 0.0000
# 4 0.0000 0.0000 0.0000 28.5277 0.0000 0.0000
# 5 0.0000 0.0000 0.0000 0.0000 27.9340 0.0000
# 6 0.0000 0.0000 0.0000 0.0000 0.0000 20.3637
#
#
#
# Elastic Compliance Matrix: (Units=1/GPa)
#
#
# Indices 1 2 3 4 5 6 
#
# 1 0.022578 -0.005584 -0.004387 0.000000 0.000000 0.000000
# 2 -0.005584 0.018108 -0.005878 0.000000 0.000000 0.000000
# 3 -0.004387 -0.005878 0.008913 0.000000 0.000000 0.000000
# 4 0.000000 0.000000 0.000000 0.035054 0.000000 0.000000
# 5 0.000000 0.000000 0.000000 0.000000 0.035799 0.000000
# 6 0.000000 0.000000 0.000000 0.000000 0.000000 0.049107
#
#
# Mechanical properties :
#
#
# Convention : Reuss Voigt Hill
#
# Bulk Modulus (GPa) = 55.85801 78.44549 67.15175
# Shear Modulus (GPa) = 24.12886 27.04220 25.58553
#
# Velocity S-wave (km/s) = 3.58258 3.79271 3.68914
# Velocity P-wave (km/s) = 6.84294 7.80430 7.33938
#
# Compressibility (1/GPa) = 0.01790253
#
# Stress axis : x y z
#
# Youngs Moduli (GPa) = 44.29181 55.22458 112.19790
#
# Poissons Ratio (x) = 0.30836 0.49216
# Poissons Ratio (y) = 0.24732 0.65945
# Poissons Ratio (z) = 0.19429 0.32459
#
# Static dielectric constant tensor:
#      x y z
#    x 3.325220 0.000000 0.000000 
#    y 0.000000 3.500190 0.000000 
#    z 0.000000 0.000000 3.645700 
# 
# 
# High freq. dielectric constant tensor:
#      x y z
#    x 1.712130 0.000000 0.000000 
#    y 0.000000 1.736090 0.000000 
#    z 0.000000 0.000000 1.729410 
# 
# From -- ./inp_files/29049.got.cif
#   From: 2010.03.12/outbox.cif.g09.slc.cpg/sg59_15_cif.got.tgz:29049.got - 2010.04.16 16:29:54.
