data_PCOD8244171
_publ_section_title
;
Structure prediction by ZEFSAII (Michael W. Deem and Ramdas Pophale) SiO2 
 PCOD8244171
Probable space group: P M M N
;
_chemical_formula_sum "Si O2"
_cell_formula_units_Z 64
_cell_length_a 8.580496
_cell_length_b 14.315787
_cell_length_c 24.401507
_cell_angle_alpha 90.000000
_cell_angle_beta 90.000000
_cell_angle_gamma 90.000000
_cell_volume 2997.397010
_symmetry_space_group_name_H-M "P M M N"
_symmetry_group_IT_number 59
_space_group.IT_coordinate_system_code '2'
_symmetry_cell_setting 'orthorhombic'
loop_
_space_group_symop_operation_xyz
x,y,z
1/2-x,1/2-y,z
1/2+x,-y,-z
-x,1/2+y,-z
-x,-y,-z
1/2+x,1/2+y,-z
1/2-x,y,z
x,1/2-y,z
loop_
_atom_site_type_symbol
_atom_site_label
_atom_site_fract_x
_atom_site_fract_y
_atom_site_fract_z
Si Si1 0.429875 0.455381 0.737598
Si Si2 0.068306 0.856776 0.587446
Si Si3 0.066399 0.503204 0.060362
Si Si4 0.922848 0.352976 0.133625
Si Si5 0.928889 0.856432 0.472499
Si Si6 0.069417 0.964115 0.372782
Si Si7 0.566659 0.356836 0.844849
Si Si8 0.928995 0.853986 0.753771
O O1 0.250000 0.430485 0.732534
O O2 0.519151 0.414434 0.684396
O O3 0.492147 0.413697 0.794477
O O4 0.456170 0.566815 0.731529
O O5 0.250000 0.870864 0.599199
O O6 0.015539 0.750000 0.598991
O O7 0.034242 0.883674 0.524406
O O8 0.969409 0.924483 0.627445
O O9 0.250000 0.489445 0.059012
O O10 0.022797 0.594716 0.097054
O O11 0.981265 0.415375 0.085092
O O12 0.000000 0.500000 0.000000
O O13 0.750000 0.385160 0.154716
O O14 0.910218 0.250000 0.108695
O O15 0.050809 0.355602 0.181071
O O16 0.750000 0.873129 0.489076
O O17 0.959993 0.750000 0.454974
O O18 0.970677 0.920489 0.421549
O O19 0.250000 0.945815 0.382600
O O20 0.750000 0.359208 0.835353
O O21 0.504734 0.250000 0.845836
O O22 0.750000 0.879093 0.739714
O O23 0.973649 0.750000 0.731260
#
# Coordination Sequence:
#
# PCOD8244171 Si02
#       8
#     8   8   8   8   8   8   8   8
#     4  12  25  41  63  90 123 161 206 258 311 368
#     4  10  21  39  63  91 125 164 206 254 311 374
#     4  11  23  39  63  93 128 165 204 254 309 363
#     4  10  20  35  58  88 121 156 194 240 296 355
#     4  10  21  39  63  90 122 160 206 259 313 371
#     4  12  25  40  61  88 123 164 208 258 311 369
#     4  10  23  45  69  91 121 165 212 256 307 367
#     4  10  20  36  60  88 118 154 195 239 294 361
#
# _framework density 21.351859999999999
#
# number of rings (size 3 to 8) (size 9 to 14) (size 15 to 20)
#    0.000    1.375    1.250    4.500    0.000    5.250 
#    0.000    1.250    0.000    0.000    0.000    0.000 
#    0.000    0.000    0.000    0.000    0.000    0.000 
#
# Total GULP energy -793472.417677 kJ/mol
# GULP energy per Si atom -12398.006526 kJ/mol
# Density = 2.130326 g / cm^3
# Si number density = 21.351860 Si / 1000 Ang^3
#
#
#
# Elastic Constant Matrix: (Units=GPa)
#
#
# Indices 1 2 3 4 5 6 
#
# 1 80.3564 25.6263 19.1921 0.0000 0.0000 0.0000
# 2 25.6263 81.1615 31.2093 0.0000 0.0000 0.0000
# 3 19.1921 31.2093 87.7282 0.0000 0.0000 0.0000
# 4 0.0000 0.0000 0.0000 13.0939 0.0000 0.0000
# 5 0.0000 0.0000 0.0000 0.0000 36.8643 0.0000
# 6 0.0000 0.0000 0.0000 0.0000 0.0000 28.9754
#
#
#
# Elastic Compliance Matrix: (Units=1/GPa)
#
#
# Indices 1 2 3 4 5 6 
#
# 1 0.014062 -0.003773 -0.001734 0.000000 0.000000 0.000000
# 2 -0.003773 0.015286 -0.004613 0.000000 0.000000 0.000000
# 3 -0.001734 -0.004613 0.013419 0.000000 0.000000 0.000000
# 4 0.000000 0.000000 0.000000 0.076371 0.000000 0.000000
# 5 0.000000 0.000000 0.000000 0.000000 0.027126 0.000000
# 6 0.000000 0.000000 0.000000 0.000000 0.000000 0.034512
#
#
# Mechanical properties :
#
#
# Convention : Reuss Voigt Hill
#
# Bulk Modulus (GPa) = 44.38985 44.58907 44.48946
# Shear Modulus (GPa) = 23.97783 27.33463 25.65623
#
# Velocity S-wave (km/s) = 3.35473 3.58187 3.47016
# Velocity P-wave (km/s) = 5.98669 6.16723 6.07763
#
# Compressibility (1/GPa) = 0.02252767
#
# Stress axis : x y z
#
# Youngs Moduli (GPa) = 71.11360 65.41859 74.52062
#
# Poissons Ratio (x) = 0.24684 0.12922
# Poissons Ratio (y) = 0.26833 0.34373
# Poissons Ratio (z) = 0.12331 0.30175
#
# Static dielectric constant tensor:
#      x y z
#    x 3.854290 0.000000 0.000000 
#    y 0.000000 4.082280 0.000000 
#    z 0.000000 0.000000 3.839040 
# 
# 
# High freq. dielectric constant tensor:
#      x y z
#    x 1.841700 0.000000 0.000000 
#    y 0.000000 1.838370 0.000000 
#    z 0.000000 0.000000 1.839080 
# 
# From -- ./inp_files/31675.got.cif
#   From: 2010.03.12/outbox.cif.g09.slc.cpg/sg59_16_cif.got.tgz:31675.got - 2010.04.16 16:29:54.
