data_PCOD8244219
_publ_section_title
;
Structure prediction by ZEFSAII (Michael W. Deem and Ramdas Pophale) SiO2 
 PCOD8244219
Probable space group: P M M N
;
_chemical_formula_sum "Si O2"
_cell_formula_units_Z 64
_cell_length_a 17.396824
_cell_length_b 14.620107
_cell_length_c 12.590749
_cell_angle_alpha 90.000000
_cell_angle_beta 90.000000
_cell_angle_gamma 90.000000
_cell_volume 3202.374266
_symmetry_space_group_name_H-M "P M M N"
_symmetry_group_IT_number 59
_space_group.IT_coordinate_system_code '2'
_symmetry_cell_setting 'orthorhombic'
loop_
_space_group_symop_operation_xyz
x,y,z
1/2-x,1/2-y,z
1/2+x,-y,-z
-x,1/2+y,-z
-x,-y,-z
1/2+x,1/2+y,-z
1/2-x,y,z
x,1/2-y,z
loop_
_atom_site_type_symbol
_atom_site_label
_atom_site_fract_x
_atom_site_fract_y
_atom_site_fract_z
Si Si1 0.946396 0.140983 0.826911
Si Si2 0.576268 0.495933 0.198125
Si Si3 0.160735 0.512048 0.577100
Si Si4 0.913648 0.146349 0.593794
Si Si5 0.340264 0.532408 0.013246
Si Si6 0.836167 0.650804 0.874696
Si Si7 0.927701 0.853436 0.501325
Si Si8 0.030340 0.351060 0.272669
O O1 0.960823 0.250000 0.840393
O O2 0.898955 0.120300 0.717410
O O3 0.892613 0.104957 0.922715
O O4 0.030007 0.090597 0.824256
O O5 0.617058 0.486172 0.311525
O O6 0.514716 0.414866 0.191818
O O7 0.639705 0.470845 0.110777
O O8 0.250000 0.529216 0.596705
O O9 0.130643 0.584838 0.491037
O O10 0.146784 0.411631 0.528999
O O11 0.887340 0.250000 0.569880
O O12 0.006086 0.137361 0.586548
O O13 0.250000 0.556651 0.027844
O O14 0.362191 0.430123 0.048758
O O15 0.750000 0.634563 0.837195
O O16 0.846315 0.750000 0.933188
O O17 0.882388 0.651456 0.765727
O O18 0.899206 0.750000 0.517586
O O19 0.967624 0.891599 0.608647
O O20 0.992485 0.250000 0.272605
#
# Coordination Sequence:
#
# PCOD8244219 Si02
#       8
#     8   8   8   8   8   8   8   8
#     4  11  24  42  68  94 120 163 216 263 307 366
#     4  12  23  42  61  92 126 164 206 256 302 375
#     4  12  25  38  62  95 131 169 204 248 310 374
#     4  10  21  41  66  92 122 161 209 259 304 358
#     4  11  25  43  62  88 125 164 204 258 319 373
#     4   9  19  36  58  88 121 153 198 259 320 369
#     4  10  20  38  61  89 125 162 204 250 300 364
#     4  10  20  35  63  92 118 158 204 251 305 365
#
# _framework density 19.985171000000001
#
# number of rings (size 3 to 8) (size 9 to 14) (size 15 to 20)
#    0.000    1.375    3.750    1.875    0.000    2.750 
#    0.000    2.500    0.000    4.500    0.000    0.000 
#    0.000    0.000    0.000    0.000    0.000    0.000 
#
# Total GULP energy -793225.434978 kJ/mol
# GULP energy per Si atom -12394.147422 kJ/mol
# Density = 1.993968 g / cm^3
# Si number density = 19.985171 Si / 1000 Ang^3
#
#
#
# Elastic Constant Matrix: (Units=GPa)
#
#
# Indices 1 2 3 4 5 6 
#
# 1 82.2119 38.2608 37.9567 0.0000 0.0000 0.0000
# 2 38.2608 101.2320 53.2049 0.0000 0.0000 0.0000
# 3 37.9567 53.2049 96.4037 0.0000 0.0000 0.0000
# 4 0.0000 0.0000 0.0000 23.6878 0.0000 0.0000
# 5 0.0000 0.0000 0.0000 0.0000 29.6764 0.0000
# 6 0.0000 0.0000 0.0000 0.0000 0.0000 15.0847
#
#
#
# Elastic Compliance Matrix: (Units=1/GPa)
#
#
# Indices 1 2 3 4 5 6 
#
# 1 0.015849 -0.003818 -0.004133 0.000000 0.000000 0.000000
# 2 -0.003818 0.014834 -0.006684 0.000000 0.000000 0.000000
# 3 -0.004133 -0.006684 0.015689 0.000000 0.000000 0.000000
# 4 0.000000 0.000000 0.000000 0.042216 0.000000 0.000000
# 5 0.000000 0.000000 0.000000 0.000000 0.033697 0.000000
# 6 0.000000 0.000000 0.000000 0.000000 0.000000 0.066292
#
#
# Mechanical properties :
#
#
# Convention : Reuss Voigt Hill
#
# Bulk Modulus (GPa) = 58.47029 59.85473 59.16251
# Shear Modulus (GPa) = 22.36674 23.71814 23.04244
#
# Velocity S-wave (km/s) = 3.34902 3.44871 3.39923
# Velocity P-wave (km/s) = 6.65394 6.77294 6.71371
#
# Compressibility (1/GPa) = 0.01710270
#
# Stress axis : x y z
#
# Youngs Moduli (GPa) = 63.09678 67.41262 63.73890
#
# Poissons Ratio (x) = 0.25737 0.26343
# Poissons Ratio (y) = 0.24089 0.42601
# Poissons Ratio (z) = 0.26078 0.45056
#
# Static dielectric constant tensor:
#      x y z
#    x 3.435480 0.000000 0.000000 
#    y 0.000000 3.866200 0.000000 
#    z 0.000000 0.000000 3.602140 
# 
# 
# High freq. dielectric constant tensor:
#      x y z
#    x 1.761600 0.000000 0.000000 
#    y 0.000000 1.791210 0.000000 
#    z 0.000000 0.000000 1.782790 
# 
# From -- ./inp_files/17831.got.cif
#   From: 2010.03.12/outbox.cif.g09.slc.cpg/sg59_9_cif.got.tgz:17831.got - 2010.04.16 16:29:54.
