data_PCOD8244916
_publ_section_title
;
Structure prediction by ZEFSAII (Michael W. Deem and Ramdas Pophale) SiO2 
 PCOD8244916
Probable space group: P M M N
;
_chemical_formula_sum "Si O2"
_cell_formula_units_Z 48
_cell_length_a 14.658800
_cell_length_b 8.877445
_cell_length_c 19.663724
_cell_angle_alpha 90.000000
_cell_angle_beta 90.000000
_cell_angle_gamma 90.000000
_cell_volume 2558.893315
_symmetry_space_group_name_H-M "P M M N"
_symmetry_group_IT_number 59
_space_group.IT_coordinate_system_code '2'
_symmetry_cell_setting 'orthorhombic'
loop_
_space_group_symop_operation_xyz
x,y,z
1/2-x,1/2-y,z
1/2+x,-y,-z
-x,1/2+y,-z
-x,-y,-z
1/2+x,1/2+y,-z
1/2-x,y,z
x,1/2-y,z
loop_
_atom_site_type_symbol
_atom_site_label
_atom_site_fract_x
_atom_site_fract_y
_atom_site_fract_z
Si Si1 0.647893 0.074904 0.417777
Si Si2 0.943678 0.428016 0.816332
Si Si3 0.750000 0.072280 0.021016
Si Si4 0.552499 0.071017 0.063159
Si Si5 0.853469 0.927007 0.555152
Si Si6 0.515742 0.573794 0.675182
Si Si7 0.250000 0.928532 0.130895
O O1 0.750000 0.017449 0.400659
O O2 0.646522 0.250000 0.434420
O O3 0.585283 0.039426 0.352919
O O4 0.608499 0.995696 0.485117
O O5 0.952517 0.250000 0.827049
O O6 0.970436 0.472128 0.740643
O O7 0.840467 0.484957 0.830215
O O8 0.012860 0.510240 0.866745
O O9 0.750000 0.250000 0.013235
O O10 0.658856 0.020719 0.060504
O O11 0.750000 0.002279 0.945044
O O12 0.542160 0.250000 0.059422
O O13 0.500000 0.000000 0.000000
O O14 0.750000 0.980868 0.567773
O O15 0.861445 0.750000 0.547626
O O16 0.912365 0.982199 0.618887
O O17 0.528730 0.750000 0.692934
O O18 0.250000 0.750000 0.127709
#
# Coordination Sequence:
#
# PCOD8244916 Si02
#       7
#     8   8   4   8   8   8   4
#     4   9  18  34  55  77 103 139 185 228 268 326
#     4  11  23  39  58  82 114 148 185 228 274 330
#     4   9  18  36  62  84 110 147 182 221 274 330
#     4  11  21  38  62  87 114 147 187 228 272 326
#     4   9  18  32  52  79 109 138 174 227 281 323
#     4  10  21  36  53  77 110 146 183 223 274 331
#     4   9  18  36  58  82 112 145 178 217 274 334
#
# _framework density 18.758108
#
# number of rings (size 3 to 8) (size 9 to 14) (size 15 to 20)
#    0.000    2.167    1.667    1.500    1.167    1.333 
#    1.500    3.750    0.000    0.000    0.000    0.000 
#    0.000    0.000    0.000    0.000    0.000    0.000 
#
# Total GULP energy -595222.095557 kJ/mol
# GULP energy per Si atom -12400.460324 kJ/mol
# Density = 1.871541 g / cm^3
# Si number density = 18.758108 Si / 1000 Ang^3
#
#
#
# Elastic Constant Matrix: (Units=GPa)
#
#
# Indices 1 2 3 4 5 6 
#
# 1 145.1934 39.7606 75.6288 0.0000 0.0000 0.0000
# 2 39.7606 48.3366 36.3934 0.0000 0.0000 0.0000
# 3 75.6288 36.3934 130.4963 0.0000 0.0000 0.0000
# 4 0.0000 0.0000 0.0000 36.1773 0.0000 0.0000
# 5 0.0000 0.0000 0.0000 0.0000 28.3259 0.0000
# 6 0.0000 0.0000 0.0000 0.0000 0.0000 22.8934
#
#
#
# Elastic Compliance Matrix: (Units=1/GPa)
#
#
# Indices 1 2 3 4 5 6 
#
# 1 0.010842 -0.005300 -0.004805 0.000000 0.000000 0.000000
# 2 -0.005300 0.028778 -0.004954 0.000000 0.000000 0.000000
# 3 -0.004805 -0.004954 0.011829 0.000000 0.000000 0.000000
# 4 0.000000 0.000000 0.000000 0.027642 0.000000 0.000000
# 5 0.000000 0.000000 0.000000 0.000000 0.035303 0.000000
# 6 0.000000 0.000000 0.000000 0.000000 0.000000 0.043681
#
#
# Mechanical properties :
#
#
# Convention : Reuss Voigt Hill
#
# Bulk Modulus (GPa) = 46.88139 69.73241 58.30690
# Shear Modulus (GPa) = 25.60112 28.96222 27.28167
#
# Velocity S-wave (km/s) = 3.69833 3.93362 3.81779
# Velocity P-wave (km/s) = 6.57904 7.60831 7.11232
#
# Compressibility (1/GPa) = 0.02133042
#
# Stress axis : x y z
#
# Youngs Moduli (GPa) = 92.23607 34.74867 84.53484
#
# Poissons Ratio (x) = 0.18418 0.40620
# Poissons Ratio (y) = 0.48888 0.41878
# Poissons Ratio (z) = 0.44321 0.17214
#
# Static dielectric constant tensor:
#      x y z
#    x 3.953990 0.000000 0.000000 
#    y 0.000000 3.273600 0.000000 
#    z 0.000000 0.000000 3.421890 
# 
# 
# High freq. dielectric constant tensor:
#      x y z
#    x 1.743910 0.000000 0.000000 
#    y 0.000000 1.711470 0.000000 
#    z 0.000000 0.000000 1.724500 
# 
# From -- ./inp_files/27452.got.cif
#   From: 2010.03.12/outbox.cif.g09.slc.cpg/sg59_14_cif.got.tgz:27452.got - 2010.04.16 16:29:54.
