data_PCOD8244645
_publ_section_title
;
Structure prediction by ZEFSAII (Michael W. Deem and Ramdas Pophale) SiO2 
 PCOD8244645
Probable space group: P M M N
;
_chemical_formula_sum "Si O2"
_cell_formula_units_Z 48
_cell_length_a 13.989477
_cell_length_b 7.866951
_cell_length_c 20.891613
_cell_angle_alpha 90.000000
_cell_angle_beta 90.000000
_cell_angle_gamma 90.000000
_cell_volume 2299.216651
_symmetry_space_group_name_H-M "P M M N"
_symmetry_group_IT_number 59
_space_group.IT_coordinate_system_code '2'
_symmetry_cell_setting 'orthorhombic'
loop_
_space_group_symop_operation_xyz
x,y,z
1/2-x,1/2-y,z
1/2+x,-y,-z
-x,1/2+y,-z
-x,-y,-z
1/2+x,1/2+y,-z
1/2-x,y,z
x,1/2-y,z
loop_
_atom_site_type_symbol
_atom_site_label
_atom_site_fract_x
_atom_site_fract_y
_atom_site_fract_z
Si Si1 0.863638 0.938327 0.524584
Si Si2 0.636929 0.250000 0.296326
Si Si3 0.641787 0.950992 0.003824
Si Si4 0.358523 0.051150 0.330598
Si Si5 0.976110 0.937129 0.243391
Si Si6 0.635617 0.250000 0.442094
Si Si7 0.499763 0.944189 0.895198
O O1 0.750000 0.932177 0.518342
O O2 0.904803 0.750000 0.507727
O O3 0.890923 0.988774 0.596880
O O4 0.906298 0.080309 0.476340
O O5 0.750000 0.250000 0.292644
O O6 0.600043 0.419403 0.262119
O O7 0.599407 0.250000 0.369318
O O8 0.750000 0.011360 0.995238
O O9 0.632254 0.750000 0.011894
O O10 0.600665 0.038231 0.067625
O O11 0.583801 0.012929 0.941412
O O12 0.250000 0.989636 0.319391
O O13 0.368090 0.250000 0.316249
O O14 0.425810 0.951220 0.282391
O O15 0.932196 0.750000 0.257203
O O16 0.000400 0.945490 0.168603
O O17 0.750000 0.250000 0.446298
O O18 0.517275 0.750000 0.875388
#
# Coordination Sequence:
#
# PCOD8244645 Si02
#       7
#     8   4   8   8   8   4   8
#     4   8  15  29  54  87 118 153 197 247 309 378
#     4  11  26  48  65  85 119 164 220 273 320 371
#     4   9  19  36  61  92 123 158 205 248 295 360
#     4   9  18  36  63  93 129 167 203 251 316 389
#     4  12  25  42  65  91 128 169 213 264 313 371
#     4   9  18  34  60  85 113 154 201 259 319 371
#     4  10  20  38  60  86 125 168 199 249 310 354
#
# _framework density 20.876674999999999
#
# number of rings (size 3 to 8) (size 9 to 14) (size 15 to 20)
#    0.000    2.333    1.667    1.500    1.167    3.667 
#    0.000    4.167    0.000    0.000    0.000    0.000 
#    0.000    0.000    0.000    0.000    0.000    0.000 
#
# Total GULP energy -595273.516035 kJ/mol
# GULP energy per Si atom -12401.531584 kJ/mol
# Density = 2.082916 g / cm^3
# Si number density = 20.876675 Si / 1000 Ang^3
#
#
#
# Elastic Constant Matrix: (Units=GPa)
#
#
# Indices 1 2 3 4 5 6 
#
# 1 83.3420 31.6397 39.2598 0.0000 0.0000 0.0000
# 2 31.6397 120.6861 59.0666 0.0000 0.0000 0.0000
# 3 39.2598 59.0666 137.1237 0.0000 0.0000 0.0000
# 4 0.0000 0.0000 0.0000 29.5820 0.0000 0.0000
# 5 0.0000 0.0000 0.0000 0.0000 21.8185 0.0000
# 6 0.0000 0.0000 0.0000 0.0000 0.0000 18.5957
#
#
#
# Elastic Compliance Matrix: (Units=1/GPa)
#
#
# Indices 1 2 3 4 5 6 
#
# 1 0.014322 -0.002215 -0.003146 0.000000 0.000000 0.000000
# 2 -0.002215 0.010842 -0.004036 0.000000 0.000000 0.000000
# 3 -0.003146 -0.004036 0.009932 0.000000 0.000000 0.000000
# 4 0.000000 0.000000 0.000000 0.033804 0.000000 0.000000
# 5 0.000000 0.000000 0.000000 0.000000 0.045833 0.000000
# 6 0.000000 0.000000 0.000000 0.000000 0.000000 0.053776
#
#
# Mechanical properties :
#
#
# Convention : Reuss Voigt Hill
#
# Bulk Modulus (GPa) = 61.34503 66.78711 64.06607
# Shear Modulus (GPa) = 25.94209 28.07828 27.01018
#
# Velocity S-wave (km/s) = 3.52893 3.67135 3.60084
# Velocity P-wave (km/s) = 6.78621 7.07336 6.93127
#
# Compressibility (1/GPa) = 0.01630124
#
# Stress axis : x y z
#
# Youngs Moduli (GPa) = 69.82394 92.23430 100.68346
#
# Poissons Ratio (x) = 0.20427 0.31680
# Poissons Ratio (y) = 0.15464 0.40637
# Poissons Ratio (z) = 0.21970 0.37227
#
# Static dielectric constant tensor:
#      x y z
#    x 3.653760 0.000000 0.000000 
#    y 0.000000 3.923480 0.000000 
#    z 0.000000 0.000000 3.794710 
# 
# 
# High freq. dielectric constant tensor:
#      x y z
#    x 1.809950 0.000000 0.000000 
#    y 0.000000 1.819580 0.000000 
#    z 0.000000 0.000000 1.815400 
# 
# From -- ./inp_files/27469.got.cif
#   From: 2010.03.12/outbox.cif.g09.slc.cpg/sg59_14_cif.got.tgz:27469.got - 2010.04.16 16:29:54.
