data_PCOD8244495
_publ_section_title
;
Structure prediction by ZEFSAII (Michael W. Deem and Ramdas Pophale) SiO2 
 PCOD8244495
Probable space group: P M M N
;
_chemical_formula_sum "Si O2"
_cell_formula_units_Z 64
_cell_length_a 8.671141
_cell_length_b 25.952278
_cell_length_c 14.989346
_cell_angle_alpha 90.000000
_cell_angle_beta 90.000000
_cell_angle_gamma 90.000000
_cell_volume 3373.140395
_symmetry_space_group_name_H-M "P M M N"
_symmetry_group_IT_number 59
_space_group.IT_coordinate_system_code '2'
_symmetry_cell_setting 'orthorhombic'
loop_
_space_group_symop_operation_xyz
x,y,z
1/2-x,1/2-y,z
1/2+x,-y,-z
-x,1/2+y,-z
-x,-y,-z
1/2+x,1/2+y,-z
1/2-x,y,z
x,1/2-y,z
loop_
_atom_site_type_symbol
_atom_site_label
_atom_site_fract_x
_atom_site_fract_y
_atom_site_fract_z
Si Si1 0.430070 0.810438 0.302682
Si Si2 0.081176 0.031119 0.425712
Si Si3 0.931759 0.441566 0.001866
Si Si4 0.071616 0.110219 0.829587
Si Si5 0.431816 0.409444 0.178380
Si Si6 0.075816 0.189219 0.511230
Si Si7 0.569929 0.370084 0.351981
Si Si8 0.917846 0.020013 0.751898
O O1 0.250000 0.822917 0.300600
O O2 0.464793 0.750000 0.291485
O O3 0.508958 0.838187 0.217862
O O4 0.493409 0.831180 0.398210
O O5 0.250000 0.053781 0.453032
O O6 0.966424 0.075657 0.396624
O O7 0.107229 0.988629 0.351276
O O8 0.000000 0.000000 0.500000
O O9 0.750000 0.447883 0.009650
O O10 0.992647 0.404460 0.081307
O O11 0.000000 0.500000 0.000000
O O12 0.976501 0.407830 0.915991
O O13 0.250000 0.117949 0.853847
O O14 0.048010 0.063341 0.760872
O O15 0.250000 0.400585 0.173935
O O16 0.496667 0.368944 0.251973
O O17 0.476869 0.467484 0.204202
O O18 0.250000 0.168162 0.512141
O O19 0.070151 0.250000 0.512541
O O20 0.995351 0.172932 0.418812
O O21 0.750000 0.361289 0.341270
O O22 0.750000 0.036207 0.793806
#
# Coordination Sequence:
#
# PCOD8244495 Si02
#       8
#     8   8   8   8   8   8   8   8
#     4  10  22  41  63  86 115 150 190 240 294 347
#     4  10  21  35  50  71 106 148 190 231 276 332
#     4  12  23  37  58  85 118 155 196 239 286 342
#     4  12  24  36  57  85 115 153 193 238 289 344
#     4  10  20  37  58  81 115 152 190 237 283 333
#     4  10  21  39  63  89 116 149 193 243 292 345
#     4  11  22  36  56  82 114 151 188 230 284 343
#     4   9  19  34  51  73 107 147 188 233 277 330
#
# _framework density 18.973416
#
# number of rings (size 3 to 8) (size 9 to 14) (size 15 to 20)
#    0.000    1.500    1.250    5.625    1.750    4.000 
#    0.000    0.000    0.000    0.750    0.000    0.000 
#    0.000    0.000    0.000    0.000    0.000    0.000 
#
# Total GULP energy -793141.137781 kJ/mol
# GULP energy per Si atom -12392.830278 kJ/mol
# Density = 1.893023 g / cm^3
# Si number density = 18.973416 Si / 1000 Ang^3
#
#
#
# Elastic Constant Matrix: (Units=GPa)
#
#
# Indices 1 2 3 4 5 6 
#
# 1 141.6428 30.8500 43.5664 0.0000 0.0000 0.0000
# 2 30.8500 41.9733 36.7006 0.0000 0.0000 0.0000
# 3 43.5664 36.7006 94.7023 0.0000 0.0000 0.0000
# 4 0.0000 0.0000 0.0000 32.6973 0.0000 0.0000
# 5 0.0000 0.0000 0.0000 0.0000 35.0979 0.0000
# 6 0.0000 0.0000 0.0000 0.0000 0.0000 26.6407
#
#
#
# Elastic Compliance Matrix: (Units=1/GPa)
#
#
# Indices 1 2 3 4 5 6 
#
# 1 0.008728 -0.004393 -0.002313 0.000000 0.000000 0.000000
# 2 -0.004393 0.038246 -0.012801 0.000000 0.000000 0.000000
# 3 -0.002313 -0.012801 0.016584 0.000000 0.000000 0.000000
# 4 0.000000 0.000000 0.000000 0.030584 0.000000 0.000000
# 5 0.000000 0.000000 0.000000 0.000000 0.028492 0.000000
# 6 0.000000 0.000000 0.000000 0.000000 0.000000 0.037537
#
#
# Mechanical properties :
#
#
# Convention : Reuss Voigt Hill
#
# Bulk Modulus (GPa) = 40.74087 55.61693 48.17890
# Shear Modulus (GPa) = 24.11198 30.03394 27.07296
#
# Velocity S-wave (km/s) = 3.56874 3.98294 3.78152
# Velocity P-wave (km/s) = 6.20487 7.10834 6.67192
#
# Compressibility (1/GPa) = 0.02454538
#
# Stress axis : x y z
#
# Youngs Moduli (GPa) = 114.57160 26.14631 60.29797
#
# Poissons Ratio (x) = 0.11485 0.13946
# Poissons Ratio (y) = 0.50328 0.77188
# Poissons Ratio (z) = 0.26499 0.33470
#
# Static dielectric constant tensor:
#      x y z
#    x 3.466160 0.000000 0.000000 
#    y 0.000000 2.957030 0.000000 
#    z 0.000000 0.000000 3.638510 
# 
# 
# High freq. dielectric constant tensor:
#      x y z
#    x 1.753840 0.000000 0.000000 
#    y 0.000000 1.703610 0.000000 
#    z 0.000000 0.000000 1.748050 
# 
# From -- ./inp_files/21512.got.cif
#   From: 2010.03.12/outbox.cif.g09.slc.cpg/sg59_11_cif.got.tgz:21512.got - 2010.04.16 16:29:54.
