data_PCOD8244008
_publ_section_title
;
Structure prediction by ZEFSAII (Michael W. Deem and Ramdas Pophale) SiO2 
 PCOD8244008
Probable space group: P M M N
;
_chemical_formula_sum "Si O2"
_cell_formula_units_Z 56
_cell_length_a 13.892532
_cell_length_b 27.307936
_cell_length_c 7.024107
_cell_angle_alpha 90.000000
_cell_angle_beta 90.000000
_cell_angle_gamma 90.000000
_cell_volume 2664.780249
_symmetry_space_group_name_H-M "P M M N"
_symmetry_group_IT_number 59
_space_group.IT_coordinate_system_code '2'
_symmetry_cell_setting 'orthorhombic'
loop_
_space_group_symop_operation_xyz
x,y,z
1/2-x,1/2-y,z
1/2+x,-y,-z
-x,1/2+y,-z
-x,-y,-z
1/2+x,1/2+y,-z
1/2-x,y,z
x,1/2-y,z
loop_
_atom_site_type_symbol
_atom_site_label
_atom_site_fract_x
_atom_site_fract_y
_atom_site_fract_z
Si Si1 0.483760 0.805319 0.679534
Si Si2 0.359997 0.522984 0.942104
Si Si3 0.135657 0.867519 0.961008
Si Si4 0.358861 0.057619 0.206940
Si Si5 0.508383 0.858614 0.280792
Si Si6 0.136164 0.160213 0.052286
Si Si7 0.570673 0.962801 0.400232
O O1 0.449401 0.750000 0.641686
O O2 0.398417 0.834073 0.786167
O O3 0.503923 0.830978 0.479276
O O4 0.580704 0.802469 0.808677
O O5 0.250000 0.531663 0.999461
O O6 0.404035 0.577152 0.920437
O O7 0.365139 0.492392 0.748397
O O8 0.411250 0.490385 0.111359
O O9 0.250000 0.863580 0.978861
O O10 0.088432 0.848902 0.158364
O O11 0.250000 0.056732 0.132065
O O12 0.402713 0.107646 0.126720
O O13 0.360175 0.057688 0.434246
O O14 0.516631 0.917006 0.307150
O O15 0.600417 0.836382 0.166168
O O16 0.250000 0.169462 0.064984
O O17 0.500000 0.000000 0.500000
#
# Coordination Sequence:
#
# PCOD8244008 Si02
#       7
#     8   8   8   8   8   8   8
#     4  11  25  46  67  93 124 161 212 273 331 379
#     4  10  21  37  58  88 128 168 208 254 302 368
#     4  10  24  45  67  93 127 167 214 267 323 377
#     4  10  20  35  56  86 126 172 210 245 293 364
#     4  11  23  39  64  95 128 167 210 264 316 373
#     4  10  22  41  66  94 129 168 208 253 310 381
#     4  12  22  31  55  89 127 170 211 245 303 368
#
# _framework density 21.014866000000001
#
# number of rings (size 3 to 8) (size 9 to 14) (size 15 to 20)
#    0.000    1.429    2.857    2.143    2.000    5.714 
#    0.000    3.571    0.000    0.000    0.000    0.000 
#    0.000    0.000    0.000    0.000    0.000    0.000 
#
# Total GULP energy -694306.993067 kJ/mol
# GULP energy per Si atom -12398.339162 kJ/mol
# Density = 2.096703 g / cm^3
# Si number density = 21.014866 Si / 1000 Ang^3
#
#
#
# Elastic Constant Matrix: (Units=GPa)
#
#
# Indices 1 2 3 4 5 6 
#
# 1 69.8406 20.7039 31.9650 0.0000 0.0000 0.0000
# 2 20.7039 101.3830 29.0547 0.0000 0.0000 0.0000
# 3 31.9650 29.0547 138.2185 0.0000 0.0000 0.0000
# 4 0.0000 0.0000 0.0000 16.1346 0.0000 0.0000
# 5 0.0000 0.0000 0.0000 0.0000 24.8909 0.0000
# 6 0.0000 0.0000 0.0000 0.0000 0.0000 21.0973
#
#
#
# Elastic Compliance Matrix: (Units=1/GPa)
#
#
# Indices 1 2 3 4 5 6 
#
# 1 0.016557 -0.002430 -0.003318 0.000000 0.000000 0.000000
# 2 -0.002430 0.010853 -0.001719 0.000000 0.000000 0.000000
# 3 -0.003318 -0.001719 0.008364 0.000000 0.000000 0.000000
# 4 0.000000 0.000000 0.000000 0.061979 0.000000 0.000000
# 5 0.000000 0.000000 0.000000 0.000000 0.040175 0.000000
# 6 0.000000 0.000000 0.000000 0.000000 0.000000 0.047399
#
#
# Mechanical properties :
#
#
# Convention : Reuss Voigt Hill
#
# Bulk Modulus (GPa) = 47.98905 52.54327 50.26616
# Shear Modulus (GPa) = 24.13024 27.60580 25.86802
#
# Velocity S-wave (km/s) = 3.39225 3.62834 3.51228
# Velocity P-wave (km/s) = 6.18292 6.52766 6.35763
#
# Compressibility (1/GPa) = 0.02083809
#
# Stress axis : x y z
#
# Youngs Moduli (GPa) = 60.39560 92.14378 119.56399
#
# Poissons Ratio (x) = 0.22394 0.39675
# Poissons Ratio (y) = 0.14678 0.20556
# Poissons Ratio (z) = 0.20041 0.15842
#
# Static dielectric constant tensor:
#      x y z
#    x 3.624450 0.000000 0.000000 
#    y 0.000000 3.906920 0.000000 
#    z 0.000000 0.000000 4.757430 
# 
# 
# High freq. dielectric constant tensor:
#      x y z
#    x 1.818460 0.000000 0.000000 
#    y 0.000000 1.816590 0.000000 
#    z 0.000000 0.000000 1.833010 
# 
# From -- ./inp_files/2303.got.cif
#   From: 2010.03.12/outbox.cif.g09.slc.cpg/sg59_2_cif.got.tgz:2303.got - 2010.04.16 16:29:54.
