data_PCOD8244949
_publ_section_title
;
Structure prediction by ZEFSAII (Michael W. Deem and Ramdas Pophale) SiO2 
 PCOD8244949
Probable space group: P M M N
;
_chemical_formula_sum "Si O2"
_cell_formula_units_Z 64
_cell_length_a 9.130648
_cell_length_b 13.973694
_cell_length_c 24.127042
_cell_angle_alpha 90.000000
_cell_angle_beta 90.000000
_cell_angle_gamma 90.000000
_cell_volume 3078.342295
_symmetry_space_group_name_H-M "P M M N"
_symmetry_group_IT_number 59
_space_group.IT_coordinate_system_code '2'
_symmetry_cell_setting 'orthorhombic'
loop_
_space_group_symop_operation_xyz
x,y,z
1/2-x,1/2-y,z
1/2+x,-y,-z
-x,1/2+y,-z
-x,-y,-z
1/2+x,1/2+y,-z
1/2-x,y,z
x,1/2-y,z
loop_
_atom_site_type_symbol
_atom_site_label
_atom_site_fract_x
_atom_site_fract_y
_atom_site_fract_z
Si Si1 0.420220 0.540951 0.079157
Si Si2 0.084375 0.864156 0.528341
Si Si3 0.415294 0.636305 0.406409
Si Si4 0.583349 0.636272 0.299818
Si Si5 0.577918 0.140066 0.257603
Si Si6 0.077867 0.975212 0.205222
Si Si7 0.414246 0.363681 0.366964
Si Si8 0.921709 0.856422 0.985135
O O1 0.250000 0.553901 0.066611
O O2 0.455684 0.559973 0.143263
O O3 0.505224 0.620000 0.044023
O O4 0.470489 0.433484 0.061335
O O5 0.250000 0.899926 0.538453
O O6 0.081404 0.750000 0.531785
O O7 0.028234 0.897585 0.467352
O O8 0.978840 0.907675 0.575910
O O9 0.250000 0.599754 0.396694
O O10 0.418639 0.750000 0.404601
O O11 0.516334 0.594454 0.357289
O O12 0.750000 0.599821 0.295021
O O13 0.574844 0.750000 0.299567
O O14 0.491603 0.599763 0.247653
O O15 0.750000 0.121851 0.256520
O O16 0.537917 0.250000 0.246893
O O17 0.516418 0.102879 0.316442
O O18 0.497227 0.079121 0.210601
O O19 0.250000 0.984590 0.216395
O O20 0.250000 0.403151 0.358402
O O21 0.413899 0.250000 0.370342
O O22 0.750000 0.860162 0.995079
O O23 0.970831 0.750000 0.965908
#
# Coordination Sequence:
#
# PCOD8244949 Si02
#       8
#     8   8   8   8   8   8   8   8
#     4   9  20  37  56  83 116 148 185 226 266 313
#     4   8  13  22  39  65  96 130 169 216 272 331
#     4   8  14  26  45  69  98 133 175 223 275 333
#     4  10  21  36  54  77 107 144 186 232 281 333
#     4  10  21  37  56  78 107 143 183 229 280 333
#     4  11  23  38  58  82 111 149 189 230 273 320
#     4   9  16  26  43  69 100 134 175 222 271 328
#     4   9  18  35  60  87 116 150 183 219 266 315
#
# _framework density 20.790409
#
# number of rings (size 3 to 8) (size 9 to 14) (size 15 to 20)
#    0.000    2.750    0.000    2.250    0.000    5.750 
#    0.000    6.250    0.000    0.750    0.000    0.000 
#    0.000    0.000    0.000    0.000    0.000    0.000 
#
# Total GULP energy -793494.073438 kJ/mol
# GULP energy per Si atom -12398.344897 kJ/mol
# Density = 2.074309 g / cm^3
# Si number density = 20.790409 Si / 1000 Ang^3
#
#
#
# Elastic Constant Matrix: (Units=GPa)
#
#
# Indices 1 2 3 4 5 6 
#
# 1 92.7644 -2.0559 37.9541 0.0000 0.0000 0.0000
# 2 -2.0559 20.1035 -8.5484 0.0000 0.0000 0.0000
# 3 37.9541 -8.5484 85.0216 0.0000 0.0000 0.0000
# 4 0.0000 0.0000 0.0000 34.9473 0.0000 0.0000
# 5 0.0000 0.0000 0.0000 0.0000 36.3127 0.0000
# 6 0.0000 0.0000 0.0000 0.0000 0.0000 21.5842
#
#
#
# Elastic Compliance Matrix: (Units=1/GPa)
#
#
# Indices 1 2 3 4 5 6 
#
# 1 0.013217 -0.001209 -0.006022 0.000000 0.000000 0.000000
# 2 -0.001209 0.052075 0.005775 0.000000 0.000000 0.000000
# 3 -0.006022 0.005775 0.015030 0.000000 0.000000 0.000000
# 4 0.000000 0.000000 0.000000 0.028615 0.000000 0.000000
# 5 0.000000 0.000000 0.000000 0.000000 0.027539 0.000000
# 6 0.000000 0.000000 0.000000 0.000000 0.000000 0.046330
#
#
# Mechanical properties :
#
#
# Convention : Reuss Voigt Hill
#
# Bulk Modulus (GPa) = 12.91790 28.06545 20.49167
# Shear Modulus (GPa) = 23.63847 29.93815 26.78831
#
# Velocity S-wave (km/s) = 3.37558 3.79885 3.59345
# Velocity P-wave (km/s) = 4.62814 5.72453 5.20528
#
# Compressibility (1/GPa) = 0.07741195
#
# Stress axis : x y z
#
# Youngs Moduli (GPa) = 75.66051 19.20318 66.53143
#
# Poissons Ratio (x) = 0.02321 0.40063
# Poissons Ratio (y) = 0.09147 -0.38425
# Poissons Ratio (z) = 0.45560 -0.11091
#
# Static dielectric constant tensor:
#      x y z
#    x 3.818810 0.000000 0.000000 
#    y 0.000000 3.636490 0.000000 
#    z 0.000000 0.000000 3.830010 
# 
# 
# High freq. dielectric constant tensor:
#      x y z
#    x 1.811800 0.000000 0.000000 
#    y 0.000000 1.809490 0.000000 
#    z 0.000000 0.000000 1.808940 
# 
# From -- ./inp_files/31522.got.cif
#   From: 2010.03.12/outbox.cif.g09.slc.cpg/sg59_16_cif.got.tgz:31522.got - 2010.04.16 16:29:54.
