data_PCOD8244439
_publ_section_title
;
Structure prediction by ZEFSAII (Michael W. Deem and Ramdas Pophale) SiO2 
 PCOD8244439
Probable space group: P M M N
;
_chemical_formula_sum "Si O2"
_cell_formula_units_Z 64
_cell_length_a 8.729611
_cell_length_b 28.530538
_cell_length_c 12.659992
_cell_angle_alpha 90.000000
_cell_angle_beta 90.000000
_cell_angle_gamma 90.000000
_cell_volume 3153.103917
_symmetry_space_group_name_H-M "P M M N"
_symmetry_group_IT_number 59
_space_group.IT_coordinate_system_code '2'
_symmetry_cell_setting 'orthorhombic'
loop_
_space_group_symop_operation_xyz
x,y,z
1/2-x,1/2-y,z
1/2+x,-y,-z
-x,1/2+y,-z
-x,-y,-z
1/2+x,1/2+y,-z
1/2-x,y,z
x,1/2-y,z
loop_
_atom_site_type_symbol
_atom_site_label
_atom_site_fract_x
_atom_site_fract_y
_atom_site_fract_z
Si Si1 0.074152 0.547053 0.038247
Si Si2 0.074848 0.634711 0.897432
Si Si3 0.571985 0.695919 0.512709
Si Si4 0.931186 0.121560 0.335472
Si Si5 0.074714 0.156781 0.709647
Si Si6 0.425644 0.053373 0.745604
Si Si7 0.069729 0.477570 0.395815
Si Si8 0.568190 0.302627 0.916381
O O1 0.250000 0.539663 0.071339
O O2 0.979117 0.566136 0.136980
O O3 0.058647 0.582648 0.942013
O O4 0.000000 0.500000 0.000000
O O5 0.250000 0.649773 0.884593
O O6 0.000417 0.634610 0.780608
O O7 0.997502 0.671141 0.980339
O O8 0.750000 0.682834 0.528196
O O9 0.539966 0.750000 0.539254
O O10 0.469085 0.664797 0.589117
O O11 0.522024 0.686171 0.392123
O O12 0.750000 0.113345 0.330751
O O13 0.006745 0.074307 0.378244
O O14 0.250000 0.167766 0.738971
O O15 0.054001 0.101707 0.680633
O O16 0.973679 0.171120 0.809049
O O17 0.250000 0.036415 0.744991
O O18 0.528518 0.011393 0.701345
O O19 0.250000 0.474234 0.409513
O O20 0.000000 0.500000 0.500000
O O21 0.750000 0.303640 0.923785
O O22 0.502798 0.250000 0.915182
#
# Coordination Sequence:
#
# PCOD8244439 Si02
#       8
#     8   8   8   8   8   8   8   8
#     4  11  21  36  58  84 118 160 204 253 309 367
#     4   9  20  38  58  84 120 159 200 250 306 365
#     4  10  22  41  63  88 122 164 209 261 323 383
#     4  11  23  41  65  92 124 164 211 262 313 379
#     4  10  21  38  61  88 121 159 200 254 313 372
#     4  11  22  37  59  90 125 162 206 255 309 374
#     4  12  25  42  64  92 125 165 210 260 316 377
#     4  10  20  36  60  88 119 157 202 253 308 367
#
# _framework density 20.297460000000001
#
# number of rings (size 3 to 8) (size 9 to 14) (size 15 to 20)
#    0.000    1.500    1.250    4.125    0.000    4.500 
#    0.000    4.375    0.000    0.000    0.000    0.000 
#    0.000    0.000    0.000    0.000    0.000    0.000 
#
# Total GULP energy -793721.280240 kJ/mol
# GULP energy per Si atom -12401.895004 kJ/mol
# Density = 2.025126 g / cm^3
# Si number density = 20.297460 Si / 1000 Ang^3
#
#
#
# Elastic Constant Matrix: (Units=GPa)
#
#
# Indices 1 2 3 4 5 6 
#
# 1 76.8495 42.2923 35.1965 0.0000 0.0000 0.0000
# 2 42.2923 127.8953 54.4680 0.0000 0.0000 0.0000
# 3 35.1965 54.4680 132.3411 0.0000 0.0000 0.0000
# 4 0.0000 0.0000 0.0000 36.7005 0.0000 0.0000
# 5 0.0000 0.0000 0.0000 0.0000 28.3409 0.0000
# 6 0.0000 0.0000 0.0000 0.0000 0.0000 29.0888
#
#
#
# Elastic Compliance Matrix: (Units=1/GPa)
#
#
# Indices 1 2 3 4 5 6 
#
# 1 0.016623 -0.004382 -0.002617 0.000000 0.000000 0.000000
# 2 -0.004382 0.010636 -0.003212 0.000000 0.000000 0.000000
# 3 -0.002617 -0.003212 0.009574 0.000000 0.000000 0.000000
# 4 0.000000 0.000000 0.000000 0.027248 0.000000 0.000000
# 5 0.000000 0.000000 0.000000 0.000000 0.035285 0.000000
# 6 0.000000 0.000000 0.000000 0.000000 0.000000 0.034377
#
#
# Mechanical properties :
#
#
# Convention : Reuss Voigt Hill
#
# Bulk Modulus (GPa) = 60.93827 66.77774 63.85801
# Shear Modulus (GPa) = 31.32131 32.50130 31.91131
#
# Velocity S-wave (km/s) = 3.93251 4.00590 3.96938
# Velocity P-wave (km/s) = 7.12091 7.37342 7.24826
#
# Compressibility (1/GPa) = 0.01641005
#
# Stress axis : x y z
#
# Youngs Moduli (GPa) = 60.15847 94.02105 104.44644
#
# Poissons Ratio (x) = 0.41201 0.27337
# Poissons Ratio (y) = 0.26362 0.33548
# Poissons Ratio (z) = 0.15745 0.30200
#
# Static dielectric constant tensor:
#      x y z
#    x 3.618080 0.000000 0.000000 
#    y 0.000000 3.725100 0.000000 
#    z 0.000000 0.000000 5.391230 
# 
# 
# High freq. dielectric constant tensor:
#      x y z
#    x 1.777820 0.000000 0.000000 
#    y 0.000000 1.805230 0.000000 
#    z 0.000000 0.000000 1.802750 
# 
# From -- ./inp_files/15036.got.cif
#   From: 2010.03.12/outbox.cif.g09.slc.cpg/sg59_8_cif.got.tgz:15036.got - 2010.04.16 16:29:54.
