data_PCOD8244572
_publ_section_title
;
Structure prediction by ZEFSAII (Michael W. Deem and Ramdas Pophale) SiO2 
 PCOD8244572
Probable space group: P M M N
;
_chemical_formula_sum "Si O2"
_cell_formula_units_Z 38
_cell_length_a 24.355985
_cell_length_b 7.527509
_cell_length_c 10.877507
_cell_angle_alpha 90.000000
_cell_angle_beta 90.000000
_cell_angle_gamma 90.000000
_cell_volume 1994.281005
_symmetry_space_group_name_H-M "P M M N"
_symmetry_group_IT_number 59
_space_group.IT_coordinate_system_code '2'
_symmetry_cell_setting 'orthorhombic'
loop_
_space_group_symop_operation_xyz
x,y,z
1/2-x,1/2-y,z
1/2+x,-y,-z
-x,1/2+y,-z
-x,-y,-z
1/2+x,1/2+y,-z
1/2-x,y,z
x,1/2-y,z
loop_
_atom_site_type_symbol
_atom_site_label
_atom_site_fract_x
_atom_site_fract_y
_atom_site_fract_z
Si Si1 0.050278 0.541663 0.356501
Si Si2 0.359561 0.250000 0.746037
Si Si3 0.345429 0.543859 0.203524
Si Si4 0.685490 0.750000 0.986117
Si Si5 0.750000 0.750000 0.408718
Si Si6 0.430314 0.949721 0.630331
Si Si7 0.750000 0.046238 0.608589
O O1 0.039414 0.750000 0.363657
O O2 0.094294 0.492156 0.252352
O O3 0.071786 0.477674 0.490109
O O4 0.993239 0.447827 0.322188
O O5 0.349152 0.250000 0.890363
O O6 0.302809 0.250000 0.675530
O O7 0.393523 0.426192 0.715002
O O8 0.341589 0.750000 0.164866
O O9 0.303429 0.500532 0.312393
O O10 0.330929 0.427378 0.086283
O O11 0.750000 0.750000 0.013734
O O12 0.750000 0.572232 0.488325
O O13 0.406665 0.750000 0.639378
O O14 0.750000 0.250000 0.565186
#
# Coordination Sequence:
#
# PCOD8244572 Si02
#       7
#     8   4   8   4   2   8   4
#     4   9  18  36  64  97 124 157 193 249 315 376
#     4  12  26  43  58  85 126 169 213 250 289 371
#     4  10  21  38  64  91 122 154 204 259 308 355
#     4  12  25  44  62  84 117 173 223 254 299 346
#     4  12  24  38  62  86 122 164 196 248 322 360
#     4  10  21  38  62  92 130 160 193 243 316 379
#     4  10  20  37  61  99 125 144 193 264 316 372
#
# _framework density 19.054486000000001
#
# number of rings (size 3 to 8) (size 9 to 14) (size 15 to 20)
#    0.000    1.684    2.632    1.895    2.947    3.368 
#    0.000    1.053    0.000    0.000    0.000    0.000 
#    0.000    0.000    0.000    0.000    0.000    0.000 
#
# Total GULP energy -471340.526199 kJ/mol
# GULP energy per Si atom -12403.698058 kJ/mol
# Density = 1.901112 g / cm^3
# Si number density = 19.054486 Si / 1000 Ang^3
#
#
#
# Elastic Constant Matrix: (Units=GPa)
#
#
# Indices 1 2 3 4 5 6 
#
# 1 109.8931 47.8928 48.9510 0.0000 0.0000 0.0000
# 2 47.8928 93.9331 44.2974 0.0000 0.0000 0.0000
# 3 48.9510 44.2974 82.8691 0.0000 0.0000 0.0000
# 4 0.0000 0.0000 0.0000 -0.1670 0.0000 0.0000
# 5 0.0000 0.0000 0.0000 0.0000 71.8823 0.0000
# 6 0.0000 0.0000 0.0000 0.0000 0.0000 28.3056
#
#
#
# Elastic Compliance Matrix: (Units=1/GPa)
#
#
# Indices 1 2 3 4 5 6 
#
# 1 0.013466 -0.004165 -0.005729 0.000000 0.000000 0.000000
# 2 -0.004165 0.015522 -0.005837 0.000000 0.000000 0.000000
# 3 -0.005729 -0.005837 0.018571 0.000000 0.000000 0.000000
# 4 0.000000 0.000000 0.000000 -5.987623 0.000000 0.000000
# 5 0.000000 0.000000 0.000000 0.000000 0.013912 0.000000
# 6 0.000000 0.000000 0.000000 0.000000 0.000000 0.035329
#
#
# Mechanical properties :
#
#
# Convention : Reuss Voigt Hill
#
# Bulk Modulus (GPa) = 62.11488 63.21974 62.66731
# Shear Modulus (GPa) = -0.85412 29.70779 14.42684
#
# Velocity S-wave (km/s) = -0.67024 3.95282 2.75460
# Velocity P-wave (km/s) = 5.66307 7.35415 6.56330
#
# Compressibility (1/GPa) = 0.01609920
#
# Stress axis : x y z
#
# Youngs Moduli (GPa) = 74.25878 64.42499 53.84644
#
# Poissons Ratio (x) = 0.26830 0.30846
# Poissons Ratio (y) = 0.30925 0.31431
# Poissons Ratio (z) = 0.42539 0.37606
#
# Static dielectric constant tensor:
#      x y z
#    x 3.663340 0.000000 0.000000 
#    y 0.000000 3.577060 0.000000 
#    z 0.000000 0.000000 3.219530 
# 
# 
# High freq. dielectric constant tensor:
#      x y z
#    x 1.753640 0.000000 0.000000 
#    y 0.000000 1.753530 0.000000 
#    z 0.000000 0.000000 1.710030 
# 
# From -- ./inp_files/11906.got.cif
#   From: 2010.03.12/outbox.cif.g09.slc.cpg/sg59_6_cif.got.tgz:11906.got - 2010.04.16 16:29:54.
