data_PCOD8244232
_publ_section_title
;
Structure prediction by ZEFSAII (Michael W. Deem and Ramdas Pophale) SiO2 
 PCOD8244232
Probable space group: P M M N
;
_chemical_formula_sum "Si O2"
_cell_formula_units_Z 64
_cell_length_a 9.049303
_cell_length_b 31.063972
_cell_length_c 12.029041
_cell_angle_alpha 90.000000
_cell_angle_beta 90.000000
_cell_angle_gamma 90.000000
_cell_volume 3381.451177
_symmetry_space_group_name_H-M "P M M N"
_symmetry_group_IT_number 59
_space_group.IT_coordinate_system_code '2'
_symmetry_cell_setting 'orthorhombic'
loop_
_space_group_symop_operation_xyz
x,y,z
1/2-x,1/2-y,z
1/2+x,-y,-z
-x,1/2+y,-z
-x,-y,-z
1/2+x,1/2+y,-z
1/2-x,y,z
x,1/2-y,z
loop_
_atom_site_type_symbol
_atom_site_label
_atom_site_fract_x
_atom_site_fract_y
_atom_site_fract_z
Si Si1 0.580144 0.943564 0.253974
Si Si2 0.081132 0.388990 0.353560
Si Si3 0.082230 0.010620 0.387082
Si Si4 0.574284 0.121818 0.130652
Si Si5 0.421979 0.046187 0.997993
Si Si6 0.574310 0.297705 0.986036
Si Si7 0.415240 0.700115 0.261849
Si Si8 0.924634 0.865556 0.403378
O O1 0.750000 0.952330 0.285083
O O2 0.514875 0.904437 0.326782
O O3 0.489149 0.986194 0.282977
O O4 0.561215 0.933181 0.124185
O O5 0.250000 0.374562 0.330989
O O6 0.069908 0.439896 0.358222
O O7 0.020844 0.370174 0.469978
O O8 0.975360 0.371136 0.257364
O O9 0.250000 0.995772 0.401854
O O10 0.000000 0.000000 0.500000
O O11 0.750000 0.116483 0.122694
O O12 0.498637 0.078892 0.083070
O O13 0.517377 0.164502 0.066381
O O14 0.250000 0.040693 0.030964
O O15 0.500000 0.000000 0.000000
O O16 0.750000 0.296386 0.983459
O O17 0.516764 0.250000 0.024077
O O18 0.517679 0.307823 0.861264
O O19 0.250000 0.680826 0.269245
O O20 0.412866 0.750000 0.290163
O O21 0.516878 0.678791 0.354642
O O22 0.750000 0.865928 0.399420
#
# Coordination Sequence:
#
# PCOD8244232 Si02
#       8
#     8   8   8   8   8   8   8   8
#     4  10  21  37  55  79 107 139 181 226 271 320
#     4  10  22  39  55  74 109 151 186 225 273 325
#     4  11  21  35  55  77 105 143 184 228 272 322
#     4  11  22  36  58  85 113 147 191 236 283 339
#     4  11  23  38  57  80 113 150 187 232 280 335
#     4   8  16  34  59  85 113 144 179 225 281 336
#     4   9  18  34  57  84 111 137 170 216 269 327
#     4  10  20  36  55  77 107 140 177 220 268 320
#
# _framework density 18.926784999999999
#
# number of rings (size 3 to 8) (size 9 to 14) (size 15 to 20)
#    0.000    2.000    1.250    3.375    0.000    5.250 
#    0.000    1.250    0.000    5.250    0.000    0.000 
#    0.000    0.000    0.000    0.000    0.000    0.000 
#
# Total GULP energy -793667.183939 kJ/mol
# GULP energy per Si atom -12401.049749 kJ/mol
# Density = 1.888371 g / cm^3
# Si number density = 18.926785 Si / 1000 Ang^3
#
#
#
# Elastic Constant Matrix: (Units=GPa)
#
#
# Indices 1 2 3 4 5 6 
#
# 1 63.1925 34.6749 43.8362 0.0000 0.0000 0.0000
# 2 34.6749 96.8283 60.0274 0.0000 0.0000 0.0000
# 3 43.8362 60.0274 129.0212 0.0000 0.0000 0.0000
# 4 0.0000 0.0000 0.0000 34.1225 0.0000 0.0000
# 5 0.0000 0.0000 0.0000 0.0000 30.3942 0.0000
# 6 0.0000 0.0000 0.0000 0.0000 0.0000 27.7564
#
#
#
# Elastic Compliance Matrix: (Units=1/GPa)
#
#
# Indices 1 2 3 4 5 6 
#
# 1 0.022056 -0.004571 -0.005367 0.000000 0.000000 0.000000
# 2 -0.004571 0.015461 -0.005640 0.000000 0.000000 0.000000
# 3 -0.005367 -0.005640 0.012198 0.000000 0.000000 0.000000
# 4 0.000000 0.000000 0.000000 0.029306 0.000000 0.000000
# 5 0.000000 0.000000 0.000000 0.000000 0.032901 0.000000
# 6 0.000000 0.000000 0.000000 0.000000 0.000000 0.036028
#
#
# Mechanical properties :
#
#
# Convention : Reuss Voigt Hill
#
# Bulk Modulus (GPa) = 53.88343 62.90211 58.39277
# Shear Modulus (GPa) = 26.98425 28.48819 27.73622
#
# Velocity S-wave (km/s) = 3.77996 3.88387 3.83227
# Velocity P-wave (km/s) = 6.89797 7.30884 7.10638
#
# Compressibility (1/GPa) = 0.01855858
#
# Stress axis : x y z
#
# Youngs Moduli (GPa) = 45.33911 64.67836 81.97892
#
# Poissons Ratio (x) = 0.29566 0.43998
# Poissons Ratio (y) = 0.20726 0.46238
# Poissons Ratio (z) = 0.24333 0.36480
#
# Static dielectric constant tensor:
#      x y z
#    x 3.384170 0.000000 0.000000 
#    y 0.000000 3.476340 0.000000 
#    z 0.000000 0.000000 3.521980 
# 
# 
# High freq. dielectric constant tensor:
#      x y z
#    x 1.723440 0.000000 0.000000 
#    y 0.000000 1.729430 0.000000 
#    z 0.000000 0.000000 1.743300 
# 
# From -- ./inp_files/15040.got.cif
#   From: 2010.03.12/outbox.cif.g09.slc.cpg/sg59_8_cif.got.tgz:15040.got - 2010.04.16 16:29:54.
