data_PCOD8244745
_publ_section_title
;
Structure prediction by ZEFSAII (Michael W. Deem and Ramdas Pophale) SiO2 
 PCOD8244745
Probable space group: P M M N
;
_chemical_formula_sum "Si O2"
_cell_formula_units_Z 64
_cell_length_a 8.854028
_cell_length_b 22.643614
_cell_length_c 17.696191
_cell_angle_alpha 90.000000
_cell_angle_beta 90.000000
_cell_angle_gamma 90.000000
_cell_volume 3547.859649
_symmetry_space_group_name_H-M "P M M N"
_symmetry_group_IT_number 59
_space_group.IT_coordinate_system_code '2'
_symmetry_cell_setting 'orthorhombic'
loop_
_space_group_symop_operation_xyz
x,y,z
1/2-x,1/2-y,z
1/2+x,-y,-z
-x,1/2+y,-z
-x,-y,-z
1/2+x,1/2+y,-z
1/2-x,y,z
x,1/2-y,z
loop_
_atom_site_type_symbol
_atom_site_label
_atom_site_fract_x
_atom_site_fract_y
_atom_site_fract_z
Si Si1 0.574346 0.587810 0.670678
Si Si2 0.071778 0.636005 0.406859
Si Si3 0.072112 0.014015 0.579561
Si Si4 0.424889 0.042755 0.169498
Si Si5 0.071183 0.083897 0.847671
Si Si6 0.925249 0.816017 0.265170
Si Si7 0.926298 0.562306 0.991493
Si Si8 0.425835 0.681316 0.571450
O O1 0.750000 0.576694 0.651737
O O2 0.470151 0.537400 0.636351
O O3 0.542871 0.586087 0.760357
O O4 0.523015 0.650389 0.636938
O O5 0.250000 0.628243 0.402769
O O6 0.021736 0.658241 0.489490
O O7 0.991814 0.574540 0.387352
O O8 0.016887 0.681682 0.343612
O O9 0.250000 0.018100 0.570235
O O10 0.000000 0.000000 0.500000
O O11 0.250000 0.024780 0.166155
O O12 0.469694 0.081969 0.094352
O O13 0.512118 0.980590 0.176891
O O14 0.250000 0.082010 0.839618
O O15 0.007709 0.136004 0.794048
O O16 0.021781 0.100548 0.935033
O O17 0.750000 0.828715 0.282192
O O18 0.946980 0.750000 0.231648
O O19 0.750000 0.553990 0.998563
O O20 0.000000 0.500000 0.000000
O O21 0.250000 0.667481 0.584142
O O22 0.461276 0.750000 0.576807
#
# Coordination Sequence:
#
# PCOD8244745 Si02
#       8
#     8   8   8   8   8   8   8   8
#     4  11  22  35  53  78 106 138 172 209 257 307
#     4  11  22  37  56  77 101 133 172 215 261 309
#     4  12  23  36  54  78 106 136 169 209 258 309
#     4   9  18  31  49  76 106 132 163 207 257 309
#     4   9  17  30  50  74 100 134 170 205 252 306
#     4  10  21  35  50  72 103 138 177 218 258 306
#     4   8  14  27  47  71 100 129 159 198 244 298
#     4  10  22  39  56  72  94 130 175 219 259 301
#
# _framework density 18.039045000000002
#
# number of rings (size 3 to 8) (size 9 to 14) (size 15 to 20)
#    0.000    2.000    1.250    3.000    0.000    5.000 
#    0.000    0.000    0.000    0.750    0.000    3.500 
#    0.000    0.000    0.000    0.000    0.000    0.000 
#
# Total GULP energy -793151.142073 kJ/mol
# GULP energy per Si atom -12392.986595 kJ/mol
# Density = 1.799799 g / cm^3
# Si number density = 18.039045 Si / 1000 Ang^3
#
#
#
# Elastic Constant Matrix: (Units=GPa)
#
#
# Indices 1 2 3 4 5 6 
#
# 1 52.6384 24.4228 34.9576 0.0000 0.0000 0.0000
# 2 24.4228 84.7851 47.5734 0.0000 0.0000 0.0000
# 3 34.9576 47.5734 140.9631 0.0000 0.0000 0.0000
# 4 0.0000 0.0000 0.0000 20.9508 0.0000 0.0000
# 5 0.0000 0.0000 0.0000 0.0000 22.1529 0.0000
# 6 0.0000 0.0000 0.0000 0.0000 0.0000 23.5852
#
#
#
# Elastic Compliance Matrix: (Units=1/GPa)
#
#
# Indices 1 2 3 4 5 6 
#
# 1 0.024010 -0.004410 -0.004466 0.000000 0.000000 0.000000
# 2 -0.004410 0.015360 -0.004090 0.000000 0.000000 0.000000
# 3 -0.004466 -0.004090 0.009582 0.000000 0.000000 0.000000
# 4 0.000000 0.000000 0.000000 0.047731 0.000000 0.000000
# 5 0.000000 0.000000 0.000000 0.000000 0.045141 0.000000
# 6 0.000000 0.000000 0.000000 0.000000 0.000000 0.042399
#
#
# Mechanical properties :
#
#
# Convention : Reuss Voigt Hill
#
# Bulk Modulus (GPa) = 43.44224 54.69936 49.07080
# Shear Modulus (GPa) = 22.95392 24.76664 23.86028
#
# Velocity S-wave (km/s) = 3.57102 3.70935 3.64084
# Velocity P-wave (km/s) = 6.41386 6.98099 6.70343
#
# Compressibility (1/GPa) = 0.02301907
#
# Stress axis : x y z
#
# Youngs Moduli (GPa) = 41.65009 65.10456 104.36383
#
# Poissons Ratio (x) = 0.28713 0.46606
# Poissons Ratio (y) = 0.18369 0.42685
# Poissons Ratio (z) = 0.18600 0.26628
#
# Static dielectric constant tensor:
#      x y z
#    x 1.520700 0.000000 0.000000 
#    y 0.000000 3.192860 0.000000 
#    z 0.000000 0.000000 4.766590 
# 
# 
# High freq. dielectric constant tensor:
#      x y z
#    x 1.698760 0.000000 0.000000 
#    y 0.000000 1.670430 0.000000 
#    z 0.000000 0.000000 1.712310 
# 
# From -- ./inp_files/26275.got.cif
#   From: 2010.03.12/outbox.cif.g09.slc.cpg/sg59_14_cif.got.tgz:26275.got - 2010.04.16 16:29:54.
