data_PCOD8244838
_publ_section_title
;
Structure prediction by ZEFSAII (Michael W. Deem and Ramdas Pophale) SiO2 
 PCOD8244838
Probable space group: P M M N
;
_chemical_formula_sum "Si O2"
_cell_formula_units_Z 64
_cell_length_a 22.501585
_cell_length_b 9.310057
_cell_length_c 16.627545
_cell_angle_alpha 90.000000
_cell_angle_beta 90.000000
_cell_angle_gamma 90.000000
_cell_volume 3483.321677
_symmetry_space_group_name_H-M "P M M N"
_symmetry_group_IT_number 59
_space_group.IT_coordinate_system_code '2'
_symmetry_cell_setting 'orthorhombic'
loop_
_space_group_symop_operation_xyz
x,y,z
1/2-x,1/2-y,z
1/2+x,-y,-z
-x,1/2+y,-z
-x,-y,-z
1/2+x,1/2+y,-z
1/2-x,y,z
x,1/2-y,z
loop_
_atom_site_type_symbol
_atom_site_label
_atom_site_fract_x
_atom_site_fract_y
_atom_site_fract_z
Si Si1 0.927860 0.417579 0.721237
Si Si2 0.815788 0.421134 0.146187
Si Si3 0.354196 0.412879 0.544877
Si Si4 0.581496 0.082406 0.034535
Si Si5 0.012173 0.411647 0.578421
Si Si6 0.318879 0.916692 0.388884
Si Si7 0.683301 0.404521 0.316733
Si Si8 0.458602 0.082031 0.116748
O O1 0.937613 0.250000 0.741263
O O2 0.860263 0.444125 0.689281
O O3 0.939502 0.510708 0.799705
O O4 0.976046 0.471431 0.654956
O O5 0.750000 0.484921 0.129128
O O6 0.815187 0.250000 0.144660
O O7 0.859520 0.476977 0.077316
O O8 0.843552 0.468963 0.233529
O O9 0.334397 0.250000 0.528843
O O10 0.417391 0.420943 0.590222
O O11 0.349251 0.494795 0.460681
O O12 0.312092 0.486731 0.609461
O O13 0.584246 0.250000 0.010983
O O14 0.527522 0.054216 0.096405
O O15 0.579057 0.990158 0.953888
O O16 0.990396 0.250000 0.562439
O O17 0.000000 0.500000 0.500000
O O18 0.250000 0.963917 0.372737
O O19 0.320788 0.750000 0.413501
O O20 0.750000 0.370860 0.289997
O O21 0.653326 0.250000 0.341408
O O22 0.443619 0.250000 0.121545
#
# Coordination Sequence:
#
# PCOD8244838 Si02
#       8
#     8   8   8   8   8   8   8   8
#     4  10  21  38  57  78 106 138 174 220 266 307
#     4   8  15  30  53  79 104 133 174 219 257 301
#     4  11  22  33  49  77 108 139 175 215 264 317
#     4   9  18  35  57  81 107 137 172 211 260 314
#     4  10  21  36  53  76 105 138 174 213 262 313
#     4  10  21  38  59  78  99 137 187 228 263 308
#     4   9  18  32  50  73 103 140 179 214 250 300
#     4  10  21  35  55  83 109 136 172 214 261 319
#
# _framework density 18.373266000000001
#
# number of rings (size 3 to 8) (size 9 to 14) (size 15 to 20)
#    0.000    2.375    1.250    1.875    1.750    4.000 
#    0.000    1.250    0.000    4.875    0.000    0.000 
#    0.000    0.000    0.000    0.000    0.000    0.000 
#
# Total GULP energy -793097.497858 kJ/mol
# GULP energy per Si atom -12392.148404 kJ/mol
# Density = 1.833145 g / cm^3
# Si number density = 18.373266 Si / 1000 Ang^3
#
#
#
# Elastic Constant Matrix: (Units=GPa)
#
#
# Indices 1 2 3 4 5 6 
#
# 1 79.3182 34.9196 55.9293 0.0000 0.0000 0.0000
# 2 34.9196 81.1829 70.6672 0.0000 0.0000 0.0000
# 3 55.9293 70.6672 152.5821 0.0000 0.0000 0.0000
# 4 0.0000 0.0000 0.0000 30.8606 0.0000 0.0000
# 5 0.0000 0.0000 0.0000 0.0000 27.4463 0.0000
# 6 0.0000 0.0000 0.0000 0.0000 0.0000 19.9184
#
#
#
# Elastic Compliance Matrix: (Units=1/GPa)
#
#
# Indices 1 2 3 4 5 6 
#
# 1 0.017501 -0.003257 -0.004907 0.000000 0.000000 0.000000
# 2 -0.003257 0.021244 -0.008645 0.000000 0.000000 0.000000
# 3 -0.004907 -0.008645 0.012356 0.000000 0.000000 0.000000
# 4 0.000000 0.000000 0.000000 0.032404 0.000000 0.000000
# 5 0.000000 0.000000 0.000000 0.000000 0.036435 0.000000
# 6 0.000000 0.000000 0.000000 0.000000 0.000000 0.050205
#
#
# Mechanical properties :
#
#
# Convention : Reuss Voigt Hill
#
# Bulk Modulus (GPa) = 57.19451 70.67948 63.93699
# Shear Modulus (GPa) = 23.85605 25.74955 24.80280
#
# Velocity S-wave (km/s) = 3.60726 3.74768 3.67814
# Velocity P-wave (km/s) = 6.96753 7.56829 7.27411
#
# Compressibility (1/GPa) = 0.01748420
#
# Stress axis : x y z
#
# Youngs Moduli (GPa) = 57.13945 47.07182 80.92938
#
# Poissons Ratio (x) = 0.15329 0.39710
# Poissons Ratio (y) = 0.18608 0.69966
# Poissons Ratio (z) = 0.28037 0.40695
#
# Static dielectric constant tensor:
#      x y z
#    x 3.793040 0.000000 0.000000 
#    y 0.000000 3.227790 0.000000 
#    z 0.000000 0.000000 3.295600 
# 
# 
# High freq. dielectric constant tensor:
#      x y z
#    x 1.710830 0.000000 0.000000 
#    y 0.000000 1.698640 0.000000 
#    z 0.000000 0.000000 1.709110 
# 
# From -- ./inp_files/24667.got.cif
#   From: 2010.03.12/outbox.cif.g09.slc.cpg/sg59_13_cif.got.tgz:24667.got - 2010.04.16 16:29:54.
