data_PCOD8244783
_publ_section_title
;
Structure prediction by ZEFSAII (Michael W. Deem and Ramdas Pophale) SiO2 
 PCOD8244783
Probable space group: P M M N
;
_chemical_formula_sum "Si O2"
_cell_formula_units_Z 64
_cell_length_a 20.395026
_cell_length_b 9.004158
_cell_length_c 18.473978
_cell_angle_alpha 90.000000
_cell_angle_beta 90.000000
_cell_angle_gamma 90.000000
_cell_volume 3392.561995
_symmetry_space_group_name_H-M "P M M N"
_symmetry_group_IT_number 59
_space_group.IT_coordinate_system_code '2'
_symmetry_cell_setting 'orthorhombic'
loop_
_space_group_symop_operation_xyz
x,y,z
1/2-x,1/2-y,z
1/2+x,-y,-z
-x,1/2+y,-z
-x,-y,-z
1/2+x,1/2+y,-z
1/2-x,y,z
x,1/2-y,z
loop_
_atom_site_type_symbol
_atom_site_label
_atom_site_fract_x
_atom_site_fract_y
_atom_site_fract_z
Si Si1 0.325326 0.578781 0.952847
Si Si2 0.061776 0.424675 0.037018
Si Si3 0.825244 0.079006 0.214516
Si Si4 0.822797 0.926475 0.700458
Si Si5 0.441348 0.425619 0.203462
Si Si6 0.941727 0.924895 0.286816
Si Si7 0.178002 0.073629 0.461646
Si Si8 0.054784 0.074307 0.548029
O O1 0.250000 0.544599 0.972613
O O2 0.342173 0.750000 0.968864
O O3 0.338844 0.542512 0.869210
O O4 0.370535 0.474303 0.000982
O O5 0.053974 0.250000 0.028258
O O6 0.064337 0.472953 0.120409
O O7 0.000000 0.500000 0.000000
O O8 0.750000 0.045871 0.234044
O O9 0.842672 0.250000 0.230301
O O10 0.868994 0.973181 0.264037
O O11 0.750000 0.983298 0.723121
O O12 0.823602 0.750000 0.703093
O O13 0.877367 0.990110 0.755211
O O14 0.839668 0.982503 0.619367
O O15 0.446999 0.250000 0.212859
O O16 0.506429 0.496487 0.235540
O O17 0.948379 0.750000 0.278110
O O18 0.953716 0.975468 0.369265
O O19 0.250000 0.013210 0.484220
O O20 0.179241 0.250000 0.460989
O O21 0.124863 0.014823 0.518867
O O22 0.049527 0.250000 0.539240
O O23 0.000000 0.000000 0.500000
#
# Coordination Sequence:
#
# PCOD8244783 Si02
#       8
#     8   8   8   8   8   8   8   8
#     4   9  19  37  59  81 107 140 177 218 266 321
#     4  11  23  36  53  78 106 139 180 224 270 321
#     4   9  19  37  59  80 104 139 181 218 257 315
#     4   8  14  27  50  77  99 123 163 211 252 296
#     4  10  21  36  54  75 102 139 177 215 263 318
#     4  11  23  35  51  79 110 139 176 223 270 314
#     4   8  14  27  49  74  98 127 163 201 244 296
#     4  10  21  35  52  76 105 138 175 215 259 309
#
# _framework density 18.864799000000001
#
# number of rings (size 3 to 8) (size 9 to 14) (size 15 to 20)
#    0.000    2.500    0.000    3.750    0.000    8.000 
#    0.000    3.750    0.000    0.750    0.000    3.500 
#    0.000    0.000    0.000    0.000    0.000    0.000 
#
# Total GULP energy -793580.767571 kJ/mol
# GULP energy per Si atom -12399.699493 kJ/mol
# Density = 1.882186 g / cm^3
# Si number density = 18.864799 Si / 1000 Ang^3
#
#
#
# Elastic Constant Matrix: (Units=GPa)
#
#
# Indices 1 2 3 4 5 6 
#
# 1 118.1685 29.2975 60.5746 0.0000 0.0000 0.0000
# 2 29.2975 27.8956 37.6983 0.0000 0.0000 0.0000
# 3 60.5746 37.6983 109.4998 0.0000 0.0000 0.0000
# 4 0.0000 0.0000 0.0000 21.0044 0.0000 0.0000
# 5 0.0000 0.0000 0.0000 0.0000 42.6863 0.0000
# 6 0.0000 0.0000 0.0000 0.0000 0.0000 28.5720
#
#
#
# Elastic Compliance Matrix: (Units=1/GPa)
#
#
# Indices 1 2 3 4 5 6 
#
# 1 0.012519 -0.007086 -0.004486 0.000000 0.000000 0.000000
# 2 -0.007086 0.071049 -0.020541 0.000000 0.000000 0.000000
# 3 -0.004486 -0.020541 0.018686 0.000000 0.000000 0.000000
# 4 0.000000 0.000000 0.000000 0.047609 0.000000 0.000000
# 5 0.000000 0.000000 0.000000 0.000000 0.023427 0.000000
# 6 0.000000 0.000000 0.000000 0.000000 0.000000 0.034999
#
#
# Mechanical properties :
#
#
# Convention : Reuss Voigt Hill
#
# Bulk Modulus (GPa) = 26.29603 56.74497 41.52050
# Shear Modulus (GPa) = 17.53225 26.98543 22.25884
#
# Velocity S-wave (km/s) = 3.05185 3.78625 3.43871
# Velocity P-wave (km/s) = 5.13691 7.01850 6.15009
#
# Compressibility (1/GPa) = 0.03802856
#
# Stress axis : x y z
#
# Youngs Moduli (GPa) = 79.88017 14.07488 53.51692
#
# Poissons Ratio (x) = 0.09973 0.24007
# Poissons Ratio (y) = 0.56601 1.09927
# Poissons Ratio (z) = 0.35833 0.28911
#
# Static dielectric constant tensor:
#      x y z
#    x 3.809910 0.000000 0.000000 
#    y 0.000000 3.134840 0.000000 
#    z 0.000000 0.000000 3.603350 
# 
# 
# High freq. dielectric constant tensor:
#      x y z
#    x 1.750020 0.000000 0.000000 
#    y 0.000000 1.701370 0.000000 
#    z 0.000000 0.000000 1.736600 
# 
# From -- ./inp_files/28210.got.cif
#   From: 2010.03.12/outbox.cif.g09.slc.cpg/sg59_15_cif.got.tgz:28210.got - 2010.04.16 16:29:54.
