data_PCOD8244973
_publ_section_title
;
Structure prediction by ZEFSAII (Michael W. Deem and Ramdas Pophale) SiO2 
 PCOD8244973
Probable space group: P M M N
;
_chemical_formula_sum "Si O2"
_cell_formula_units_Z 56
_cell_length_a 9.116710
_cell_length_b 14.456131
_cell_length_c 22.366172
_cell_angle_alpha 90.000000
_cell_angle_beta 90.000000
_cell_angle_gamma 90.000000
_cell_volume 2947.690459
_symmetry_space_group_name_H-M "P M M N"
_symmetry_group_IT_number 59
_space_group.IT_coordinate_system_code '2'
_symmetry_cell_setting 'orthorhombic'
loop_
_space_group_symop_operation_xyz
x,y,z
1/2-x,1/2-y,z
1/2+x,-y,-z
-x,1/2+y,-z
-x,-y,-z
1/2+x,1/2+y,-z
1/2-x,y,z
x,1/2-y,z
loop_
_atom_site_type_symbol
_atom_site_label
_atom_site_fract_x
_atom_site_fract_y
_atom_site_fract_z
Si Si1 0.081072 0.358815 0.111249
Si Si2 0.077620 0.552334 0.660238
Si Si3 0.424371 0.949155 0.444995
Si Si4 0.415185 0.860071 0.005160
Si Si5 0.422182 0.750000 0.483870
Si Si6 0.080817 0.145633 0.878386
Si Si7 0.918963 0.020688 0.204031
Si Si8 0.923374 0.250000 0.383074
O O1 0.250000 0.385161 0.104984
O O2 0.056409 0.250000 0.117333
O O3 0.999804 0.399084 0.052634
O O4 0.016459 0.404156 0.170555
O O5 0.250000 0.541407 0.645908
O O6 0.037951 0.520397 0.726751
O O7 0.024880 0.658398 0.652017
O O8 0.985345 0.487049 0.616988
O O9 0.250000 0.963358 0.448977
O O10 0.469839 0.841147 0.447716
O O11 0.500000 0.000000 0.500000
O O12 0.250000 0.897728 0.002998
O O13 0.421617 0.750000 0.004515
O O14 0.490690 0.895697 0.065809
O O15 0.250000 0.750000 0.493429
O O16 0.493368 0.750000 0.550361
O O17 0.250000 0.144055 0.897503
O O18 0.031026 0.250000 0.861992
O O19 0.049981 0.082064 0.820957
O O20 0.750000 0.049377 0.195189
O O21 0.750000 0.250000 0.387192
#
# Coordination Sequence:
#
# PCOD8244973 Si02
#       8
#     8   8   8   8   4   8   8   4
#     4  10  21  36  54  79 113 147 179 225 282 332
#     4  10  21  38  58  84 114 149 188 226 271 327
#     4  11  21  37  60  85 116 150 187 232 277 327
#     4   9  17  31  54  82 107 136 181 232 278 331
#     4   9  18  34  58  84 114 150 183 218 277 336
#     4   9  18  35  56  77 106 143 181 228 284 332
#     4  10  22  37  56  81 109 146 190 226 268 331
#     4   9  16  32  58  82 112 150 179 212 269 334
#
# _framework density 18.997923
#
# number of rings (size 3 to 8) (size 9 to 14) (size 15 to 20)
#    0.000    2.286    1.429    1.286    1.000    4.286 
#    1.286    2.500    0.000    0.000    0.000    0.000 
#    0.000    0.000    0.000    0.000    0.000    0.000 
#
# Total GULP energy -694480.022844 kJ/mol
# GULP energy per Si atom -12401.428979 kJ/mol
# Density = 1.895468 g / cm^3
# Si number density = 18.997923 Si / 1000 Ang^3
#
#
#
# Elastic Constant Matrix: (Units=GPa)
#
#
# Indices 1 2 3 4 5 6 
#
# 1 92.6389 55.8393 70.9771 0.0000 0.0000 0.0000
# 2 55.8393 110.7996 76.3448 0.0000 0.0000 0.0000
# 3 70.9771 76.3448 164.6674 0.0000 0.0000 0.0000
# 4 0.0000 0.0000 0.0000 29.9340 0.0000 0.0000
# 5 0.0000 0.0000 0.0000 0.0000 32.8720 0.0000
# 6 0.0000 0.0000 0.0000 0.0000 0.0000 23.1057
#
#
#
# Elastic Compliance Matrix: (Units=1/GPa)
#
#
# Indices 1 2 3 4 5 6 
#
# 1 0.018158 -0.005522 -0.005266 0.000000 0.000000 0.000000
# 2 -0.005522 0.014941 -0.004547 0.000000 0.000000 0.000000
# 3 -0.005266 -0.004547 0.010451 0.000000 0.000000 0.000000
# 4 0.000000 0.000000 0.000000 0.033407 0.000000 0.000000
# 5 0.000000 0.000000 0.000000 0.000000 0.030421 0.000000
# 6 0.000000 0.000000 0.000000 0.000000 0.000000 0.043279
#
#
# Mechanical properties :
#
#
# Convention : Reuss Voigt Hill
#
# Bulk Modulus (GPa) = 77.64553 86.04759 81.84656
# Shear Modulus (GPa) = 26.93640 28.17868 27.55754
#
# Velocity S-wave (km/s) = 3.76953 3.85548 3.81275
# Velocity P-wave (km/s) = 7.73984 8.07534 7.90937
#
# Compressibility (1/GPa) = 0.01287904
#
# Stress axis : x y z
#
# Youngs Moduli (GPa) = 55.07130 66.92811 95.68481
#
# Poissons Ratio (x) = 0.36960 0.50392
# Poissons Ratio (y) = 0.30412 0.43508
# Poissons Ratio (z) = 0.29003 0.30432
#
# Static dielectric constant tensor:
#      x y z
#    x 3.419530 0.000000 0.000000 
#    y 0.000000 3.627020 0.000000 
#    z 0.000000 0.000000 3.488320 
# 
# 
# High freq. dielectric constant tensor:
#      x y z
#    x 1.725670 0.000000 0.000000 
#    y 0.000000 1.743730 0.000000 
#    z 0.000000 0.000000 1.734520 
# 
# From -- ./inp_files/29237.got.cif
#   From: 2010.03.12/outbox.cif.g09.slc.cpg/sg59_15_cif.got.tgz:29237.got - 2010.04.16 16:29:54.
