data_PCOD8244396
_publ_section_title
;
Structure prediction by ZEFSAII (Michael W. Deem and Ramdas Pophale) SiO2 
 PCOD8244396
Probable space group: P M M N
;
_chemical_formula_sum "Si O2"
_cell_formula_units_Z 40
_cell_length_a 8.739764
_cell_length_b 24.315615
_cell_length_c 9.668632
_cell_angle_alpha 90.000000
_cell_angle_beta 90.000000
_cell_angle_gamma 90.000000
_cell_volume 2054.707446
_symmetry_space_group_name_H-M "P M M N"
_symmetry_group_IT_number 59
_space_group.IT_coordinate_system_code '2'
_symmetry_cell_setting 'orthorhombic'
loop_
_space_group_symop_operation_xyz
x,y,z
1/2-x,1/2-y,z
1/2+x,-y,-z
-x,1/2+y,-z
-x,-y,-z
1/2+x,1/2+y,-z
1/2-x,y,z
x,1/2-y,z
loop_
_atom_site_type_symbol
_atom_site_label
_atom_site_fract_x
_atom_site_fract_y
_atom_site_fract_z
Si Si1 0.569150 0.750000 0.285675
Si Si2 0.930273 0.028380 0.131127
Si Si3 0.933058 0.750000 0.968462
Si Si4 0.929675 0.538508 0.389705
Si Si5 0.068179 0.155368 0.511465
Si Si6 0.432397 0.848717 0.790552
O O1 0.750000 0.750000 0.275991
O O2 0.510862 0.801610 0.374234
O O3 0.506806 0.750000 0.127950
O O4 0.750000 0.031174 0.117130
O O5 0.990131 0.090285 0.163592
O O6 0.986190 0.985018 0.244936
O O7 0.000000 0.000000 0.000000
O O8 0.750000 0.750000 0.959757
O O9 0.996118 0.695286 0.895431
O O10 0.750000 0.536270 0.401443
O O11 0.989409 0.599340 0.418932
O O12 0.000000 0.500000 0.500000
O O13 0.250000 0.158284 0.487250
O O14 0.988113 0.164947 0.364204
O O15 0.250000 0.844305 0.794723
#
# Coordination Sequence:
#
# PCOD8244396 Si02
#       6
#     4   8   4   8   8   8
#     4   9  21  39  60  88 114 143 192 249 294 338
#     4  10  23  39  58  87 124 161 198 242 294 351
#     4  11  24  41  64  88 116 157 200 245 296 354
#     4  10  20  36  59  87 119 154 193 240 289 346
#     4  10  20  37  63  89 115 152 200 245 290 352
#     4  11  23  41  61  87 123 159 196 244 297 353
#
# _framework density 19.467493000000001
#
# number of rings (size 3 to 8) (size 9 to 14) (size 15 to 20)
#    0.000    1.800    2.000    1.500    2.800    3.200 
#    0.000    2.000    0.000    0.000    0.000    0.000 
#    0.000    0.000    0.000    0.000    0.000    0.000 
#
# Total GULP energy -495812.395717 kJ/mol
# GULP energy per Si atom -12395.309893 kJ/mol
# Density = 1.942318 g / cm^3
# Si number density = 19.467493 Si / 1000 Ang^3
#
#
#
# Elastic Constant Matrix: (Units=GPa)
#
#
# Indices 1 2 3 4 5 6 
#
# 1 29.9339 33.6254 41.1130 0.0000 0.0000 0.0000
# 2 33.6254 179.8305 107.3540 0.0000 0.0000 0.0000
# 3 41.1130 107.3540 205.4302 0.0000 0.0000 0.0000
# 4 0.0000 0.0000 0.0000 44.1105 0.0000 0.0000
# 5 0.0000 0.0000 0.0000 0.0000 29.3152 0.0000
# 6 0.0000 0.0000 0.0000 0.0000 0.0000 26.4166
#
#
#
# Elastic Compliance Matrix: (Units=1/GPa)
#
#
# Indices 1 2 3 4 5 6 
#
# 1 0.048746 -0.004783 -0.007256 0.000000 0.000000 0.000000
# 2 -0.004783 0.008551 -0.003512 0.000000 0.000000 0.000000
# 3 -0.007256 -0.003512 0.008155 0.000000 0.000000 0.000000
# 4 0.000000 0.000000 0.000000 0.022670 0.000000 0.000000
# 5 0.000000 0.000000 0.000000 0.000000 0.034112 0.000000
# 6 0.000000 0.000000 0.000000 0.000000 0.000000 0.037855
#
#
# Mechanical properties :
#
#
# Convention : Reuss Voigt Hill
#
# Bulk Modulus (GPa) = 29.11125 86.59771 57.85448
# Shear Modulus (GPa) = 24.67416 35.50862 30.09139
#
# Velocity S-wave (km/s) = 3.56399 4.27546 3.93584
# Velocity P-wave (km/s) = 5.64998 8.30377 7.10193
#
# Compressibility (1/GPa) = 0.03435098
#
# Stress axis : x y z
#
# Youngs Moduli (GPa) = 20.51462 116.93875 122.62280
#
# Poissons Ratio (x) = 0.55932 0.88975
# Poissons Ratio (y) = 0.09812 0.43060
# Poissons Ratio (z) = 0.14885 0.41064
#
# Static dielectric constant tensor:
#      x y z
#    x 3.354030 0.000000 0.000000 
#    y 0.000000 3.507270 0.000000 
#    z 0.000000 0.000000 3.776090 
# 
# 
# High freq. dielectric constant tensor:
#      x y z
#    x 1.740720 0.000000 0.000000 
#    y 0.000000 1.779240 0.000000 
#    z 0.000000 0.000000 1.773500 
# 
# From -- ./inp_files/5939.got.cif
#   From: 2010.03.12/outbox.cif.g09.slc.cpg/sg59_3_cif.got.tgz:5939.got - 2010.04.16 16:29:54.
