data_PCOD8244158
_publ_section_title
;
Structure prediction by ZEFSAII (Michael W. Deem and Ramdas Pophale) SiO2 
 PCOD8244158
Probable space group: P M M N
;
_chemical_formula_sum "Si O2"
_cell_formula_units_Z 56
_cell_length_a 14.087762
_cell_length_b 8.802717
_cell_length_c 21.942095
_cell_angle_alpha 90.000000
_cell_angle_beta 90.000000
_cell_angle_gamma 90.000000
_cell_volume 2721.051972
_symmetry_space_group_name_H-M "P M M N"
_symmetry_group_IT_number 59
_space_group.IT_coordinate_system_code '2'
_symmetry_cell_setting 'orthorhombic'
loop_
_space_group_symop_operation_xyz
x,y,z
1/2-x,1/2-y,z
1/2+x,-y,-z
-x,1/2+y,-z
-x,-y,-z
1/2+x,1/2+y,-z
1/2-x,y,z
x,1/2-y,z
loop_
_atom_site_type_symbol
_atom_site_label
_atom_site_fract_x
_atom_site_fract_y
_atom_site_fract_z
Si Si1 0.515787 0.926272 0.434851
Si Si2 0.554305 0.576069 0.211872
Si Si3 0.855425 0.919699 0.629975
Si Si4 0.641805 0.572759 0.974369
Si Si5 0.049663 0.572528 0.911235
Si Si6 0.859632 0.070930 0.332515
Si Si7 0.351513 0.580601 0.247548
O O1 0.539796 0.750000 0.442214
O O2 0.500000 0.000000 0.500000
O O3 0.416778 0.949960 0.400875
O O4 0.598916 0.003031 0.395161
O O5 0.587310 0.750000 0.216274
O O6 0.592628 0.503056 0.149915
O O7 0.588333 0.493664 0.273024
O O8 0.440580 0.557721 0.203652
O O9 0.750000 0.928484 0.602220
O O10 0.897747 0.750000 0.619558
O O11 0.854468 0.951669 0.701425
O O12 0.750000 0.534152 0.952249
O O13 0.632638 0.750000 0.990156
O O14 0.618914 0.479674 0.035096
O O15 0.561289 0.528377 0.924320
O O16 0.059940 0.750000 0.902349
O O17 0.750000 0.025017 0.329009
O O18 0.874734 0.250000 0.333666
O O19 0.250000 0.563866 0.212195
O O20 0.357896 0.750000 0.277085
#
# Coordination Sequence:
#
# PCOD8244158 Si02
#       7
#     8   8   8   8   8   8   8
#     4  12  25  42  65  91 121 159 200 249 302 360
#     4  11  22  37  60  89 123 164 203 246 299 360
#     4  10  20  35  58  87 117 150 189 235 289 349
#     4   9  19  38  61  84 115 156 201 250 303 359
#     4  10  21  36  57  87 120 156 200 251 302 358
#     4  11  25  45  67  91 122 160 204 256 309 361
#     4   9  18  33  54  82 115 151 190 234 289 352
#
# _framework density 20.580276000000001
#
# number of rings (size 3 to 8) (size 9 to 14) (size 15 to 20)
#    0.000    1.714    1.429    3.000    0.000    5.143 
#    0.000    0.000    0.000    0.000    0.000    0.000 
#    0.000    0.000    0.000    0.000    0.000    0.000 
#
# Total GULP energy -694068.954720 kJ/mol
# GULP energy per Si atom -12394.088477 kJ/mol
# Density = 2.053343 g / cm^3
# Si number density = 20.580276 Si / 1000 Ang^3
#
#
#
# Elastic Constant Matrix: (Units=GPa)
#
#
# Indices 1 2 3 4 5 6 
#
# 1 94.1924 32.3702 18.0672 0.0000 0.0000 0.0000
# 2 32.3702 100.7346 41.5499 0.0000 0.0000 0.0000
# 3 18.0672 41.5499 97.9940 0.0000 0.0000 0.0000
# 4 0.0000 0.0000 0.0000 34.0211 0.0000 0.0000
# 5 0.0000 0.0000 0.0000 0.0000 12.6793 0.0000
# 6 0.0000 0.0000 0.0000 0.0000 0.0000 28.6581
#
#
#
# Elastic Compliance Matrix: (Units=1/GPa)
#
#
# Indices 1 2 3 4 5 6 
#
# 1 0.011974 -0.003560 -0.000698 0.000000 0.000000 0.000000
# 2 -0.003560 0.013089 -0.004894 0.000000 0.000000 0.000000
# 3 -0.000698 -0.004894 0.012408 0.000000 0.000000 0.000000
# 4 0.000000 0.000000 0.000000 0.029393 0.000000 0.000000
# 5 0.000000 0.000000 0.000000 0.000000 0.078868 0.000000
# 6 0.000000 0.000000 0.000000 0.000000 0.000000 0.034894
#
#
# Mechanical properties :
#
#
# Convention : Reuss Voigt Hill
#
# Bulk Modulus (GPa) = 52.16932 52.98841 52.57886
# Shear Modulus (GPa) = 24.35217 28.46730 26.40973
#
# Velocity S-wave (km/s) = 3.44361 3.72322 3.58614
# Velocity P-wave (km/s) = 6.41993 6.65479 6.53841
#
# Compressibility (1/GPa) = 0.01916835
#
# Stress axis : x y z
#
# Youngs Moduli (GPa) = 83.51550 76.39751 80.59061
#
# Poissons Ratio (x) = 0.27195 0.05628
# Poissons Ratio (y) = 0.29729 0.39438
# Poissons Ratio (z) = 0.05832 0.37386
#
# Static dielectric constant tensor:
#      x y z
#    x 4.647310 0.000000 0.000000 
#    y 0.000000 3.804900 0.000000 
#    z 0.000000 0.000000 7.123560 
# 
# 
# High freq. dielectric constant tensor:
#      x y z
#    x 1.811530 0.000000 0.000000 
#    y 0.000000 1.813710 0.000000 
#    z 0.000000 0.000000 1.787240 
# 
# From -- ./inp_files/29060.got.cif
#   From: 2010.03.12/outbox.cif.g09.slc.cpg/sg59_15_cif.got.tgz:29060.got - 2010.04.16 16:29:54.
