data_PCOD8244962
_publ_section_title
;
Structure prediction by ZEFSAII (Michael W. Deem and Ramdas Pophale) SiO2 
 PCOD8244962
Probable space group: P M M N
;
_chemical_formula_sum "Si O2"
_cell_formula_units_Z 48
_cell_length_a 18.584526
_cell_length_b 8.914599
_cell_length_c 15.352699
_cell_angle_alpha 90.000000
_cell_angle_beta 90.000000
_cell_angle_gamma 90.000000
_cell_volume 2543.536865
_symmetry_space_group_name_H-M "P M M N"
_symmetry_group_IT_number 59
_space_group.IT_coordinate_system_code '2'
_symmetry_cell_setting 'orthorhombic'
loop_
_space_group_symop_operation_xyz
x,y,z
1/2-x,1/2-y,z
1/2+x,-y,-z
-x,1/2+y,-z
-x,-y,-z
1/2+x,1/2+y,-z
1/2-x,y,z
x,1/2-y,z
loop_
_atom_site_type_symbol
_atom_site_label
_atom_site_fract_x
_atom_site_fract_y
_atom_site_fract_z
Si Si1 0.332086 0.573216 0.406682
Si Si2 0.670482 0.572077 0.908980
Si Si3 0.080860 0.425444 0.253528
Si Si4 0.167433 0.074533 0.585973
Si Si5 0.165390 0.077807 0.896708
Si Si6 0.086576 0.924292 0.742578
O O1 0.250000 0.523300 0.387243
O O2 0.339406 0.750000 0.411938
O O3 0.383625 0.512324 0.332625
O O4 0.358367 0.506482 0.498300
O O5 0.750000 0.507046 0.887620
O O6 0.674587 0.750000 0.908709
O O7 0.614744 0.513170 0.836790
O O8 0.646073 0.522107 0.005611
O O9 0.096699 0.250000 0.265465
O O10 0.997181 0.461851 0.251009
O O11 0.250000 0.034175 0.607487
O O12 0.156476 0.250000 0.572631
O O13 0.118806 0.020475 0.664780
O O14 0.250000 0.062085 0.879202
O O15 0.141520 0.250000 0.881464
O O16 0.122823 0.969088 0.832993
O O17 0.100833 0.750000 0.724428
#
# Coordination Sequence:
#
# PCOD8244962 Si02
#       6
#     8   8   8   8   8   8
#     4  10  21  37  58  84 110 135 169 218 271 315
#     4   8  15  31  56  80 101 133 180 226 260 301
#     4  10  21  36  54  78 109 146 183 214 254 315
#     4  10  21  38  60  81 101 135 182 222 260 315
#     4   9  18  34  56  79 102 135 181 225 265 314
#     4  11  23  35  50  78 113 144 175 217 268 315
#
# _framework density 18.871359999999999
#
# number of rings (size 3 to 8) (size 9 to 14) (size 15 to 20)
#    0.000    2.333    0.000    3.500    0.000    7.667 
#    0.000    0.833    0.000    1.000    0.000    0.000 
#    0.000    0.000    0.000    0.000    0.000    0.000 
#
# Total GULP energy -595290.144224 kJ/mol
# GULP energy per Si atom -12401.878005 kJ/mol
# Density = 1.882841 g / cm^3
# Si number density = 18.871360 Si / 1000 Ang^3
#
#
#
# Elastic Constant Matrix: (Units=GPa)
#
#
# Indices 1 2 3 4 5 6 
#
# 1 89.3699 39.0498 72.3976 0.0000 0.0000 0.0000
# 2 39.0498 48.0326 39.0420 0.0000 0.0000 0.0000
# 3 72.3976 39.0420 151.2388 0.0000 0.0000 0.0000
# 4 0.0000 0.0000 0.0000 23.8064 0.0000 0.0000
# 5 0.0000 0.0000 0.0000 0.0000 -12.5516 0.0000
# 6 0.0000 0.0000 0.0000 0.0000 0.0000 24.7759
#
#
#
# Elastic Compliance Matrix: (Units=1/GPa)
#
#
# Indices 1 2 3 4 5 6 
#
# 1 0.022836 -0.012250 -0.007769 0.000000 0.000000 0.000000
# 2 -0.012250 0.032919 -0.002634 0.000000 0.000000 0.000000
# 3 -0.007769 -0.002634 0.011011 0.000000 0.000000 0.000000
# 4 0.000000 0.000000 0.000000 0.042005 0.000000 0.000000
# 5 0.000000 0.000000 0.000000 0.000000 -0.079671 0.000000
# 6 0.000000 0.000000 0.000000 0.000000 0.000000 0.040362
#
#
# Mechanical properties :
#
#
# Convention : Reuss Voigt Hill
#
# Bulk Modulus (GPa) = 46.59888 65.51334 56.05611
# Shear Modulus (GPa) = 41.00986 16.41628 28.71307
#
# Velocity S-wave (km/s) = 4.66674 2.95261 3.90489
# Velocity P-wave (km/s) = 7.33379 6.81286 7.07812
#
# Compressibility (1/GPa) = 0.02145974
#
# Stress axis : x y z
#
# Youngs Moduli (GPa) = 43.79095 30.37723 90.81817
#
# Poissons Ratio (x) = 0.37213 0.70557
# Poissons Ratio (y) = 0.53645 0.23920
# Poissons Ratio (z) = 0.34021 0.08001
#
# Static dielectric constant tensor:
#      x y z
#    x 3.405870 0.000000 0.000000 
#    y 0.000000 3.308390 0.000000 
#    z 0.000000 0.000000 3.736480 
# 
# 
# High freq. dielectric constant tensor:
#      x y z
#    x 1.728590 0.000000 0.000000 
#    y 0.000000 1.719690 0.000000 
#    z 0.000000 0.000000 1.749180 
# 
# From -- ./inp_files/20326.got.cif
#   From: 2010.03.12/outbox.cif.g09.slc.cpg/sg59_11_cif.got.tgz:20326.got - 2010.04.16 16:29:54.
