data_PCOD8244120
_publ_section_title
;
Structure prediction by ZEFSAII (Michael W. Deem and Ramdas Pophale) SiO2 
 PCOD8244120
Probable space group: P M M N
;
_chemical_formula_sum "Si O2"
_cell_formula_units_Z 64
_cell_length_a 9.000397
_cell_length_b 28.688566
_cell_length_c 12.750767
_cell_angle_alpha 90.000000
_cell_angle_beta 90.000000
_cell_angle_gamma 90.000000
_cell_volume 3292.356209
_symmetry_space_group_name_H-M "P M M N"
_symmetry_group_IT_number 59
_space_group.IT_coordinate_system_code '2'
_symmetry_cell_setting 'orthorhombic'
loop_
_space_group_symop_operation_xyz
x,y,z
1/2-x,1/2-y,z
1/2+x,-y,-z
-x,1/2+y,-z
-x,-y,-z
1/2+x,1/2+y,-z
1/2-x,y,z
x,1/2-y,z
loop_
_atom_site_type_symbol
_atom_site_label
_atom_site_fract_x
_atom_site_fract_y
_atom_site_fract_z
Si Si1 0.921345 0.304509 0.461004
Si Si2 0.573283 0.060601 0.174198
Si Si3 0.076000 0.453811 0.540738
Si Si4 0.074770 0.457452 0.774861
Si Si5 0.575823 0.616153 0.641711
Si Si6 0.926132 0.698810 0.104742
Si Si7 0.586815 0.804455 0.335335
Si Si8 0.425846 0.101607 0.972208
O O1 0.750000 0.317743 0.449734
O O2 0.949408 0.250000 0.443437
O O3 0.016012 0.331378 0.372849
O O4 0.975447 0.322066 0.575302
O O5 0.750000 0.063484 0.177548
O O6 0.506574 0.095065 0.259300
O O7 0.516981 0.075497 0.060565
O O8 0.512438 0.008711 0.197032
O O9 0.250000 0.463763 0.541108
O O10 0.019303 0.442028 0.658917
O O11 0.034075 0.411823 0.463702
O O12 0.000000 0.500000 0.500000
O O13 0.250000 0.460360 0.776007
O O14 0.022201 0.420085 0.861076
O O15 0.750000 0.616777 0.664956
O O16 0.750000 0.702143 0.114764
O O17 0.987788 0.750000 0.067696
O O18 0.984594 0.685536 0.221221
O O19 0.970354 0.656796 0.026719
O O20 0.750000 0.829097 0.348696
O O21 0.611407 0.750000 0.348208
O O22 0.250000 0.095039 0.990756
#
# Coordination Sequence:
#
# PCOD8244120 Si02
#       8
#     8   8   8   8   8   8   8   8
#     4  10  21  36  54  80 116 155 191 230 283 341
#     4  11  22  39  58  77 112 152 189 235 292 347
#     4  10  20  36  58  86 117 148 184 226 283 346
#     4   9  19  35  57  83 113 147 180 229 288 340
#     4  11  23  37  60  87 113 148 193 239 281 338
#     4   8  15  29  52  81 110 142 181 229 281 328
#     4   8  14  27  49  76 106 141 181 223 270 327
#     4  10  20  35  58  83 110 144 192 240 281 337
#
# _framework density 19.438966000000001
#
# number of rings (size 3 to 8) (size 9 to 14) (size 15 to 20)
#    0.000    2.375    1.250    2.250    1.750    1.250 
#    0.000    2.500    0.000    3.375    0.000    0.000 
#    0.000    0.000    0.000    0.000    0.000    0.000 
#
# Total GULP energy -793345.552868 kJ/mol
# GULP energy per Si atom -12396.024264 kJ/mol
# Density = 1.939472 g / cm^3
# Si number density = 19.438966 Si / 1000 Ang^3
#
#
#
# Elastic Constant Matrix: (Units=GPa)
#
#
# Indices 1 2 3 4 5 6 
#
# 1 54.0251 19.6002 22.9135 0.0000 0.0000 0.0000
# 2 19.6002 58.4074 21.2512 0.0000 0.0000 0.0000
# 3 22.9135 21.2512 98.3493 0.0000 0.0000 0.0000
# 4 0.0000 0.0000 0.0000 15.0474 0.0000 0.0000
# 5 0.0000 0.0000 0.0000 0.0000 28.5280 0.0000
# 6 0.0000 0.0000 0.0000 0.0000 0.0000 22.4757
#
#
#
# Elastic Compliance Matrix: (Units=1/GPa)
#
#
# Indices 1 2 3 4 5 6 
#
# 1 0.022372 -0.006090 -0.003896 0.000000 0.000000 0.000000
# 2 -0.006090 0.020240 -0.002955 0.000000 0.000000 0.000000
# 3 -0.003896 -0.002955 0.011714 0.000000 0.000000 0.000000
# 4 0.000000 0.000000 0.000000 0.066457 0.000000 0.000000
# 5 0.000000 0.000000 0.000000 0.000000 0.035053 0.000000
# 6 0.000000 0.000000 0.000000 0.000000 0.000000 0.044492
#
#
# Mechanical properties :
#
#
# Convention : Reuss Voigt Hill
#
# Bulk Modulus (GPa) = 35.15660 37.59016 36.37338
# Shear Modulus (GPa) = 21.21422 23.01134 22.11278
#
# Velocity S-wave (km/s) = 3.30710 3.44433 3.37642
# Velocity P-wave (km/s) = 5.71904 5.93274 5.82687
#
# Compressibility (1/GPa) = 0.02844416
#
# Stress axis : x y z
#
# Youngs Moduli (GPa) = 44.69907 49.40782 85.36772
#
# Poissons Ratio (x) = 0.30088 0.33262
# Poissons Ratio (y) = 0.27221 0.25222
# Poissons Ratio (z) = 0.17416 0.14598
#
# Static dielectric constant tensor:
#      x y z
#    x 3.351040 0.000000 0.000000 
#    y 0.000000 3.675800 0.000000 
#    z 0.000000 0.000000 3.528410 
# 
# 
# High freq. dielectric constant tensor:
#      x y z
#    x 1.725850 0.000000 0.000000 
#    y 0.000000 1.764500 0.000000 
#    z 0.000000 0.000000 1.750840 
# 
# From -- ./inp_files/14957.got.cif
#   From: 2010.03.12/outbox.cif.g09.slc.cpg/sg59_8_cif.got.tgz:14957.got - 2010.04.16 16:29:54.
