data_PCOD8244390
_publ_section_title
;
Structure prediction by ZEFSAII (Michael W. Deem and Ramdas Pophale) SiO2 
 PCOD8244390
Probable space group: P M M N
;
_chemical_formula_sum "Si O2"
_cell_formula_units_Z 64
_cell_length_a 16.225838
_cell_length_b 20.664764
_cell_length_c 8.868896
_cell_angle_alpha 90.000000
_cell_angle_beta 90.000000
_cell_angle_gamma 90.000000
_cell_volume 2973.768437
_symmetry_space_group_name_H-M "P M M N"
_symmetry_group_IT_number 59
_space_group.IT_coordinate_system_code '2'
_symmetry_cell_setting 'orthorhombic'
loop_
_space_group_symop_operation_xyz
x,y,z
1/2-x,1/2-y,z
1/2+x,-y,-z
-x,1/2+y,-z
-x,-y,-z
1/2+x,1/2+y,-z
1/2-x,y,z
x,1/2-y,z
loop_
_atom_site_type_symbol
_atom_site_label
_atom_site_fract_x
_atom_site_fract_y
_atom_site_fract_z
Si Si1 0.159746 0.651092 0.967069
Si Si2 0.093531 0.958300 0.344564
Si Si3 0.343655 0.678560 0.317187
Si Si4 0.344400 0.175002 0.287977
Si Si5 0.481641 0.177579 0.051819
Si Si6 0.437878 0.075940 0.823066
Si Si7 0.161505 0.506411 0.038255
Si Si8 0.843804 0.569186 0.464662
O O1 0.250000 0.675331 0.902136
O O2 0.157224 0.574386 0.953461
O O3 0.152349 0.675059 0.137422
O O4 0.076277 0.675698 0.881807
O O5 0.108427 0.882721 0.391515
O O6 0.003920 0.964783 0.271165
O O7 0.101734 0.006941 0.485351
O O8 0.157004 0.983161 0.217759
O O9 0.250000 0.673018 0.373210
O O10 0.379058 0.750000 0.365835
O O11 0.250000 0.164838 0.228665
O O12 0.359354 0.250000 0.330343
O O13 0.360952 0.132374 0.435379
O O14 0.411747 0.150407 0.166114
O O15 0.455740 0.250000 0.014272
O O16 0.478857 0.140404 0.891705
O O17 0.363938 0.089825 0.707064
O O18 0.410330 0.036742 0.970266
O O19 0.250000 0.473323 0.007405
O O20 0.750000 0.546715 0.472463
#
# Coordination Sequence:
#
# PCOD8244390 Si02
#       8
#     8   8   8   8   8   8   8   8
#     4   9  18  32  55  88 121 153 190 235 295 362
#     4  11  21  36  57  85 116 158 196 242 293 363
#     4   9  16  29  53  83 113 145 188 240 287 343
#     4   9  21  42  65  87 115 160 211 252 298 362
#     4  11  22  37  62  94 124 155 196 251 309 362
#     4  12  24  36  56  89 124 152 193 251 308 358
#     4  10  20  36  59  86 116 152 193 241 299 355
#     4  11  24  41  60  81 115 160 205 252 301 358
#
# _framework density 21.521515999999998
#
# number of rings (size 3 to 8) (size 9 to 14) (size 15 to 20)
#    0.000    1.750    2.500    4.125    1.750    3.250 
#    0.000    0.000    0.000    0.000    0.000    1.750 
#    0.000    7.000    0.000    0.000    0.000    0.000 
#
# Total GULP energy -793068.723704 kJ/mol
# GULP energy per Si atom -12391.698808 kJ/mol
# Density = 2.147253 g / cm^3
# Si number density = 21.521516 Si / 1000 Ang^3
#
#
#
# Elastic Constant Matrix: (Units=GPa)
#
#
# Indices 1 2 3 4 5 6 
#
# 1 99.0422 33.6483 29.2043 0.0000 0.0000 0.0000
# 2 33.6483 98.3463 34.4489 0.0000 0.0000 0.0000
# 3 29.2043 34.4489 58.7147 0.0000 0.0000 0.0000
# 4 0.0000 0.0000 0.0000 12.6628 0.0000 0.0000
# 5 0.0000 0.0000 0.0000 0.0000 18.4111 0.0000
# 6 0.0000 0.0000 0.0000 0.0000 0.0000 27.8224
#
#
#
# Elastic Compliance Matrix: (Units=1/GPa)
#
#
# Indices 1 2 3 4 5 6 
#
# 1 0.012342 -0.002608 -0.004608 0.000000 0.000000 0.000000
# 2 -0.002608 0.013350 -0.006535 0.000000 0.000000 0.000000
# 3 -0.004608 -0.006535 0.023158 0.000000 0.000000 0.000000
# 4 0.000000 0.000000 0.000000 0.078972 0.000000 0.000000
# 5 0.000000 0.000000 0.000000 0.000000 0.054315 0.000000
# 6 0.000000 0.000000 0.000000 0.000000 0.000000 0.035942
#
#
# Mechanical properties :
#
#
# Convention : Reuss Voigt Hill
#
# Bulk Modulus (GPa) = 46.84775 50.07846 48.46310
# Shear Modulus (GPa) = 19.78653 22.36603 21.07628
#
# Velocity S-wave (km/s) = 3.03542 3.22722 3.13279
# Velocity P-wave (km/s) = 5.83954 6.09968 5.97103
#
# Compressibility (1/GPa) = 0.02134574
#
# Stress axis : x y z
#
# Youngs Moduli (GPa) = 81.02607 74.90791 43.18180
#
# Poissons Ratio (x) = 0.19539 0.19899
# Poissons Ratio (y) = 0.21135 0.28220
# Poissons Ratio (z) = 0.37339 0.48953
#
# Static dielectric constant tensor:
#      x y z
#    x 4.243840 0.000000 0.000000 
#    y 0.000000 4.008040 0.000000 
#    z 0.000000 0.000000 3.454840 
# 
# 
# High freq. dielectric constant tensor:
#      x y z
#    x 1.861650 0.000000 0.000000 
#    y 0.000000 1.850390 0.000000 
#    z 0.000000 0.000000 1.789760 
# 
# From -- ./inp_files/9607.got.cif
#   From: 2010.03.12/outbox.cif.g09.slc.cpg/sg59_5_cif.got.tgz:9607.got - 2010.04.16 16:29:54.
