data_PCOD8244663
_publ_section_title
;
Structure prediction by ZEFSAII (Michael W. Deem and Ramdas Pophale) SiO2 
 PCOD8244663
Probable space group: P M M N
;
_chemical_formula_sum "Si O2"
_cell_formula_units_Z 48
_cell_length_a 16.224077
_cell_length_b 8.941151
_cell_length_c 16.223123
_cell_angle_alpha 90.000000
_cell_angle_beta 90.000000
_cell_angle_gamma 90.000000
_cell_volume 2353.357408
_symmetry_space_group_name_H-M "P M M N"
_symmetry_group_IT_number 59
_space_group.IT_coordinate_system_code '2'
_symmetry_cell_setting 'orthorhombic'
loop_
_space_group_symop_operation_xyz
x,y,z
1/2-x,1/2-y,z
1/2+x,-y,-z
-x,1/2+y,-z
-x,-y,-z
1/2+x,1/2+y,-z
1/2-x,y,z
x,1/2-y,z
loop_
_atom_site_type_symbol
_atom_site_label
_atom_site_fract_x
_atom_site_fract_y
_atom_site_fract_z
Si Si1 0.608360 0.919609 0.140222
Si Si2 0.157673 0.079488 0.175228
Si Si3 0.565832 0.428719 0.439063
Si Si4 0.750000 0.422836 0.429442
Si Si5 0.000221 0.578656 0.737667
Si Si6 0.411339 0.573287 0.016064
Si Si7 0.250000 0.413477 0.731152
O O1 0.590445 0.750000 0.112232
O O2 0.671755 0.930072 0.213106
O O3 0.526586 0.989303 0.180355
O O4 0.641656 0.013655 0.062031
O O5 0.250000 0.037313 0.203700
O O6 0.152588 0.250000 0.143219
O O7 0.099377 0.060777 0.256489
O O8 0.131937 0.973910 0.100106
O O9 0.500000 0.500000 0.500000
O O10 0.560541 0.250000 0.444958
O O11 0.660280 0.485524 0.461381
O O12 0.538366 0.484259 0.347687
O O13 0.750000 0.250000 0.448481
O O14 0.750000 0.451028 0.332251
O O15 0.028158 0.750000 0.747024
O O16 0.418722 0.750000 0.014074
O O17 0.500000 0.500000 0.000000
O O18 0.250000 0.250000 0.686722
#
# Coordination Sequence:
#
# PCOD8244663 Si02
#       7
#     8   8   8   4   8   8   4
#     4  11  22  36  56  86 119 155 195 244 304 360
#     4  10  22  40  60  83 117 159 204 254 304 356
#     4  10  22  40  63  93 126 160 201 247 304 367
#     4  10  20  38  64  92 123 160 201 250 307 365
#     4  10  20  38  63  87 113 154 200 246 301 363
#     4  12  24  38  57  83 114 154 203 252 302 356
#     4  10  22  36  56  88 121 152 193 242 299 359
#
# _framework density 20.396391999999999
#
# number of rings (size 3 to 8) (size 9 to 14) (size 15 to 20)
#    0.000    1.500    3.333    2.000    1.167    2.333 
#    1.500    0.000    0.000    0.000    0.000    0.000 
#    0.000    0.000    0.000    0.000    0.000    0.000 
#
# Total GULP energy -594728.115952 kJ/mol
# GULP energy per Si atom -12390.169082 kJ/mol
# Density = 2.034997 g / cm^3
# Si number density = 20.396392 Si / 1000 Ang^3
#
#
#
# Elastic Constant Matrix: (Units=GPa)
#
#
# Indices 1 2 3 4 5 6 
#
# 1 149.1916 34.0894 44.3415 0.0000 0.0000 0.0000
# 2 34.0894 76.7281 23.9205 0.0000 0.0000 0.0000
# 3 44.3415 23.9205 76.3753 0.0000 0.0000 0.0000
# 4 0.0000 0.0000 0.0000 31.1167 0.0000 0.0000
# 5 0.0000 0.0000 0.0000 0.0000 -2.7018 0.0000
# 6 0.0000 0.0000 0.0000 0.0000 0.0000 25.4140
#
#
#
# Elastic Compliance Matrix: (Units=1/GPa)
#
#
# Indices 1 2 3 4 5 6 
#
# 1 0.008507 -0.002482 -0.004161 0.000000 0.000000 0.000000
# 2 -0.002482 0.015168 -0.003309 0.000000 0.000000 0.000000
# 3 -0.004161 -0.003309 0.016546 0.000000 0.000000 0.000000
# 4 0.000000 0.000000 0.000000 0.032137 0.000000 0.000000
# 5 0.000000 0.000000 0.000000 0.000000 -0.370123 0.000000
# 6 0.000000 0.000000 0.000000 0.000000 0.000000 0.039348
#
#
# Mechanical properties :
#
#
# Convention : Reuss Voigt Hill
#
# Bulk Modulus (GPa) = 49.22660 56.33311 52.77985
# Shear Modulus (GPa) = -21.57587 24.09536 1.25975
#
# Velocity S-wave (km/s) = -3.25595 3.44081 0.78675
# Velocity P-wave (km/s) = 3.17055 6.59278 5.17286
#
# Compressibility (1/GPa) = 0.02031422
#
# Stress axis : x y z
#
# Youngs Moduli (GPa) = 117.55351 65.93037 60.43848
#
# Poissons Ratio (x) = 0.16365 0.25151
# Poissons Ratio (y) = 0.29178 0.20001
# Poissons Ratio (z) = 0.48919 0.21819
#
# Static dielectric constant tensor:
#      x y z
#    x 4.031460 0.000000 0.000000 
#    y 0.000000 3.825220 0.000000 
#    z 0.000000 0.000000 3.686140 
# 
# 
# High freq. dielectric constant tensor:
#      x y z
#    x 1.812430 0.000000 0.000000 
#    y 0.000000 1.788690 0.000000 
#    z 0.000000 0.000000 1.777080 
# 
# From -- ./inp_files/27437.got.cif
#   From: 2010.03.12/outbox.cif.g09.slc.cpg/sg59_14_cif.got.tgz:27437.got - 2010.04.16 16:29:54.
