data_PCOD8244682
_publ_section_title
;
Structure prediction by ZEFSAII (Michael W. Deem and Ramdas Pophale) SiO2 
 PCOD8244682
Probable space group: P M M N
;
_chemical_formula_sum "Si O2"
_cell_formula_units_Z 64
_cell_length_a 18.543131
_cell_length_b 9.024824
_cell_length_c 19.689455
_cell_angle_alpha 90.000000
_cell_angle_beta 90.000000
_cell_angle_gamma 90.000000
_cell_volume 3295.000636
_symmetry_space_group_name_H-M "P M M N"
_symmetry_group_IT_number 59
_space_group.IT_coordinate_system_code '2'
_symmetry_cell_setting 'orthorhombic'
loop_
_space_group_symop_operation_xyz
x,y,z
1/2-x,1/2-y,z
1/2+x,-y,-z
-x,1/2+y,-z
-x,-y,-z
1/2+x,1/2+y,-z
1/2-x,y,z
x,1/2-y,z
loop_
_atom_site_type_symbol
_atom_site_label
_atom_site_fract_x
_atom_site_fract_y
_atom_site_fract_z
Si Si1 0.058891 0.577521 0.792662
Si Si2 0.666575 0.076162 0.971656
Si Si3 0.567661 0.419244 0.363460
Si Si4 0.832874 0.079443 0.721481
Si Si5 0.331548 0.425081 0.536743
Si Si6 0.908891 0.921676 0.599125
Si Si7 0.666677 0.578484 0.111125
Si Si8 0.598980 0.575929 0.845643
O O1 0.077560 0.750000 0.801857
O O2 0.054378 0.532392 0.713928
O O3 0.121066 0.479326 0.825607
O O4 0.983014 0.538024 0.826948
O O5 0.750000 0.040467 0.955333
O O6 0.651110 0.250000 0.970298
O O7 0.615615 0.996368 0.917844
O O8 0.644670 0.014401 0.044990
O O9 0.592641 0.250000 0.367079
O O10 0.631031 0.515802 0.395481
O O11 0.494559 0.443817 0.406078
O O12 0.750000 0.059446 0.701057
O O13 0.852958 0.250000 0.734026
O O14 0.880536 0.017390 0.661017
O O15 0.847274 0.991007 0.790275
O O16 0.250000 0.485200 0.533685
O O17 0.333333 0.250000 0.539867
O O18 0.373508 0.481868 0.470043
O O19 0.889136 0.750000 0.612772
O O20 0.750000 0.553428 0.129673
O O21 0.649776 0.750000 0.097218
O O22 0.612816 0.750000 0.849373
#
# Coordination Sequence:
#
# PCOD8244682 Si02
#       8
#     8   8   8   8   8   8   8   8
#     4  10  22  40  60  85 116 151 195 242 290 346
#     4  10  21  38  60  87 120 156 195 241 292 345
#     4  10  21  39  61  85 115 152 197 243 291 350
#     4  11  23  36  54  85 121 155 194 238 286 342
#     4  10  22  38  58  87 119 152 194 242 294 351
#     4  10  20  39  62  84 114 154 196 239 288 347
#     4  10  22  40  62  88 115 149 196 243 291 349
#     4  11  22  38  59  84 118 157 197 240 285 344
#
# _framework density 19.423363999999999
#
# number of rings (size 3 to 8) (size 9 to 14) (size 15 to 20)
#    0.000    1.750    1.250    2.625    0.000    8.250 
#    0.000    2.500    0.000    0.000    0.000    0.000 
#    0.000    0.000    0.000    0.000    0.000    0.000 
#
# Total GULP energy -793975.689734 kJ/mol
# GULP energy per Si atom -12405.870152 kJ/mol
# Density = 1.937916 g / cm^3
# Si number density = 19.423364 Si / 1000 Ang^3
#
#
#
# Elastic Constant Matrix: (Units=GPa)
#
#
# Indices 1 2 3 4 5 6 
#
# 1 97.1593 44.7907 59.1615 0.0000 0.0000 0.0000
# 2 44.7907 75.4773 40.7312 0.0000 0.0000 0.0000
# 3 59.1615 40.7312 95.7957 0.0000 0.0000 0.0000
# 4 0.0000 0.0000 0.0000 36.7706 0.0000 0.0000
# 5 0.0000 0.0000 0.0000 0.0000 39.7535 0.0000
# 6 0.0000 0.0000 0.0000 0.0000 0.0000 31.6650
#
#
#
# Elastic Compliance Matrix: (Units=1/GPa)
#
#
# Indices 1 2 3 4 5 6 
#
# 1 0.018521 -0.006253 -0.008779 0.000000 0.000000 0.000000
# 2 -0.006253 0.019305 -0.004347 0.000000 0.000000 0.000000
# 3 -0.008779 -0.004347 0.017709 0.000000 0.000000 0.000000
# 4 0.000000 0.000000 0.000000 0.027196 0.000000 0.000000
# 5 0.000000 0.000000 0.000000 0.000000 0.025155 0.000000
# 6 0.000000 0.000000 0.000000 0.000000 0.000000 0.031581
#
#
# Mechanical properties :
#
#
# Convention : Reuss Voigt Hill
#
# Bulk Modulus (GPa) = 59.60519 61.97767 60.79143
# Shear Modulus (GPa) = 27.20088 29.88776 28.54432
#
# Velocity S-wave (km/s) = 3.74628 3.92695 3.83768
# Velocity P-wave (km/s) = 7.03326 7.24840 7.14164
#
# Compressibility (1/GPa) = 0.01677706
#
# Stress axis : x y z
#
# Youngs Moduli (GPa) = 53.99279 51.79873 56.46842
#
# Poissons Ratio (x) = 0.32391 0.49576
# Poissons Ratio (y) = 0.33763 0.24545
# Poissons Ratio (z) = 0.47403 0.22515
#
# Static dielectric constant tensor:
#      x y z
#    x 3.562870 0.000000 0.000000 
#    y 0.000000 3.539850 0.000000 
#    z 0.000000 0.000000 3.594230 
# 
# 
# High freq. dielectric constant tensor:
#      x y z
#    x 1.759170 0.000000 0.000000 
#    y 0.000000 1.757890 0.000000 
#    z 0.000000 0.000000 1.762700 
# 
# From -- ./inp_files/28248.got.cif
#   From: 2010.03.12/outbox.cif.g09.slc.cpg/sg59_15_cif.got.tgz:28248.got - 2010.04.16 16:29:54.
