data_PCOD8244532
_publ_section_title
;
Structure prediction by ZEFSAII (Michael W. Deem and Ramdas Pophale) SiO2 
 PCOD8244532
Probable space group: P M M N
;
_chemical_formula_sum "Si O2"
_cell_formula_units_Z 48
_cell_length_a 16.008552
_cell_length_b 8.691592
_cell_length_c 17.962065
_cell_angle_alpha 90.000000
_cell_angle_beta 90.000000
_cell_angle_gamma 90.000000
_cell_volume 2499.238176
_symmetry_space_group_name_H-M "P M M N"
_symmetry_group_IT_number 59
_space_group.IT_coordinate_system_code '2'
_symmetry_cell_setting 'orthorhombic'
loop_
_space_group_symop_operation_xyz
x,y,z
1/2-x,1/2-y,z
1/2+x,-y,-z
-x,1/2+y,-z
-x,-y,-z
1/2+x,1/2+y,-z
1/2-x,y,z
x,1/2-y,z
loop_
_atom_site_type_symbol
_atom_site_label
_atom_site_fract_x
_atom_site_fract_y
_atom_site_fract_z
Si Si1 0.073103 0.427304 0.310704
Si Si2 0.750000 0.933027 0.456652
Si Si3 0.750000 0.931160 0.286959
Si Si4 0.343127 0.925413 0.179236
Si Si5 0.996612 0.070266 0.919054
Si Si6 0.914873 0.430837 0.532066
Si Si7 0.588131 0.070543 0.215108
O O1 0.079727 0.250000 0.335370
O O2 0.143743 0.464377 0.249953
O O3 0.087991 0.536705 0.380476
O O4 0.983756 0.466158 0.274840
O O5 0.750000 0.750000 0.463133
O O6 0.750000 0.991828 0.371635
O O7 0.666462 0.995931 0.494671
O O8 0.750000 0.750000 0.286877
O O9 0.670111 0.989304 0.243589
O O10 0.250000 0.950044 0.148513
O O11 0.358721 0.750000 0.205209
O O12 0.404941 0.968935 0.112502
O O13 0.014637 0.250000 0.923243
O O14 0.065890 0.994608 0.866048
O O15 0.000000 0.000000 0.000000
O O16 0.914009 0.250000 0.516707
O O17 0.000000 0.500000 0.500000
O O18 0.604416 0.250000 0.207051
#
# Coordination Sequence:
#
# PCOD8244532 Si02
#       7
#     8   4   4   8   8   8   8
#     4  10  21  37  59  85 116 153 196 244 295 352
#     4  11  25  43  63  89 122 161 206 257 311 365
#     4  11  23  39  61  87 116 149 194 247 297 349
#     4   9  19  36  58  84 113 150 194 236 288 348
#     4  10  20  37  60  85 119 155 192 240 290 345
#     4  12  25  41  61  87 121 161 204 253 309 365
#     4  10  21  38  61  87 115 155 199 240 291 350
#
# _framework density 19.205852
#
# number of rings (size 3 to 8) (size 9 to 14) (size 15 to 20)
#    0.000    1.667    0.000    4.500    1.167    7.000 
#    1.500    0.000    0.000    0.000    0.000    0.000 
#    0.000    0.000    0.000    0.000    0.000    0.000 
#
# Total GULP energy -595379.989773 kJ/mol
# GULP energy per Si atom -12403.749787 kJ/mol
# Density = 1.916214 g / cm^3
# Si number density = 19.205852 Si / 1000 Ang^3
#
#
#
# Elastic Constant Matrix: (Units=GPa)
#
#
# Indices 1 2 3 4 5 6 
#
# 1 136.4921 41.2562 67.1113 0.0000 0.0000 0.0000
# 2 41.2562 80.7117 45.0053 0.0000 0.0000 0.0000
# 3 67.1113 45.0053 144.3910 0.0000 0.0000 0.0000
# 4 0.0000 0.0000 0.0000 36.7258 0.0000 0.0000
# 5 0.0000 0.0000 0.0000 0.0000 17.6548 0.0000
# 6 0.0000 0.0000 0.0000 0.0000 0.0000 32.9069
#
#
#
# Elastic Compliance Matrix: (Units=1/GPa)
#
#
# Indices 1 2 3 4 5 6 
#
# 1 0.010091 -0.003078 -0.003731 0.000000 0.000000 0.000000
# 2 -0.003078 0.015935 -0.003536 0.000000 0.000000 0.000000
# 3 -0.003731 -0.003536 0.009762 0.000000 0.000000 0.000000
# 4 0.000000 0.000000 0.000000 0.027229 0.000000 0.000000
# 5 0.000000 0.000000 0.000000 0.000000 0.056642 0.000000
# 6 0.000000 0.000000 0.000000 0.000000 0.000000 0.030389
#
#
# Mechanical properties :
#
#
# Convention : Reuss Voigt Hill
#
# Bulk Modulus (GPa) = 66.23365 74.26004 70.24684
# Shear Modulus (GPa) = 28.44626 31.33895 29.89260
#
# Velocity S-wave (km/s) = 3.85271 4.04386 3.94944
# Velocity P-wave (km/s) = 7.37240 7.78158 7.57975
#
# Compressibility (1/GPa) = 0.01509807
#
# Stress axis : x y z
#
# Youngs Moduli (GPa) = 99.09649 62.75570 102.43851
#
# Poissons Ratio (x) = 0.19315 0.38219
# Poissons Ratio (y) = 0.30499 0.36225
# Poissons Ratio (z) = 0.36972 0.22192
#
# Static dielectric constant tensor:
#      x y z
#    x 3.607940 0.000000 0.000000 
#    y 0.000000 3.910700 0.000000 
#    z 0.000000 0.000000 3.525250 
# 
# 
# High freq. dielectric constant tensor:
#      x y z
#    x 1.754510 0.000000 0.000000 
#    y 0.000000 1.760600 0.000000 
#    z 0.000000 0.000000 1.749320 
# 
# From -- ./inp_files/27432.got.cif
#   From: 2010.03.12/outbox.cif.g09.slc.cpg/sg59_14_cif.got.tgz:27432.got - 2010.04.16 16:29:54.
