data_PCOD8244693
_publ_section_title
;
Structure prediction by ZEFSAII (Michael W. Deem and Ramdas Pophale) SiO2 
 PCOD8244693
Probable space group: P M M N
;
_chemical_formula_sum "Si O2"
_cell_formula_units_Z 48
_cell_length_a 14.989271
_cell_length_b 9.060613
_cell_length_c 19.030635
_cell_angle_alpha 90.000000
_cell_angle_beta 90.000000
_cell_angle_gamma 90.000000
_cell_volume 2584.588290
_symmetry_space_group_name_H-M "P M M N"
_symmetry_group_IT_number 59
_space_group.IT_coordinate_system_code '2'
_symmetry_cell_setting 'orthorhombic'
loop_
_space_group_symop_operation_xyz
x,y,z
1/2-x,1/2-y,z
1/2+x,-y,-z
-x,1/2+y,-z
-x,-y,-z
1/2+x,1/2+y,-z
1/2-x,y,z
x,1/2-y,z
loop_
_atom_site_type_symbol
_atom_site_label
_atom_site_fract_x
_atom_site_fract_y
_atom_site_fract_z
Si Si1 0.047564 0.587467 0.296688
Si Si2 0.750000 0.924112 0.402921
Si Si3 0.750000 0.417033 0.258136
Si Si4 0.354397 0.079410 0.183070
Si Si5 0.978954 0.080224 0.928058
Si Si6 0.051887 0.425855 0.563295
Si Si7 0.609425 0.907286 0.188438
O O1 0.088715 0.750000 0.313571
O O2 0.121999 0.482267 0.261575
O O3 0.000030 0.520961 0.366428
O O4 0.973998 0.605960 0.238410
O O5 0.750000 0.750000 0.402449
O O6 0.843403 0.979530 0.438102
O O7 0.750000 0.974437 0.323205
O O8 0.750000 0.250000 0.284301
O O9 0.834304 0.450320 0.209472
O O10 0.250000 0.057705 0.171318
O O11 0.382745 0.250000 0.181570
O O12 0.402709 0.997841 0.118505
O O13 0.949879 0.250000 0.940384
O O14 0.074336 0.069950 0.889854
O O15 0.000000 0.000000 0.000000
O O16 0.048520 0.250000 0.556715
O O17 0.000000 0.500000 0.500000
O O18 0.662373 0.750000 0.193243
#
# Coordination Sequence:
#
# PCOD8244693 Si02
#       7
#     8   4   4   8   8   8   8
#     4   9  18  35  59  82 106 143 187 231 280 331
#     4  10  20  40  62  78 110 157 192 225 288 360
#     4  12  22  30  52  88 114 135 178 237 276 314
#     4  10  21  37  58  84 114 150 191 234 282 340
#     4  10  21  38  60  83 111 149 188 231 284 336
#     4  10  21  38  60  84 114 152 191 235 288 346
#     4   9  18  35  56  77 106 145 181 216 273 339
#
# _framework density 18.571622000000001
#
# number of rings (size 3 to 8) (size 9 to 14) (size 15 to 20)
#    0.000    2.167    1.667    2.750    0.000    6.000 
#    3.000    0.000    0.000    0.000    0.000    0.000 
#    0.000    0.000    0.000    0.000    0.000    0.000 
#
# Total GULP energy -594731.094172 kJ/mol
# GULP energy per Si atom -12390.231129 kJ/mol
# Density = 1.852935 g / cm^3
# Si number density = 18.571622 Si / 1000 Ang^3
#
#
#
# Elastic Constant Matrix: (Units=GPa)
#
#
# Indices 1 2 3 4 5 6 
#
# 1 98.0023 45.1692 48.5036 0.0000 0.0000 0.0000
# 2 45.1692 73.7069 37.8926 0.0000 0.0000 0.0000
# 3 48.5036 37.8926 124.3476 0.0000 0.0000 0.0000
# 4 0.0000 0.0000 0.0000 28.2873 0.0000 0.0000
# 5 0.0000 0.0000 0.0000 0.0000 86.3705 0.0000
# 6 0.0000 0.0000 0.0000 0.0000 0.0000 30.9825
#
#
#
# Elastic Compliance Matrix: (Units=1/GPa)
#
#
# Indices 1 2 3 4 5 6 
#
# 1 0.015570 -0.007612 -0.003754 0.000000 0.000000 0.000000
# 2 -0.007612 0.019809 -0.003067 0.000000 0.000000 0.000000
# 3 -0.003754 -0.003067 0.010441 0.000000 0.000000 0.000000
# 4 0.000000 0.000000 0.000000 0.035351 0.000000 0.000000
# 5 0.000000 0.000000 0.000000 0.000000 0.011578 0.000000
# 6 0.000000 0.000000 0.000000 0.000000 0.000000 0.032276
#
#
# Mechanical properties :
#
#
# Convention : Reuss Voigt Hill
#
# Bulk Modulus (GPa) = 58.98310 62.13194 60.55752
# Shear Modulus (GPa) = 31.33963 40.09415 35.71689
#
# Velocity S-wave (km/s) = 4.11238 4.65143 4.39018
# Velocity P-wave (km/s) = 7.37412 7.89783 7.64046
#
# Compressibility (1/GPa) = 0.01695401
#
# Stress axis : x y z
#
# Youngs Moduli (GPa) = 64.22637 50.48257 95.77762
#
# Poissons Ratio (x) = 0.38426 0.35952
# Poissons Ratio (y) = 0.48888 0.29377
# Poissons Ratio (z) = 0.24109 0.15484
#
# Static dielectric constant tensor:
#      x y z
#    x 3.687430 0.000000 0.000000 
#    y 0.000000 3.319940 0.000000 
#    z 0.000000 0.000000 3.596220 
# 
# 
# High freq. dielectric constant tensor:
#      x y z
#    x 1.715220 0.000000 0.000000 
#    y 0.000000 1.720350 0.000000 
#    z 0.000000 0.000000 1.715420 
# 
# From -- ./inp_files/27433.got.cif
#   From: 2010.03.12/outbox.cif.g09.slc.cpg/sg59_14_cif.got.tgz:27433.got - 2010.04.16 16:29:54.
