data_PCOD8244018
_publ_section_title
;
Structure prediction by ZEFSAII (Michael W. Deem and Ramdas Pophale) SiO2 
 PCOD8244018
Probable space group: P M M N
;
_chemical_formula_sum "Si O2"
_cell_formula_units_Z 56
_cell_length_a 23.022457
_cell_length_b 8.976319
_cell_length_c 14.571177
_cell_angle_alpha 90.000000
_cell_angle_beta 90.000000
_cell_angle_gamma 90.000000
_cell_volume 3011.234533
_symmetry_space_group_name_H-M "P M M N"
_symmetry_group_IT_number 59
_space_group.IT_coordinate_system_code '2'
_symmetry_cell_setting 'orthorhombic'
loop_
_space_group_symop_operation_xyz
x,y,z
1/2-x,1/2-y,z
1/2+x,-y,-z
-x,1/2+y,-z
-x,-y,-z
1/2+x,1/2+y,-z
1/2-x,y,z
x,1/2-y,z
loop_
_atom_site_type_symbol
_atom_site_label
_atom_site_fract_x
_atom_site_fract_y
_atom_site_fract_z
Si Si1 0.996264 0.423816 0.597294
Si Si2 0.182756 0.927097 0.835456
Si Si3 0.576471 0.927107 0.234415
Si Si4 0.815594 0.078614 0.804946
Si Si5 0.484662 0.079950 0.110143
Si Si6 0.092936 0.083210 0.289822
Si Si7 0.885901 0.077843 0.986492
O O1 0.998121 0.250000 0.581376
O O2 0.046317 0.473706 0.669365
O O3 0.000000 0.500000 0.500000
O O4 0.934600 0.471641 0.637414
O O5 0.250000 0.980081 0.828861
O O6 0.179395 0.750000 0.822884
O O7 0.142512 0.009328 0.759338
O O8 0.154142 0.981856 0.930875
O O9 0.575407 0.750000 0.221117
O O10 0.544100 0.001277 0.145789
O O11 0.750000 0.031062 0.819328
O O12 0.822510 0.250000 0.776083
O O13 0.847804 0.044024 0.898673
O O14 0.841802 0.975185 0.725245
O O15 0.498681 0.250000 0.082497
O O16 0.440572 0.073908 0.194338
O O17 0.450596 0.997707 0.024433
O O18 0.093637 0.250000 0.329701
O O19 0.899038 0.250000 0.000231
#
# Coordination Sequence:
#
# PCOD8244018 Si02
#       7
#     8   8   8   8   8   8   8
#     4  10  20  35  57  82 103 123 152 195 249 309
#     4  10  21  36  53  73 100 138 182 221 254 293
#     4  10  21  36  54  77 104 134 167 205 256 312
#     4   9  16  27  45  68  97 135 174 209 246 288
#     4   9  17  30  49  73 101 133 169 211 257 301
#     4   9  17  29  46  71 102 131 160 197 242 292
#     4   9  17  30  48  71 100 135 177 221 258 293
#
# _framework density 18.597024000000001
#
# number of rings (size 3 to 8) (size 9 to 14) (size 15 to 20)
#    0.000    2.571    0.000    2.143    0.000    8.571 
#    0.000    0.000    0.000    3.429    0.000    4.000 
#    0.000    0.000    0.000    0.000    0.000    0.000 
#
# Total GULP energy -694168.201880 kJ/mol
# GULP energy per Si atom -12395.860748 kJ/mol
# Density = 1.855470 g / cm^3
# Si number density = 18.597024 Si / 1000 Ang^3
#
#
#
# Elastic Constant Matrix: (Units=GPa)
#
#
# Indices 1 2 3 4 5 6 
#
# 1 157.6956 43.7733 41.2633 0.0000 0.0000 0.0000
# 2 43.7733 58.5455 30.0604 0.0000 0.0000 0.0000
# 3 41.2633 30.0604 70.6707 0.0000 0.0000 0.0000
# 4 0.0000 0.0000 0.0000 23.4471 0.0000 0.0000
# 5 0.0000 0.0000 0.0000 0.0000 13.6439 0.0000
# 6 0.0000 0.0000 0.0000 0.0000 0.0000 31.8833
#
#
#
# Elastic Compliance Matrix: (Units=1/GPa)
#
#
# Indices 1 2 3 4 5 6 
#
# 1 0.008433 -0.004833 -0.002868 0.000000 0.000000 0.000000
# 2 -0.004833 0.024623 -0.007652 0.000000 0.000000 0.000000
# 3 -0.002868 -0.007652 0.019080 0.000000 0.000000 0.000000
# 4 0.000000 0.000000 0.000000 0.042649 0.000000 0.000000
# 5 0.000000 0.000000 0.000000 0.000000 0.073293 0.000000
# 6 0.000000 0.000000 0.000000 0.000000 0.000000 0.031364
#
#
# Mechanical properties :
#
#
# Convention : Reuss Voigt Hill
#
# Bulk Modulus (GPa) = 46.66341 57.45618 52.05979
# Shear Modulus (GPa) = 21.07113 25.24919 23.16016
#
# Velocity S-wave (km/s) = 3.36971 3.68870 3.53281
# Velocity P-wave (km/s) = 6.34715 7.00745 6.68546
#
# Compressibility (1/GPa) = 0.02143007
#
# Stress axis : x y z
#
# Youngs Moduli (GPa) = 118.57673 40.61264 52.41150
#
# Poissons Ratio (x) = 0.19627 0.15034
# Poissons Ratio (y) = 0.57304 0.40105
# Poissons Ratio (z) = 0.34014 0.31076
#
# Static dielectric constant tensor:
#      x y z
#    x 3.453000 0.000000 0.000000 
#    y 0.000000 3.452780 0.000000 
#    z 0.000000 0.000000 3.199370 
# 
# 
# High freq. dielectric constant tensor:
#      x y z
#    x 1.728870 0.000000 0.000000 
#    y 0.000000 1.721100 0.000000 
#    z 0.000000 0.000000 1.696800 
# 
# From -- ./inp_files/24312.got.cif
#   From: 2010.03.12/outbox.cif.g09.slc.cpg/sg59_13_cif.got.tgz:24312.got - 2010.04.16 16:29:54.
