data_PCOD8244157
_publ_section_title
;
Structure prediction by ZEFSAII (Michael W. Deem and Ramdas Pophale) SiO2 
 PCOD8244157
Probable space group: P M M N
;
_chemical_formula_sum "Si O2"
_cell_formula_units_Z 32
_cell_length_a 19.011724
_cell_length_b 8.727629
_cell_length_c 10.355443
_cell_angle_alpha 90.000000
_cell_angle_beta 90.000000
_cell_angle_gamma 90.000000
_cell_volume 1718.250425
_symmetry_space_group_name_H-M "P M M N"
_symmetry_group_IT_number 59
_space_group.IT_coordinate_system_code '2'
_symmetry_cell_setting 'orthorhombic'
loop_
_space_group_symop_operation_xyz
x,y,z
1/2-x,1/2-y,z
1/2+x,-y,-z
-x,1/2+y,-z
-x,-y,-z
1/2+x,1/2+y,-z
1/2-x,y,z
x,1/2-y,z
loop_
_atom_site_type_symbol
_atom_site_label
_atom_site_fract_x
_atom_site_fract_y
_atom_site_fract_z
Si Si1 0.171672 0.575606 0.005352
Si Si2 0.964571 0.430442 0.624983
Si Si3 0.966685 0.072325 0.126363
Si Si4 0.170309 0.429300 0.273225
O O1 0.250000 0.537247 0.954013
O O2 0.166932 0.750000 0.056908
O O3 0.117783 0.551683 0.887211
O O4 0.151147 0.467279 0.125007
O O5 0.966467 0.250000 0.614471
O O6 0.883555 0.484704 0.632427
O O7 0.000000 0.500000 0.500000
O O8 0.008481 0.482521 0.748792
O O9 0.988314 0.250000 0.138949
O O10 0.000000 0.000000 0.000000
O O11 0.250000 0.483373 0.304462
O O12 0.161524 0.250000 0.294869
#
# Coordination Sequence:
#
# PCOD8244157 Si02
#       4
#     8   8   8   8
#     4   9  18  33  55  84 116 151 192 237 287 344
#     4  12  25  41  60  84 117 158 200 247 295 351
#     4  11  21  35  58  87 118 152 192 241 291 347
#     4  10  20  35  58  87 117 149 190 240 292 350
#
# _framework density 18.623595000000002
#
# number of rings (size 3 to 8) (size 9 to 14) (size 15 to 20)
#    0.000    1.500    2.500    3.750    0.000    2.500 
#    0.000    1.250    0.000    4.500    0.000    0.000 
#    0.000    0.000    0.000    0.000    0.000    0.000 
#
# Total GULP energy -396836.549065 kJ/mol
# GULP energy per Si atom -12401.142158 kJ/mol
# Density = 1.858121 g / cm^3
# Si number density = 18.623595 Si / 1000 Ang^3
#
#
#
# Elastic Constant Matrix: (Units=GPa)
#
#
# Indices 1 2 3 4 5 6 
#
# 1 137.7415 58.4422 69.1110 0.0000 0.0000 0.0000
# 2 58.4422 130.9205 54.1756 0.0000 0.0000 0.0000
# 3 69.1110 54.1756 116.4960 0.0000 0.0000 0.0000
# 4 0.0000 0.0000 0.0000 32.8746 0.0000 0.0000
# 5 0.0000 0.0000 0.0000 0.0000 29.4620 0.0000
# 6 0.0000 0.0000 0.0000 0.0000 0.0000 30.7072
#
#
#
# Elastic Compliance Matrix: (Units=1/GPa)
#
#
# Indices 1 2 3 4 5 6 
#
# 1 0.011087 -0.002758 -0.005295 0.000000 0.000000 0.000000
# 2 -0.002758 0.010145 -0.003081 0.000000 0.000000 0.000000
# 3 -0.005295 -0.003081 0.013158 0.000000 0.000000 0.000000
# 4 0.000000 0.000000 0.000000 0.030419 0.000000 0.000000
# 5 0.000000 0.000000 0.000000 0.000000 0.033942 0.000000
# 6 0.000000 0.000000 0.000000 0.000000 0.000000 0.032566
#
#
# Mechanical properties :
#
#
# Convention : Reuss Voigt Hill
#
# Bulk Modulus (GPa) = 82.50084 83.17952 82.84018
# Shear Modulus (GPa) = 31.72109 32.17072 31.94590
#
# Velocity S-wave (km/s) = 4.13155 4.16073 4.14617
# Velocity P-wave (km/s) = 8.19481 8.23667 8.21577
#
# Compressibility (1/GPa) = 0.01212109
#
# Stress axis : x y z
#
# Youngs Moduli (GPa) = 90.19791 98.57520 75.99982
#
# Poissons Ratio (x) = 0.27189 0.40238
# Poissons Ratio (y) = 0.24878 0.23418
# Poissons Ratio (z) = 0.47755 0.30375
#
# Static dielectric constant tensor:
#      x y z
#    x 4.025450 0.000000 0.000000 
#    y 0.000000 3.550530 0.000000 
#    z 0.000000 0.000000 3.229470 
# 
# 
# High freq. dielectric constant tensor:
#      x y z
#    x 1.745870 0.000000 0.000000 
#    y 0.000000 1.736660 0.000000 
#    z 0.000000 0.000000 1.686530 
# 
# From -- ./inp_files/5340.got.cif
#   From: 2010.03.12/outbox.cif.g09.slc.cpg/sg59_3_cif.got.tgz:5340.got - 2010.04.16 16:29:54.
