data_PCOD8244414
_publ_section_title
;
Structure prediction by ZEFSAII (Michael W. Deem and Ramdas Pophale) SiO2 
 PCOD8244414
Probable space group: P M M N
;
_chemical_formula_sum "Si O2"
_cell_formula_units_Z 64
_cell_length_a 8.981387
_cell_length_b 22.844836
_cell_length_c 16.097809
_cell_angle_alpha 90.000000
_cell_angle_beta 90.000000
_cell_angle_gamma 90.000000
_cell_volume 3302.921295
_symmetry_space_group_name_H-M "P M M N"
_symmetry_group_IT_number 59
_space_group.IT_coordinate_system_code '2'
_symmetry_cell_setting 'orthorhombic'
loop_
_space_group_symop_operation_xyz
x,y,z
1/2-x,1/2-y,z
1/2+x,-y,-z
-x,1/2+y,-z
-x,-y,-z
1/2+x,1/2+y,-z
1/2-x,y,z
x,1/2-y,z
loop_
_atom_site_type_symbol
_atom_site_label
_atom_site_fract_x
_atom_site_fract_y
_atom_site_fract_z
Si Si1 0.576320 0.683454 0.842153
Si Si2 0.588436 0.818300 0.026442
Si Si3 0.578041 0.464623 0.394783
Si Si4 0.926406 0.495728 0.910147
Si Si5 0.927173 0.318355 0.661262
Si Si6 0.922113 0.421606 0.213392
Si Si7 0.424513 0.624467 0.168704
Si Si8 0.574785 0.908899 0.457483
O O1 0.750000 0.676376 0.821073
O O2 0.524837 0.750000 0.830617
O O3 0.474767 0.645703 0.779566
O O4 0.541611 0.659402 0.935264
O O5 0.750000 0.845618 0.051674
O O6 0.608405 0.750000 0.017850
O O7 0.464982 0.831923 0.094430
O O8 0.750000 0.455230 0.418573
O O9 0.544614 0.453067 0.299433
O O10 0.482446 0.418600 0.448642
O O11 0.529882 0.531918 0.408544
O O12 0.750000 0.493754 0.921873
O O13 0.985394 0.439259 0.858072
O O14 0.974616 0.551225 0.857428
O O15 0.000000 0.500000 0.000000
O O16 0.750000 0.322673 0.655931
O O17 0.977092 0.250000 0.660800
O O18 0.990282 0.350449 0.744632
O O19 0.996703 0.352317 0.582935
O O20 0.750000 0.426327 0.188417
O O21 0.250000 0.622923 0.178552
O O22 0.750000 0.897528 0.457810
#
# Coordination Sequence:
#
# PCOD8244414 Si02
#       8
#     8   8   8   8   8   8   8   8
#     4   9  19  36  55  75 103 139 177 219 267 314
#     4   9  18  32  50  72  99 135 177 220 267 313
#     4   9  20  38  59  84 113 143 175 218 274 331
#     4  11  23  37  54  79 113 151 190 235 285 333
#     4  10  21  37  56  79 112 151 185 224 280 340
#     4  11  22  36  56  82 110 140 177 219 267 325
#     4  10  21  35  52  76 105 142 188 230 269 321
#     4  10  20  36  60  86 109 137 178 224 268 322
#
# _framework density 19.376787
#
# number of rings (size 3 to 8) (size 9 to 14) (size 15 to 20)
#    0.000    2.125    0.000    3.750    0.000    6.750 
#    0.000    1.875    0.000    0.750    0.000    0.000 
#    0.000    0.000    0.000    0.000    0.000    0.000 
#
# Total GULP energy -793500.296148 kJ/mol
# GULP energy per Si atom -12398.442127 kJ/mol
# Density = 1.933268 g / cm^3
# Si number density = 19.376787 Si / 1000 Ang^3
#
#
#
# Elastic Constant Matrix: (Units=GPa)
#
#
# Indices 1 2 3 4 5 6 
#
# 1 44.4734 40.9933 38.9179 0.0000 0.0000 0.0000
# 2 40.9933 105.2876 54.2260 0.0000 0.0000 0.0000
# 3 38.9179 54.2260 76.1917 0.0000 0.0000 0.0000
# 4 0.0000 0.0000 0.0000 33.3813 0.0000 0.0000
# 5 0.0000 0.0000 0.0000 0.0000 30.8271 0.0000
# 6 0.0000 0.0000 0.0000 0.0000 0.0000 31.8220
#
#
#
# Elastic Compliance Matrix: (Units=1/GPa)
#
#
# Indices 1 2 3 4 5 6 
#
# 1 0.045570 -0.009084 -0.016812 0.000000 0.000000 0.000000
# 2 -0.009084 0.016805 -0.007320 0.000000 0.000000 0.000000
# 3 -0.016812 -0.007320 0.026922 0.000000 0.000000 0.000000
# 4 0.000000 0.000000 0.000000 0.029957 0.000000 0.000000
# 5 0.000000 0.000000 0.000000 0.000000 0.032439 0.000000
# 6 0.000000 0.000000 0.000000 0.000000 0.000000 0.031425
#
#
# Mechanical properties :
#
#
# Convention : Reuss Voigt Hill
#
# Bulk Modulus (GPa) = 43.73448 54.91412 49.32430
# Shear Modulus (GPa) = 19.44240 25.32709 22.38474
#
# Velocity S-wave (km/s) = 3.17106 3.61928 3.40256
# Velocity P-wave (km/s) = 6.00226 6.77254 6.39900
#
# Compressibility (1/GPa) = 0.02286525
#
# Stress axis : x y z
#
# Youngs Moduli (GPa) = 21.94414 59.50754 37.14500
#
# Poissons Ratio (x) = 0.54058 0.62447
# Poissons Ratio (y) = 0.19934 0.27189
# Poissons Ratio (z) = 0.36892 0.43558
#
# Static dielectric constant tensor:
#      x y z
#    x 3.433360 0.000000 0.000000 
#    y 0.000000 3.658040 0.000000 
#    z 0.000000 0.000000 3.504650 
# 
# 
# High freq. dielectric constant tensor:
#      x y z
#    x 1.748270 0.000000 0.000000 
#    y 0.000000 1.759270 0.000000 
#    z 0.000000 0.000000 1.746920 
# 
# From -- ./inp_files/21476.got.cif
#   From: 2010.03.12/outbox.cif.g09.slc.cpg/sg59_11_cif.got.tgz:21476.got - 2010.04.16 16:29:54.
