data_PCOD8244472
_publ_section_title
;
Structure prediction by ZEFSAII (Michael W. Deem and Ramdas Pophale) SiO2 
 PCOD8244472
Probable space group: P M M N
;
_chemical_formula_sum "Si O2"
_cell_formula_units_Z 56
_cell_length_a 21.502375
_cell_length_b 14.280409
_cell_length_c 9.354423
_cell_angle_alpha 90.000000
_cell_angle_beta 90.000000
_cell_angle_gamma 90.000000
_cell_volume 2872.394472
_symmetry_space_group_name_H-M "P M M N"
_symmetry_group_IT_number 59
_space_group.IT_coordinate_system_code '2'
_symmetry_cell_setting 'orthorhombic'
loop_
_space_group_symop_operation_xyz
x,y,z
1/2-x,1/2-y,z
1/2+x,-y,-z
-x,1/2+y,-z
-x,-y,-z
1/2+x,1/2+y,-z
1/2-x,y,z
x,1/2-y,z
loop_
_atom_site_type_symbol
_atom_site_label
_atom_site_fract_x
_atom_site_fract_y
_atom_site_fract_z
Si Si1 0.003273 0.358311 0.367754
Si Si2 0.401783 0.497427 0.244731
Si Si3 0.367318 0.859410 0.746227
Si Si4 0.678122 0.501545 0.032984
Si Si5 0.496343 0.643958 0.309037
Si Si6 0.137533 0.357386 0.734979
Si Si7 0.178832 0.996020 0.516471
O O1 0.020361 0.250000 0.376683
O O2 0.059221 0.405413 0.282651
O O3 0.997510 0.397555 0.529469
O O4 0.939914 0.377732 0.282663
O O5 0.449185 0.582848 0.214737
O O6 0.357123 0.527812 0.372703
O O7 0.360857 0.475345 0.107305
O O8 0.350987 0.750000 0.752151
O O9 0.349120 0.907273 0.895751
O O10 0.327298 0.907459 0.621699
O O11 0.750000 0.485753 0.993305
O O12 0.673089 0.590506 0.137707
O O13 0.471645 0.750000 0.309922
O O14 0.563862 0.636834 0.237376
O O15 0.160153 0.250000 0.726338
O O16 0.152841 0.408337 0.585967
O O17 0.250000 0.011712 0.477185
#
# Coordination Sequence:
#
# PCOD8244472 Si02
#       7
#     8   8   8   8   8   8   8
#     4  10  20  36  62  94 120 144 187 247 305 352
#     4  12  22  38  60  85 124 158 184 240 302 345
#     4  10  21  40  64  86 113 153 197 245 293 342
#     4  11  26  42  56  83 123 165 201 233 282 350
#     4  10  20  36  62  94 120 144 187 247 305 352
#     4  10  21  40  64  86 113 153 197 245 293 342
#     4  11  22  35  58  88 112 151 206 242 278 341
#
# _framework density 19.495930000000001
#
# number of rings (size 3 to 8) (size 9 to 14) (size 15 to 20)
#    0.000    1.429    2.857    4.286    0.000    5.714 
#    0.000    2.857    0.000    5.143    0.000    0.000 
#    0.000    0.000    0.000    0.000    0.000    0.000 
#
# Total GULP energy -694645.100234 kJ/mol
# GULP energy per Si atom -12404.376790 kJ/mol
# Density = 1.945156 g / cm^3
# Si number density = 19.495930 Si / 1000 Ang^3
#
#
#
# Elastic Constant Matrix: (Units=GPa)
#
#
# Indices 1 2 3 4 5 6 
#
# 1 97.1437 19.7729 15.3145 0.0000 0.0000 0.0000
# 2 19.7729 99.3743 9.2750 0.0000 0.0000 0.0000
# 3 15.3145 9.2750 52.9749 0.0000 0.0000 0.0000
# 4 0.0000 0.0000 0.0000 14.4839 0.0000 0.0000
# 5 0.0000 0.0000 0.0000 0.0000 21.7074 0.0000
# 6 0.0000 0.0000 0.0000 0.0000 0.0000 17.7740
#
#
#
# Elastic Compliance Matrix: (Units=1/GPa)
#
#
# Indices 1 2 3 4 5 6 
#
# 1 0.011145 -0.001949 -0.002881 0.000000 0.000000 0.000000
# 2 -0.001949 0.010571 -0.001287 0.000000 0.000000 0.000000
# 3 -0.002881 -0.001287 0.019935 0.000000 0.000000 0.000000
# 4 0.000000 0.000000 0.000000 0.069042 0.000000 0.000000
# 5 0.000000 0.000000 0.000000 0.000000 0.046067 0.000000
# 6 0.000000 0.000000 0.000000 0.000000 0.000000 0.056262
#
#
# Mechanical properties :
#
#
# Convention : Reuss Voigt Hill
#
# Bulk Modulus (GPa) = 33.99376 37.57974 35.78675
# Shear Modulus (GPa) = 21.27104 24.46843 22.86974
#
# Velocity S-wave (km/s) = 3.30669 3.54652 3.42870
# Velocity P-wave (km/s) = 5.66155 6.00732 5.83699
#
# Compressibility (1/GPa) = 0.02941717
#
# Stress axis : x y z
#
# Youngs Moduli (GPa) = 89.72804 94.59970 50.16294
#
# Poissons Ratio (x) = 0.18434 0.14450
# Poissons Ratio (y) = 0.17485 0.06458
# Poissons Ratio (z) = 0.25848 0.12179
#
# Static dielectric constant tensor:
#      x y z
#    x 3.597170 0.000000 0.000000 
#    y 0.000000 3.653460 0.000000 
#    z 0.000000 0.000000 3.432490 
# 
# 
# High freq. dielectric constant tensor:
#      x y z
#    x 1.768650 0.000000 0.000000 
#    y 0.000000 1.765480 0.000000 
#    z 0.000000 0.000000 1.739890 
# 
# From -- ./inp_files/9336.got.cif
#   From: 2010.03.12/outbox.cif.g09.slc.cpg/sg59_5_cif.got.tgz:9336.got - 2010.04.16 16:29:54.
