data_PCOD8244629
_publ_section_title
;
Structure prediction by ZEFSAII (Michael W. Deem and Ramdas Pophale) SiO2 
 PCOD8244629
Probable space group: P M M N
;
_chemical_formula_sum "Si O2"
_cell_formula_units_Z 64
_cell_length_a 8.837371
_cell_length_b 29.052670
_cell_length_c 12.738402
_cell_angle_alpha 90.000000
_cell_angle_beta 90.000000
_cell_angle_gamma 90.000000
_cell_volume 3270.574820
_symmetry_space_group_name_H-M "P M M N"
_symmetry_group_IT_number 59
_space_group.IT_coordinate_system_code '2'
_symmetry_cell_setting 'orthorhombic'
loop_
_space_group_symop_operation_xyz
x,y,z
1/2-x,1/2-y,z
1/2+x,-y,-z
-x,1/2+y,-z
-x,-y,-z
1/2+x,1/2+y,-z
1/2-x,y,z
x,1/2-y,z
loop_
_atom_site_type_symbol
_atom_site_label
_atom_site_fract_x
_atom_site_fract_y
_atom_site_fract_z
Si Si1 0.428681 0.301022 0.391335
Si Si2 0.923554 0.699133 0.028389
Si Si3 0.928407 0.454276 0.047222
Si Si4 0.070748 0.396227 0.465999
Si Si5 0.428404 0.446622 0.672645
Si Si6 0.429429 0.042928 0.271387
Si Si7 0.423171 0.106880 0.880006
Si Si8 0.083371 0.695740 0.821294
O O1 0.250000 0.297492 0.389540
O O2 0.495386 0.250000 0.422009
O O3 0.482193 0.342268 0.468857
O O4 0.480559 0.317669 0.276904
O O5 0.750000 0.703183 0.994691
O O6 0.983503 0.750000 0.062821
O O7 0.945015 0.662449 0.122478
O O8 0.009820 0.677778 0.928435
O O9 0.750000 0.461099 0.056487
O O10 0.993171 0.443208 0.162213
O O11 0.000000 0.500000 0.000000
O O12 0.967168 0.413134 0.968663
O O13 0.250000 0.398080 0.471133
O O14 0.006769 0.422913 0.567157
O O15 0.015355 0.420849 0.359416
O O16 0.250000 0.457457 0.666019
O O17 0.519825 0.492894 0.690764
O O18 0.466839 0.411645 0.766232
O O19 0.250000 0.043283 0.256263
O O20 0.250000 0.093748 0.908090
O O21 0.250000 0.673615 0.808294
O O22 0.095420 0.750000 0.829455
#
# Coordination Sequence:
#
# PCOD8244629 Si02
#       8
#     8   8   8   8   8   8   8   8
#     4   9  17  32  53  76 105 143 183 223 275 337
#     4   9  18  33  52  76 108 148 190 227 272 332
#     4  12  24  39  59  85 116 148 185 228 281 343
#     4   9  20  36  56  83 111 144 187 235 281 328
#     4  10  20  38  59  79 109 148 189 234 284 331
#     4  11  22  37  58  83 114 147 185 233 283 336
#     4  10  21  36  57  82 113 151 188 232 281 331
#     4   9  17  29  46  71 103 137 175 224 278 325
#
# _framework density 19.568425999999999
#
# number of rings (size 3 to 8) (size 9 to 14) (size 15 to 20)
#    0.000    2.125    1.250    2.250    1.750    2.000 
#    0.000    2.500    0.000    3.750    0.000    0.000 
#    0.000    5.000    0.000    0.000    0.000    0.000 
#
# Total GULP energy -793312.536428 kJ/mol
# GULP energy per Si atom -12395.508382 kJ/mol
# Density = 1.952389 g / cm^3
# Si number density = 19.568426 Si / 1000 Ang^3
#
#
#
# Elastic Constant Matrix: (Units=GPa)
#
#
# Indices 1 2 3 4 5 6 
#
# 1 57.7279 27.5735 32.0306 0.0000 0.0000 0.0000
# 2 27.5735 97.6321 47.9988 0.0000 0.0000 0.0000
# 3 32.0306 47.9988 119.6623 0.0000 0.0000 0.0000
# 4 0.0000 0.0000 0.0000 10.2027 0.0000 0.0000
# 5 0.0000 0.0000 0.0000 0.0000 18.9511 0.0000
# 6 0.0000 0.0000 0.0000 0.0000 0.0000 18.8328
#
#
#
# Elastic Compliance Matrix: (Units=1/GPa)
#
#
# Indices 1 2 3 4 5 6 
#
# 1 0.021557 -0.004050 -0.004146 0.000000 0.000000 0.000000
# 2 -0.004050 0.013519 -0.004339 0.000000 0.000000 0.000000
# 3 -0.004146 -0.004339 0.011207 0.000000 0.000000 0.000000
# 4 0.000000 0.000000 0.000000 0.098013 0.000000 0.000000
# 5 0.000000 0.000000 0.000000 0.000000 0.052767 0.000000
# 6 0.000000 0.000000 0.000000 0.000000 0.000000 0.053099
#
#
# Mechanical properties :
#
#
# Convention : Reuss Voigt Hill
#
# Bulk Modulus (GPa) = 47.13766 54.46977 50.80372
# Shear Modulus (GPa) = 17.71138 20.75862 19.23500
#
# Velocity S-wave (km/s) = 3.01175 3.26056 3.13862
# Velocity P-wave (km/s) = 6.01956 6.48621 6.25724
#
# Compressibility (1/GPa) = 0.02121446
#
# Stress axis : x y z
#
# Youngs Moduli (GPa) = 46.38757 73.96747 89.23034
#
# Poissons Ratio (x) = 0.29958 0.36993
# Poissons Ratio (y) = 0.18787 0.38715
# Poissons Ratio (z) = 0.19231 0.32093
#
# Static dielectric constant tensor:
#      x y z
#    x 3.524350 0.000000 0.000000 
#    y 0.000000 3.854910 0.000000 
#    z 0.000000 0.000000 3.643170 
# 
# 
# High freq. dielectric constant tensor:
#      x y z
#    x 1.744490 0.000000 0.000000 
#    y 0.000000 1.774220 0.000000 
#    z 0.000000 0.000000 1.746760 
# 
# From -- ./inp_files/15025.got.cif
#   From: 2010.03.12/outbox.cif.g09.slc.cpg/sg59_8_cif.got.tgz:15025.got - 2010.04.16 16:29:54.
