data_PCOD8244790
_publ_section_title
;
Structure prediction by ZEFSAII (Michael W. Deem and Ramdas Pophale) SiO2 
 PCOD8244790
Probable space group: P M M N
;
_chemical_formula_sum "Si O2"
_cell_formula_units_Z 64
_cell_length_a 9.066576
_cell_length_b 22.670194
_cell_length_c 16.259251
_cell_angle_alpha 90.000000
_cell_angle_beta 90.000000
_cell_angle_gamma 90.000000
_cell_volume 3341.943309
_symmetry_space_group_name_H-M "P M M N"
_symmetry_group_IT_number 59
_space_group.IT_coordinate_system_code '2'
_symmetry_cell_setting 'orthorhombic'
loop_
_space_group_symop_operation_xyz
x,y,z
1/2-x,1/2-y,z
1/2+x,-y,-z
-x,1/2+y,-z
-x,-y,-z
1/2+x,1/2+y,-z
1/2-x,y,z
x,1/2-y,z
loop_
_atom_site_type_symbol
_atom_site_label
_atom_site_fract_x
_atom_site_fract_y
_atom_site_fract_z
Si Si1 0.577716 0.537786 0.893360
Si Si2 0.919323 0.181258 0.346948
Si Si3 0.088126 0.181387 0.505132
Si Si4 0.576728 0.919987 0.716057
Si Si5 0.923228 0.088489 0.959072
Si Si6 0.424815 0.818025 0.174242
Si Si7 0.077883 0.124370 0.670475
Si Si8 0.575666 0.999043 0.411168
O O1 0.750000 0.546688 0.906403
O O2 0.529506 0.549232 0.800336
O O3 0.527695 0.470862 0.911214
O O4 0.499808 0.586078 0.951914
O O5 0.750000 0.163281 0.336191
O O6 0.944395 0.250000 0.332337
O O7 0.970925 0.160243 0.437744
O O8 0.021761 0.147907 0.280382
O O9 0.250000 0.150897 0.490817
O O10 0.109336 0.250000 0.497592
O O11 0.029649 0.166350 0.595492
O O12 0.750000 0.924444 0.700231
O O13 0.487249 0.946989 0.640415
O O14 0.750000 0.089735 0.973427
O O15 0.973785 0.146485 0.908131
O O16 0.250000 0.819028 0.182969
O O17 0.482285 0.750000 0.170081
O O18 0.488343 0.854003 0.250855
O O19 0.250000 0.130052 0.691578
O O20 0.034724 0.058742 0.642143
O O21 0.750000 0.004846 0.423671
O O22 0.500000 0.000000 0.500000
#
# Coordination Sequence:
#
# PCOD8244790 Si02
#       8
#     8   8   8   8   8   8   8   8
#     4   9  19  35  57  83 106 135 177 222 270 325
#     4  10  21  36  54  77 104 135 175 222 269 317
#     4   9  17  31  51  73 100 137 180 223 267 315
#     4  11  22  37  57  80 109 143 179 220 268 323
#     4   9  18  35  57  80 108 138 171 217 271 325
#     4  10  21  36  55  81 113 149 186 224 274 338
#     4  10  21  35  52  77 108 143 183 226 272 322
#     4  11  23  37  55  82 115 150 189 233 282 332
#
# _framework density 19.150532999999999
#
# number of rings (size 3 to 8) (size 9 to 14) (size 15 to 20)
#    0.000    2.125    0.000    3.000    0.000    6.500 
#    0.000    4.375    0.000    2.250    0.000    0.000 
#    0.000    0.000    0.000    0.000    0.000    0.000 
#
# Total GULP energy -793470.156441 kJ/mol
# GULP energy per Si atom -12397.971194 kJ/mol
# Density = 1.910695 g / cm^3
# Si number density = 19.150533 Si / 1000 Ang^3
#
#
#
# Elastic Constant Matrix: (Units=GPa)
#
#
# Indices 1 2 3 4 5 6 
#
# 1 60.8089 44.8838 45.4382 0.0000 0.0000 0.0000
# 2 44.8838 88.9720 62.6051 0.0000 0.0000 0.0000
# 3 45.4382 62.6051 105.6399 0.0000 0.0000 0.0000
# 4 0.0000 0.0000 0.0000 34.5599 0.0000 0.0000
# 5 0.0000 0.0000 0.0000 0.0000 35.3096 0.0000
# 6 0.0000 0.0000 0.0000 0.0000 0.0000 28.0674
#
#
#
# Elastic Compliance Matrix: (Units=1/GPa)
#
#
# Indices 1 2 3 4 5 6 
#
# 1 0.028531 -0.009877 -0.006419 0.000000 0.000000 0.000000
# 2 -0.009877 0.022698 -0.009203 0.000000 0.000000 0.000000
# 3 -0.006419 -0.009203 0.017681 0.000000 0.000000 0.000000
# 4 0.000000 0.000000 0.000000 0.028935 0.000000 0.000000
# 5 0.000000 0.000000 0.000000 0.000000 0.028321 0.000000
# 6 0.000000 0.000000 0.000000 0.000000 0.000000 0.035629
#
#
# Mechanical properties :
#
#
# Convention : Reuss Voigt Hill
#
# Bulk Modulus (GPa) = 55.82557 62.36388 59.09472
# Shear Modulus (GPa) = 22.85575 26.42028 24.63802
#
# Velocity S-wave (km/s) = 3.45842 3.71834 3.59073
# Velocity P-wave (km/s) = 6.72025 7.14636 6.93658
#
# Compressibility (1/GPa) = 0.01791294
#
# Stress axis : x y z
#
# Youngs Moduli (GPa) = 35.04908 44.05716 56.55778
#
# Poissons Ratio (x) = 0.43514 0.36303
# Poissons Ratio (y) = 0.34617 0.52051
# Poissons Ratio (z) = 0.22497 0.40546
#
# Static dielectric constant tensor:
#      x y z
#    x 3.256510 0.000000 0.000000 
#    y 0.000000 3.737590 0.000000 
#    z 0.000000 0.000000 3.484230 
# 
# 
# High freq. dielectric constant tensor:
#      x y z
#    x 1.741850 0.000000 0.000000 
#    y 0.000000 1.750570 0.000000 
#    z 0.000000 0.000000 1.738850 
# 
# From -- ./inp_files/21620.got.cif
#   From: 2010.03.12/outbox.cif.g09.slc.cpg/sg59_11_cif.got.tgz:21620.got - 2010.04.16 16:29:54.
