data_PCOD8244937
_publ_section_title
;
Structure prediction by ZEFSAII (Michael W. Deem and Ramdas Pophale) SiO2 
 PCOD8244937
Probable space group: P M M N
;
_chemical_formula_sum "Si O2"
_cell_formula_units_Z 48
_cell_length_a 9.235193
_cell_length_b 9.779576
_cell_length_c 30.493439
_cell_angle_alpha 90.000000
_cell_angle_beta 90.000000
_cell_angle_gamma 90.000000
_cell_volume 2754.053725
_symmetry_space_group_name_H-M "P M M N"
_symmetry_group_IT_number 59
_space_group.IT_coordinate_system_code '2'
_symmetry_cell_setting 'orthorhombic'
loop_
_space_group_symop_operation_xyz
x,y,z
1/2-x,1/2-y,z
1/2+x,-y,-z
-x,1/2+y,-z
-x,-y,-z
1/2+x,1/2+y,-z
1/2-x,y,z
x,1/2-y,z
loop_
_atom_site_type_symbol
_atom_site_label
_atom_site_fract_x
_atom_site_fract_y
_atom_site_fract_z
Si Si1 0.080023 0.406924 0.290968
Si Si2 0.922288 0.401935 0.632138
Si Si3 0.419044 0.591363 0.035197
Si Si4 0.916761 0.592797 0.123493
Si Si5 0.918546 0.407205 0.204049
Si Si6 0.081722 0.591861 0.465555
O O1 0.250000 0.429936 0.285011
O O2 0.041363 0.250000 0.300554
O O3 0.016967 0.493017 0.331782
O O4 0.004078 0.458164 0.246718
O O5 0.750000 0.402453 0.632117
O O6 0.978906 0.250000 0.643832
O O7 0.975214 0.444078 0.583468
O O8 0.250000 0.555153 0.035183
O O9 0.446059 0.750000 0.023756
O O10 0.483606 0.555018 0.082487
O O11 0.500000 0.500000 0.000000
O O12 0.750000 0.561794 0.111112
O O13 0.936953 0.750000 0.137520
O O14 0.969884 0.498898 0.163412
O O15 0.750000 0.428068 0.213620
O O16 0.955503 0.250000 0.193005
O O17 0.250000 0.558067 0.469418
O O18 0.051031 0.750000 0.475991
O O19 0.000000 0.500000 0.500000
#
# Coordination Sequence:
#
# PCOD8244937 Si02
#       6
#     8   8   8   8   8   8
#     4   9  17  29  46  68  91 116 151 192 230 273
#     4   8  15  29  47  66  90 120 153 190 232 278
#     4  10  21  36  54  77 104 133 166 204 246 292
#     4   9  18  33  51  70  95 127 161 197 237 282
#     4   9  18  32  48  67  94 126 156 189 234 284
#     4   9  18  32  49  70  96 125 159 199 242 290
#
# _framework density 17.428854000000001
#
# number of rings (size 3 to 8) (size 9 to 14) (size 15 to 20)
#    0.000    3.000    0.000    1.500    0.000    4.000 
#    0.000    4.167    0.000    3.000    0.000    0.000 
#    0.000    0.000    0.000    0.000    0.000    0.000 
#
# Total GULP energy -595169.633365 kJ/mol
# GULP energy per Si atom -12399.367362 kJ/mol
# Density = 1.738919 g / cm^3
# Si number density = 17.428854 Si / 1000 Ang^3
#
#
#
# Elastic Constant Matrix: (Units=GPa)
#
#
# Indices 1 2 3 4 5 6 
#
# 1 60.4513 48.1535 67.2686 0.0000 0.0000 0.0000
# 2 48.1535 95.0316 102.1199 0.0000 0.0000 0.0000
# 3 67.2686 102.1199 175.6710 0.0000 0.0000 0.0000
# 4 0.0000 0.0000 0.0000 42.9576 0.0000 0.0000
# 5 0.0000 0.0000 0.0000 0.0000 33.3396 0.0000
# 6 0.0000 0.0000 0.0000 0.0000 0.0000 23.3489
#
#
#
# Elastic Compliance Matrix: (Units=1/GPa)
#
#
# Indices 1 2 3 4 5 6 
#
# 1 0.030867 -0.007831 -0.007267 0.000000 0.000000 0.000000
# 2 -0.007831 0.030023 -0.014454 0.000000 0.000000 0.000000
# 3 -0.007267 -0.014454 0.016878 0.000000 0.000000 0.000000
# 4 0.000000 0.000000 0.000000 0.023279 0.000000 0.000000
# 5 0.000000 0.000000 0.000000 0.000000 0.029994 0.000000
# 6 0.000000 0.000000 0.000000 0.000000 0.000000 0.042829
#
#
# Mechanical properties :
#
#
# Convention : Reuss Voigt Hill
#
# Bulk Modulus (GPa) = 53.58306 85.13756 69.36031
# Shear Modulus (GPa) = 20.90329 27.50334 24.20332
#
# Velocity S-wave (km/s) = 3.46692 3.97676 3.73056
# Velocity P-wave (km/s) = 6.84373 8.36904 7.64452
#
# Compressibility (1/GPa) = 0.01866261
#
# Stress axis : x y z
#
# Youngs Moduli (GPa) = 32.39669 33.30745 59.24982
#
# Poissons Ratio (x) = 0.26084 0.43059
# Poissons Ratio (y) = 0.25371 0.85641
# Poissons Ratio (z) = 0.23544 0.48143
#
# Static dielectric constant tensor:
#      x y z
#    x 3.062030 0.000000 0.000000 
#    y 0.000000 3.421950 0.000000 
#    z 0.000000 0.000000 3.225500 
# 
# 
# High freq. dielectric constant tensor:
#      x y z
#    x 1.653910 0.000000 0.000000 
#    y 0.000000 1.673480 0.000000 
#    z 0.000000 0.000000 1.680630 
# 
# From -- ./inp_files/32839.got.cif
#   From: 2010.03.12/outbox.cif.g09.slc.cpg/sg59_17_cif.got.tgz:32839.got - 2010.04.16 16:29:54.
