data_PCOD8244897
_publ_section_title
;
Structure prediction by ZEFSAII (Michael W. Deem and Ramdas Pophale) SiO2 
 PCOD8244897
Probable space group: P M M N
;
_chemical_formula_sum "Si O2"
_cell_formula_units_Z 64
_cell_length_a 14.472933
_cell_length_b 9.091807
_cell_length_c 28.063450
_cell_angle_alpha 90.000000
_cell_angle_beta 90.000000
_cell_angle_gamma 90.000000
_cell_volume 3692.732255
_symmetry_space_group_name_H-M "P M M N"
_symmetry_group_IT_number 59
_space_group.IT_coordinate_system_code '2'
_symmetry_cell_setting 'orthorhombic'
loop_
_space_group_symop_operation_xyz
x,y,z
1/2-x,1/2-y,z
1/2+x,-y,-z
-x,1/2+y,-z
-x,-y,-z
1/2+x,1/2+y,-z
1/2-x,y,z
x,1/2-y,z
loop_
_atom_site_type_symbol
_atom_site_label
_atom_site_fract_x
_atom_site_fract_y
_atom_site_fract_z
Si Si1 0.525497 0.074999 0.615367
Si Si2 0.088974 0.919102 0.016032
Si Si3 0.350357 0.578850 0.917079
Si Si4 0.856406 0.079696 0.793293
Si Si5 0.143508 0.921781 0.578340
Si Si6 0.648191 0.424483 0.528665
Si Si7 0.534730 0.423292 0.884911
Si Si8 0.143131 0.422203 0.304066
O O1 0.524949 0.250000 0.619355
O O2 0.575498 0.016845 0.567264
O O3 0.420954 0.014140 0.614169
O O4 0.578867 0.010000 0.659995
O O5 0.064169 0.750000 0.016898
O O6 0.106060 0.965914 0.071412
O O7 0.162815 0.953196 0.974466
O O8 0.000000 0.000000 0.000000
O O9 0.250000 0.536762 0.894722
O O10 0.372266 0.750000 0.908922
O O11 0.432418 0.489920 0.892010
O O12 0.750000 0.060399 0.808199
O O13 0.877527 0.250000 0.781314
O O14 0.919088 0.018679 0.836497
O O15 0.881446 0.979936 0.748286
O O16 0.250000 0.953267 0.591537
O O17 0.120975 0.750000 0.583902
O O18 0.122186 0.977344 0.524505
O O19 0.750000 0.485340 0.542273
O O20 0.651308 0.250000 0.528900
O O21 0.521671 0.250000 0.881241
O O22 0.250000 0.455519 0.316312
O O23 0.121168 0.250000 0.306933
#
# Coordination Sequence:
#
# PCOD8244897 Si02
#       8
#     8   8   8   8   8   8   8   8
#     4  11  20  30  50  76 101 130 163 201 243 286
#     4   8  14  25  40  60  88 120 154 190 225 264
#     4   9  17  28  43  65  95 131 165 194 227 270
#     4   9  18  33  52  73  96 121 151 191 241 292
#     4   9  18  33  50  68  97 136 172 204 237 277
#     4   8  15  28  46  70 100 133 166 198 235 280
#     4   9  17  29  47  70  94 122 157 196 237 280
#     4  10  21  36  53  74  99 125 155 193 239 293
#
# _framework density 17.331340000000001
#
# number of rings (size 3 to 8) (size 9 to 14) (size 15 to 20)
#    0.000    2.875    0.000    2.250    0.000    2.750 
#    0.000    3.125    0.000    2.250    0.000    8.750 
#    0.000    0.000    0.000    0.000    0.000    0.000 
#
# Total GULP energy -792866.149234 kJ/mol
# GULP energy per Si atom -12388.533582 kJ/mol
# Density = 1.729189 g / cm^3
# Si number density = 17.331340 Si / 1000 Ang^3
#
#
#
# Elastic Constant Matrix: (Units=GPa)
#
#
# Indices 1 2 3 4 5 6 
#
# 1 100.5590 41.1611 66.8245 0.0000 0.0000 0.0000
# 2 41.1611 51.0979 43.9686 0.0000 0.0000 0.0000
# 3 66.8245 43.9686 105.5953 0.0000 0.0000 0.0000
# 4 0.0000 0.0000 0.0000 22.9622 0.0000 0.0000
# 5 0.0000 0.0000 0.0000 0.0000 26.4403 0.0000
# 6 0.0000 0.0000 0.0000 0.0000 0.0000 24.3729
#
#
#
# Elastic Compliance Matrix: (Units=1/GPa)
#
#
# Indices 1 2 3 4 5 6 
#
# 1 0.018923 -0.007696 -0.008770 0.000000 0.000000 0.000000
# 2 -0.007696 0.033627 -0.009132 0.000000 0.000000 0.000000
# 3 -0.008770 -0.009132 0.018823 0.000000 0.000000 0.000000
# 4 0.000000 0.000000 0.000000 0.043550 0.000000 0.000000
# 5 0.000000 0.000000 0.000000 0.000000 0.037821 0.000000
# 6 0.000000 0.000000 0.000000 0.000000 0.000000 0.041029
#
#
# Mechanical properties :
#
#
# Convention : Reuss Voigt Hill
#
# Bulk Modulus (GPa) = 49.56291 62.35117 55.95704
# Shear Modulus (GPa) = 19.86531 21.77495 20.82013
#
# Velocity S-wave (km/s) = 3.38924 3.54841 3.46974
# Velocity P-wave (km/s) = 6.63139 7.26927 6.95764
#
# Compressibility (1/GPa) = 0.02017638
#
# Stress axis : x y z
#
# Youngs Moduli (GPa) = 52.84600 29.73764 53.12753
#
# Poissons Ratio (x) = 0.22887 0.46595
# Poissons Ratio (y) = 0.40672 0.48514
# Poissons Ratio (z) = 0.46348 0.27155
#
# Static dielectric constant tensor:
#      x y z
#    x 3.110650 0.000000 0.000000 
#    y 0.000000 3.042330 0.000000 
#    z 0.000000 0.000000 2.993040 
# 
# 
# High freq. dielectric constant tensor:
#      x y z
#    x 1.661870 0.000000 0.000000 
#    y 0.000000 1.657620 0.000000 
#    z 0.000000 0.000000 1.657620 
# 
# From -- ./inp_files/33315.got.cif
#   From: 2010.03.12/outbox.cif.g09.slc.cpg/sg59_17_cif.got.tgz:33315.got - 2010.04.16 16:29:54.
