data_PCOD8244527
_publ_section_title
;
Structure prediction by ZEFSAII (Michael W. Deem and Ramdas Pophale) SiO2 
 PCOD8244527
Probable space group: P M M N
;
_chemical_formula_sum "Si O2"
_cell_formula_units_Z 64
_cell_length_a 23.837241
_cell_length_b 9.163257
_cell_length_c 14.853082
_cell_angle_alpha 90.000000
_cell_angle_beta 90.000000
_cell_angle_gamma 90.000000
_cell_volume 3244.310658
_symmetry_space_group_name_H-M "P M M N"
_symmetry_group_IT_number 59
_space_group.IT_coordinate_system_code '2'
_symmetry_cell_setting 'orthorhombic'
loop_
_space_group_symop_operation_xyz
x,y,z
1/2-x,1/2-y,z
1/2+x,-y,-z
-x,1/2+y,-z
-x,-y,-z
1/2+x,1/2+y,-z
1/2-x,y,z
x,1/2-y,z
loop_
_atom_site_type_symbol
_atom_site_label
_atom_site_fract_x
_atom_site_fract_y
_atom_site_fract_z
Si Si1 0.113093 0.578157 0.852758
Si Si2 0.966816 0.077176 0.420805
Si Si3 0.144340 0.415145 0.537341
Si Si4 0.314253 0.916583 0.367420
Si Si5 0.311675 0.412903 0.724928
Si Si6 0.381731 0.921662 0.191375
Si Si7 0.313844 0.923683 0.018677
Si Si8 0.004109 0.421540 0.220720
O O1 0.117143 0.750000 0.853338
O O2 0.143584 0.525062 0.763009
O O3 0.145368 0.513711 0.939955
O O4 0.047882 0.531195 0.844096
O O5 0.967932 0.250000 0.434594
O O6 0.992499 0.032504 0.324133
O O7 0.904243 0.019923 0.427986
O O8 0.000000 0.000000 0.500000
O O9 0.122524 0.250000 0.518447
O O10 0.173378 0.475559 0.448524
O O11 0.189784 0.416596 0.616677
O O12 0.250000 0.932367 0.336619
O O13 0.327290 0.750000 0.396096
O O14 0.353205 0.965314 0.285037
O O15 0.250000 0.457384 0.759464
O O16 0.327272 0.250000 0.758197
O O17 0.391420 0.750000 0.183348
O O18 0.441790 0.997308 0.182605
O O19 0.340674 0.977230 0.112305
O O20 0.250000 0.984776 0.009117
O O21 0.311990 0.750000 0.014729
O O22 0.014663 0.250000 0.214940
#
# Coordination Sequence:
#
# PCOD8244527 Si02
#       8
#     8   8   8   8   8   8   8   8
#     4  10  20  37  60  85 113 149 191 234 280 337
#     4  11  22  37  56  80 113 153 197 244 287 338
#     4  11  22  36  55  81 114 151 191 235 288 347
#     4  10  21  37  57  82 113 150 194 244 293 345
#     4  10  21  36  54  80 115 150 184 228 282 338
#     4  10  21  37  59  85 113 148 191 237 288 345
#     4   9  18  35  61  90 115 143 186 238 288 341
#     4  10  22  38  55  81 118 151 188 237 286 336
#
# _framework density 19.726839999999999
#
# number of rings (size 3 to 8) (size 9 to 14) (size 15 to 20)
#    0.000    1.875    1.250    2.625    0.000    8.000 
#    0.000    0.625    0.000    1.875    0.000    0.000 
#    0.000    0.000    0.000    0.000    0.000    0.000 
#
# Total GULP energy -793543.255268 kJ/mol
# GULP energy per Si atom -12399.113364 kJ/mol
# Density = 1.968194 g / cm^3
# Si number density = 19.726840 Si / 1000 Ang^3
#
#
#
# Elastic Constant Matrix: (Units=GPa)
#
#
# Indices 1 2 3 4 5 6 
#
# 1 142.0745 33.5226 54.7797 0.0000 0.0000 0.0000
# 2 33.5226 36.4758 29.3467 0.0000 0.0000 0.0000
# 3 54.7797 29.3467 106.2146 0.0000 0.0000 0.0000
# 4 0.0000 0.0000 0.0000 17.3694 0.0000 0.0000
# 5 0.0000 0.0000 0.0000 0.0000 38.7334 0.0000
# 6 0.0000 0.0000 0.0000 0.0000 0.0000 30.7465
#
#
#
# Elastic Compliance Matrix: (Units=1/GPa)
#
#
# Indices 1 2 3 4 5 6 
#
# 1 0.009813 -0.006361 -0.003304 0.000000 0.000000 0.000000
# 2 -0.006361 0.039374 -0.007599 0.000000 0.000000 0.000000
# 3 -0.003304 -0.007599 0.013218 0.000000 0.000000 0.000000
# 4 0.000000 0.000000 0.000000 0.057572 0.000000 0.000000
# 5 0.000000 0.000000 0.000000 0.000000 0.025818 0.000000
# 6 0.000000 0.000000 0.000000 0.000000 0.000000 0.032524
#
#
# Mechanical properties :
#
#
# Convention : Reuss Voigt Hill
#
# Bulk Modulus (GPa) = 35.86786 57.78476 46.82631
# Shear Modulus (GPa) = 22.50843 28.51092 25.50968
#
# Velocity S-wave (km/s) = 3.38154 3.80582 3.59993
# Velocity P-wave (km/s) = 5.78517 6.97627 6.40845
#
# Compressibility (1/GPa) = 0.02788011
#
# Stress axis : x y z
#
# Youngs Moduli (GPa) = 101.90393 25.39717 75.65326
#
# Poissons Ratio (x) = 0.16154 0.24993
# Poissons Ratio (y) = 0.64818 0.57485
# Poissons Ratio (z) = 0.33666 0.19298
#
# Static dielectric constant tensor:
#      x y z
#    x 3.951380 0.000000 0.000000 
#    y 0.000000 3.496870 0.000000 
#    z 0.000000 0.000000 3.740600 
# 
# 
# High freq. dielectric constant tensor:
#      x y z
#    x 1.781480 0.000000 0.000000 
#    y 0.000000 1.749360 0.000000 
#    z 0.000000 0.000000 1.771120 
# 
# From -- ./inp_files/21526.got.cif
#   From: 2010.03.12/outbox.cif.g09.slc.cpg/sg59_11_cif.got.tgz:21526.got - 2010.04.16 16:29:54.
