data_PCOD8244352
_publ_section_title
;
Structure prediction by ZEFSAII (Michael W. Deem and Ramdas Pophale) SiO2 
 PCOD8244352
Probable space group: P M M N
;
_chemical_formula_sum "Si O2"
_cell_formula_units_Z 32
_cell_length_a 8.629026
_cell_length_b 17.262658
_cell_length_c 11.459887
_cell_angle_alpha 90.000000
_cell_angle_beta 90.000000
_cell_angle_gamma 90.000000
_cell_volume 1707.063905
_symmetry_space_group_name_H-M "P M M N"
_symmetry_group_IT_number 59
_space_group.IT_coordinate_system_code '2'
_symmetry_cell_setting 'orthorhombic'
loop_
_space_group_symop_operation_xyz
x,y,z
1/2-x,1/2-y,z
1/2+x,-y,-z
-x,1/2+y,-z
-x,-y,-z
1/2+x,1/2+y,-z
1/2-x,y,z
x,1/2-y,z
loop_
_atom_site_type_symbol
_atom_site_label
_atom_site_fract_x
_atom_site_fract_y
_atom_site_fract_z
Si Si1 0.428845 0.750000 0.717826
Si Si2 0.929210 0.894377 0.597056
Si Si3 0.429395 0.050368 0.658218
Si Si4 0.925605 0.335803 0.837206
Si Si5 0.431803 0.250000 0.031152
O O1 0.250000 0.750000 0.753854
O O2 0.465223 0.674879 0.641774
O O3 0.532082 0.750000 0.833197
O O4 0.750000 0.873974 0.617529
O O5 0.969032 0.904841 0.460966
O O6 0.969984 0.972467 0.667249
O O7 0.250000 0.027225 0.662678
O O8 0.469709 0.105137 0.765858
O O9 0.750000 0.367012 0.843959
O O10 0.930803 0.250000 0.777506
O O11 0.995241 0.326726 0.968578
O O12 0.250000 0.250000 0.010994
#
# Coordination Sequence:
#
# PCOD8244352 Si02
#       5
#     4   8   8   8   4
#     4  12  24  39  58  81 112 149 189 227 279 336
#     4  10  22  38  57  82 116 151 186 228 277 333
#     4  10  20  36  58  86 116 146 186 231 278 327
#     4   9  19  34  56  83 112 146 184 227 275 326
#     4  10  20  37  58  81 110 145 189 235 277 326
#
# _framework density 18.745636999999999
#
# number of rings (size 3 to 8) (size 9 to 14) (size 15 to 20)
#    0.750    1.250    0.000    4.125    1.750    3.000 
#    0.000    1.250    0.000    0.000    0.000    0.000 
#    0.000    0.000    0.000    0.000    0.000    0.000 
#
# Total GULP energy -396780.145972 kJ/mol
# GULP energy per Si atom -12399.379562 kJ/mol
# Density = 1.870297 g / cm^3
# Si number density = 18.745637 Si / 1000 Ang^3
#
#
#
# Elastic Constant Matrix: (Units=GPa)
#
#
# Indices 1 2 3 4 5 6 
#
# 1 78.5011 19.6160 21.9962 0.0000 0.0000 0.0000
# 2 19.6160 77.0846 38.8299 0.0000 0.0000 0.0000
# 3 21.9962 38.8299 70.9377 0.0000 0.0000 0.0000
# 4 0.0000 0.0000 0.0000 -34.1393 0.0000 0.0000
# 5 0.0000 0.0000 0.0000 0.0000 30.0949 0.0000
# 6 0.0000 0.0000 0.0000 0.0000 0.0000 29.1112
#
#
#
# Elastic Compliance Matrix: (Units=1/GPa)
#
#
# Indices 1 2 3 4 5 6 
#
# 1 0.014154 -0.001921 -0.003337 0.000000 0.000000 0.000000
# 2 -0.001921 0.018172 -0.009352 0.000000 0.000000 0.000000
# 3 -0.003337 -0.009352 0.020251 0.000000 0.000000 0.000000
# 4 0.000000 0.000000 0.000000 -0.029292 0.000000 0.000000
# 5 0.000000 0.000000 0.000000 0.000000 0.033228 0.000000
# 6 0.000000 0.000000 0.000000 0.000000 0.000000 0.034351
#
#
# Mechanical properties :
#
#
# Convention : Reuss Voigt Hill
#
# Bulk Modulus (GPa) = 42.81314 43.04529 42.92922
# Shear Modulus (GPa) = 39.10253 14.75212 26.92732
#
# Velocity S-wave (km/s) = 4.57218 2.80833 3.79418
# Velocity P-wave (km/s) = 7.12472 5.79036 6.49192
#
# Compressibility (1/GPa) = 0.02335731
#
# Stress axis : x y z
#
# Youngs Moduli (GPa) = 70.65259 55.02928 49.38126
#
# Poissons Ratio (x) = 0.10569 0.16481
# Poissons Ratio (y) = 0.13569 0.46179
# Poissons Ratio (z) = 0.23580 0.51461
#
# Static dielectric constant tensor:
#      x y z
#    x 3.457130 0.000000 0.000000 
#    y 0.000000 3.299200 0.000000 
#    z 0.000000 0.000000 3.228820 
# 
# 
# High freq. dielectric constant tensor:
#      x y z
#    x 1.745780 0.000000 0.000000 
#    y 0.000000 1.715740 0.000000 
#    z 0.000000 0.000000 1.713480 
# 
# From -- ./inp_files/13631.got.cif
#   From: 2010.03.12/outbox.cif.g09.slc.cpg/sg59_7_cif.got.tgz:13631.got - 2010.04.16 16:29:54.
