data_PCOD8244558
_publ_section_title
;
Structure prediction by ZEFSAII (Michael W. Deem and Ramdas Pophale) SiO2 
 PCOD8244558
Probable space group: P M M N
;
_chemical_formula_sum "Si O2"
_cell_formula_units_Z 48
_cell_length_a 30.244518
_cell_length_b 8.650806
_cell_length_c 9.293497
_cell_angle_alpha 90.000000
_cell_angle_beta 90.000000
_cell_angle_gamma 90.000000
_cell_volume 2431.545516
_symmetry_space_group_name_H-M "P M M N"
_symmetry_group_IT_number 59
_space_group.IT_coordinate_system_code '2'
_symmetry_cell_setting 'orthorhombic'
loop_
_space_group_symop_operation_xyz
x,y,z
1/2-x,1/2-y,z
1/2+x,-y,-z
-x,1/2+y,-z
-x,-y,-z
1/2+x,1/2+y,-z
1/2-x,y,z
x,1/2-y,z
loop_
_atom_site_type_symbol
_atom_site_label
_atom_site_fract_x
_atom_site_fract_y
_atom_site_fract_z
Si Si1 0.154581 0.932793 0.014647
Si Si2 0.106425 0.079412 0.746050
Si Si3 0.613756 0.929761 0.712793
Si Si4 0.820170 0.584981 0.484359
Si Si5 0.548196 0.433009 0.480076
Si Si6 0.250000 0.578218 0.676880
Si Si7 0.250000 0.430512 0.975489
O O1 0.158139 0.750000 0.019316
O O2 0.133907 0.983098 0.862752
O O3 0.204500 0.998055 0.037891
O O4 0.119308 0.992374 0.131617
O O5 0.092738 0.250000 0.806791
O O6 0.136614 0.105672 0.609245
O O7 0.064720 0.988745 0.678571
O O8 0.600859 0.750000 0.729352
O O9 0.662599 0.951604 0.643921
O O10 0.576937 0.013801 0.617240
O O11 0.794033 0.750000 0.483173
O O12 0.791670 0.443426 0.426626
O O13 0.500000 0.500000 0.500000
O O14 0.547272 0.250000 0.478613
O O15 0.250000 0.750000 0.742847
O O16 0.250000 0.454176 0.803586
O O17 0.250000 0.250000 0.010205
#
# Coordination Sequence:
#
# PCOD8244558 Si02
#       7
#     8   8   8   8   8   4   4
#     4  12  24  39  60  90 124 161 206 254 304 357
#     4  10  20  37  61  87 117 158 200 241 296 360
#     4  10  22  41  62  86 119 159 199 243 303 365
#     4   9  19  35  56  78 108 150 196 238 289 350
#     4  11  22  40  66  95 124 156 199 250 302 361
#     4  12  22  31  52  83 114 146 196 254 298 343
#     4  12  24  39  58  81 118 166 210 250 296 353
#
# _framework density 19.740531000000001
#
# number of rings (size 3 to 8) (size 9 to 14) (size 15 to 20)
#    0.000    1.333    1.667    6.500    0.000    4.000 
#    0.000    1.667    0.000    0.000    0.000    0.000 
#    0.000    0.000    0.000    0.000    0.000    0.000 
#
# Total GULP energy -594881.543711 kJ/mol
# GULP energy per Si atom -12393.365494 kJ/mol
# Density = 1.969560 g / cm^3
# Si number density = 19.740531 Si / 1000 Ang^3
#
#
#
# Elastic Constant Matrix: (Units=GPa)
#
#
# Indices 1 2 3 4 5 6 
#
# 1 106.6415 51.6150 31.2957 0.0000 0.0000 0.0000
# 2 51.6150 170.4700 29.8951 0.0000 0.0000 0.0000
# 3 31.2957 29.8951 67.8411 0.0000 0.0000 0.0000
# 4 0.0000 0.0000 0.0000 31.1685 0.0000 0.0000
# 5 0.0000 0.0000 0.0000 0.0000 15.7866 0.0000
# 6 0.0000 0.0000 0.0000 0.0000 0.0000 27.7049
#
#
#
# Elastic Compliance Matrix: (Units=1/GPa)
#
#
# Indices 1 2 3 4 5 6 
#
# 1 0.012032 -0.002893 -0.004276 0.000000 0.000000 0.000000
# 2 -0.002893 0.007053 -0.001773 0.000000 0.000000 0.000000
# 3 -0.004276 -0.001773 0.017494 0.000000 0.000000 0.000000
# 4 0.000000 0.000000 0.000000 0.032084 0.000000 0.000000
# 5 0.000000 0.000000 0.000000 0.000000 0.063345 0.000000
# 6 0.000000 0.000000 0.000000 0.000000 0.000000 0.036095
#
#
# Mechanical properties :
#
#
# Convention : Reuss Voigt Hill
#
# Bulk Modulus (GPa) = 53.49018 63.39602 58.44310
# Shear Modulus (GPa) = 26.01196 30.40846 28.21021
#
# Velocity S-wave (km/s) = 3.63394 3.92906 3.78438
# Velocity P-wave (km/s) = 6.69050 7.26414 6.98321
#
# Compressibility (1/GPa) = 0.01869502
#
# Stress axis : x y z
#
# Youngs Moduli (GPa) = 83.10925 141.78009 57.16195
#
# Poissons Ratio (x) = 0.41022 0.24440
# Poissons Ratio (y) = 0.24046 0.10137
# Poissons Ratio (z) = 0.35534 0.25143
#
# Static dielectric constant tensor:
#      x y z
#    x 3.641950 0.000000 0.000000 
#    y 0.000000 3.819080 0.000000 
#    z 0.000000 0.000000 3.548370 
# 
# 
# High freq. dielectric constant tensor:
#      x y z
#    x 1.755530 0.000000 0.000000 
#    y 0.000000 1.784700 0.000000 
#    z 0.000000 0.000000 1.763910 
# 
# From -- ./inp_files/13023.got.cif
#   From: 2010.03.12/outbox.cif.g09.slc.cpg/sg59_7_cif.got.tgz:13023.got - 2010.04.16 16:29:54.
