data_PCOD8244466
_publ_section_title
;
Structure prediction by ZEFSAII (Michael W. Deem and Ramdas Pophale) SiO2 
 PCOD8244466
Probable space group: P M M N
;
_chemical_formula_sum "Si O2"
_cell_formula_units_Z 64
_cell_length_a 15.184295
_cell_length_b 8.856591
_cell_length_c 23.765786
_cell_angle_alpha 90.000000
_cell_angle_beta 90.000000
_cell_angle_gamma 90.000000
_cell_volume 3196.048816
_symmetry_space_group_name_H-M "P M M N"
_symmetry_group_IT_number 59
_space_group.IT_coordinate_system_code '2'
_symmetry_cell_setting 'orthorhombic'
loop_
_space_group_symop_operation_xyz
x,y,z
1/2-x,1/2-y,z
1/2+x,-y,-z
-x,1/2+y,-z
-x,-y,-z
1/2+x,1/2+y,-z
1/2-x,y,z
x,1/2-y,z
loop_
_atom_site_type_symbol
_atom_site_label
_atom_site_fract_x
_atom_site_fract_y
_atom_site_fract_z
Si Si1 0.499877 0.927825 0.439186
Si Si2 0.102064 0.923618 0.257103
Si Si3 0.105112 0.076415 0.742993
Si Si4 0.497446 0.072719 0.060576
Si Si5 0.650749 0.422789 0.368978
Si Si6 0.349131 0.576875 0.857350
Si Si7 0.149207 0.923616 0.132821
Si Si8 0.849556 0.577155 0.631586
O O1 0.499782 0.750000 0.445728
O O2 0.500000 0.000000 0.500000
O O3 0.587268 0.974755 0.406157
O O4 0.412642 0.974758 0.405939
O O5 0.128222 0.750000 0.267968
O O6 0.137421 0.978629 0.196876
O O7 0.998495 0.948183 0.259958
O O8 0.147900 0.026156 0.303735
O O9 0.130776 0.250000 0.733120
O O10 0.150302 0.975782 0.695438
O O11 0.141684 0.026196 0.802837
O O12 0.497871 0.250000 0.052639
O O13 0.583244 0.018678 0.095309
O O14 0.408953 0.025138 0.092215
O O15 0.500000 0.000000 0.000000
O O16 0.750000 0.438589 0.392436
O O17 0.618569 0.250000 0.372197
O O18 0.250000 0.561159 0.881298
O O19 0.370348 0.750000 0.840967
O O20 0.250000 0.943196 0.114161
O O21 0.118287 0.750000 0.127689
O O22 0.750000 0.559137 0.609062
O O23 0.881002 0.750000 0.627330
#
# Coordination Sequence:
#
# PCOD8244466 Si02
#       8
#     8   8   8   8   8   8   8   8
#     4  12  26  45  68  92 122 163 208 259 309 362
#     4  10  20  36  61  92 126 164 202 246 304 364
#     4  11  21  35  61  95 127 160 199 248 304 361
#     4  11  24  41  62  86 117 156 203 256 303 358
#     4  11  24  42  65  93 127 166 206 251 305 365
#     4  10  22  40  61  86 118 159 202 246 302 364
#     4  10  21  39  63  89 121 160 200 245 301 364
#     4  11  24  41  64  95 129 165 206 253 303 360
#
# _framework density 20.024726000000001
#
# number of rings (size 3 to 8) (size 9 to 14) (size 15 to 20)
#    0.000    1.250    2.500    3.375    0.000    7.000 
#    0.000    1.250    0.000    0.000    0.000    0.000 
#    0.000    0.000    0.000    0.000    0.000    0.000 
#
# Total GULP energy -793974.577091 kJ/mol
# GULP energy per Si atom -12405.852767 kJ/mol
# Density = 1.997915 g / cm^3
# Si number density = 20.024726 Si / 1000 Ang^3
#
#
#
# Elastic Constant Matrix: (Units=GPa)
#
#
# Indices 1 2 3 4 5 6 
#
# 1 109.8414 53.2343 54.5697 0.0000 0.0000 0.0000
# 2 53.2343 109.2996 52.9103 0.0000 0.0000 0.0000
# 3 54.5697 52.9103 137.7693 0.0000 0.0000 0.0000
# 4 0.0000 0.0000 0.0000 39.3104 0.0000 0.0000
# 5 0.0000 0.0000 0.0000 0.0000 1.2535 0.0000
# 6 0.0000 0.0000 0.0000 0.0000 0.0000 24.1847
#
#
#
# Elastic Compliance Matrix: (Units=1/GPa)
#
#
# Indices 1 2 3 4 5 6 
#
# 1 0.013069 -0.004741 -0.003356 0.000000 0.000000 0.000000
# 2 -0.004741 0.012958 -0.003099 0.000000 0.000000 0.000000
# 3 -0.003356 -0.003099 0.009778 0.000000 0.000000 0.000000
# 4 0.000000 0.000000 0.000000 0.025439 0.000000 0.000000
# 5 0.000000 0.000000 0.000000 0.000000 0.797784 0.000000
# 6 0.000000 0.000000 0.000000 0.000000 0.000000 0.041349
#
#
# Mechanical properties :
#
#
# Convention : Reuss Voigt Hill
#
# Bulk Modulus (GPa) = 74.54797 75.37099 74.95948
# Shear Modulus (GPa) = 5.39236 26.02944 15.71090
#
# Velocity S-wave (km/s) = 1.64277 3.60928 2.80407
# Velocity P-wave (km/s) = 6.39586 7.42225 6.92809
#
# Compressibility (1/GPa) = 0.01341418
#
# Stress axis : x y z
#
# Youngs Moduli (GPa) = 76.51836 77.17124 102.27191
#
# Poissons Ratio (x) = 0.36584 0.34321
# Poissons Ratio (y) = 0.36274 0.31693
# Poissons Ratio (z) = 0.25678 0.23914
#
# Static dielectric constant tensor:
#      x y z
#    x 3.794410 0.000000 0.000000 
#    y 0.000000 3.710090 0.000000 
#    z 0.000000 0.000000 3.664440 
# 
# 
# High freq. dielectric constant tensor:
#      x y z
#    x 1.797060 0.000000 0.000000 
#    y 0.000000 1.786110 0.000000 
#    z 0.000000 0.000000 1.777590 
# 
# From -- ./inp_files/32168.got.cif
#   From: 2010.03.12/outbox.cif.g09.slc.cpg/sg59_17_cif.got.tgz:32168.got - 2010.04.16 16:29:54.
