data_PCOD8244525
_publ_section_title
;
Structure prediction by ZEFSAII (Michael W. Deem and Ramdas Pophale) SiO2 
 PCOD8244525
Probable space group: P M M N
;
_chemical_formula_sum "Si O2"
_cell_formula_units_Z 48
_cell_length_a 30.927176
_cell_length_b 8.898136
_cell_length_c 8.966111
_cell_angle_alpha 90.000000
_cell_angle_beta 90.000000
_cell_angle_gamma 90.000000
_cell_volume 2467.421906
_symmetry_space_group_name_H-M "P M M N"
_symmetry_group_IT_number 59
_space_group.IT_coordinate_system_code '2'
_symmetry_cell_setting 'orthorhombic'
loop_
_space_group_symop_operation_xyz
x,y,z
1/2-x,1/2-y,z
1/2+x,-y,-z
-x,1/2+y,-z
-x,-y,-z
1/2+x,1/2+y,-z
1/2-x,y,z
x,1/2-y,z
loop_
_atom_site_type_symbol
_atom_site_label
_atom_site_fract_x
_atom_site_fract_y
_atom_site_fract_z
Si Si1 0.329497 0.923722 0.829589
Si Si2 0.082394 0.572094 0.334366
Si Si3 0.750000 0.927035 0.330107
Si Si4 0.831371 0.426986 0.824631
Si Si5 0.080487 0.573894 0.674073
Si Si6 0.498482 0.428245 0.838922
Si Si7 0.250000 0.071857 0.331616
O O1 0.317443 0.750000 0.809571
O O2 0.374279 0.963064 0.750806
O O3 0.292361 0.019546 0.754512
O O4 0.333379 0.967557 0.001891
O O5 0.082780 0.750000 0.327950
O O6 0.124767 0.510908 0.250226
O O7 0.082803 0.516665 0.504416
O O8 0.039626 0.510251 0.253390
O O9 0.750000 0.750000 0.330792
O O10 0.750000 0.989103 0.498968
O O11 0.825487 0.250000 0.798332
O O12 0.791911 0.512041 0.751039
O O13 0.069070 0.750000 0.685809
O O14 0.044496 0.477494 0.755568
O O15 0.499686 0.250000 0.854499
O O16 0.500000 0.500000 0.000000
O O17 0.250000 0.250000 0.325474
#
# Coordination Sequence:
#
# PCOD8244525 Si02
#       7
#     8   8   4   8   8   8   4
#     4  10  21  37  60  86 112 144 186 230 277 333
#     4   9  19  36  59  84 111 144 185 229 274 325
#     4  11  24  39  56  80 114 149 186 231 278 328
#     4  10  20  37  60  84 108 142 186 228 270 327
#     4  10  20  37  60  85 112 145 184 229 278 331
#     4  11  22  37  57  83 115 150 187 230 277 329
#     4  11  24  39  54  80 114 147 182 227 280 330
#
# _framework density 19.453502
#
# number of rings (size 3 to 8) (size 9 to 14) (size 15 to 20)
#    0.000    1.833    0.000    4.000    0.000    8.667 
#    0.000    5.000    0.000    0.000    0.000    0.000 
#    0.000    0.000    0.000    0.000    0.000    0.000 
#
# Total GULP energy -595406.355540 kJ/mol
# GULP energy per Si atom -12404.299074 kJ/mol
# Density = 1.940922 g / cm^3
# Si number density = 19.453502 Si / 1000 Ang^3
#
#
#
# Elastic Constant Matrix: (Units=GPa)
#
#
# Indices 1 2 3 4 5 6 
#
# 1 155.7414 48.2011 94.9977 0.0000 0.0000 0.0000
# 2 48.2011 52.1676 50.3284 0.0000 0.0000 0.0000
# 3 94.9977 50.3284 193.0827 0.0000 0.0000 0.0000
# 4 0.0000 0.0000 0.0000 30.0472 0.0000 0.0000
# 5 0.0000 0.0000 0.0000 0.0000 47.1079 0.0000
# 6 0.0000 0.0000 0.0000 0.0000 0.0000 32.5551
#
#
#
# Elastic Compliance Matrix: (Units=1/GPa)
#
#
# Indices 1 2 3 4 5 6 
#
# 1 0.010534 -0.006323 -0.003535 0.000000 0.000000 0.000000
# 2 -0.006323 0.029404 -0.004553 0.000000 0.000000 0.000000
# 3 -0.003535 -0.004553 0.008105 0.000000 0.000000 0.000000
# 4 0.000000 0.000000 0.000000 0.033281 0.000000 0.000000
# 5 0.000000 0.000000 0.000000 0.000000 0.021228 0.000000
# 6 0.000000 0.000000 0.000000 0.000000 0.000000 0.030717
#
#
# Mechanical properties :
#
#
# Convention : Reuss Voigt Hill
#
# Bulk Modulus (GPa) = 52.02645 87.56070 69.79358
# Shear Modulus (GPa) = 29.67397 35.77300 32.72349
#
# Velocity S-wave (km/s) = 3.90985 4.29289 4.10584
# Velocity P-wave (km/s) = 6.86911 8.34744 7.64410
#
# Compressibility (1/GPa) = 0.01922099
#
# Stress axis : x y z
#
# Youngs Moduli (GPa) = 94.93258 34.00890 123.37986
#
# Poissons Ratio (x) = 0.21504 0.43609
# Poissons Ratio (y) = 0.60025 0.56181
# Poissons Ratio (z) = 0.33555 0.15486
#
# Static dielectric constant tensor:
#      x y z
#    x 3.946030 0.000000 0.000000 
#    y 0.000000 3.342390 0.000000 
#    z 0.000000 0.000000 5.166620 
# 
# 
# High freq. dielectric constant tensor:
#      x y z
#    x 1.776890 0.000000 0.000000 
#    y 0.000000 1.735380 0.000000 
#    z 0.000000 0.000000 1.780860 
# 
# From -- ./inp_files/6385.got.cif
#   From: 2010.03.12/outbox.cif.g09.slc.cpg/sg59_4_cif.got.tgz:6385.got - 2010.04.16 16:29:54.
