data_PCOD8244697
_publ_section_title
;
Structure prediction by ZEFSAII (Michael W. Deem and Ramdas Pophale) SiO2 
 PCOD8244697
Probable space group: P M M N
;
_chemical_formula_sum "Si O2"
_cell_formula_units_Z 38
_cell_length_a 8.456885
_cell_length_b 12.583295
_cell_length_c 17.328832
_cell_angle_alpha 90.000000
_cell_angle_beta 90.000000
_cell_angle_gamma 90.000000
_cell_volume 1844.055953
_symmetry_space_group_name_H-M "P M M N"
_symmetry_group_IT_number 59
_space_group.IT_coordinate_system_code '2'
_symmetry_cell_setting 'orthorhombic'
loop_
_space_group_symop_operation_xyz
x,y,z
1/2-x,1/2-y,z
1/2+x,-y,-z
-x,1/2+y,-z
-x,-y,-z
1/2+x,1/2+y,-z
1/2-x,y,z
x,1/2-y,z
loop_
_atom_site_type_symbol
_atom_site_label
_atom_site_fract_x
_atom_site_fract_y
_atom_site_fract_z
Si Si1 0.750000 0.131511 0.525643
Si Si2 0.250000 0.750000 0.737063
Si Si3 0.933991 0.044668 0.079320
Si Si4 0.502391 0.132642 0.656102
Si Si5 0.562604 0.750000 0.846192
Si Si6 0.250000 0.961361 0.637831
Si Si7 0.923213 0.367401 0.826342
O O1 0.750000 0.250000 0.491257
O O2 0.600024 0.112577 0.579048
O O3 0.750000 0.051542 0.454395
O O4 0.418133 0.750000 0.783273
O O5 0.250000 0.851984 0.683058
O O6 0.750000 0.076701 0.073834
O O7 0.039005 0.146370 0.101371
O O8 0.951925 0.953850 0.144297
O O9 0.000000 0.000000 0.000000
O O10 0.419678 0.250000 0.649506
O O11 0.602461 0.129781 0.734345
O O12 0.394884 0.031217 0.664025
O O13 0.750000 0.750000 0.815571
O O14 0.750000 0.389972 0.862969
O O15 0.982933 0.250000 0.851834
#
# Coordination Sequence:
#
# PCOD8244697 Si02
#       7
#     4   2   8   8   4   4   8
#     4  10  20  41  63  91 130 176 220 282 355 405
#     4  12  26  48  70 104 142 192 234 278 348 428
#     4  12  26  45  70 102 138 181 229 285 346 413
#     4  10  21  38  65  91 127 169 221 278 343 405
#     4  12  26  50  74  98 143 189 234 289 347 410
#     4  12  23  38  63  96 135 172 224 283 339 414
#     4  10  21  40  65  97 129 172 222 279 339 411
#
# _framework density 20.606750000000002
#
# number of rings (size 3 to 8) (size 9 to 14) (size 15 to 20)
#    0.000    1.053    2.632    4.105    2.947    0.421 
#    1.895    0.000    0.000    0.000    0.000    0.000 
#    0.000    0.000    0.000    0.000    0.000    0.000 
#
# Total GULP energy -470825.412547 kJ/mol
# GULP energy per Si atom -12390.142435 kJ/mol
# Density = 2.055985 g / cm^3
# Si number density = 20.606750 Si / 1000 Ang^3
#
#
#
# Elastic Constant Matrix: (Units=GPa)
#
#
# Indices 1 2 3 4 5 6 
#
# 1 121.8276 51.6048 29.4445 0.0000 0.0000 0.0000
# 2 51.6048 162.4928 49.8918 0.0000 0.0000 0.0000
# 3 29.4445 49.8918 102.9893 0.0000 0.0000 0.0000
# 4 0.0000 0.0000 0.0000 30.8190 0.0000 0.0000
# 5 0.0000 0.0000 0.0000 0.0000 48.7973 0.0000
# 6 0.0000 0.0000 0.0000 0.0000 0.0000 30.5966
#
#
#
# Elastic Compliance Matrix: (Units=1/GPa)
#
#
# Indices 1 2 3 4 5 6 
#
# 1 0.009678 -0.002613 -0.001501 0.000000 0.000000 0.000000
# 2 -0.002613 0.007935 -0.003097 0.000000 0.000000 0.000000
# 3 -0.001501 -0.003097 0.011639 0.000000 0.000000 0.000000
# 4 0.000000 0.000000 0.000000 0.032447 0.000000 0.000000
# 5 0.000000 0.000000 0.000000 0.000000 0.020493 0.000000
# 6 0.000000 0.000000 0.000000 0.000000 0.000000 0.032683
#
#
# Mechanical properties :
#
#
# Convention : Reuss Voigt Hill
#
# Bulk Modulus (GPa) = 67.42975 72.13240 69.78108
# Shear Modulus (GPa) = 37.24662 39.13383 38.19022
#
# Velocity S-wave (km/s) = 4.25608 4.36257 4.30965
# Velocity P-wave (km/s) = 7.54622 7.77536 7.66165
#
# Compressibility (1/GPa) = 0.01483025
#
# Stress axis : x y z
#
# Youngs Moduli (GPa) = 103.32917 126.02867 85.91645
#
# Poissons Ratio (x) = 0.32926 0.12898
# Poissons Ratio (y) = 0.26995 0.26608
# Poissons Ratio (z) = 0.15512 0.39030
#
# Static dielectric constant tensor:
#      x y z
#    x 3.957810 0.000000 0.000000 
#    y 0.000000 4.005320 0.000000 
#    z 0.000000 0.000000 3.683610 
# 
# 
# High freq. dielectric constant tensor:
#      x y z
#    x 1.801710 0.000000 0.000000 
#    y 0.000000 1.822680 0.000000 
#    z 0.000000 0.000000 1.806560 
# 
# From -- ./inp_files/25300.got.cif
#   From: 2010.03.12/outbox.cif.g09.slc.cpg/sg59_13_cif.got.tgz:25300.got - 2010.04.16 16:29:54.
