data_PCOD8244942
_publ_section_title
;
Structure prediction by ZEFSAII (Michael W. Deem and Ramdas Pophale) SiO2 
 PCOD8244942
Probable space group: P M M N
;
_chemical_formula_sum "Si O2"
_cell_formula_units_Z 40
_cell_length_a 8.968586
_cell_length_b 9.267667
_cell_length_c 25.627711
_cell_angle_alpha 90.000000
_cell_angle_beta 90.000000
_cell_angle_gamma 90.000000
_cell_volume 2130.120713
_symmetry_space_group_name_H-M "P M M N"
_symmetry_group_IT_number 59
_space_group.IT_coordinate_system_code '2'
_symmetry_cell_setting 'orthorhombic'
loop_
_space_group_symop_operation_xyz
x,y,z
1/2-x,1/2-y,z
1/2+x,-y,-z
-x,1/2+y,-z
-x,-y,-z
1/2+x,1/2+y,-z
1/2-x,y,z
x,1/2-y,z
loop_
_atom_site_type_symbol
_atom_site_label
_atom_site_fract_x
_atom_site_fract_y
_atom_site_fract_z
Si Si1 0.924329 0.417331 0.859640
Si Si2 0.577342 0.417659 0.348381
Si Si3 0.074284 0.917863 0.952382
Si Si4 0.923373 0.918162 0.546839
Si Si5 0.079584 0.082473 0.753258
O O1 0.750000 0.448701 0.865552
O O2 0.961046 0.250000 0.871478
O O3 0.014635 0.517307 0.898773
O O4 0.976165 0.460030 0.801787
O O5 0.750000 0.452310 0.358268
O O6 0.547395 0.250000 0.339218
O O7 0.487809 0.475616 0.398369
O O8 0.518349 0.498444 0.297046
O O9 0.250000 0.941066 0.955454
O O10 0.031503 0.750000 0.955435
O O11 0.000000 0.000000 0.000000
O O12 0.750000 0.952295 0.545600
O O13 0.959207 0.750000 0.540483
O O14 0.000000 0.000000 0.500000
O O15 0.250000 0.038199 0.766121
O O16 0.067449 0.250000 0.740240
#
# Coordination Sequence:
#
# PCOD8244942 Si02
#       5
#     8   8   8   8   8
#     4  10  21  37  57  82 112 145 182 223 266 314
#     4   9  18  33  52  74 103 138 175 217 264 314
#     4  11  24  40  59  84 112 143 181 223 268 320
#     4  10  21  36  54  77 105 138 177 220 267 320
#     4   9  18  33  53  77 106 141 179 218 262 312
#
# _framework density 18.778278
#
# number of rings (size 3 to 8) (size 9 to 14) (size 15 to 20)
#    0.000    2.200    0.000    2.400    0.000    8.800 
#    0.000    4.000    0.000    0.000    0.000    0.000 
#    0.000    0.000    0.000    0.000    0.000    0.000 
#
# Total GULP energy -496160.133564 kJ/mol
# GULP energy per Si atom -12404.003339 kJ/mol
# Density = 1.873554 g / cm^3
# Si number density = 18.778278 Si / 1000 Ang^3
#
#
#
# Elastic Constant Matrix: (Units=GPa)
#
#
# Indices 1 2 3 4 5 6 
#
# 1 86.0962 61.4893 70.3533 0.0000 0.0000 0.0000
# 2 61.4893 86.9486 85.9691 0.0000 0.0000 0.0000
# 3 70.3533 85.9691 168.9616 0.0000 0.0000 0.0000
# 4 0.0000 0.0000 0.0000 42.4616 0.0000 0.0000
# 5 0.0000 0.0000 0.0000 0.0000 41.4460 0.0000
# 6 0.0000 0.0000 0.0000 0.0000 0.0000 26.5264
#
#
#
# Elastic Compliance Matrix: (Units=1/GPa)
#
#
# Indices 1 2 3 4 5 6 
#
# 1 0.024083 -0.014321 -0.002741 0.000000 0.000000 0.000000
# 2 -0.014321 0.031660 -0.010146 0.000000 0.000000 0.000000
# 3 -0.002741 -0.010146 0.012222 0.000000 0.000000 0.000000
# 4 0.000000 0.000000 0.000000 0.023551 0.000000 0.000000
# 5 0.000000 0.000000 0.000000 0.000000 0.024128 0.000000
# 6 0.000000 0.000000 0.000000 0.000000 0.000000 0.037698
#
#
# Mechanical properties :
#
#
# Convention : Reuss Voigt Hill
#
# Bulk Modulus (GPa) = 73.80460 86.40330 80.10395
# Shear Modulus (GPa) = 23.55442 30.36645 26.96043
#
# Velocity S-wave (km/s) = 3.54551 4.02569 3.79321
# Velocity P-wave (km/s) = 7.49329 8.22924 7.86987
#
# Compressibility (1/GPa) = 0.01354929
#
# Stress axis : x y z
#
# Youngs Moduli (GPa) = 41.52371 31.58526 81.81757
#
# Poissons Ratio (x) = 0.45232 0.22428
# Poissons Ratio (y) = 0.59465 0.83013
# Poissons Ratio (z) = 0.11382 0.32047
#
# Static dielectric constant tensor:
#      x y z
#    x 3.480200 0.000000 0.000000 
#    y 0.000000 3.480960 0.000000 
#    z 0.000000 0.000000 3.634020 
# 
# 
# High freq. dielectric constant tensor:
#      x y z
#    x 1.733160 0.000000 0.000000 
#    y 0.000000 1.724280 0.000000 
#    z 0.000000 0.000000 1.743960 
# 
# From -- ./inp_files/31109.got.cif
#   From: 2010.03.12/outbox.cif.g09.slc.cpg/sg59_16_cif.got.tgz:31109.got - 2010.04.16 16:29:54.
