data_PCOD8244480
_publ_section_title
;
Structure prediction by ZEFSAII (Michael W. Deem and Ramdas Pophale) SiO2 
 PCOD8244480
Probable space group: P M M N
;
_chemical_formula_sum "Si O2"
_cell_formula_units_Z 64
_cell_length_a 15.113420
_cell_length_b 18.298581
_cell_length_c 11.658765
_cell_angle_alpha 90.000000
_cell_angle_beta 90.000000
_cell_angle_gamma 90.000000
_cell_volume 3224.279729
_symmetry_space_group_name_H-M "P M M N"
_symmetry_group_IT_number 59
_space_group.IT_coordinate_system_code '2'
_symmetry_cell_setting 'orthorhombic'
loop_
_space_group_symop_operation_xyz
x,y,z
1/2-x,1/2-y,z
1/2+x,-y,-z
-x,1/2+y,-z
-x,-y,-z
1/2+x,1/2+y,-z
1/2-x,y,z
x,1/2-y,z
loop_
_atom_site_type_symbol
_atom_site_label
_atom_site_fract_x
_atom_site_fract_y
_atom_site_fract_z
Si Si1 0.988567 0.165970 0.412057
Si Si2 0.149217 0.559093 0.474017
Si Si3 0.850762 0.613259 0.005795
Si Si4 0.078473 0.166378 0.763569
Si Si5 0.150958 0.945455 0.982775
Si Si6 0.649815 0.898188 0.459317
Si Si7 0.003299 0.401065 0.171330
Si Si8 0.922786 0.443933 0.772845
O O1 0.968290 0.250000 0.435791
O O2 0.914921 0.121175 0.480023
O O3 0.983550 0.151308 0.277122
O O4 0.086034 0.146696 0.457219
O O5 0.250000 0.581503 0.500998
O O6 0.124079 0.483666 0.537545
O O7 0.138541 0.548475 0.338078
O O8 0.750000 0.627233 0.967371
O O9 0.912395 0.630955 0.896962
O O10 0.875418 0.664097 0.112544
O O11 0.866662 0.530181 0.045820
O O12 0.061367 0.250000 0.729361
O O13 0.142880 0.129328 0.670883
O O14 0.984805 0.126225 0.761396
O O15 0.250000 0.922310 0.947014
O O16 0.081786 0.897542 0.911525
O O17 0.139917 0.932208 0.118048
O O18 0.750000 0.886886 0.503482
O O19 0.018732 0.483333 0.214151
#
# Coordination Sequence:
#
# PCOD8244480 Si02
#       8
#     8   8   8   8   8   8   8   8
#     4  12  26  42  62  91 130 169 205 253 313 378
#     4  11  24  42  70  95 120 162 213 265 312 367
#     4  10  21  37  60  91 121 154 201 254 307 363
#     4  12  23  37  61  90 126 167 203 250 314 372
#     4  10  20  36  64  94 118 153 203 259 310 357
#     4  11  24  42  65  94 124 163 213 261 310 370
#     4  11  21  40  64  89 123 164 207 253 302 367
#     4  11  19  40  65  92 122 156 207 265 304 367
#
# _framework density 19.849395000000001
#
# number of rings (size 3 to 8) (size 9 to 14) (size 15 to 20)
#    0.000    1.000    5.000    3.000    0.000    4.000 
#    0.000    0.000    0.000    1.875    0.000    0.000 
#    0.000    0.000    0.000    0.000    0.000    0.000 
#
# Total GULP energy -793975.066782 kJ/mol
# GULP energy per Si atom -12405.860418 kJ/mol
# Density = 1.980422 g / cm^3
# Si number density = 19.849395 Si / 1000 Ang^3
#
#
#
# Elastic Constant Matrix: (Units=GPa)
#
#
# Indices 1 2 3 4 5 6 
#
# 1 98.7579 46.5385 39.2515 0.0000 0.0000 0.0000
# 2 46.5385 117.1674 44.7960 0.0000 0.0000 0.0000
# 3 39.2515 44.7960 116.0294 0.0000 0.0000 0.0000
# 4 0.0000 0.0000 0.0000 16.8335 0.0000 0.0000
# 5 0.0000 0.0000 0.0000 0.0000 22.4601 0.0000
# 6 0.0000 0.0000 0.0000 0.0000 0.0000 12.1258
#
#
#
# Elastic Compliance Matrix: (Units=1/GPa)
#
#
# Indices 1 2 3 4 5 6 
#
# 1 0.013225 -0.004156 -0.002869 0.000000 0.000000 0.000000
# 2 -0.004156 0.011319 -0.002964 0.000000 0.000000 0.000000
# 3 -0.002869 -0.002964 0.010733 0.000000 0.000000 0.000000
# 4 0.000000 0.000000 0.000000 0.059405 0.000000 0.000000
# 5 0.000000 0.000000 0.000000 0.000000 0.044523 0.000000
# 6 0.000000 0.000000 0.000000 0.000000 0.000000 0.082469
#
#
# Mechanical properties :
#
#
# Convention : Reuss Voigt Hill
#
# Bulk Modulus (GPa) = 65.36545 65.90295 65.63420
# Shear Modulus (GPa) = 20.26332 23.70849 21.98590
#
# Velocity S-wave (km/s) = 3.19855 3.45979 3.33173
# Velocity P-wave (km/s) = 6.82958 7.01667 6.92376
#
# Compressibility (1/GPa) = 0.01529860
#
# Stress axis : x y z
#
# Youngs Moduli (GPa) = 75.61718 88.34975 93.16645
#
# Poissons Ratio (x) = 0.36716 0.26732
# Poissons Ratio (y) = 0.31424 0.27615
# Poissons Ratio (z) = 0.21697 0.26187
#
# Static dielectric constant tensor:
#      x y z
#    x 3.618390 0.000000 0.000000 
#    y 0.000000 3.413950 0.000000 
#    z 0.000000 0.000000 3.729960 
# 
# 
# High freq. dielectric constant tensor:
#      x y z
#    x 1.780230 0.000000 0.000000 
#    y 0.000000 1.751180 0.000000 
#    z 0.000000 0.000000 1.785100 
# 
# From -- ./inp_files/17242.got.cif
#   From: 2010.03.12/outbox.cif.g09.slc.cpg/sg59_9_cif.got.tgz:17242.got - 2010.04.16 16:29:54.
