data_PCOD8244460
_publ_section_title
;
Structure prediction by ZEFSAII (Michael W. Deem and Ramdas Pophale) SiO2 
 PCOD8244460
Probable space group: P M M N
;
_chemical_formula_sum "Si O2"
_cell_formula_units_Z 64
_cell_length_a 8.518617
_cell_length_b 25.112537
_cell_length_c 14.280409
_cell_angle_alpha 90.000000
_cell_angle_beta 90.000000
_cell_angle_gamma 90.000000
_cell_volume 3054.923423
_symmetry_space_group_name_H-M "P M M N"
_symmetry_group_IT_number 59
_space_group.IT_coordinate_system_code '2'
_symmetry_cell_setting 'orthorhombic'
loop_
_space_group_symop_operation_xyz
x,y,z
1/2-x,1/2-y,z
1/2+x,-y,-z
-x,1/2+y,-z
-x,-y,-z
1/2+x,1/2+y,-z
1/2-x,y,z
x,1/2-y,z
loop_
_atom_site_type_symbol
_atom_site_label
_atom_site_fract_x
_atom_site_fract_y
_atom_site_fract_z
Si Si1 0.569580 0.594060 0.593236
Si Si2 0.068020 0.983359 0.098774
Si Si3 0.067499 0.860096 0.094277
Si Si4 0.431605 0.998879 0.711198
Si Si5 0.568872 0.403191 0.607158
Si Si6 0.566873 0.188043 0.300603
Si Si7 0.063889 0.808858 0.906661
Si Si8 0.931856 0.811261 0.273662
O O1 0.750000 0.580165 0.612415
O O2 0.461478 0.552981 0.649154
O O3 0.538049 0.588903 0.483434
O O4 0.531430 0.654004 0.625259
O O5 0.250000 0.998072 0.101747
O O6 0.037273 0.921286 0.115811
O O7 0.978534 0.014532 0.181643
O O8 0.000000 0.000000 0.000000
O O9 0.250000 0.844909 0.104107
O O10 0.970340 0.824309 0.166067
O O11 0.006322 0.848129 0.988755
O O12 0.250000 0.014463 0.705009
O O13 0.535466 0.048527 0.677624
O O14 0.750000 0.404174 0.577413
O O15 0.534167 0.347229 0.656958
O O16 0.750000 0.175268 0.313702
O O17 0.532859 0.250000 0.319814
O O18 0.507752 0.171883 0.196030
O O19 0.250000 0.806013 0.902816
O O20 0.996506 0.750000 0.927688
O O21 0.750000 0.823029 0.292392
O O22 0.973881 0.750000 0.294001
#
# Coordination Sequence:
#
# PCOD8244460 Si02
#       8
#     8   8   8   8   8   8   8   8
#     4  12  26  43  66  96 127 164 211 262 319 387
#     4  11  24  40  61  96 134 173 213 260 316 380
#     4  10  20  36  61  90 124 166 214 260 311 377
#     4  12  25  45  70  95 128 168 210 264 320 381
#     4  12  25  45  69  95 125 162 210 264 324 387
#     4   9  19  38  63  92 127 167 212 261 314 373
#     4   8  15  30  55  86 118 155 201 250 299 356
#     4  11  24  41  63  94 131 172 217 266 324 385
#
# _framework density 20.94979
#
# number of rings (size 3 to 8) (size 9 to 14) (size 15 to 20)
#    0.000    1.375    1.250    5.625    1.750    2.750 
#    0.000    0.625    0.000    0.750    0.000    0.000 
#    0.000    0.000    0.000    0.000    0.000    0.000 
#
# Total GULP energy -793897.255373 kJ/mol
# GULP energy per Si atom -12404.644615 kJ/mol
# Density = 2.090211 g / cm^3
# Si number density = 20.949790 Si / 1000 Ang^3
#
#
#
# Elastic Constant Matrix: (Units=GPa)
#
#
# Indices 1 2 3 4 5 6 
#
# 1 79.6190 29.7253 20.0419 0.0000 0.0000 0.0000
# 2 29.7253 80.7102 33.4065 0.0000 0.0000 0.0000
# 3 20.0419 33.4065 123.6292 0.0000 0.0000 0.0000
# 4 0.0000 0.0000 0.0000 33.5257 0.0000 0.0000
# 5 0.0000 0.0000 0.0000 0.0000 35.0306 0.0000
# 6 0.0000 0.0000 0.0000 0.0000 0.0000 26.1436
#
#
#
# Elastic Compliance Matrix: (Units=1/GPa)
#
#
# Indices 1 2 3 4 5 6 
#
# 1 0.014679 -0.004978 -0.001034 0.000000 0.000000 0.000000
# 2 -0.004978 0.015638 -0.003419 0.000000 0.000000 0.000000
# 3 -0.001034 -0.003419 0.009180 0.000000 0.000000 0.000000
# 4 0.000000 0.000000 0.000000 0.029828 0.000000 0.000000
# 5 0.000000 0.000000 0.000000 0.000000 0.028546 0.000000
# 6 0.000000 0.000000 0.000000 0.000000 0.000000 0.038250
#
#
# Mechanical properties :
#
#
# Convention : Reuss Voigt Hill
#
# Bulk Modulus (GPa) = 48.46145 50.03398 49.24771
# Shear Modulus (GPa) = 30.89040 32.32564 31.60802
#
# Velocity S-wave (km/s) = 3.84408 3.93237 3.88848
# Velocity P-wave (km/s) = 6.54867 6.67478 6.61203
#
# Compressibility (1/GPa) = 0.02063496
#
# Stress axis : x y z
#
# Youngs Moduli (GPa) = 68.12586 63.94514 108.93001
#
# Poissons Ratio (x) = 0.31832 0.11269
# Poissons Ratio (y) = 0.33913 0.37240
# Poissons Ratio (z) = 0.07048 0.21861
#
# Static dielectric constant tensor:
#      x y z
#    x 3.607580 0.000000 0.000000 
#    y 0.000000 3.739530 0.000000 
#    z 0.000000 0.000000 3.893030 
# 
# 
# High freq. dielectric constant tensor:
#      x y z
#    x 1.808530 0.000000 0.000000 
#    y 0.000000 1.821770 0.000000 
#    z 0.000000 0.000000 1.833010 
# 
# From -- ./inp_files/21573.got.cif
#   From: 2010.03.12/outbox.cif.g09.slc.cpg/sg59_11_cif.got.tgz:21573.got - 2010.04.16 16:29:54.
