data_PCOD8244237
_publ_section_title
;
Structure prediction by ZEFSAII (Michael W. Deem and Ramdas Pophale) SiO2 
 PCOD8244237
Probable space group: P M M N
;
_chemical_formula_sum "Si O2"
_cell_formula_units_Z 64
_cell_length_a 8.705766
_cell_length_b 21.829853
_cell_length_c 16.699805
_cell_angle_alpha 90.000000
_cell_angle_beta 90.000000
_cell_angle_gamma 90.000000
_cell_volume 3173.724328
_symmetry_space_group_name_H-M "P M M N"
_symmetry_group_IT_number 59
_space_group.IT_coordinate_system_code '2'
_symmetry_cell_setting 'orthorhombic'
loop_
_space_group_symop_operation_xyz
x,y,z
1/2-x,1/2-y,z
1/2+x,-y,-z
-x,1/2+y,-z
-x,-y,-z
1/2+x,1/2+y,-z
1/2-x,y,z
x,1/2-y,z
loop_
_atom_site_type_symbol
_atom_site_label
_atom_site_fract_x
_atom_site_fract_y
_atom_site_fract_z
Si Si1 0.927607 0.888881 0.879602
Si Si2 0.930312 0.982076 0.126226
Si Si3 0.570447 0.126146 0.963417
Si Si4 0.428776 0.422528 0.712722
Si Si5 0.577781 0.321099 0.261823
Si Si6 0.922702 0.319759 0.798763
Si Si7 0.066830 0.062417 0.535663
Si Si8 0.568405 0.179780 0.445171
O O1 0.750000 0.906958 0.881902
O O2 0.959764 0.853565 0.797578
O O3 0.036020 0.947523 0.887132
O O4 0.976132 0.850275 0.958580
O O5 0.750000 0.967999 0.117294
O O6 0.991393 0.965727 0.215881
O O7 0.022378 0.942929 0.060527
O O8 0.750000 0.129234 0.983112
O O9 0.523225 0.170597 0.890318
O O10 0.250000 0.430910 0.704589
O O11 0.468209 0.352957 0.735555
O O12 0.499007 0.438318 0.626358
O O13 0.750000 0.347504 0.249367
O O14 0.576553 0.250000 0.241352
O O15 0.523943 0.332307 0.352726
O O16 0.750000 0.345733 0.789995
O O17 0.931926 0.250000 0.774811
O O18 0.250000 0.060433 0.530369
O O19 0.012863 0.126211 0.495428
O O20 0.000000 0.000000 0.500000
O O21 0.750000 0.174115 0.457044
O O22 0.517448 0.250000 0.469197
#
# Coordination Sequence:
#
# PCOD8244237 Si02
#       8
#     8   8   8   8   8   8   8   8
#     4  12  24  35  53  83 114 146 187 234 285 341
#     4  10  20  37  58  78 107 148 191 235 285 340
#     4  10  20  36  55  79 112 149 190 236 285 338
#     4   9  21  39  57  81 113 149 188 230 279 340
#     4   9  20  40  62  82 108 146 191 235 283 342
#     4   9  19  36  59  85 112 145 187 234 281 333
#     4  11  24  40  60  91 126 160 199 248 301 355
#     4   9  20  41  66  89 117 157 201 245 299 363
#
# _framework density 20.165582000000001
#
# number of rings (size 3 to 8) (size 9 to 14) (size 15 to 20)
#    0.000    2.125    0.000    3.375    1.750    4.250 
#    0.000    5.000    0.000    0.000    0.000    0.000 
#    0.000    0.000    0.000    0.000    0.000    0.000 
#
# Total GULP energy -793403.617946 kJ/mol
# GULP energy per Si atom -12396.931530 kJ/mol
# Density = 2.011968 g / cm^3
# Si number density = 20.165582 Si / 1000 Ang^3
#
#
#
# Elastic Constant Matrix: (Units=GPa)
#
#
# Indices 1 2 3 4 5 6 
#
# 1 53.0241 22.2256 34.5109 0.0000 0.0000 0.0000
# 2 22.2256 71.1502 33.7665 0.0000 0.0000 0.0000
# 3 34.5109 33.7665 114.4662 0.0000 0.0000 0.0000
# 4 0.0000 0.0000 0.0000 20.6807 0.0000 0.0000
# 5 0.0000 0.0000 0.0000 0.0000 31.1074 0.0000
# 6 0.0000 0.0000 0.0000 0.0000 0.0000 32.6111
#
#
#
# Elastic Compliance Matrix: (Units=1/GPa)
#
#
# Indices 1 2 3 4 5 6 
#
# 1 0.024846 -0.004891 -0.006048 0.000000 0.000000 0.000000
# 2 -0.004891 0.017305 -0.003630 0.000000 0.000000 0.000000
# 3 -0.006048 -0.003630 0.011631 0.000000 0.000000 0.000000
# 4 0.000000 0.000000 0.000000 0.048354 0.000000 0.000000
# 5 0.000000 0.000000 0.000000 0.000000 0.032147 0.000000
# 6 0.000000 0.000000 0.000000 0.000000 0.000000 0.030664
#
#
# Mechanical properties :
#
#
# Convention : Reuss Voigt Hill
#
# Bulk Modulus (GPa) = 40.57927 46.62739 43.60333
# Shear Modulus (GPa) = 24.71571 26.75568 25.73570
#
# Velocity S-wave (km/s) = 3.50471 3.64648 3.57630
# Velocity P-wave (km/s) = 6.04517 6.39543 6.22276
#
# Compressibility (1/GPa) = 0.02464312
#
# Stress axis : x y z
#
# Youngs Moduli (GPa) = 40.24813 57.78514 85.98013
#
# Poissons Ratio (x) = 0.28262 0.52002
# Poissons Ratio (y) = 0.19685 0.31214
# Poissons Ratio (z) = 0.24342 0.20978
#
# Static dielectric constant tensor:
#      x y z
#    x 3.565140 0.000000 0.000000 
#    y 0.000000 3.544730 0.000000 
#    z 0.000000 0.000000 4.058920 
# 
# 
# High freq. dielectric constant tensor:
#      x y z
#    x 1.779200 0.000000 0.000000 
#    y 0.000000 1.778850 0.000000 
#    z 0.000000 0.000000 1.799880 
# 
# From -- ./inp_files/21450.got.cif
#   From: 2010.03.12/outbox.cif.g09.slc.cpg/sg59_11_cif.got.tgz:21450.got - 2010.04.16 16:29:54.
