data_PCOD8244832
_publ_section_title
;
Structure prediction by ZEFSAII (Michael W. Deem and Ramdas Pophale) SiO2 
 PCOD8244832
Probable space group: P M M N
;
_chemical_formula_sum "Si O2"
_cell_formula_units_Z 64
_cell_length_a 13.180312
_cell_length_b 17.729534
_cell_length_c 13.679356
_cell_angle_alpha 90.000000
_cell_angle_beta 90.000000
_cell_angle_gamma 90.000000
_cell_volume 3196.602713
_symmetry_space_group_name_H-M "P M M N"
_symmetry_group_IT_number 59
_space_group.IT_coordinate_system_code '2'
_symmetry_cell_setting 'orthorhombic'
loop_
_space_group_symop_operation_xyz
x,y,z
1/2-x,1/2-y,z
1/2+x,-y,-z
-x,1/2+y,-z
-x,-y,-z
1/2+x,1/2+y,-z
1/2-x,y,z
x,1/2-y,z
loop_
_atom_site_type_symbol
_atom_site_label
_atom_site_fract_x
_atom_site_fract_y
_atom_site_fract_z
Si Si1 0.130801 0.333164 0.019317
Si Si2 0.011328 0.571055 0.693875
Si Si3 0.364808 0.876216 0.067387
Si Si4 0.954014 0.664850 0.185721
Si Si5 0.867786 0.163428 0.146714
Si Si6 0.364819 0.465687 0.151351
Si Si7 0.868364 0.567306 0.359481
Si Si8 0.633682 0.838217 0.554396
O O1 0.250000 0.330747 0.030744
O O2 0.083919 0.250000 0.039602
O O3 0.106893 0.361220 0.910361
O O4 0.088699 0.391142 0.099802
O O5 0.932184 0.518655 0.753253
O O6 0.947467 0.631484 0.631981
O O7 0.083386 0.613874 0.768988
O O8 0.079302 0.514965 0.627305
O O9 0.250000 0.846237 0.077604
O O10 0.427027 0.839697 0.157185
O O11 0.370961 0.966502 0.074270
O O12 0.412803 0.852411 0.962574
O O13 0.925778 0.750000 0.216917
O O14 0.923388 0.609372 0.271255
O O15 0.750000 0.141083 0.142377
O O16 0.884300 0.250000 0.174767
O O17 0.250000 0.453389 0.186765
O O18 0.750000 0.556552 0.336094
O O19 0.885160 0.616351 0.455441
O O20 0.750000 0.850034 0.590977
O O21 0.612505 0.750000 0.535690
#
# Coordination Sequence:
#
# PCOD8244832 Si02
#       8
#     8   8   8   8   8   8   8   8
#     4   9  19  33  50  78 117 156 196 245 297 349
#     4  12  22  38  63  90 119 153 200 243 300 356
#     4  10  21  37  55  81 119 165 205 247 293 344
#     4  11  21  35  58  85 113 156 204 247 296 354
#     4  10  22  38  57  85 122 163 206 248 290 345
#     4  10  21  35  54  82 119 156 195 243 294 348
#     4  11  24  41  62  91 122 155 195 248 306 363
#     4  10  23  44  68  92 119 151 191 245 309 371
#
# _framework density 20.021255
#
# number of rings (size 3 to 8) (size 9 to 14) (size 15 to 20)
#    0.000    1.625    1.250    3.375    1.750    5.000 
#    0.000    1.250    0.000    0.750    0.000    0.000 
#    0.000    0.000    0.000    0.000    0.000    0.000 
#
# Total GULP energy -793608.551666 kJ/mol
# GULP energy per Si atom -12400.133620 kJ/mol
# Density = 1.997569 g / cm^3
# Si number density = 20.021255 Si / 1000 Ang^3
#
#
#
# Elastic Constant Matrix: (Units=GPa)
#
#
# Indices 1 2 3 4 5 6 
#
# 1 82.6068 38.5170 38.0983 0.0000 0.0000 0.0000
# 2 38.5170 88.5178 33.3461 0.0000 0.0000 0.0000
# 3 38.0983 33.3461 76.4486 0.0000 0.0000 0.0000
# 4 0.0000 0.0000 0.0000 32.1474 0.0000 0.0000
# 5 0.0000 0.0000 0.0000 0.0000 33.8424 0.0000
# 6 0.0000 0.0000 0.0000 0.0000 0.0000 23.8797
#
#
#
# Elastic Compliance Matrix: (Units=1/GPa)
#
#
# Indices 1 2 3 4 5 6 
#
# 1 0.017502 -0.005181 -0.006462 0.000000 0.000000 0.000000
# 2 -0.005181 0.015052 -0.003984 0.000000 0.000000 0.000000
# 3 -0.006462 -0.003984 0.018039 0.000000 0.000000 0.000000
# 4 0.000000 0.000000 0.000000 0.031107 0.000000 0.000000
# 5 0.000000 0.000000 0.000000 0.000000 0.029549 0.000000
# 6 0.000000 0.000000 0.000000 0.000000 0.000000 0.041876
#
#
# Mechanical properties :
#
#
# Convention : Reuss Voigt Hill
#
# Bulk Modulus (GPa) = 51.70891 51.94398 51.82645
# Shear Modulus (GPa) = 26.20207 27.14803 26.67505
#
# Velocity S-wave (km/s) = 3.62154 3.68633 3.65408
# Velocity P-wave (km/s) = 6.58563 6.64225 6.61400
#
# Compressibility (1/GPa) = 0.01933903
#
# Stress axis : x y z
#
# Youngs Moduli (GPa) = 57.13753 66.43476 55.43649
#
# Poissons Ratio (x) = 0.34421 0.35823
# Poissons Ratio (y) = 0.29604 0.22084
# Poissons Ratio (z) = 0.36922 0.26465
#
# Static dielectric constant tensor:
#      x y z
#    x 3.819180 0.000000 0.000000 
#    y 0.000000 3.790810 0.000000 
#    z 0.000000 0.000000 3.433810 
# 
# 
# High freq. dielectric constant tensor:
#      x y z
#    x 1.800400 0.000000 0.000000 
#    y 0.000000 1.789450 0.000000 
#    z 0.000000 0.000000 1.759130 
# 
# From -- ./inp_files/17221.got.cif
#   From: 2010.03.12/outbox.cif.g09.slc.cpg/sg59_9_cif.got.tgz:17221.got - 2010.04.16 16:29:54.
