data_PCOD8244345
_publ_section_title
;
Structure prediction by ZEFSAII (Michael W. Deem and Ramdas Pophale) SiO2 
 PCOD8244345
Probable space group: P M M N
;
_chemical_formula_sum "Si O2"
_cell_formula_units_Z 56
_cell_length_a 8.456083
_cell_length_b 20.295423
_cell_length_c 17.187202
_cell_angle_alpha 90.000000
_cell_angle_beta 90.000000
_cell_angle_gamma 90.000000
_cell_volume 2949.663850
_symmetry_space_group_name_H-M "P M M N"
_symmetry_group_IT_number 59
_space_group.IT_coordinate_system_code '2'
_symmetry_cell_setting 'orthorhombic'
loop_
_space_group_symop_operation_xyz
x,y,z
1/2-x,1/2-y,z
1/2+x,-y,-z
-x,1/2+y,-z
-x,-y,-z
1/2+x,1/2+y,-z
1/2-x,y,z
x,1/2-y,z
loop_
_atom_site_type_symbol
_atom_site_label
_atom_site_fract_x
_atom_site_fract_y
_atom_site_fract_z
Si Si1 0.067745 0.250000 0.712691
Si Si2 0.569165 0.353601 0.821299
Si Si3 0.432419 0.006255 0.377754
Si Si4 0.566534 0.397148 0.499564
Si Si5 0.433520 0.750000 0.451822
Si Si6 0.565041 0.820652 0.015996
Si Si7 0.439173 0.050649 0.064491
Si Si8 0.567114 0.509896 0.213757
O O1 0.250000 0.250000 0.736074
O O2 0.983168 0.185393 0.745093
O O3 0.049298 0.250000 0.620765
O O4 0.750000 0.338814 0.841574
O O5 0.547573 0.429480 0.802449
O O6 0.464049 0.332215 0.893347
O O7 0.250000 0.006206 0.353455
O O8 0.464771 0.069899 0.431343
O O9 0.476022 0.936906 0.420711
O O10 0.537141 0.016003 0.300649
O O11 0.750000 0.408772 0.480654
O O12 0.528836 0.318436 0.502376
O O13 0.250000 0.750000 0.425859
O O14 0.750000 0.819204 0.003341
O O15 0.491183 0.750000 0.991098
O O16 0.495482 0.878400 0.963014
O O17 0.250000 0.045956 0.070157
O O18 0.519553 0.043088 0.148549
O O19 0.500000 0.000000 0.000000
O O20 0.750000 0.529661 0.204337
#
# Coordination Sequence:
#
# PCOD8244345 Si02
#       8
#     4   8   8   8   4   8   8   8
#     4  12  24  36  52  80 121 158 193 232 284 348
#     4  12  23  35  54  81 114 152 192 235 287 345
#     4  10  20  36  59  86 116 150 192 238 286 346
#     4   9  19  36  59  86 116 151 188 233 288 345
#     4  10  20  36  58  84 117 154 193 234 280 342
#     4  10  21  38  59  81 111 150 190 233 287 346
#     4  11  22  37  59  86 117 151 193 242 291 344
#     4  12  24  38  58  84 116 151 194 245 293 343
#
# _framework density 18.985213999999999
#
# number of rings (size 3 to 8) (size 9 to 14) (size 15 to 20)
#    0.000    1.286    2.143    4.929    0.000    2.857 
#    0.000    0.000    1.571    0.000    0.000    0.000 
#    0.000    0.000    0.000    0.000    0.000    0.000 
#
# Total GULP energy -694366.667885 kJ/mol
# GULP energy per Si atom -12399.404784 kJ/mol
# Density = 1.894200 g / cm^3
# Si number density = 18.985214 Si / 1000 Ang^3
#
#
#
# Elastic Constant Matrix: (Units=GPa)
#
#
# Indices 1 2 3 4 5 6 
#
# 1 49.8000 21.1576 23.9349 0.0000 0.0000 0.0000
# 2 21.1576 145.6832 55.8265 0.0000 0.0000 0.0000
# 3 23.9349 55.8265 96.8299 0.0000 0.0000 0.0000
# 4 0.0000 0.0000 0.0000 26.7042 0.0000 0.0000
# 5 0.0000 0.0000 0.0000 0.0000 28.1299 0.0000
# 6 0.0000 0.0000 0.0000 0.0000 0.0000 24.4252
#
#
#
# Elastic Compliance Matrix: (Units=1/GPa)
#
#
# Indices 1 2 3 4 5 6 
#
# 1 0.023038 -0.001494 -0.004834 0.000000 0.000000 0.000000
# 2 -0.001494 0.008908 -0.004766 0.000000 0.000000 0.000000
# 3 -0.004834 -0.004766 0.014270 0.000000 0.000000 0.000000
# 4 0.000000 0.000000 0.000000 0.037447 0.000000 0.000000
# 5 0.000000 0.000000 0.000000 0.000000 0.035549 0.000000
# 6 0.000000 0.000000 0.000000 0.000000 0.000000 0.040941
#
#
# Mechanical properties :
#
#
# Convention : Reuss Voigt Hill
#
# Bulk Modulus (GPa) = 41.61683 54.90569 48.26126
# Shear Modulus (GPa) = 26.26732 28.61146 27.43939
#
# Velocity S-wave (km/s) = 3.72367 3.88627 3.80584
# Velocity P-wave (km/s) = 6.36049 7.00860 6.69240
#
# Compressibility (1/GPa) = 0.02402874
#
# Stress axis : x y z
#
# Youngs Moduli (GPa) = 43.40659 112.26312 70.07607
#
# Poissons Ratio (x) = 0.16767 0.33871
# Poissons Ratio (y) = 0.06483 0.33401
# Poissons Ratio (z) = 0.20981 0.53510
#
# Static dielectric constant tensor:
#      x y z
#    x 3.448580 0.000000 0.000000 
#    y 0.000000 3.907160 0.000000 
#    z 0.000000 0.000000 3.443980 
# 
# 
# High freq. dielectric constant tensor:
#      x y z
#    x 1.741920 0.000000 0.000000 
#    y 0.000000 1.739680 0.000000 
#    z 0.000000 0.000000 1.724310 
# 
# From -- ./inp_files/21146.got.cif
#   From: 2010.03.12/outbox.cif.g09.slc.cpg/sg59_11_cif.got.tgz:21146.got - 2010.04.16 16:29:54.
