data_PCOD8244731
_publ_section_title
;
Structure prediction by ZEFSAII (Michael W. Deem and Ramdas Pophale) SiO2 
 PCOD8244731
Probable space group: P M M N
;
_chemical_formula_sum "Si O2"
_cell_formula_units_Z 48
_cell_length_a 9.315027
_cell_length_b 30.511915
_cell_length_c 9.857277
_cell_angle_alpha 90.000000
_cell_angle_beta 90.000000
_cell_angle_gamma 90.000000
_cell_volume 2801.628488
_symmetry_space_group_name_H-M "P M M N"
_symmetry_group_IT_number 59
_space_group.IT_coordinate_system_code '2'
_symmetry_cell_setting 'orthorhombic'
loop_
_space_group_symop_operation_xyz
x,y,z
1/2-x,1/2-y,z
1/2+x,-y,-z
-x,1/2+y,-z
-x,-y,-z
1/2+x,1/2+y,-z
1/2-x,y,z
x,1/2-y,z
loop_
_atom_site_type_symbol
_atom_site_label
_atom_site_fract_x
_atom_site_fract_y
_atom_site_fract_z
Si Si1 0.583726 0.199007 0.668320
Si Si2 0.083618 0.370436 0.183237
Si Si3 0.912619 0.859113 0.131706
Si Si4 0.582340 0.800052 0.599350
Si Si5 0.587135 0.954681 0.115876
Si Si6 0.914369 0.451944 0.153731
O O1 0.750000 0.187653 0.651277
O O2 0.557599 0.250000 0.696622
O O3 0.521969 0.173188 0.796203
O O4 0.503061 0.183923 0.532524
O O5 0.250000 0.379623 0.203760
O O6 0.032768 0.329624 0.274235
O O7 0.003780 0.414847 0.233405
O O8 0.046830 0.359810 0.027455
O O9 0.750000 0.841861 0.151488
O O10 0.928833 0.908352 0.194866
O O11 0.750000 0.805371 0.567557
O O12 0.543640 0.750000 0.636533
O O13 0.750000 0.956117 0.053034
O O14 0.566296 0.997938 0.211908
O O15 0.467100 0.954966 0.000608
O O16 0.750000 0.437021 0.157552
#
# Coordination Sequence:
#
# PCOD8244731 Si02
#       6
#     8   8   8   8   8   8
#     4  10  21  35  49  68  95 124 155 193 236 282
#     4   9  18  31  48  73 100 122 152 196 237 273
#     4   9  17  30  49  72  97 124 155 192 231 271
#     4   9  18  34  54  71  89 121 162 196 231 280
#     4   8  15  27  42  64  94 125 157 192 227 267
#     4   9  15  24  42  67  95 126 155 185 228 279
#
# _framework density 17.132891999999998
#
# number of rings (size 3 to 8) (size 9 to 14) (size 15 to 20)
#    0.000    3.000    0.000    2.000    0.000    5.667 
#    0.000    1.667    0.000    3.000    0.000    0.000 
#    0.000    0.000    0.000    0.000    0.000    0.000 
#
# Total GULP energy -594793.464292 kJ/mol
# GULP energy per Si atom -12391.530506 kJ/mol
# Density = 1.709390 g / cm^3
# Si number density = 17.132892 Si / 1000 Ang^3
#
#
#
# Elastic Constant Matrix: (Units=GPa)
#
#
# Indices 1 2 3 4 5 6 
#
# 1 68.4790 49.7019 35.0483 0.0000 0.0000 0.0000
# 2 49.7019 100.7128 49.0575 0.0000 0.0000 0.0000
# 3 35.0483 49.0575 57.8412 0.0000 0.0000 0.0000
# 4 0.0000 0.0000 0.0000 5.2295 0.0000 0.0000
# 5 0.0000 0.0000 0.0000 0.0000 18.2660 0.0000
# 6 0.0000 0.0000 0.0000 0.0000 0.0000 31.4831
#
#
#
# Elastic Compliance Matrix: (Units=1/GPa)
#
#
# Indices 1 2 3 4 5 6 
#
# 1 0.024697 -0.008347 -0.007886 0.000000 0.000000 0.000000
# 2 -0.008347 0.019740 -0.011685 0.000000 0.000000 0.000000
# 3 -0.007886 -0.011685 0.031977 0.000000 0.000000 0.000000
# 4 0.000000 0.000000 0.000000 0.191224 0.000000 0.000000
# 5 0.000000 0.000000 0.000000 0.000000 0.054747 0.000000
# 6 0.000000 0.000000 0.000000 0.000000 0.000000 0.031763
#
#
# Mechanical properties :
#
#
# Convention : Reuss Voigt Hill
#
# Bulk Modulus (GPa) = 48.59082 54.96092 51.77587
# Shear Modulus (GPa) = 11.99495 17.21073 14.60284
#
# Velocity S-wave (km/s) = 2.64883 3.17289 2.92263
# Velocity P-wave (km/s) = 6.14636 6.75069 6.45560
#
# Compressibility (1/GPa) = 0.02058002
#
# Stress axis : x y z
#
# Youngs Moduli (GPa) = 40.49049 50.65834 31.27238
#
# Poissons Ratio (x) = 0.42285 0.24660
# Poissons Ratio (y) = 0.33797 0.36541
# Poissons Ratio (z) = 0.31929 0.59192
#
# Static dielectric constant tensor:
#      x y z
#    x 3.232050 0.000000 0.000000 
#    y 0.000000 3.637610 0.000000 
#    z 0.000000 0.000000 2.804920 
# 
# 
# High freq. dielectric constant tensor:
#      x y z
#    x 1.665980 0.000000 0.000000 
#    y 0.000000 1.679390 0.000000 
#    z 0.000000 0.000000 1.605680 
# 
# From -- ./inp_files/14700.got.cif
#   From: 2010.03.12/outbox.cif.g09.slc.cpg/sg59_8_cif.got.tgz:14700.got - 2010.04.16 16:29:54.
