data_PCOD8244877
_publ_section_title
;
Structure prediction by ZEFSAII (Michael W. Deem and Ramdas Pophale) SiO2 
 PCOD8244877
Probable space group: P M M N
;
_chemical_formula_sum "Si O2"
_cell_formula_units_Z 64
_cell_length_a 18.030778
_cell_length_b 8.917977
_cell_length_c 21.662313
_cell_angle_alpha 90.000000
_cell_angle_beta 90.000000
_cell_angle_gamma 90.000000
_cell_volume 3483.257981
_symmetry_space_group_name_H-M "P M M N"
_symmetry_group_IT_number 59
_space_group.IT_coordinate_system_code '2'
_symmetry_cell_setting 'orthorhombic'
loop_
_space_group_symop_operation_xyz
x,y,z
1/2-x,1/2-y,z
1/2+x,-y,-z
-x,1/2+y,-z
-x,-y,-z
1/2+x,1/2+y,-z
1/2-x,y,z
x,1/2-y,z
loop_
_atom_site_type_symbol
_atom_site_label
_atom_site_fract_x
_atom_site_fract_y
_atom_site_fract_z
Si Si1 0.336007 0.576573 0.512397
Si Si2 0.098210 0.927260 0.752943
Si Si3 0.974471 0.576723 0.061822
Si Si4 0.167132 0.424353 0.866268
Si Si5 0.589404 0.572438 0.374675
Si Si6 0.459357 0.924190 0.189052
Si Si7 0.921787 0.427979 0.608066
Si Si8 0.832015 0.426748 0.724694
O O1 0.250000 0.555501 0.495880
O O2 0.354417 0.750000 0.526446
O O3 0.356148 0.476669 0.570968
O O4 0.383738 0.515478 0.454743
O O5 0.102245 0.750000 0.748684
O O6 0.157260 0.984253 0.803249
O O7 0.120002 0.997038 0.687375
O O8 0.015887 0.978157 0.771192
O O9 0.972196 0.750000 0.046600
O O10 0.892540 0.520605 0.082712
O O11 0.033100 0.539454 0.116401
O O12 0.000000 0.500000 0.000000
O O13 0.250000 0.451641 0.892109
O O14 0.152403 0.250000 0.851301
O O15 0.591539 0.750000 0.366889
O O16 0.506202 0.513931 0.389180
O O17 0.478618 0.750000 0.201810
O O18 0.376701 0.963807 0.212208
O O19 0.920011 0.250000 0.611135
O O20 0.875974 0.494526 0.666095
O O21 0.750000 0.499270 0.729422
O O22 0.824558 0.250000 0.716034
#
# Coordination Sequence:
#
# PCOD8244877 Si02
#       8
#     8   8   8   8   8   8   8   8
#     4  10  21  36  52  74 104 133 169 220 269 312
#     4  11  21  33  53  80 107 136 171 216 271 320
#     4   9  18  32  53  79 108 143 180 215 253 302
#     4   9  19  37  59  81 107 141 182 225 268 316
#     4  11  21  35  55  76 102 138 178 216 258 318
#     4   9  17  33  53  76 107 140 177 217 257 309
#     4   9  17  31  53  78 101 131 171 214 261 313
#     4   9  15  26  51  82 105 129 168 216 263 311
#
# _framework density 18.373604
#
# number of rings (size 3 to 8) (size 9 to 14) (size 15 to 20)
#    0.000    2.375    1.250    3.000    0.000    4.500 
#    0.000    1.250    0.000    1.125    0.000    0.000 
#    0.000    0.000    0.000    0.000    0.000    0.000 
#
# Total GULP energy -793546.804043 kJ/mol
# GULP energy per Si atom -12399.168813 kJ/mol
# Density = 1.833178 g / cm^3
# Si number density = 18.373604 Si / 1000 Ang^3
#
#
#
# Elastic Constant Matrix: (Units=GPa)
#
#
# Indices 1 2 3 4 5 6 
#
# 1 94.0210 23.3435 49.1429 0.0000 0.0000 0.0000
# 2 23.3435 59.1515 40.7545 0.0000 0.0000 0.0000
# 3 49.1429 40.7545 143.4558 0.0000 0.0000 0.0000
# 4 0.0000 0.0000 0.0000 26.6829 0.0000 0.0000
# 5 0.0000 0.0000 0.0000 0.0000 24.0242 0.0000
# 6 0.0000 0.0000 0.0000 0.0000 0.0000 17.7024
#
#
#
# Elastic Compliance Matrix: (Units=1/GPa)
#
#
# Indices 1 2 3 4 5 6 
#
# 1 0.013274 -0.002618 -0.003803 0.000000 0.000000 0.000000
# 2 -0.002618 0.021536 -0.005221 0.000000 0.000000 0.000000
# 3 -0.003803 -0.005221 0.009757 0.000000 0.000000 0.000000
# 4 0.000000 0.000000 0.000000 0.037477 0.000000 0.000000
# 5 0.000000 0.000000 0.000000 0.000000 0.041625 0.000000
# 6 0.000000 0.000000 0.000000 0.000000 0.000000 0.056490
#
#
# Mechanical properties :
#
#
# Convention : Reuss Voigt Hill
#
# Bulk Modulus (GPa) = 46.98867 58.12333 52.55600
# Shear Modulus (GPa) = 23.74864 25.90772 24.82818
#
# Velocity S-wave (km/s) = 3.59909 3.75914 3.67999
# Velocity P-wave (km/s) = 6.54987 7.10945 6.83539
#
# Compressibility (1/GPa) = 0.02128173
#
# Stress axis : x y z
#
# Youngs Moduli (GPa) = 75.33597 46.43301 102.48956
#
# Poissons Ratio (x) = 0.12156 0.38981
# Poissons Ratio (y) = 0.19722 0.53515
# Poissons Ratio (z) = 0.28654 0.24245
#
# Static dielectric constant tensor:
#      x y z
#    x 3.564830 0.000000 0.000000 
#    y 0.000000 3.065720 0.000000 
#    z 0.000000 0.000000 3.412030 
# 
# 
# High freq. dielectric constant tensor:
#      x y z
#    x 1.714060 0.000000 0.000000 
#    y 0.000000 1.681060 0.000000 
#    z 0.000000 0.000000 1.711020 
# 
# From -- ./inp_files/30731.got.cif
#   From: 2010.03.12/outbox.cif.g09.slc.cpg/sg59_16_cif.got.tgz:30731.got - 2010.04.16 16:29:54.
