data_PCOD8244743
_publ_section_title
;
Structure prediction by ZEFSAII (Michael W. Deem and Ramdas Pophale) SiO2 
 PCOD8244743
Probable space group: P M M N
;
_chemical_formula_sum "Si O2"
_cell_formula_units_Z 40
_cell_length_a 24.885864
_cell_length_b 9.308931
_cell_length_c 9.856952
_cell_angle_alpha 90.000000
_cell_angle_beta 90.000000
_cell_angle_gamma 90.000000
_cell_volume 2283.469296
_symmetry_space_group_name_H-M "P M M N"
_symmetry_group_IT_number 59
_space_group.IT_coordinate_system_code '2'
_symmetry_cell_setting 'orthorhombic'
loop_
_space_group_symop_operation_xyz
x,y,z
1/2-x,1/2-y,z
1/2+x,-y,-z
-x,1/2+y,-z
-x,-y,-z
1/2+x,1/2+y,-z
1/2-x,y,z
x,1/2-y,z
loop_
_atom_site_type_symbol
_atom_site_label
_atom_site_fract_x
_atom_site_fract_y
_atom_site_fract_z
Si Si1 0.615967 0.587045 0.139926
Si Si2 0.003055 0.915560 0.138929
Si Si3 0.188693 0.083415 0.393348
Si Si4 0.187480 0.583341 0.659598
Si Si5 0.398223 0.083429 0.173839
O O1 0.636856 0.750000 0.158012
O O2 0.556166 0.572617 0.205874
O O3 0.655786 0.478773 0.212884
O O4 0.615781 0.545501 0.981235
O O5 0.018022 0.750000 0.112406
O O6 0.050350 0.990783 0.226315
O O7 0.000000 0.000000 0.000000
O O8 0.250000 0.044395 0.355795
O O9 0.182644 0.250000 0.430945
O O10 0.152816 0.041203 0.264487
O O11 0.168426 0.994075 0.522369
O O12 0.250000 0.554655 0.686207
O O13 0.174097 0.750000 0.644821
O O14 0.413565 0.250000 0.188669
#
# Coordination Sequence:
#
# PCOD8244743 Si02
#       5
#     8   8   8   8   8
#     4   9  18  32  51  75 100 128 163 200 239 289
#     4   9  17  30  49  73 101 131 162 198 243 291
#     4   9  18  34  54  73  97 131 166 201 245 295
#     4  10  21  35  50  71  99 130 165 204 246 291
#     4   9  18  32  52  78 102 126 162 204 244 290
#
# _framework density 17.517205000000001
#
# number of rings (size 3 to 8) (size 9 to 14) (size 15 to 20)
#    0.000    2.800    0.000    2.400    0.000    6.800 
#    0.000    3.000    0.000    2.400    0.000    0.000 
#    0.000    0.000    0.000    0.000    0.000    0.000 
#
# Total GULP energy -495894.055197 kJ/mol
# GULP energy per Si atom -12397.351380 kJ/mol
# Density = 1.747733 g / cm^3
# Si number density = 17.517205 Si / 1000 Ang^3
#
#
#
# Elastic Constant Matrix: (Units=GPa)
#
#
# Indices 1 2 3 4 5 6 
#
# 1 88.0259 57.8975 54.8404 0.0000 0.0000 0.0000
# 2 57.8975 93.7539 47.6259 0.0000 0.0000 0.0000
# 3 54.8404 47.6259 80.0475 0.0000 0.0000 0.0000
# 4 0.0000 0.0000 0.0000 24.0651 0.0000 0.0000
# 5 0.0000 0.0000 0.0000 0.0000 10.2619 0.0000
# 6 0.0000 0.0000 0.0000 0.0000 0.0000 35.2388
#
#
#
# Elastic Compliance Matrix: (Units=1/GPa)
#
#
# Indices 1 2 3 4 5 6 
#
# 1 0.024574 -0.009492 -0.011188 0.000000 0.000000 0.000000
# 2 -0.009492 0.018953 -0.004773 0.000000 0.000000 0.000000
# 3 -0.011188 -0.004773 0.022997 0.000000 0.000000 0.000000
# 4 0.000000 0.000000 0.000000 0.041554 0.000000 0.000000
# 5 0.000000 0.000000 0.000000 0.000000 0.097448 0.000000
# 6 0.000000 0.000000 0.000000 0.000000 0.000000 0.028378
#
#
# Mechanical properties :
#
#
# Convention : Reuss Voigt Hill
#
# Bulk Modulus (GPa) = 64.03178 64.72832 64.38005
# Shear Modulus (GPa) = 17.24044 20.67741 18.95893
#
# Velocity S-wave (km/s) = 3.14060 3.43943 3.29341
# Velocity P-wave (km/s) = 7.05579 7.26666 7.16200
#
# Compressibility (1/GPa) = 0.01561725
#
# Stress axis : x y z
#
# Youngs Moduli (GPa) = 40.69414 52.76255 43.48329
#
# Poissons Ratio (x) = 0.50083 0.48648
# Poissons Ratio (y) = 0.38627 0.20756
# Poissons Ratio (z) = 0.45528 0.25186
#
# Static dielectric constant tensor:
#      x y z
#    x 3.694960 0.000000 0.000000 
#    y 0.000000 3.401950 0.000000 
#    z 0.000000 0.000000 3.024160 
# 
# 
# High freq. dielectric constant tensor:
#      x y z
#    x 1.683240 0.000000 0.000000 
#    y 0.000000 1.683130 0.000000 
#    z 0.000000 0.000000 1.648200 
# 
# From -- ./inp_files/5823.got.cif
#   From: 2010.03.12/outbox.cif.g09.slc.cpg/sg59_3_cif.got.tgz:5823.got - 2010.04.16 16:29:54.
