data_PCOD8244965
_publ_section_title
;
Structure prediction by ZEFSAII (Michael W. Deem and Ramdas Pophale) SiO2 
 PCOD8244965
Probable space group: P M M N
;
_chemical_formula_sum "Si O2"
_cell_formula_units_Z 64
_cell_length_a 25.778830
_cell_length_b 25.667297
_cell_length_c 5.054476
_cell_angle_alpha 90.000000
_cell_angle_beta 90.000000
_cell_angle_gamma 90.000000
_cell_volume 3344.409722
_symmetry_space_group_name_H-M "P M M N"
_symmetry_group_IT_number 59
_space_group.IT_coordinate_system_code '2'
_symmetry_cell_setting 'orthorhombic'
loop_
_space_group_symop_operation_xyz
x,y,z
1/2-x,1/2-y,z
1/2+x,-y,-z
-x,1/2+y,-z
-x,-y,-z
1/2+x,1/2+y,-z
1/2-x,y,z
x,1/2-y,z
loop_
_atom_site_type_symbol
_atom_site_label
_atom_site_fract_x
_atom_site_fract_y
_atom_site_fract_z
Si Si1 0.657380 0.473336 0.523382
Si Si2 0.808079 0.968010 0.015492
Si Si3 0.642713 0.144678 0.413687
Si Si4 0.308678 0.690007 0.088045
Si Si5 0.965877 0.190763 0.415900
Si Si6 0.053673 0.029781 0.517245
Si Si7 0.088027 0.089304 0.024255
Si Si8 0.534177 0.690999 0.086346
O O1 0.686415 0.507516 0.304421
O O2 0.663202 0.412756 0.470453
O O3 0.596764 0.486146 0.532364
O O4 0.683431 0.486014 0.804128
O O5 0.750000 0.944545 0.988283
O O6 0.850207 0.922113 0.968543
O O7 0.672784 0.182852 0.611509
O O8 0.581138 0.150635 0.456469
O O9 0.655140 0.157903 0.110530
O O10 0.250000 0.670120 0.059439
O O11 0.313331 0.750000 0.011676
O O12 0.945564 0.250000 0.454023
O O13 0.010668 0.178426 0.626973
O O14 0.988400 0.183090 0.123946
O O15 0.060032 0.075215 0.299702
O O16 0.059269 0.054917 0.804693
O O17 0.000000 0.000000 0.500000
O O18 0.080962 0.150815 0.969269
O O19 0.556501 0.750000 0.072436
#
# Coordination Sequence:
#
# PCOD8244965 Si02
#       8
#     8   8   8   8   8   8   8   8
#     4  10  23  35  54  86 105 139 185 222 271 321
#     4  10  21  40  58  78 112 144 181 225 270 331
#     4  12  23  37  57  78 108 136 185 226 275 323
#     4  11  24  40  56  74  99 138 184 232 283 326
#     4  10  21  36  54  78 110 150 182 220 274 323
#     4  10  21  37  54  79 113 146 180 220 264 319
#     4  10  21  36  58  83 108 148 184 216 276 323
#     4  10  21  36  56  84 114 144 183 223 268 327
#
# _framework density 19.136410000000001
#
# number of rings (size 3 to 8) (size 9 to 14) (size 15 to 20)
#    0.000    1.625    0.000    4.500    3.500    5.000 
#    0.000    0.000    0.000    0.375    0.000    0.000 
#    0.000    9.000    0.000    0.000    0.000    1.500 
#
# Total GULP energy -793881.739892 kJ/mol
# GULP energy per Si atom -12404.402186 kJ/mol
# Density = 1.909286 g / cm^3
# Si number density = 19.136410 Si / 1000 Ang^3
#
#
#
# Elastic Constant Matrix: (Units=GPa)
#
#
# Indices 1 2 3 4 5 6 
#
# 1 116.9425 44.3254 14.4447 0.0000 0.0000 0.0000
# 2 44.3254 71.1170 0.9321 0.0000 0.0000 0.0000
# 3 14.4447 0.9321 75.8051 0.0000 0.0000 0.0000
# 4 0.0000 0.0000 0.0000 22.6709 0.0000 0.0000
# 5 0.0000 0.0000 0.0000 0.0000 20.4859 0.0000
# 6 0.0000 0.0000 0.0000 0.0000 0.0000 14.7471
#
#
#
# Elastic Compliance Matrix: (Units=1/GPa)
#
#
# Indices 1 2 3 4 5 6 
#
# 1 0.011523 -0.007155 -0.002108 0.000000 0.000000 0.000000
# 2 -0.007155 0.018506 0.001136 0.000000 0.000000 0.000000
# 3 -0.002108 0.001136 0.013579 0.000000 0.000000 0.000000
# 4 0.000000 0.000000 0.000000 0.044109 0.000000 0.000000
# 5 0.000000 0.000000 0.000000 0.000000 0.048814 0.000000
# 6 0.000000 0.000000 0.000000 0.000000 0.000000 0.067810
#
#
# Mechanical properties :
#
#
# Convention : Reuss Voigt Hill
#
# Bulk Modulus (GPa) = 36.55606 42.58542 39.57074
# Shear Modulus (GPa) = 21.76622 25.19160 23.47891
#
# Velocity S-wave (km/s) = 3.37623 3.63219 3.50655
# Velocity P-wave (km/s) = 5.86028 6.31604 6.09242
#
# Compressibility (1/GPa) = 0.02735524
#
# Stress axis : x y z
#
# Youngs Moduli (GPa) = 86.77976 54.03725 73.64090
#
# Poissons Ratio (x) = 0.38662 0.15522
# Poissons Ratio (y) = 0.62088 -0.08364
# Poissons Ratio (z) = 0.18292 -0.06137
#
# Static dielectric constant tensor:
#      x y z
#    x 3.429300 0.000000 0.000000 
#    y 0.000000 3.398850 0.000000 
#    z 0.000000 0.000000 3.693840 
# 
# 
# High freq. dielectric constant tensor:
#      x y z
#    x 1.730730 0.000000 0.000000 
#    y 0.000000 1.728440 0.000000 
#    z 0.000000 0.000000 1.767170 
# 
# From -- ./inp_files/3942.got.cif
#   From: 2010.03.12/outbox.cif.g09.slc.cpg/sg59_2_cif.got.tgz:3942.got - 2010.04.16 16:29:54.
