data_PCOD8244691
_publ_section_title
;
Structure prediction by ZEFSAII (Michael W. Deem and Ramdas Pophale) SiO2 
 PCOD8244691
Probable space group: P M M N
;
_chemical_formula_sum "Si O2"
_cell_formula_units_Z 48
_cell_length_a 18.223831
_cell_length_b 8.882702
_cell_length_c 14.545529
_cell_angle_alpha 90.000000
_cell_angle_beta 90.000000
_cell_angle_gamma 90.000000
_cell_volume 2354.584563
_symmetry_space_group_name_H-M "P M M N"
_symmetry_group_IT_number 59
_space_group.IT_coordinate_system_code '2'
_symmetry_cell_setting 'orthorhombic'
loop_
_space_group_symop_operation_xyz
x,y,z
1/2-x,1/2-y,z
1/2+x,-y,-z
-x,1/2+y,-z
-x,-y,-z
1/2+x,1/2+y,-z
1/2-x,y,z
x,1/2-y,z
loop_
_atom_site_type_symbol
_atom_site_label
_atom_site_fract_x
_atom_site_fract_y
_atom_site_fract_z
Si Si1 0.250000 0.429248 0.499919
Si Si2 0.103021 0.922984 0.757483
Si Si3 0.750000 0.927137 0.288036
Si Si4 0.144063 0.572405 0.359877
Si Si5 0.001891 0.076162 0.402181
Si Si6 0.828849 0.577560 0.821021
Si Si7 0.481403 0.071891 0.096307
O O1 0.250000 0.250000 0.491234
O O2 0.250000 0.481897 0.606077
O O3 0.178170 0.496622 0.450826
O O4 0.120556 0.750000 0.779079
O O5 0.073774 0.942292 0.653152
O O6 0.041267 0.983263 0.828661
O O7 0.178274 0.014727 0.765974
O O8 0.750000 0.750000 0.282310
O O9 0.146429 0.750000 0.374541
O O10 0.185964 0.524443 0.268356
O O11 0.062561 0.510896 0.343528
O O12 0.023369 0.250000 0.413186
O O13 0.000000 0.000000 0.500000
O O14 0.750000 0.567757 0.875579
O O15 0.844270 0.750000 0.790643
O O16 0.898551 0.517681 0.878587
O O17 0.483563 0.250000 0.087446
O O18 0.500000 0.000000 0.000000
#
# Coordination Sequence:
#
# PCOD8244691 Si02
#       7
#     4   8   4   8   8   8   8
#     4  11  23  39  57  82 125 174 215 265 318 370
#     4  10  22  42  65  86 123 169 209 256 316 380
#     4  11  25  41  61  90 121 162 219 269 312 366
#     4  12  23  34  55  89 124 161 208 257 310 373
#     4  11  22  38  59  86 120 163 211 259 311 377
#     4  10  20  39  66  91 124 165 203 250 314 379
#     4  10  22  43  68  97 126 164 209 257 324 386
#
# _framework density 20.385763000000001
#
# number of rings (size 3 to 8) (size 9 to 14) (size 15 to 20)
#    0.000    1.333    2.500    3.500    0.000    6.667 
#    1.500    0.000    0.000    0.000    0.000    0.000 
#    0.000    0.000    0.000    0.000    0.000    0.000 
#
# Total GULP energy -595083.691736 kJ/mol
# GULP energy per Si atom -12397.576911 kJ/mol
# Density = 2.033936 g / cm^3
# Si number density = 20.385763 Si / 1000 Ang^3
#
#
#
# Elastic Constant Matrix: (Units=GPa)
#
#
# Indices 1 2 3 4 5 6 
#
# 1 172.3225 48.0324 59.7342 0.0000 0.0000 0.0000
# 2 48.0324 86.7445 35.1291 0.0000 0.0000 0.0000
# 3 59.7342 35.1291 109.6662 0.0000 0.0000 0.0000
# 4 0.0000 0.0000 0.0000 33.0108 0.0000 0.0000
# 5 0.0000 0.0000 0.0000 0.0000 24.1470 0.0000
# 6 0.0000 0.0000 0.0000 0.0000 0.0000 25.4518
#
#
#
# Elastic Compliance Matrix: (Units=1/GPa)
#
#
# Indices 1 2 3 4 5 6 
#
# 1 0.007769 -0.002974 -0.003279 0.000000 0.000000 0.000000
# 2 -0.002974 0.014385 -0.002988 0.000000 0.000000 0.000000
# 3 -0.003279 -0.002988 0.011862 0.000000 0.000000 0.000000
# 4 0.000000 0.000000 0.000000 0.030293 0.000000 0.000000
# 5 0.000000 0.000000 0.000000 0.000000 0.041413 0.000000
# 6 0.000000 0.000000 0.000000 0.000000 0.000000 0.039290
#
#
# Mechanical properties :
#
#
# Convention : Reuss Voigt Hill
#
# Bulk Modulus (GPa) = 64.37634 72.72496 68.55065
# Shear Modulus (GPa) = 29.64358 31.57775 30.61066
#
# Velocity S-wave (km/s) = 3.81744 3.94002 3.87921
# Velocity P-wave (km/s) = 7.14690 7.51333 7.33240
#
# Compressibility (1/GPa) = 0.01553366
#
# Stress axis : x y z
#
# Youngs Moduli (GPa) = 128.72390 69.51765 84.30480
#
# Poissons Ratio (x) = 0.20673 0.27643
# Poissons Ratio (y) = 0.38280 0.25191
# Poissons Ratio (z) = 0.42207 0.20772
#
# Static dielectric constant tensor:
#      x y z
#    x 4.052710 0.000000 0.000000 
#    y 0.000000 3.606790 0.000000 
#    z 0.000000 0.000000 3.544470 
# 
# 
# High freq. dielectric constant tensor:
#      x y z
#    x 1.817810 0.000000 0.000000 
#    y 0.000000 1.790460 0.000000 
#    z 0.000000 0.000000 1.772940 
# 
# From -- ./inp_files/23736.got.cif
#   From: 2010.03.12/outbox.cif.g09.slc.cpg/sg59_12_cif.got.tgz:23736.got - 2010.04.16 16:29:54.
