data_PCOD8244286
_publ_section_title
;
Structure prediction by ZEFSAII (Michael W. Deem and Ramdas Pophale) SiO2 
 PCOD8244286
Probable space group: P M M N
;
_chemical_formula_sum "Si O2"
_cell_formula_units_Z 48
_cell_length_a 8.874967
_cell_length_b 30.647194
_cell_length_c 9.473137
_cell_angle_alpha 90.000000
_cell_angle_beta 90.000000
_cell_angle_gamma 90.000000
_cell_volume 2576.625393
_symmetry_space_group_name_H-M "P M M N"
_symmetry_group_IT_number 59
_space_group.IT_coordinate_system_code '2'
_symmetry_cell_setting 'orthorhombic'
loop_
_space_group_symop_operation_xyz
x,y,z
1/2-x,1/2-y,z
1/2+x,-y,-z
-x,1/2+y,-z
-x,-y,-z
1/2+x,1/2+y,-z
1/2-x,y,z
x,1/2-y,z
loop_
_atom_site_type_symbol
_atom_site_label
_atom_site_fract_x
_atom_site_fract_y
_atom_site_fract_z
Si Si1 0.927723 0.512828 0.647558
Si Si2 0.078624 0.138140 0.565421
Si Si3 0.422573 0.603486 0.693544
Si Si4 0.423310 0.870263 0.006885
Si Si5 0.427189 0.199922 0.813248
Si Si6 0.922968 0.935871 0.208751
O O1 0.750000 0.509502 0.632612
O O2 0.000000 0.500000 0.500000
O O3 0.971871 0.561360 0.691873
O O4 0.984826 0.480309 0.769610
O O5 0.250000 0.144369 0.514476
O O6 0.027557 0.178448 0.663653
O O7 0.061305 0.093227 0.651172
O O8 0.970873 0.136777 0.429973
O O9 0.250000 0.589027 0.671178
O O10 0.444502 0.629009 0.839334
O O11 0.250000 0.874433 0.052016
O O12 0.487343 0.824093 0.059924
O O13 0.512568 0.910679 0.073966
O O14 0.250000 0.193847 0.838983
O O15 0.477297 0.250000 0.811378
O O16 0.750000 0.947532 0.177973
#
# Coordination Sequence:
#
# PCOD8244286 Si02
#       6
#     8   8   8   8   8   8
#     4  12  23  35  55  81 111 149 193 238 281 326
#     4   9  18  33  56  82 109 140 180 228 277 328
#     4  11  23  37  54  79 114 152 189 230 279 332
#     4  10  22  38  56  82 115 151 187 229 283 336
#     4   9  19  38  63  87 110 140 181 228 279 341
#     4  10  20  36  57  81 109 147 192 235 276 326
#
# _framework density 18.629017999999999
#
# number of rings (size 3 to 8) (size 9 to 14) (size 15 to 20)
#    0.000    1.833    1.667    4.000    0.000    6.333 
#    0.000    0.833    0.000    3.000    0.000    0.000 
#    0.000    0.000    0.000    0.000    0.000    0.000 
#
# Total GULP energy -595420.909853 kJ/mol
# GULP energy per Si atom -12404.602289 kJ/mol
# Density = 1.858662 g / cm^3
# Si number density = 18.629018 Si / 1000 Ang^3
#
#
#
# Elastic Constant Matrix: (Units=GPa)
#
#
# Indices 1 2 3 4 5 6 
#
# 1 128.4626 50.2081 57.4547 0.0000 0.0000 0.0000
# 2 50.2081 115.1264 45.7192 0.0000 0.0000 0.0000
# 3 57.4547 45.7192 104.5988 0.0000 0.0000 0.0000
# 4 0.0000 0.0000 0.0000 18.8124 0.0000 0.0000
# 5 0.0000 0.0000 0.0000 0.0000 31.5205 0.0000
# 6 0.0000 0.0000 0.0000 0.0000 0.0000 28.9690
#
#
#
# Elastic Compliance Matrix: (Units=1/GPa)
#
#
# Indices 1 2 3 4 5 6 
#
# 1 0.011076 -0.002921 -0.004807 0.000000 0.000000 0.000000
# 2 -0.002921 0.011281 -0.003326 0.000000 0.000000 0.000000
# 3 -0.004807 -0.003326 0.013655 0.000000 0.000000 0.000000
# 4 0.000000 0.000000 0.000000 0.053156 0.000000 0.000000
# 5 0.000000 0.000000 0.000000 0.000000 0.031725 0.000000
# 6 0.000000 0.000000 0.000000 0.000000 0.000000 0.034520
#
#
# Mechanical properties :
#
#
# Convention : Reuss Voigt Hill
#
# Bulk Modulus (GPa) = 71.92926 72.77243 72.35084
# Shear Modulus (GPa) = 27.44891 28.84744 28.14817
#
# Velocity S-wave (km/s) = 3.84272 3.93940 3.89136
# Velocity P-wave (km/s) = 7.64093 7.73567 7.68845
#
# Compressibility (1/GPa) = 0.01390255
#
# Stress axis : x y z
#
# Youngs Moduli (GPa) = 90.28427 88.64404 73.23545
#
# Poissons Ratio (x) = 0.25897 0.35204
# Poissons Ratio (y) = 0.26376 0.24359
# Poissons Ratio (z) = 0.43400 0.29484
#
# Static dielectric constant tensor:
#      x y z
#    x 3.582490 0.000000 0.000000 
#    y 0.000000 3.394100 0.000000 
#    z 0.000000 0.000000 3.362430 
# 
# 
# High freq. dielectric constant tensor:
#      x y z
#    x 1.733120 0.000000 0.000000 
#    y 0.000000 1.709100 0.000000 
#    z 0.000000 0.000000 1.718180 
# 
# From -- ./inp_files/6260.got.cif
#   From: 2010.03.12/outbox.cif.g09.slc.cpg/sg59_4_cif.got.tgz:6260.got - 2010.04.16 16:29:54.
