data_PCOD8244507
_publ_section_title
;
Structure prediction by ZEFSAII (Michael W. Deem and Ramdas Pophale) SiO2 
 PCOD8244507
Probable space group: P M M N
;
_chemical_formula_sum "Si O2"
_cell_formula_units_Z 56
_cell_length_a 8.780120
_cell_length_b 14.381770
_cell_length_c 23.727915
_cell_angle_alpha 90.000000
_cell_angle_beta 90.000000
_cell_angle_gamma 90.000000
_cell_volume 2996.210823
_symmetry_space_group_name_H-M "P M M N"
_symmetry_group_IT_number 59
_space_group.IT_coordinate_system_code '2'
_symmetry_cell_setting 'orthorhombic'
loop_
_space_group_symop_operation_xyz
x,y,z
1/2-x,1/2-y,z
1/2+x,-y,-z
-x,1/2+y,-z
-x,-y,-z
1/2+x,1/2+y,-z
1/2-x,y,z
x,1/2-y,z
loop_
_atom_site_type_symbol
_atom_site_label
_atom_site_fract_x
_atom_site_fract_y
_atom_site_fract_z
Si Si1 0.931383 0.750000 0.034857
Si Si2 0.430594 0.147654 0.472492
Si Si3 0.070379 0.355576 0.598808
Si Si4 0.928369 0.927409 0.844949
Si Si5 0.570505 0.056661 0.947276
Si Si6 0.569428 0.750000 0.909083
Si Si7 0.930173 0.535637 0.633757
Si Si8 0.929502 0.357438 0.263494
O O1 0.750000 0.750000 0.040091
O O2 0.998832 0.842406 0.062358
O O3 0.994583 0.750000 0.971651
O O4 0.250000 0.149388 0.474077
O O5 0.490716 0.250000 0.454944
O O6 0.489614 0.124072 0.535300
O O7 0.488784 0.073239 0.426935
O O8 0.250000 0.369532 0.603522
O O9 0.026405 0.250000 0.616644
O O10 0.989291 0.429586 0.640211
O O11 0.750000 0.919852 0.831771
O O12 0.994003 0.838924 0.877648
O O13 0.016334 0.927880 0.785805
O O14 0.965370 0.012424 0.886275
O O15 0.750000 0.060596 0.958535
O O16 0.500000 0.000000 0.000000
O O17 0.750000 0.750000 0.911881
O O18 0.750000 0.537253 0.639669
O O19 0.997960 0.604635 0.679648
O O20 0.750000 0.362942 0.268661
O O21 0.982777 0.250000 0.253402
#
# Coordination Sequence:
#
# PCOD8244507 Si02
#       8
#     4   8   8   8   8   4   8   8
#     4  11  21  37  57  85 121 155 189 230 277 330
#     4   8  15  29  50  78 110 143 179 216 264 326
#     4   9  18  34  55  77 106 144 182 226 274 320
#     4  10  20  37  59  81 111 148 186 226 273 329
#     4  11  22  36  57  87 119 153 189 230 280 335
#     4   9  16  31  55  83 113 147 183 220 265 322
#     4  11  21  33  54  81 110 145 182 223 271 326
#     4  11  24  39  56  82 112 142 181 228 275 325
#
# _framework density 18.690273999999999
#
# number of rings (size 3 to 8) (size 9 to 14) (size 15 to 20)
#    0.000    2.000    2.143    3.214    0.000    2.857 
#    0.000    0.714    1.571    1.714    0.000    0.000 
#    0.000    0.000    0.000    0.000    0.000    0.000 
#
# Total GULP energy -694153.677362 kJ/mol
# GULP energy per Si atom -12395.601381 kJ/mol
# Density = 1.864773 g / cm^3
# Si number density = 18.690274 Si / 1000 Ang^3
#
#
#
# Elastic Constant Matrix: (Units=GPa)
#
#
# Indices 1 2 3 4 5 6 
#
# 1 70.6829 47.1272 35.7830 0.0000 0.0000 0.0000
# 2 47.1272 130.7517 44.0255 0.0000 0.0000 0.0000
# 3 35.7830 44.0255 74.2041 0.0000 0.0000 0.0000
# 4 0.0000 0.0000 0.0000 31.1801 0.0000 0.0000
# 5 0.0000 0.0000 0.0000 0.0000 26.7146 0.0000
# 6 0.0000 0.0000 0.0000 0.0000 0.0000 30.8107
#
#
#
# Elastic Compliance Matrix: (Units=1/GPa)
#
#
# Indices 1 2 3 4 5 6 
#
# 1 0.021269 -0.005264 -0.007133 0.000000 0.000000 0.000000
# 2 -0.005264 0.010860 -0.003905 0.000000 0.000000 0.000000
# 3 -0.007133 -0.003905 0.019233 0.000000 0.000000 0.000000
# 4 0.000000 0.000000 0.000000 0.032072 0.000000 0.000000
# 5 0.000000 0.000000 0.000000 0.000000 0.037433 0.000000
# 6 0.000000 0.000000 0.000000 0.000000 0.000000 0.032456
#
#
# Mechanical properties :
#
#
# Convention : Reuss Voigt Hill
#
# Bulk Modulus (GPa) = 53.31181 58.83446 56.07313
# Shear Modulus (GPa) = 26.01738 27.65461 26.83600
#
# Velocity S-wave (km/s) = 3.73504 3.85076 3.79334
# Velocity P-wave (km/s) = 6.86924 7.16367 7.01800
#
# Compressibility (1/GPa) = 0.01875757
#
# Stress axis : x y z
#
# Youngs Moduli (GPa) = 47.01765 92.07860 51.99430
#
# Poissons Ratio (x) = 0.48472 0.37088
# Poissons Ratio (y) = 0.24751 0.20303
# Poissons Ratio (z) = 0.33538 0.35956
#
# Static dielectric constant tensor:
#      x y z
#    x 3.203360 0.000000 0.000000 
#    y 0.000000 3.595730 0.000000 
#    z 0.000000 0.000000 3.420320 
# 
# 
# High freq. dielectric constant tensor:
#      x y z
#    x 1.711400 0.000000 0.000000 
#    y 0.000000 1.731700 0.000000 
#    z 0.000000 0.000000 1.712160 
# 
# From -- ./inp_files/29193.got.cif
#   From: 2010.03.12/outbox.cif.g09.slc.cpg/sg59_15_cif.got.tgz:29193.got - 2010.04.16 16:29:54.
