data_PCOD8244927
_publ_section_title
;
Structure prediction by ZEFSAII (Michael W. Deem and Ramdas Pophale) SiO2 
 PCOD8244927
Probable space group: P M M N
;
_chemical_formula_sum "Si O2"
_cell_formula_units_Z 40
_cell_length_a 9.506094
_cell_length_b 9.216740
_cell_length_c 25.648479
_cell_angle_alpha 90.000000
_cell_angle_beta 90.000000
_cell_angle_gamma 90.000000
_cell_volume 2247.196536
_symmetry_space_group_name_H-M "P M M N"
_symmetry_group_IT_number 59
_space_group.IT_coordinate_system_code '2'
_symmetry_cell_setting 'orthorhombic'
loop_
_space_group_symop_operation_xyz
x,y,z
1/2-x,1/2-y,z
1/2+x,-y,-z
-x,1/2+y,-z
-x,-y,-z
1/2+x,1/2+y,-z
1/2-x,y,z
x,1/2-y,z
loop_
_atom_site_type_symbol
_atom_site_label
_atom_site_fract_x
_atom_site_fract_y
_atom_site_fract_z
Si Si1 0.085969 0.581725 0.543867
Si Si2 0.408457 0.577289 0.252940
Si Si3 0.086184 0.416594 0.957140
Si Si4 0.412492 0.417826 0.648680
Si Si5 0.093113 0.076976 0.841369
O O1 0.250000 0.559447 0.532088
O O2 0.043892 0.750000 0.544316
O O3 0.045114 0.513466 0.599233
O O4 0.000000 0.500000 0.500000
O O5 0.250000 0.515757 0.255213
O O6 0.408176 0.750000 0.250853
O O7 0.493227 0.524924 0.303674
O O8 0.484335 0.514602 0.201243
O O9 0.250000 0.438921 0.968236
O O10 0.042795 0.250000 0.961233
O O11 0.048425 0.475910 0.899184
O O12 0.000000 0.500000 0.000000
O O13 0.250000 0.439342 0.664258
O O14 0.443958 0.250000 0.635522
O O15 0.250000 0.020313 0.827853
O O16 0.094867 0.250000 0.840626
#
# Coordination Sequence:
#
# PCOD8244927 Si02
#       5
#     8   8   8   8   8
#     4  10  21  36  54  76 101 130 165 203 241 283
#     4   9  16  25  41  68  96 119 150 194 238 279
#     4   9  18  31  47  69  96 126 162 203 245 290
#     4   9  17  30  48  69  95 127 158 189 232 285
#     4   8  14  26  43  63  90 123 156 191 234 284
#
# _framework density 17.799956000000002
#
# number of rings (size 3 to 8) (size 9 to 14) (size 15 to 20)
#    0.000    3.000    0.000    2.400    0.000    5.600 
#    0.000    4.000    0.000    1.200    0.000    2.800 
#    0.000    0.000    0.000    0.000    0.000    0.000 
#
# Total GULP energy -495908.385975 kJ/mol
# GULP energy per Si atom -12397.709649 kJ/mol
# Density = 1.775944 g / cm^3
# Si number density = 17.799956 Si / 1000 Ang^3
#
#
#
# Elastic Constant Matrix: (Units=GPa)
#
#
# Indices 1 2 3 4 5 6 
#
# 1 109.1136 38.9869 101.5064 0.0000 0.0000 0.0000
# 2 38.9869 54.8588 57.4479 0.0000 0.0000 0.0000
# 3 101.5064 57.4479 180.3898 0.0000 0.0000 0.0000
# 4 0.0000 0.0000 0.0000 25.2935 0.0000 0.0000
# 5 0.0000 0.0000 0.0000 0.0000 41.4357 0.0000
# 6 0.0000 0.0000 0.0000 0.0000 0.0000 19.7134
#
#
#
# Elastic Compliance Matrix: (Units=1/GPa)
#
#
# Indices 1 2 3 4 5 6 
#
# 1 0.019692 -0.003587 -0.009938 0.000000 0.000000 0.000000
# 2 -0.003587 0.028003 -0.006899 0.000000 0.000000 0.000000
# 3 -0.009938 -0.006899 0.013333 0.000000 0.000000 0.000000
# 4 0.000000 0.000000 0.000000 0.039536 0.000000 0.000000
# 5 0.000000 0.000000 0.000000 0.000000 0.024134 0.000000
# 6 0.000000 0.000000 0.000000 0.000000 0.000000 0.050727
#
#
# Mechanical properties :
#
#
# Convention : Reuss Voigt Hill
#
# Bulk Modulus (GPa) = 49.55869 82.24941 65.90405
# Shear Modulus (GPa) = 22.42142 27.04992 24.73567
#
# Velocity S-wave (km/s) = 3.55298 3.90251 3.73184
# Velocity P-wave (km/s) = 6.68835 8.16175 7.46151
#
# Compressibility (1/GPa) = 0.02017810
#
# Stress axis : x y z
#
# Youngs Moduli (GPa) = 50.78195 35.71040 75.00069
#
# Poissons Ratio (x) = 0.12810 0.74539
# Poissons Ratio (y) = 0.18217 0.51746
# Poissons Ratio (z) = 0.50469 0.24638
#
# Static dielectric constant tensor:
#      x y z
#    x 3.427530 0.000000 0.000000 
#    y 0.000000 2.876500 0.000000 
#    z 0.000000 0.000000 3.500730 
# 
# 
# High freq. dielectric constant tensor:
#      x y z
#    x 1.688490 0.000000 0.000000 
#    y 0.000000 1.641480 0.000000 
#    z 0.000000 0.000000 1.703680 
# 
# From -- ./inp_files/31148.got.cif
#   From: 2010.03.12/outbox.cif.g09.slc.cpg/sg59_16_cif.got.tgz:31148.got - 2010.04.16 16:29:54.
