data_PCOD8244497
_publ_section_title
;
Structure prediction by ZEFSAII (Michael W. Deem and Ramdas Pophale) SiO2 
 PCOD8244497
Probable space group: P M M N
;
_chemical_formula_sum "Si O2"
_cell_formula_units_Z 64
_cell_length_a 31.286805
_cell_length_b 8.530013
_cell_length_c 12.035692
_cell_angle_alpha 90.000000
_cell_angle_beta 90.000000
_cell_angle_gamma 90.000000
_cell_volume 3212.047609
_symmetry_space_group_name_H-M "P M M N"
_symmetry_group_IT_number 59
_space_group.IT_coordinate_system_code '2'
_symmetry_cell_setting 'orthorhombic'
loop_
_space_group_symop_operation_xyz
x,y,z
1/2-x,1/2-y,z
1/2+x,-y,-z
-x,1/2+y,-z
-x,-y,-z
1/2+x,1/2+y,-z
1/2-x,y,z
x,1/2-y,z
loop_
_atom_site_type_symbol
_atom_site_label
_atom_site_fract_x
_atom_site_fract_y
_atom_site_fract_z
Si Si1 0.297026 0.434663 0.263568
Si Si2 0.173573 0.567434 0.492303
Si Si3 0.625413 0.065014 0.122184
Si Si4 0.547020 0.933858 0.734158
Si Si5 0.297215 0.935738 0.729690
Si Si6 0.952438 0.434499 0.279077
Si Si7 0.624370 0.935841 0.877784
Si Si8 0.918204 0.567093 0.499120
O O1 0.250000 0.502168 0.231629
O O2 0.296802 0.250000 0.250386
O O3 0.307031 0.472805 0.390635
O O4 0.333220 0.506450 0.182109
O O5 0.182890 0.750000 0.473767
O O6 0.195669 0.503220 0.604590
O O7 0.123459 0.539868 0.504759
O O8 0.628444 0.250000 0.105063
O O9 0.666779 0.997136 0.187334
O O10 0.582985 0.017445 0.189267
O O11 0.623577 0.982364 0.004843
O O12 0.551895 0.750000 0.744780
O O13 0.498974 0.983791 0.768909
O O14 0.582496 0.008791 0.816549
O O15 0.555202 0.984799 0.607314
O O16 0.250000 0.988271 0.770649
O O17 0.301872 0.750000 0.728008
O O18 0.950229 0.250000 0.306612
O O19 0.946305 0.531425 0.391487
O O20 0.624718 0.750000 0.867008
O O21 0.905578 0.750000 0.503712
#
# Coordination Sequence:
#
# PCOD8244497 Si02
#       8
#     8   8   8   8   8   8   8   8
#     4  10  21  38  59  83 114 148 181 225 279 331
#     4  11  20  34  58  86 115 148 184 225 274 333
#     4  10  21  37  55  79 108 142 185 233 276 319
#     4   9  19  36  58  80 110 148 181 223 277 334
#     4   9  18  34  55  79 109 143 176 217 274 328
#     4  10  20  37  58  82 111 145 184 227 280 332
#     4  10  21  39  57  77 108 149 189 225 273 329
#     4  11  20  34  57  85 116 147 181 223 277 338
#
# _framework density 19.924983999999998
#
# number of rings (size 3 to 8) (size 9 to 14) (size 15 to 20)
#    0.000    2.000    2.500    1.500    0.000    2.750 
#    0.000    1.250    0.000    1.500    0.000    0.000 
#    0.000    0.000    0.000    0.000    0.000    0.000 
#
# Total GULP energy -793529.475822 kJ/mol
# GULP energy per Si atom -12398.898060 kJ/mol
# Density = 1.987963 g / cm^3
# Si number density = 19.924984 Si / 1000 Ang^3
#
#
#
# Elastic Constant Matrix: (Units=GPa)
#
#
# Indices 1 2 3 4 5 6 
#
# 1 195.5769 10.1081 85.6697 0.0000 0.0000 0.0000
# 2 10.1081 5.4025 5.7815 0.0000 0.0000 0.0000
# 3 85.6697 5.7815 144.9155 0.0000 0.0000 0.0000
# 4 0.0000 0.0000 0.0000 30.6082 0.0000 0.0000
# 5 0.0000 0.0000 0.0000 0.0000 23.9730 0.0000
# 6 0.0000 0.0000 0.0000 0.0000 0.0000 13.8819
#
#
#
# Elastic Compliance Matrix: (Units=1/GPa)
#
#
# Indices 1 2 3 4 5 6 
#
# 1 0.007338 -0.009492 -0.003959 0.000000 0.000000 0.000000
# 2 -0.009492 0.205636 -0.002592 0.000000 0.000000 0.000000
# 3 -0.003959 -0.002592 0.009345 0.000000 0.000000 0.000000
# 4 0.000000 0.000000 0.000000 0.032671 0.000000 0.000000
# 5 0.000000 0.000000 0.000000 0.000000 0.041714 0.000000
# 6 0.000000 0.000000 0.000000 0.000000 0.000000 0.072036
#
#
# Mechanical properties :
#
#
# Convention : Reuss Voigt Hill
#
# Bulk Modulus (GPa) = 5.25679 61.00149 33.12914
# Shear Modulus (GPa) = 10.77035 29.98166 20.37601
#
# Velocity S-wave (km/s) = 2.32748 3.88329 3.20134
# Velocity P-wave (km/s) = 3.14117 7.12661 5.50707
#
# Compressibility (1/GPa) = 0.19023031
#
# Stress axis : x y z
#
# Youngs Moduli (GPa) = 136.27693 4.86296 107.01351
#
# Poissons Ratio (x) = 0.04616 0.42370
# Poissons Ratio (y) = 1.29361 0.27741
# Poissons Ratio (z) = 0.53956 0.01261
#
# Static dielectric constant tensor:
#      x y z
#    x 4.202000 0.000000 0.000000 
#    y 0.000000 3.237710 0.000000 
#    z 0.000000 0.000000 3.631500 
# 
# 
# High freq. dielectric constant tensor:
#      x y z
#    x 1.797930 0.000000 0.000000 
#    y 0.000000 1.740790 0.000000 
#    z 0.000000 0.000000 1.773830 
# 
# From -- ./inp_files/19267.got.cif
#   From: 2010.03.12/outbox.cif.g09.slc.cpg/sg59_10_cif.got.tgz:19267.got - 2010.04.16 16:29:54.
