data_PCOD8244733
_publ_section_title
;
Structure prediction by ZEFSAII (Michael W. Deem and Ramdas Pophale) SiO2 
 PCOD8244733
Probable space group: P M M N
;
_chemical_formula_sum "Si O2"
_cell_formula_units_Z 48
_cell_length_a 14.977446
_cell_length_b 9.214685
_cell_length_c 18.784890
_cell_angle_alpha 90.000000
_cell_angle_beta 90.000000
_cell_angle_gamma 90.000000
_cell_volume 2592.548635
_symmetry_space_group_name_H-M "P M M N"
_symmetry_group_IT_number 59
_space_group.IT_coordinate_system_code '2'
_symmetry_cell_setting 'orthorhombic'
loop_
_space_group_symop_operation_xyz
x,y,z
1/2-x,1/2-y,z
1/2+x,-y,-z
-x,1/2+y,-z
-x,-y,-z
1/2+x,1/2+y,-z
1/2-x,y,z
x,1/2-y,z
loop_
_atom_site_type_symbol
_atom_site_label
_atom_site_fract_x
_atom_site_fract_y
_atom_site_fract_z
Si Si1 0.850823 0.418441 0.582390
Si Si2 0.151414 0.922259 0.935366
Si Si3 0.648206 0.581114 0.441351
Si Si4 0.646180 0.416992 0.904592
Si Si5 0.011849 0.080450 0.680209
Si Si6 0.503155 0.422763 0.174315
O O1 0.750000 0.464349 0.603387
O O2 0.857293 0.250000 0.563678
O O3 0.884270 0.500949 0.512345
O O4 0.914481 0.456754 0.648397
O O5 0.250000 0.982326 0.914633
O O6 0.154464 0.750000 0.934469
O O7 0.078570 0.981524 0.880169
O O8 0.126406 0.972543 0.015233
O O9 0.750000 0.539540 0.422607
O O10 0.636797 0.750000 0.456745
O O11 0.587277 0.532677 0.375727
O O12 0.750000 0.434709 0.886200
O O13 0.616642 0.250000 0.895046
O O14 0.592210 0.516306 0.849874
O O15 0.019537 0.250000 0.699914
O O16 0.028372 0.983514 0.748940
O O17 0.499528 0.250000 0.176840
#
# Coordination Sequence:
#
# PCOD8244733 Si02
#       6
#     8   8   8   8   8   8
#     4   9  18  33  53  74  94 122 164 208 246 292
#     4   8  16  33  55  77 101 132 171 211 253 304
#     4   9  18  33  53  75  98 126 162 207 255 297
#     4   9  18  35  58  77  97 133 174 208 251 310
#     4  10  21  35  49  69 102 139 169 198 241 304
#     4  11  22  33  50  78 108 135 167 213 259 295
#
# _framework density 18.514600000000002
#
# number of rings (size 3 to 8) (size 9 to 14) (size 15 to 20)
#    0.000    2.667    0.000    2.500    0.000    3.000 
#    0.000    2.500    0.000    3.500    0.000    0.000 
#    0.000    0.000    0.000    0.000    0.000    0.000 
#
# Total GULP energy -595237.731581 kJ/mol
# GULP energy per Si atom -12400.786075 kJ/mol
# Density = 1.847246 g / cm^3
# Si number density = 18.514600 Si / 1000 Ang^3
#
#
#
# Elastic Constant Matrix: (Units=GPa)
#
#
# Indices 1 2 3 4 5 6 
#
# 1 64.6970 19.3581 20.5015 0.0000 0.0000 0.0000
# 2 19.3581 43.0481 24.6097 0.0000 0.0000 0.0000
# 3 20.5015 24.6097 68.2146 0.0000 0.0000 0.0000
# 4 0.0000 0.0000 0.0000 33.3211 0.0000 0.0000
# 5 0.0000 0.0000 0.0000 0.0000 22.3862 0.0000
# 6 0.0000 0.0000 0.0000 0.0000 0.0000 21.8814
#
#
#
# Elastic Compliance Matrix: (Units=1/GPa)
#
#
# Indices 1 2 3 4 5 6 
#
# 1 0.018400 -0.006441 -0.003206 0.000000 0.000000 0.000000
# 2 -0.006441 0.031521 -0.009436 0.000000 0.000000 0.000000
# 3 -0.003206 -0.009436 0.019027 0.000000 0.000000 0.000000
# 4 0.000000 0.000000 0.000000 0.030011 0.000000 0.000000
# 5 0.000000 0.000000 0.000000 0.000000 0.044670 0.000000
# 6 0.000000 0.000000 0.000000 0.000000 0.000000 0.045701
#
#
# Mechanical properties :
#
#
# Convention : Reuss Voigt Hill
#
# Bulk Modulus (GPa) = 32.48706 33.87756 33.18231
# Shear Modulus (GPa) = 21.02986 22.95043 21.99015
#
# Velocity S-wave (km/s) = 3.37390 3.52459 3.45007
# Velocity P-wave (km/s) = 5.72385 5.90772 5.81651
#
# Compressibility (1/GPa) = 0.03078148
#
# Stress axis : x y z
#
# Youngs Moduli (GPa) = 54.34791 31.72530 52.55600
#
# Poissons Ratio (x) = 0.20435 0.16850
# Poissons Ratio (y) = 0.35007 0.49590
# Poissons Ratio (z) = 0.17425 0.29935
#
# Static dielectric constant tensor:
#      x y z
#    x 3.695540 0.000000 0.000000 
#    y 0.000000 3.165790 0.000000 
#    z 0.000000 0.000000 3.361570 
# 
# 
# High freq. dielectric constant tensor:
#      x y z
#    x 1.730290 0.000000 0.000000 
#    y 0.000000 1.697000 0.000000 
#    z 0.000000 0.000000 1.714240 
# 
# From -- ./inp_files/25425.got.cif
#   From: 2010.03.12/outbox.cif.g09.slc.cpg/sg59_13_cif.got.tgz:25425.got - 2010.04.16 16:29:54.
