data_PCOD8244163
_publ_section_title
;
Structure prediction by ZEFSAII (Michael W. Deem and Ramdas Pophale) SiO2 
 PCOD8244163
Probable space group: P M M N
;
_chemical_formula_sum "Si O2"
_cell_formula_units_Z 64
_cell_length_a 14.050067
_cell_length_b 23.993027
_cell_length_c 9.364452
_cell_angle_alpha 90.000000
_cell_angle_beta 90.000000
_cell_angle_gamma 90.000000
_cell_volume 3156.790827
_symmetry_space_group_name_H-M "P M M N"
_symmetry_group_IT_number 59
_space_group.IT_coordinate_system_code '2'
_symmetry_cell_setting 'orthorhombic'
loop_
_space_group_symop_operation_xyz
x,y,z
1/2-x,1/2-y,z
1/2+x,-y,-z
-x,1/2+y,-z
-x,-y,-z
1/2+x,1/2+y,-z
1/2-x,y,z
x,1/2-y,z
loop_
_atom_site_type_symbol
_atom_site_label
_atom_site_fract_x
_atom_site_fract_y
_atom_site_fract_z
Si Si1 0.531979 0.314004 0.564189
Si Si2 0.643428 0.494190 0.578545
Si Si3 0.056801 0.913046 0.905720
Si Si4 0.861241 0.515597 0.258991
Si Si5 0.469278 0.589811 0.226234
Si Si6 0.645733 0.587248 0.798659
Si Si7 0.855195 0.687631 0.614254
Si Si8 0.360891 0.814659 0.721564
O O1 0.537219 0.250000 0.611713
O O2 0.546803 0.349543 0.706480
O O3 0.428797 0.331797 0.505572
O O4 0.609947 0.327172 0.442046
O O5 0.750000 0.469920 0.576530
O O6 0.604707 0.497722 0.417490
O O7 0.579901 0.454510 0.672762
O O8 0.640256 0.555342 0.647797
O O9 0.080379 0.855094 0.826272
O O10 0.943877 0.928513 0.896883
O O11 0.118701 0.963379 0.843738
O O12 0.081394 0.907761 0.072383
O O13 0.750000 0.531211 0.254943
O O14 0.920578 0.570288 0.211230
O O15 0.750000 0.574980 0.872315
O O16 0.637712 0.652124 0.758758
O O17 0.750000 0.683538 0.546164
O O18 0.881318 0.750000 0.663152
O O19 0.250000 0.827956 0.738607
O O20 0.383812 0.750000 0.759365
#
# Coordination Sequence:
#
# PCOD8244163 Si02
#       8
#     8   8   8   8   8   8   8   8
#     4  10  21  39  64  90 118 152 196 252 299 351
#     4  10  22  39  62  86 113 154 202 251 297 347
#     4  12  24  39  59  89 125 164 200 243 299 363
#     4  11  24  41  62  88 119 161 207 250 298 356
#     4  12  25  39  59  89 125 158 199 245 305 361
#     4  10  20  35  58  87 119 154 198 246 295 353
#     4   9  17  32  58  90 117 147 193 247 298 347
#     4  10  22  42  67  91 118 158 205 250 297 353
#
# _framework density 20.273754
#
# number of rings (size 3 to 8) (size 9 to 14) (size 15 to 20)
#    0.000    1.500    2.500    2.625    0.000    5.000 
#    0.000    0.000    0.000    1.500    0.000    1.750 
#    0.000    0.000    0.000    0.000    0.000    0.000 
#
# Total GULP energy -793544.753254 kJ/mol
# GULP energy per Si atom -12399.136770 kJ/mol
# Density = 2.022761 g / cm^3
# Si number density = 20.273754 Si / 1000 Ang^3
#
#
#
# Elastic Constant Matrix: (Units=GPa)
#
#
# Indices 1 2 3 4 5 6 
#
# 1 88.4589 20.9132 25.2551 0.0000 0.0000 0.0000
# 2 20.9132 80.9439 31.0939 0.0000 0.0000 0.0000
# 3 25.2551 31.0939 100.1746 0.0000 0.0000 0.0000
# 4 0.0000 0.0000 0.0000 16.5953 0.0000 0.0000
# 5 0.0000 0.0000 0.0000 0.0000 15.3435 0.0000
# 6 0.0000 0.0000 0.0000 0.0000 0.0000 24.3984
#
#
#
# Elastic Compliance Matrix: (Units=1/GPa)
#
#
# Indices 1 2 3 4 5 6 
#
# 1 0.012548 -0.002301 -0.002449 0.000000 0.000000 0.000000
# 2 -0.002301 0.014449 -0.003905 0.000000 0.000000 0.000000
# 3 -0.002449 -0.003905 0.011812 0.000000 0.000000 0.000000
# 4 0.000000 0.000000 0.000000 0.060258 0.000000 0.000000
# 5 0.000000 0.000000 0.000000 0.000000 0.065174 0.000000
# 6 0.000000 0.000000 0.000000 0.000000 0.000000 0.040986
#
#
# Mechanical properties :
#
#
# Convention : Reuss Voigt Hill
#
# Bulk Modulus (GPa) = 46.51455 47.12243 46.81849
# Shear Modulus (GPa) = 21.76718 24.08845 22.92781
#
# Velocity S-wave (km/s) = 3.28023 3.45071 3.36655
# Velocity P-wave (km/s) = 6.11062 6.25860 6.18505
#
# Compressibility (1/GPa) = 0.02149865
#
# Stress axis : x y z
#
# Youngs Moduli (GPa) = 79.69421 69.21025 84.65931
#
# Poissons Ratio (x) = 0.15926 0.20735
# Poissons Ratio (y) = 0.18339 0.33057
# Poissons Ratio (z) = 0.19519 0.27025
#
# Static dielectric constant tensor:
#      x y z
#    x 3.927430 0.000000 0.000000 
#    y 0.000000 3.745630 0.000000 
#    z 0.000000 0.000000 3.450190 
# 
# 
# High freq. dielectric constant tensor:
#      x y z
#    x 1.808260 0.000000 0.000000 
#    y 0.000000 1.793870 0.000000 
#    z 0.000000 0.000000 1.765510 
# 
# From -- ./inp_files/9548.got.cif
#   From: 2010.03.12/outbox.cif.g09.slc.cpg/sg59_5_cif.got.tgz:9548.got - 2010.04.16 16:29:54.
