data_PCOD8244977
_publ_section_title
;
Structure prediction by ZEFSAII (Michael W. Deem and Ramdas Pophale) SiO2 
 PCOD8244977
Probable space group: P M M N
;
_chemical_formula_sum "Si O2"
_cell_formula_units_Z 40
_cell_length_a 9.037643
_cell_length_b 14.338348
_cell_length_c 16.467302
_cell_angle_alpha 90.000000
_cell_angle_beta 90.000000
_cell_angle_gamma 90.000000
_cell_volume 2133.913196
_symmetry_space_group_name_H-M "P M M N"
_symmetry_group_IT_number 59
_space_group.IT_coordinate_system_code '2'
_symmetry_cell_setting 'orthorhombic'
loop_
_space_group_symop_operation_xyz
x,y,z
1/2-x,1/2-y,z
1/2+x,-y,-z
-x,1/2+y,-z
-x,-y,-z
1/2+x,1/2+y,-z
1/2-x,y,z
x,1/2-y,z
loop_
_atom_site_type_symbol
_atom_site_label
_atom_site_fract_x
_atom_site_fract_y
_atom_site_fract_z
Si Si1 0.421279 0.142587 0.006888
Si Si2 0.073965 0.353198 0.570801
Si Si3 0.082559 0.359507 0.390675
Si Si4 0.922452 0.476900 0.875953
Si Si5 0.924999 0.994710 0.293545
O O1 0.250000 0.132862 0.981549
O O2 0.461854 0.250000 0.027093
O O3 0.454969 0.078740 0.085463
O O4 0.520705 0.106413 0.933035
O O5 0.250000 0.350389 0.570681
O O6 0.011743 0.250000 0.590117
O O7 0.022175 0.385221 0.480847
O O8 0.013210 0.422300 0.639346
O O9 0.250000 0.396117 0.378781
O O10 0.076682 0.250000 0.377245
O O11 0.977991 0.403931 0.322377
O O12 0.750000 0.462026 0.860623
O O13 0.007698 0.467864 0.792180
O O14 0.750000 0.992188 0.285920
#
# Coordination Sequence:
#
# PCOD8244977 Si02
#       5
#     8   8   8   8   8
#     4   9  19  38  61  79  99 133 173 213 261 313
#     4   8  16  32  52  73  99 136 180 219 259 310
#     4   9  18  34  54  73  98 137 181 221 263 310
#     4  10  21  36  54  80 110 137 171 212 256 312
#     4  11  21  32  51  79 109 139 172 215 263 307
#
# _framework density 18.744906
#
# number of rings (size 3 to 8) (size 9 to 14) (size 15 to 20)
#    0.000    2.600    0.000    3.000    0.000    3.200 
#    0.000    5.000    0.000    4.200    0.000    0.000 
#    0.000    0.000    0.000    0.000    0.000    0.000 
#
# Total GULP energy -495978.751536 kJ/mol
# GULP energy per Si atom -12399.468788 kJ/mol
# Density = 1.870224 g / cm^3
# Si number density = 18.744906 Si / 1000 Ang^3
#
#
#
# Elastic Constant Matrix: (Units=GPa)
#
#
# Indices 1 2 3 4 5 6 
#
# 1 60.1222 17.0393 24.5963 0.0000 0.0000 0.0000
# 2 17.0393 62.4377 2.9681 0.0000 0.0000 0.0000
# 3 24.5963 2.9681 61.0038 0.0000 0.0000 0.0000
# 4 0.0000 0.0000 0.0000 17.1055 0.0000 0.0000
# 5 0.0000 0.0000 0.0000 0.0000 34.6752 0.0000
# 6 0.0000 0.0000 0.0000 0.0000 0.0000 26.4507
#
#
#
# Elastic Compliance Matrix: (Units=1/GPa)
#
#
# Indices 1 2 3 4 5 6 
#
# 1 0.021656 -0.005508 -0.008464 0.000000 0.000000 0.000000
# 2 -0.005508 0.017454 0.001371 0.000000 0.000000 0.000000
# 3 -0.008464 0.001371 0.019738 0.000000 0.000000 0.000000
# 4 0.000000 0.000000 0.000000 0.058461 0.000000 0.000000
# 5 0.000000 0.000000 0.000000 0.000000 0.028839 0.000000
# 6 0.000000 0.000000 0.000000 0.000000 0.000000 0.037806
#
#
# Mechanical properties :
#
#
# Convention : Reuss Voigt Hill
#
# Bulk Modulus (GPa) = 29.71901 30.30788 30.01344
# Shear Modulus (GPa) = 22.68910 24.91029 23.79970
#
# Velocity S-wave (km/s) = 3.48288 3.64938 3.56710
# Velocity P-wave (km/s) = 5.66240 5.82760 5.74559
#
# Compressibility (1/GPa) = 0.03364849
#
# Stress axis : x y z
#
# Youngs Moduli (GPa) = 46.17608 57.29402 50.66324
#
# Poissons Ratio (x) = 0.31556 0.42880
# Poissons Ratio (y) = 0.25432 -0.06948
# Poissons Ratio (z) = 0.39082 -0.07858
#
# Static dielectric constant tensor:
#      x y z
#    x 3.276610 0.000000 0.000000 
#    y 0.000000 3.550670 0.000000 
#    z 0.000000 0.000000 3.456990 
# 
# 
# High freq. dielectric constant tensor:
#      x y z
#    x 1.712300 0.000000 0.000000 
#    y 0.000000 1.730450 0.000000 
#    z 0.000000 0.000000 1.727900 
# 
# From -- ./inp_files/19862.got.cif
#   From: 2010.03.12/outbox.cif.g09.slc.cpg/sg59_10_cif.got.tgz:19862.got - 2010.04.16 16:29:54.
