data_PCOD8244672
_publ_section_title
;
Structure prediction by ZEFSAII (Michael W. Deem and Ramdas Pophale) SiO2 
 PCOD8244672
Probable space group: P M M N
;
_chemical_formula_sum "Si O2"
_cell_formula_units_Z 48
_cell_length_a 8.891211
_cell_length_b 14.846245
_cell_length_c 18.947277
_cell_angle_alpha 90.000000
_cell_angle_beta 90.000000
_cell_angle_gamma 90.000000
_cell_volume 2501.061346
_symmetry_space_group_name_H-M "P M M N"
_symmetry_group_IT_number 59
_space_group.IT_coordinate_system_code '2'
_symmetry_cell_setting 'orthorhombic'
loop_
_space_group_symop_operation_xyz
x,y,z
1/2-x,1/2-y,z
1/2+x,-y,-z
-x,1/2+y,-z
-x,-y,-z
1/2+x,1/2+y,-z
1/2-x,y,z
x,1/2-y,z
loop_
_atom_site_type_symbol
_atom_site_label
_atom_site_fract_x
_atom_site_fract_y
_atom_site_fract_z
Si Si1 0.927355 0.250000 0.923832
Si Si2 0.423045 0.104110 0.829237
Si Si3 0.076524 0.896403 0.829880
Si Si4 0.572697 0.750000 0.923936
Si Si5 0.425686 0.004227 0.424491
Si Si6 0.423000 0.646859 0.315337
Si Si7 0.422676 0.854718 0.672674
O O1 0.750000 0.250000 0.933187
O O2 0.974845 0.338780 0.881642
O O3 0.003021 0.250000 0.999215
O O4 0.250000 0.133475 0.837482
O O5 0.470702 0.121115 0.749166
O O6 0.445333 0.000308 0.849478
O O7 0.250000 0.866007 0.836209
O O8 0.017861 0.877360 0.750944
O O9 0.977938 0.839587 0.883762
O O10 0.750000 0.750000 0.931115
O O11 0.250000 0.011200 0.435914
O O12 0.479027 0.092621 0.383691
O O13 0.500000 0.000000 0.500000
O O14 0.469852 0.914505 0.381386
O O15 0.250000 0.629721 0.293072
O O16 0.448711 0.750000 0.337836
O O17 0.250000 0.885601 0.665640
O O18 0.442281 0.750000 0.656437
#
# Coordination Sequence:
#
# PCOD8244672 Si02
#       7
#     4   8   8   4   8   8   8
#     4  12  26  44  64  88 129 170 203 252 314 368
#     4  11  22  38  65  96 124 158 207 256 302 366
#     4  10  21  40  65  93 126 164 203 249 310 370
#     4  12  26  42  64  94 127 162 209 260 304 360
#     4  11  24  40  60  89 127 164 207 256 309 366
#     4  10  21  38  61  89 121 161 205 252 310 369
#     4  10  20  38  64  90 120 161 206 250 306 371
#
# _framework density 19.191852999999998
#
# number of rings (size 3 to 8) (size 9 to 14) (size 15 to 20)
#    0.000    1.333    3.333    2.500    0.000    4.333 
#    0.000    1.667    0.000    0.000    0.000    0.000 
#    0.000    0.000    0.000    0.000    0.000    0.000 
#
# Total GULP energy -595487.330056 kJ/mol
# GULP energy per Si atom -12405.986043 kJ/mol
# Density = 1.914817 g / cm^3
# Si number density = 19.191853 Si / 1000 Ang^3
#
#
#
# Elastic Constant Matrix: (Units=GPa)
#
#
# Indices 1 2 3 4 5 6 
#
# 1 105.5349 54.9150 72.9894 0.0000 0.0000 0.0000
# 2 54.9150 121.3097 61.4256 0.0000 0.0000 0.0000
# 3 72.9894 61.4256 157.7683 0.0000 0.0000 0.0000
# 4 0.0000 0.0000 0.0000 -269.1872 0.0000 0.0000
# 5 0.0000 0.0000 0.0000 0.0000 36.1878 0.0000
# 6 0.0000 0.0000 0.0000 0.0000 0.0000 28.2319
#
#
#
# Elastic Compliance Matrix: (Units=1/GPa)
#
#
# Indices 1 2 3 4 5 6 
#
# 1 0.015490 -0.004214 -0.005525 0.000000 0.000000 0.000000
# 2 -0.004214 0.011414 -0.002494 0.000000 0.000000 0.000000
# 3 -0.005525 -0.002494 0.009866 0.000000 0.000000 0.000000
# 4 0.000000 0.000000 0.000000 -0.003715 0.000000 0.000000
# 5 0.000000 0.000000 0.000000 0.000000 0.027634 0.000000
# 6 0.000000 0.000000 0.000000 0.000000 0.000000 0.035421
#
#
# Mechanical properties :
#
#
# Convention : Reuss Voigt Hill
#
# Bulk Modulus (GPa) = 81.28848 84.80811 83.04829
# Shear Modulus (GPa) = 40.10334 -27.93465 6.08435
#
# Velocity S-wave (km/s) = 4.57618 -3.81930 1.78246
# Velocity P-wave (km/s) = 8.38865 4.98359 6.89948
#
# Compressibility (1/GPa) = 0.01230187
#
# Stress axis : x y z
#
# Youngs Moduli (GPa) = 64.55841 87.61114 101.36010
#
# Poissons Ratio (x) = 0.36921 0.56006
# Poissons Ratio (y) = 0.27206 0.25282
# Poissons Ratio (z) = 0.35671 0.21853
#
# Static dielectric constant tensor:
#      x y z
#    x 3.627640 0.000000 0.000000 
#    y 0.000000 3.583690 0.000000 
#    z 0.000000 0.000000 3.582640 
# 
# 
# High freq. dielectric constant tensor:
#      x y z
#    x 1.749690 0.000000 0.000000 
#    y 0.000000 1.762930 0.000000 
#    z 0.000000 0.000000 1.746080 
# 
# From -- ./inp_files/25542.got.cif
#   From: 2010.03.12/outbox.cif.g09.slc.cpg/sg59_13_cif.got.tgz:25542.got - 2010.04.16 16:29:54.
