data_PCOD8244155
_publ_section_title
;
Structure prediction by ZEFSAII (Michael W. Deem and Ramdas Pophale) SiO2 
 PCOD8244155
Probable space group: P M M N
;
_chemical_formula_sum "Si O2"
_cell_formula_units_Z 64
_cell_length_a 18.518404
_cell_length_b 15.285367
_cell_length_c 11.961427
_cell_angle_alpha 90.000000
_cell_angle_beta 90.000000
_cell_angle_gamma 90.000000
_cell_volume 3385.808720
_symmetry_space_group_name_H-M "P M M N"
_symmetry_group_IT_number 59
_space_group.IT_coordinate_system_code '2'
_symmetry_cell_setting 'orthorhombic'
loop_
_space_group_symop_operation_xyz
x,y,z
1/2-x,1/2-y,z
1/2+x,-y,-z
-x,1/2+y,-z
-x,-y,-z
1/2+x,1/2+y,-z
1/2-x,y,z
x,1/2-y,z
loop_
_atom_site_type_symbol
_atom_site_label
_atom_site_fract_x
_atom_site_fract_y
_atom_site_fract_z
Si Si1 0.591096 0.848858 0.884571
Si Si2 0.429626 0.102455 0.867413
Si Si3 0.335706 0.000000 0.251445
Si Si4 0.908904 0.348858 0.884571
Si Si5 0.333146 0.651613 0.662519
Si Si6 0.335571 1.000000 0.502741
Si Si7 0.570374 0.397544 0.132586
Si Si8 0.166854 0.348387 0.662519
O O1 0.618833 0.750000 0.866276
O O2 0.636858 0.912196 0.806534
O O3 0.506850 0.852145 0.853694
O O4 0.604139 0.877541 0.012047
O O5 0.506850 0.147855 0.853694
O O6 0.375906 0.141370 0.776983
O O7 0.440453 1.000000 0.851005
O O8 0.250000 0.000000 0.248498
O O9 0.366987 0.000000 0.377744
O O10 0.363142 0.912196 0.193466
O O11 0.881167 0.250000 0.866276
O O12 0.895861 0.377541 0.012047
O O13 0.250000 0.629583 0.689405
O O14 0.342088 0.750000 0.616458
O O15 0.363514 0.586113 0.568037
O O16 0.375906 0.641370 0.776983
O O17 0.250000 1.000000 0.495957
O O18 0.363514 0.086113 0.568037
O O19 0.250000 0.370417 0.689405
O O20 0.157912 0.250000 0.616458
#
# Coordination Sequence:
#
# PCOD8244155 Si02
#       8
#     8   8   8   8   8   8   8   8
#     4  11  22  39  60  85 117 153 187 226 282 342
#     4  11  19  37  63  86 117 152 184 227 285 341
#     4  11  24  41  59  83 113 150 197 236 276 334
#     4  11  22  39  60  85 117 153 187 226 282 342
#     4  10  20  35  58  87 114 144 187 237 285 333
#     4   9  20  38  57  78 110 151 190 233 284 333
#     4  11  19  37  63  86 117 152 184 227 285 341
#     4  10  20  35  58  87 114 144 187 237 285 333
#
# _framework density 18.902425999999998
#
# number of rings (size 3 to 8) (size 9 to 14) (size 15 to 20)
#    0.000    1.500    3.750    3.750    0.000    2.500 
#    0.000    5.000    0.000    3.000    0.000    0.000 
#    0.000    0.000    0.000    0.000    0.000    0.000 
#
# Total GULP energy -793788.111144 kJ/mol
# GULP energy per Si atom -12402.939237 kJ/mol
# Density = 1.885940 g / cm^3
# Si number density = 18.902426 Si / 1000 Ang^3
#
#
#
# Elastic Constant Matrix: (Units=GPa)
#
#
# Indices 1 2 3 4 5 6 
#
# 1 50.9354 21.8262 56.2025 0.0000 0.0000 0.0000
# 2 21.8262 136.0447 53.5698 0.0000 0.0000 0.0000
# 3 56.2025 53.5698 141.6371 0.0000 0.0000 0.0000
# 4 0.0000 0.0000 0.0000 7.9273 0.0000 0.0000
# 5 0.0000 0.0000 0.0000 0.0000 -58.9834 0.0000
# 6 0.0000 0.0000 0.0000 0.0000 0.0000 18.3217
#
#
#
# Elastic Compliance Matrix: (Units=1/GPa)
#
#
# Indices 1 2 3 4 5 6 
#
# 1 0.034927 -0.000172 -0.013794 0.000000 0.000000 0.000000
# 2 -0.000172 0.008638 -0.003199 0.000000 0.000000 0.000000
# 3 -0.013794 -0.003199 0.013744 0.000000 0.000000 0.000000
# 4 0.000000 0.000000 0.000000 0.126147 0.000000 0.000000
# 5 0.000000 0.000000 0.000000 0.000000 -0.016954 0.000000
# 6 0.000000 0.000000 0.000000 0.000000 0.000000 0.054580
#
#
# Mechanical properties :
#
#
# Convention : Reuss Voigt Hill
#
# Bulk Modulus (GPa) = 43.51834 65.75714 54.63774
# Shear Modulus (GPa) = 19.00629 6.58770 12.79700
#
# Velocity S-wave (km/s) = 3.17439 1.86887 2.60475
# Velocity P-wave (km/s) = 6.04221 6.28650 6.16557
#
# Compressibility (1/GPa) = 0.02297882
#
# Stress axis : x y z
#
# Youngs Moduli (GPa) = 28.63112 115.77230 72.76012
#
# Poissons Ratio (x) = 0.01989 1.00367
# Poissons Ratio (y) = 0.00492 0.23274
# Poissons Ratio (z) = 0.39495 0.37033
#
# Static dielectric constant tensor:
#      x y z
#    x 3.274670 0.000000 0.000000 
#    y 0.000000 3.823580 0.000000 
#    z 0.000000 0.000000 3.621610 
# 
# 
# High freq. dielectric constant tensor:
#      x y z
#    x 1.714190 0.000000 0.000000 
#    y 0.000000 1.757580 0.000000 
#    z 0.000000 0.000000 1.732190 
# 
# From -- ./inp_files/17853.got.cif
#   From: 2010.03.12/outbox.cif.g09.slc.cpg/sg59_9_cif.got.tgz:17853.got - 2010.04.16 16:29:54.
