data_PCOD8244901
_publ_section_title
;
Structure prediction by ZEFSAII (Michael W. Deem and Ramdas Pophale) SiO2 
 PCOD8244901
Probable space group: P M M N
;
_chemical_formula_sum "Si O2"
_cell_formula_units_Z 56
_cell_length_a 15.020344
_cell_length_b 8.534587
_cell_length_c 21.716115
_cell_angle_alpha 90.000000
_cell_angle_beta 90.000000
_cell_angle_gamma 90.000000
_cell_volume 2783.841609
_symmetry_space_group_name_H-M "P M M N"
_symmetry_group_IT_number 59
_space_group.IT_coordinate_system_code '2'
_symmetry_cell_setting 'orthorhombic'
loop_
_space_group_symop_operation_xyz
x,y,z
1/2-x,1/2-y,z
1/2+x,-y,-z
-x,1/2+y,-z
-x,-y,-z
1/2+x,1/2+y,-z
1/2-x,y,z
x,1/2-y,z
loop_
_atom_site_type_symbol
_atom_site_label
_atom_site_fract_x
_atom_site_fract_y
_atom_site_fract_z
Si Si1 0.653183 0.564764 0.696591
Si Si2 0.486785 0.433055 0.911865
Si Si3 0.150410 0.072362 0.696917
Si Si4 0.100792 0.430937 0.432328
Si Si5 0.505367 0.067998 0.221192
Si Si6 0.410367 0.433061 0.564894
Si Si7 0.648101 0.435011 0.995266
O O1 0.750000 0.522602 0.723635
O O2 0.637573 0.750000 0.692637
O O3 0.646282 0.489245 0.627617
O O4 0.579696 0.496539 0.742848
O O5 0.477455 0.250000 0.924059
O O6 0.484394 0.468472 0.840112
O O7 0.399643 0.513850 0.941455
O O8 0.581394 0.493630 0.940540
O O9 0.250000 0.050778 0.721534
O O10 0.116688 0.250000 0.707981
O O11 0.151608 0.035348 0.623695
O O12 0.090174 0.952797 0.734785
O O13 0.122258 0.250000 0.426540
O O14 0.136396 0.486405 0.499988
O O15 0.996469 0.461020 0.426678
O O16 0.494524 0.250000 0.204275
O O17 0.437593 0.250000 0.559836
O O18 0.750000 0.504309 0.989206
O O19 0.656130 0.250000 0.994440
#
# Coordination Sequence:
#
# PCOD8244901 Si02
#       7
#     8   8   8   8   8   8   8
#     4   9  18  32  51  76 104 136 178 225 270 320
#     4  10  21  37  59  87 117 149 182 218 264 310
#     4  10  21  36  53  75 104 139 181 229 280 330
#     4   9  16  29  50  74  99 132 172 218 274 332
#     4  11  22  37  56  78 109 147 186 224 265 316
#     4   9  17  29  49  74 100 130 170 222 278 331
#     4   9  19  38  63  90 119 148 180 217 257 308
#
# _framework density 20.116087
#
# number of rings (size 3 to 8) (size 9 to 14) (size 15 to 20)
#    0.000    2.429    1.429    0.857    0.000    2.857 
#    0.000    2.857    0.000    3.429    0.000    4.000 
#    0.000    0.000    0.000    0.000    0.000    0.000 
#
# Total GULP energy -693887.081703 kJ/mol
# GULP energy per Si atom -12390.840745 kJ/mol
# Density = 2.007030 g / cm^3
# Si number density = 20.116087 Si / 1000 Ang^3
#
#
#
# Elastic Constant Matrix: (Units=GPa)
#
#
# Indices 1 2 3 4 5 6 
#
# 1 119.7445 9.4079 43.5402 0.0000 0.0000 0.0000
# 2 9.4079 11.1967 7.3925 0.0000 0.0000 0.0000
# 3 43.5402 7.3925 116.7379 0.0000 0.0000 0.0000
# 4 0.0000 0.0000 0.0000 14.8216 0.0000 0.0000
# 5 0.0000 0.0000 0.0000 0.0000 3.9823 0.0000
# 6 0.0000 0.0000 0.0000 0.0000 0.0000 20.9242
#
#
#
# Elastic Compliance Matrix: (Units=1/GPa)
#
#
# Indices 1 2 3 4 5 6 
#
# 1 0.010062 -0.006238 -0.003358 0.000000 0.000000 0.000000
# 2 -0.006238 0.097076 -0.003821 0.000000 0.000000 0.000000
# 3 -0.003358 -0.003821 0.010061 0.000000 0.000000 0.000000
# 4 0.000000 0.000000 0.000000 0.067469 0.000000 0.000000
# 5 0.000000 0.000000 0.000000 0.000000 0.251112 0.000000
# 6 0.000000 0.000000 0.000000 0.000000 0.000000 0.047792
#
#
# Mechanical properties :
#
#
# Convention : Reuss Voigt Hill
#
# Bulk Modulus (GPa) = 11.06611 40.92890 25.99750
# Shear Modulus (GPa) = 9.25025 20.43485 14.84255
#
# Velocity S-wave (km/s) = 2.14672 3.19069 2.71928
# Velocity P-wave (km/s) = 3.41433 5.82791 4.77609
#
# Compressibility (1/GPa) = 0.09036600
#
# Stress axis : x y z
#
# Youngs Moduli (GPa) = 99.38234 10.30119 99.39791
#
# Poissons Ratio (x) = 0.06425 0.33377
# Poissons Ratio (y) = 0.61990 0.37979
# Poissons Ratio (z) = 0.33372 0.03936
#
# Static dielectric constant tensor:
#      x y z
#    x 3.678210 0.000000 0.000000 
#    y 0.000000 3.346020 0.000000 
#    z 0.000000 0.000000 3.809960 
# 
# 
# High freq. dielectric constant tensor:
#      x y z
#    x 1.778820 0.000000 0.000000 
#    y 0.000000 1.753590 0.000000 
#    z 0.000000 0.000000 1.791510 
# 
# From -- ./inp_files/29085.got.cif
#   From: 2010.03.12/outbox.cif.g09.slc.cpg/sg59_15_cif.got.tgz:29085.got - 2010.04.16 16:29:54.
