data_PCOD8244297
_publ_section_title
;
Structure prediction by ZEFSAII (Michael W. Deem and Ramdas Pophale) SiO2 
 PCOD8244297
Probable space group: P M M N
;
_chemical_formula_sum "Si O2"
_cell_formula_units_Z 48
_cell_length_a 15.787522
_cell_length_b 9.145243
_cell_length_c 16.748349
_cell_angle_alpha 90.000000
_cell_angle_beta 90.000000
_cell_angle_gamma 90.000000
_cell_volume 2418.138772
_symmetry_space_group_name_H-M "P M M N"
_symmetry_group_IT_number 59
_space_group.IT_coordinate_system_code '2'
_symmetry_cell_setting 'orthorhombic'
loop_
_space_group_symop_operation_xyz
x,y,z
1/2-x,1/2-y,z
1/2+x,-y,-z
-x,1/2+y,-z
-x,-y,-z
1/2+x,1/2+y,-z
1/2-x,y,z
x,1/2-y,z
loop_
_atom_site_type_symbol
_atom_site_label
_atom_site_fract_x
_atom_site_fract_y
_atom_site_fract_z
Si Si1 0.588250 0.420358 0.004162
Si Si2 0.416152 0.421671 0.679534
Si Si3 0.652899 0.417282 0.832034
Si Si4 0.153671 0.086320 0.848484
Si Si5 0.250000 0.076482 0.407727
Si Si6 0.750000 0.576001 0.411778
Si Si7 0.415157 0.076558 0.312983
O O1 0.572117 0.250000 0.014218
O O2 0.641309 0.474659 0.079634
O O3 0.500000 0.500000 0.000000
O O4 0.640439 0.457034 0.924533
O O5 0.428537 0.250000 0.663619
O O6 0.404427 0.455404 0.773381
O O7 0.334887 0.482501 0.631304
O O8 0.499634 0.507179 0.649826
O O9 0.750000 0.444118 0.809626
O O10 0.625656 0.250000 0.815690
O O11 0.595495 0.522109 0.777976
O O12 0.250000 0.079689 0.818316
O O13 0.130800 0.250000 0.878183
O O14 0.250000 0.250000 0.406572
O O15 0.250000 0.016567 0.497835
O O16 0.334776 0.019531 0.363945
O O17 0.750000 0.750000 0.408049
O O18 0.423216 0.250000 0.314146
#
# Coordination Sequence:
#
# PCOD8244297 Si02
#       7
#     8   8   8   8   4   4   8
#     4  11  23  37  53  79 113 151 194 240 287 339
#     4  10  20  37  62  89 114 151 199 239 279 342
#     4  10  21  38  58  79 108 149 198 243 280 332
#     4  10  20  36  57  82 112 147 191 240 287 340
#     4   9  20  38  59  86 119 152 188 235 291 349
#     4   9  18  38  65  86 113 154 194 233 285 347
#     4  11  22  37  58  87 121 155 189 235 294 348
#
# _framework density 19.849979000000001
#
# number of rings (size 3 to 8) (size 9 to 14) (size 15 to 20)
#    0.000    1.833    1.667    2.500    0.000    7.667 
#    0.000    0.417    0.000    3.000    0.000    0.000 
#    0.000    0.000    0.000    0.000    0.000    0.000 
#
# Total GULP energy -595336.929844 kJ/mol
# GULP energy per Si atom -12402.852705 kJ/mol
# Density = 1.980480 g / cm^3
# Si number density = 19.849979 Si / 1000 Ang^3
#
#
#
# Elastic Constant Matrix: (Units=GPa)
#
#
# Indices 1 2 3 4 5 6 
#
# 1 150.1034 49.4874 56.4295 0.0000 0.0000 0.0000
# 2 49.4874 68.9956 45.9032 0.0000 0.0000 0.0000
# 3 56.4295 45.9032 110.2134 0.0000 0.0000 0.0000
# 4 0.0000 0.0000 0.0000 17.5909 0.0000 0.0000
# 5 0.0000 0.0000 0.0000 0.0000 22.7683 0.0000
# 6 0.0000 0.0000 0.0000 0.0000 0.0000 33.7825
#
#
#
# Elastic Compliance Matrix: (Units=1/GPa)
#
#
# Indices 1 2 3 4 5 6 
#
# 1 0.009287 -0.004838 -0.002740 0.000000 0.000000 0.000000
# 2 -0.004838 0.022570 -0.006923 0.000000 0.000000 0.000000
# 3 -0.002740 -0.006923 0.013360 0.000000 0.000000 0.000000
# 4 0.000000 0.000000 0.000000 0.056848 0.000000 0.000000
# 5 0.000000 0.000000 0.000000 0.000000 0.043921 0.000000
# 6 0.000000 0.000000 0.000000 0.000000 0.000000 0.029601
#
#
# Mechanical properties :
#
#
# Convention : Reuss Voigt Hill
#
# Bulk Modulus (GPa) = 61.67469 70.32807 66.00138
# Shear Modulus (GPa) = 23.81023 26.66115 25.23569
#
# Velocity S-wave (km/s) = 3.46715 3.66885 3.56943
# Velocity P-wave (km/s) = 6.86775 7.31123 7.09296
#
# Compressibility (1/GPa) = 0.01621411
#
# Stress axis : x y z
#
# Youngs Moduli (GPa) = 107.67382 44.30663 74.85301
#
# Poissons Ratio (x) = 0.21438 0.20509
# Poissons Ratio (y) = 0.52098 0.51820
# Poissons Ratio (z) = 0.29502 0.30673
#
# Static dielectric constant tensor:
#      x y z
#    x 3.800380 0.000000 0.000000 
#    y 0.000000 3.836830 0.000000 
#    z 0.000000 0.000000 3.749580 
# 
# 
# High freq. dielectric constant tensor:
#      x y z
#    x 1.791110 0.000000 0.000000 
#    y 0.000000 1.750120 0.000000 
#    z 0.000000 0.000000 1.770710 
# 
# From -- ./inp_files/27467.got.cif
#   From: 2010.03.12/outbox.cif.g09.slc.cpg/sg59_14_cif.got.tgz:27467.got - 2010.04.16 16:29:54.
