data_PCOD8244944
_publ_section_title
;
Structure prediction by ZEFSAII (Michael W. Deem and Ramdas Pophale) SiO2 
 PCOD8244944
Probable space group: P M M N
;
_chemical_formula_sum "Si O2"
_cell_formula_units_Z 64
_cell_length_a 18.322297
_cell_length_b 9.321969
_cell_length_c 20.249010
_cell_angle_alpha 90.000000
_cell_angle_beta 90.000000
_cell_angle_gamma 90.000000
_cell_volume 3458.528572
_symmetry_space_group_name_H-M "P M M N"
_symmetry_group_IT_number 59
_space_group.IT_coordinate_system_code '2'
_symmetry_cell_setting 'orthorhombic'
loop_
_space_group_symop_operation_xyz
x,y,z
1/2-x,1/2-y,z
1/2+x,-y,-z
-x,1/2+y,-z
-x,-y,-z
1/2+x,1/2+y,-z
1/2-x,y,z
x,1/2-y,z
loop_
_atom_site_type_symbol
_atom_site_label
_atom_site_fract_x
_atom_site_fract_y
_atom_site_fract_z
Si Si1 0.666434 0.083491 0.123843
Si Si2 0.584042 0.581427 0.382850
Si Si3 0.665136 0.586678 0.890405
Si Si4 0.075747 0.580263 0.004473
Si Si5 0.666028 0.582815 0.251711
Si Si6 0.083137 0.582049 0.370444
Si Si7 0.834529 0.082027 0.498028
Si Si8 0.332590 0.416041 0.262022
O O1 0.750000 0.041637 0.109314
O O2 0.657730 0.250000 0.139774
O O3 0.620628 0.037543 0.060454
O O4 0.636484 0.998650 0.187245
O O5 0.594948 0.750000 0.393638
O O6 0.618384 0.531555 0.313600
O O7 0.499777 0.536127 0.384387
O O8 0.625109 0.501592 0.440833
O O9 0.750000 0.559866 0.904570
O O10 0.644028 0.750000 0.909558
O O11 0.646989 0.558721 0.814055
O O12 0.618868 0.473645 0.931697
O O13 0.063927 0.750000 0.010344
O O14 0.000000 0.500000 0.000000
O O15 0.750000 0.542648 0.266319
O O16 0.656181 0.750000 0.238091
O O17 0.089213 0.750000 0.357150
O O18 0.131931 0.533648 0.432255
O O19 0.110783 0.504759 0.305057
O O20 0.750000 0.039372 0.497979
O O21 0.846465 0.250000 0.486264
O O22 0.250000 0.469036 0.275724
O O23 0.339702 0.250000 0.280623
#
# Coordination Sequence:
#
# PCOD8244944 Si02
#       8
#     8   8   8   8   8   8   8   8
#     4   9  19  36  56  77 102 134 174 218 261 310
#     4  10  21  36  54  78 108 140 175 215 261 316
#     4   9  19  37  59  82 110 143 180 224 271 319
#     4  11  23  37  54  79 111 144 181 225 272 324
#     4   9  18  33  53  77 104 134 171 215 259 306
#     4  10  21  36  54  79 111 143 175 216 266 317
#     4  10  21  36  54  77 105 138 178 223 268 314
#     4   9  19  36  57  81 108 140 180 222 264 316
#
# _framework density 18.50498
#
# number of rings (size 3 to 8) (size 9 to 14) (size 15 to 20)
#    0.000    2.375    0.000    2.625    0.000    6.250 
#    0.000    6.250    0.000    0.000    0.000    0.000 
#    0.000    0.000    0.000    0.000    0.000    0.000 
#
# Total GULP energy -793827.129009 kJ/mol
# GULP energy per Si atom -12403.548891 kJ/mol
# Density = 1.846286 g / cm^3
# Si number density = 18.504980 Si / 1000 Ang^3
#
#
#
# Elastic Constant Matrix: (Units=GPa)
#
#
# Indices 1 2 3 4 5 6 
#
# 1 112.4375 54.4482 70.7838 0.0000 0.0000 0.0000
# 2 54.4482 62.2092 62.2525 0.0000 0.0000 0.0000
# 3 70.7838 62.2525 122.8118 0.0000 0.0000 0.0000
# 4 0.0000 0.0000 0.0000 34.7282 0.0000 0.0000
# 5 0.0000 0.0000 0.0000 0.0000 -22.2584 0.0000
# 6 0.0000 0.0000 0.0000 0.0000 0.0000 29.2138
#
#
#
# Elastic Compliance Matrix: (Units=1/GPa)
#
#
# Indices 1 2 3 4 5 6 
#
# 1 0.016558 -0.010030 -0.004459 0.000000 0.000000 0.000000
# 2 -0.010030 0.038698 -0.013835 0.000000 0.000000 0.000000
# 3 -0.004459 -0.013835 0.017726 0.000000 0.000000 0.000000
# 4 0.000000 0.000000 0.000000 0.028795 0.000000 0.000000
# 5 0.000000 0.000000 0.000000 0.000000 -0.044927 0.000000
# 6 0.000000 0.000000 0.000000 0.000000 0.000000 0.034230
#
#
# Mechanical properties :
#
#
# Convention : Reuss Voigt Hill
#
# Bulk Modulus (GPa) = 61.22460 74.71415 67.96938
# Shear Modulus (GPa) = 32.64275 15.66832 24.15553
#
# Velocity S-wave (km/s) = 4.20455 2.91298 3.61689
# Velocity P-wave (km/s) = 7.53182 7.19561 7.36563
#
# Compressibility (1/GPa) = 0.01633330
#
# Stress axis : x y z
#
# Youngs Moduli (GPa) = 60.39285 25.84109 56.41574
#
# Poissons Ratio (x) = 0.25919 0.25158
# Poissons Ratio (y) = 0.60574 0.78050
# Poissons Ratio (z) = 0.26931 0.35751
#
# Static dielectric constant tensor:
#      x y z
#    x 3.514990 0.000000 0.000000 
#    y 0.000000 3.327960 0.000000 
#    z 0.000000 0.000000 3.479330 
# 
# 
# High freq. dielectric constant tensor:
#      x y z
#    x 1.722620 0.000000 0.000000 
#    y 0.000000 1.712860 0.000000 
#    z 0.000000 0.000000 1.727920 
# 
# From -- ./inp_files/30808.got.cif
#   From: 2010.03.12/outbox.cif.g09.slc.cpg/sg59_16_cif.got.tgz:30808.got - 2010.04.16 16:29:54.
