data_PCOD8244792
_publ_section_title
;
Structure prediction by ZEFSAII (Michael W. Deem and Ramdas Pophale) SiO2 
 PCOD8244792
Probable space group: P M M N
;
_chemical_formula_sum "Si O2"
_cell_formula_units_Z 64
_cell_length_a 23.032819
_cell_length_b 9.260483
_cell_length_c 15.194805
_cell_angle_alpha 90.000000
_cell_angle_beta 90.000000
_cell_angle_gamma 90.000000
_cell_volume 3240.976370
_symmetry_space_group_name_H-M "P M M N"
_symmetry_group_IT_number 59
_space_group.IT_coordinate_system_code '2'
_symmetry_cell_setting 'orthorhombic'
loop_
_space_group_symop_operation_xyz
x,y,z
1/2-x,1/2-y,z
1/2+x,-y,-z
-x,1/2+y,-z
-x,-y,-z
1/2+x,1/2+y,-z
1/2-x,y,z
x,1/2-y,z
loop_
_atom_site_type_symbol
_atom_site_label
_atom_site_fract_x
_atom_site_fract_y
_atom_site_fract_z
Si Si1 0.993815 0.083223 0.738318
Si Si2 0.818888 0.088443 0.823128
Si Si3 0.354331 0.586249 0.861098
Si Si4 0.623488 0.582001 0.307272
Si Si5 0.683176 0.920077 0.489101
Si Si6 0.184070 0.092815 0.018304
Si Si7 0.512276 0.084537 0.089735
Si Si8 0.623222 0.418075 0.646348
O O1 0.991845 0.250000 0.767607
O O2 0.944444 0.049789 0.665972
O O3 0.054857 0.045378 0.691629
O O4 0.981587 0.990471 0.826348
O O5 0.750000 0.089301 0.826458
O O6 0.843724 0.250000 0.836527
O O7 0.839530 0.027742 0.729714
O O8 0.846603 0.991642 0.901046
O O9 0.331954 0.750000 0.855014
O O10 0.345216 0.511615 0.767219
O O11 0.315791 0.499920 0.930153
O O12 0.419685 0.577352 0.893869
O O13 0.634214 0.750000 0.286906
O O14 0.653144 0.535233 0.397914
O O15 0.750000 0.974577 0.491059
O O16 0.680704 0.750000 0.503490
O O17 0.644534 0.992683 0.563558
O O18 0.250000 0.117816 0.045937
O O19 0.153695 0.250000 0.005128
O O20 0.490617 0.250000 0.081825
O O21 0.500000 0.000000 0.000000
O O22 0.634316 0.250000 0.627092
#
# Coordination Sequence:
#
# PCOD8244792 Si02
#       8
#     8   8   8   8   8   8   8   8
#     4   9  19  36  56  81 113 149 189 230 281 339
#     4   9  18  33  51  72 104 143 179 223 278 333
#     4  10  21  36  55  80 110 144 183 230 279 328
#     4   9  19  38  59  79 111 150 187 232 285 337
#     4  10  22  39  59  84 112 145 187 234 286 342
#     4  10  21  35  52  77 108 144 186 228 275 334
#     4  10  21  35  53  79 112 149 189 231 273 324
#     4  10  21  36  57  84 113 144 183 232 284 342
#
# _framework density 19.747136000000001
#
# number of rings (size 3 to 8) (size 9 to 14) (size 15 to 20)
#    0.000    2.375    0.000    1.500    1.750    5.500 
#    0.000    2.500    0.000    0.000    0.000    0.000 
#    0.000    0.000    0.000    0.000    0.000    0.000 
#
# Total GULP energy -793587.514042 kJ/mol
# GULP energy per Si atom -12399.804907 kJ/mol
# Density = 1.970219 g / cm^3
# Si number density = 19.747136 Si / 1000 Ang^3
#
#
#
# Elastic Constant Matrix: (Units=GPa)
#
#
# Indices 1 2 3 4 5 6 
#
# 1 50.7033 26.1029 43.2497 0.0000 0.0000 0.0000
# 2 26.1029 107.8371 80.7464 0.0000 0.0000 0.0000
# 3 43.2497 80.7464 165.0564 0.0000 0.0000 0.0000
# 4 0.0000 0.0000 0.0000 40.8469 0.0000 0.0000
# 5 0.0000 0.0000 0.0000 0.0000 33.8943 0.0000
# 6 0.0000 0.0000 0.0000 0.0000 0.0000 21.2524
#
#
#
# Elastic Compliance Matrix: (Units=1/GPa)
#
#
# Indices 1 2 3 4 5 6 
#
# 1 0.025633 -0.001855 -0.005809 0.000000 0.000000 0.000000
# 2 -0.001855 0.014768 -0.006738 0.000000 0.000000 0.000000
# 3 -0.005809 -0.006738 0.010877 0.000000 0.000000 0.000000
# 4 0.000000 0.000000 0.000000 0.024482 0.000000 0.000000
# 5 0.000000 0.000000 0.000000 0.000000 0.029504 0.000000
# 6 0.000000 0.000000 0.000000 0.000000 0.000000 0.047053
#
#
# Mechanical properties :
#
#
# Convention : Reuss Voigt Hill
#
# Bulk Modulus (GPa) = 44.49823 69.31052 56.90437
# Shear Modulus (GPa) = 26.50944 30.76526 28.63735
#
# Velocity S-wave (km/s) = 3.66791 3.95138 3.81228
# Velocity P-wave (km/s) = 6.36562 7.48286 6.94673
#
# Compressibility (1/GPa) = 0.02247281
#
# Stress axis : x y z
#
# Youngs Moduli (GPa) = 39.01281 67.71455 91.93539
#
# Poissons Ratio (x) = 0.12560 0.53406
# Poissons Ratio (y) = 0.07236 0.61951
# Poissons Ratio (z) = 0.22663 0.45629
#
# Static dielectric constant tensor:
#      x y z
#    x 3.565720 0.000000 0.000000 
#    y 0.000000 3.867280 0.000000 
#    z 0.000000 0.000000 3.550300 
# 
# 
# High freq. dielectric constant tensor:
#      x y z
#    x 1.766900 0.000000 0.000000 
#    y 0.000000 1.770030 0.000000 
#    z 0.000000 0.000000 1.768730 
# 
# From -- ./inp_files/24747.got.cif
#   From: 2010.03.12/outbox.cif.g09.slc.cpg/sg59_13_cif.got.tgz:24747.got - 2010.04.16 16:29:54.
