data_PCOD8244470
_publ_section_title
;
Structure prediction by ZEFSAII (Michael W. Deem and Ramdas Pophale) SiO2 
 PCOD8244470
Probable space group: P M M N
;
_chemical_formula_sum "Si O2"
_cell_formula_units_Z 48
_cell_length_a 14.853842
_cell_length_b 8.638293
_cell_length_c 18.875494
_cell_angle_alpha 90.000000
_cell_angle_beta 90.000000
_cell_angle_gamma 90.000000
_cell_volume 2421.949354
_symmetry_space_group_name_H-M "P M M N"
_symmetry_group_IT_number 59
_space_group.IT_coordinate_system_code '2'
_symmetry_cell_setting 'orthorhombic'
loop_
_space_group_symop_operation_xyz
x,y,z
1/2-x,1/2-y,z
1/2+x,-y,-z
-x,1/2+y,-z
-x,-y,-z
1/2+x,1/2+y,-z
1/2-x,y,z
x,1/2-y,z
loop_
_atom_site_type_symbol
_atom_site_label
_atom_site_fract_x
_atom_site_fract_y
_atom_site_fract_z
Si Si1 0.750000 0.066070 0.229846
Si Si2 0.603426 0.069751 0.852747
Si Si3 0.145953 0.074685 0.997495
Si Si4 0.750000 0.572842 0.592120
Si Si5 0.919252 0.068685 0.140414
Si Si6 0.250000 0.427283 0.240950
Si Si7 0.898999 0.433329 0.498664
Si Si8 0.250000 0.933348 0.611238
O O1 0.750000 0.250000 0.232147
O O2 0.836430 0.006919 0.186993
O O3 0.750000 0.996283 0.309437
O O4 0.617268 0.250000 0.866069
O O5 0.631007 0.980031 0.923194
O O6 0.502449 0.029041 0.830540
O O7 0.662648 0.013673 0.787577
O O8 0.250000 0.064251 0.977918
O O9 0.110076 0.250000 0.990014
O O10 0.093045 0.965353 0.942987
O O11 0.750000 0.750000 0.566200
O O12 0.750000 0.559731 0.675599
O O13 0.841566 0.491129 0.565773
O O14 0.936442 0.250000 0.150715
O O15 0.250000 0.250000 0.214968
O O16 0.906990 0.250000 0.501694
O O17 0.841324 0.487244 0.429365
O O18 0.000000 0.500000 0.500000
O O19 0.250000 0.750000 0.615000
#
# Coordination Sequence:
#
# PCOD8244470 Si02
#       8
#     4   8   8   4   8   4   8   4
#     4   9  19  36  59  84 113 151 194 237 284 340
#     4  12  25  40  60  86 117 153 195 245 302 361
#     4  11  22  38  61  84 113 151 196 250 302 354
#     4  10  22  40  63  89 121 158 200 246 296 354
#     4  11  22  38  60  86 116 152 199 248 297 355
#     4  11  24  43  63  86 117 157 200 245 298 360
#     4  10  20  36  62  92 124 158 198 243 291 349
#     4   8  17  35  57  85 117 152 192 236 282 334
#
# _framework density 19.818746999999998
#
# number of rings (size 3 to 8) (size 9 to 14) (size 15 to 20)
#    0.000    1.500    1.667    4.500    0.000    3.333 
#    0.000    3.333    0.000   11.000    0.000    0.000 
#    0.000    0.000    0.000    0.000    0.000    0.000 
#
# Total GULP energy -595293.985932 kJ/mol
# GULP energy per Si atom -12401.958040 kJ/mol
# Density = 1.977364 g / cm^3
# Si number density = 19.818747 Si / 1000 Ang^3
#
#
#
# Elastic Constant Matrix: (Units=GPa)
#
#
# Indices 1 2 3 4 5 6 
#
# 1 148.6108 45.3867 47.9380 0.0000 0.0000 0.0000
# 2 45.3867 76.9348 27.6308 0.0000 0.0000 0.0000
# 3 47.9380 27.6308 102.3674 0.0000 0.0000 0.0000
# 4 0.0000 0.0000 0.0000 26.8753 0.0000 0.0000
# 5 0.0000 0.0000 0.0000 0.0000 34.2151 0.0000
# 6 0.0000 0.0000 0.0000 0.0000 0.0000 31.7586
#
#
#
# Elastic Compliance Matrix: (Units=1/GPa)
#
#
# Indices 1 2 3 4 5 6 
#
# 1 0.009008 -0.004207 -0.003083 0.000000 0.000000 0.000000
# 2 -0.004207 0.016358 -0.002445 0.000000 0.000000 0.000000
# 3 -0.003083 -0.002445 0.011872 0.000000 0.000000 0.000000
# 4 0.000000 0.000000 0.000000 0.037209 0.000000 0.000000
# 5 0.000000 0.000000 0.000000 0.000000 0.029227 0.000000
# 6 0.000000 0.000000 0.000000 0.000000 0.000000 0.031488
#
#
# Mechanical properties :
#
#
# Convention : Reuss Voigt Hill
#
# Bulk Modulus (GPa) = 56.27971 63.31378 59.79675
# Shear Modulus (GPa) = 31.14186 32.36697 31.75441
#
# Velocity S-wave (km/s) = 3.96831 4.04561 4.00714
# Velocity P-wave (km/s) = 7.03246 7.33746 7.18658
#
# Compressibility (1/GPa) = 0.01776839
#
# Stress axis : x y z
#
# Youngs Moduli (GPa) = 111.00797 61.13160 84.22845
#
# Poissons Ratio (x) = 0.25719 0.25967
# Poissons Ratio (y) = 0.46703 0.20595
# Poissons Ratio (z) = 0.34224 0.14948
#
# Static dielectric constant tensor:
#      x y z
#    x 3.927980 0.000000 0.000000 
#    y 0.000000 3.620170 0.000000 
#    z 0.000000 0.000000 3.623480 
# 
# 
# High freq. dielectric constant tensor:
#      x y z
#    x 1.787310 0.000000 0.000000 
#    y 0.000000 1.770520 0.000000 
#    z 0.000000 0.000000 1.767480 
# 
# From -- ./inp_files/27539.got.cif
#   From: 2010.03.12/outbox.cif.g09.slc.cpg/sg59_14_cif.got.tgz:27539.got - 2010.04.16 16:29:54.
