data_PCOD8244196
_publ_section_title
;
Structure prediction by ZEFSAII (Michael W. Deem and Ramdas Pophale) SiO2 
 PCOD8244196
Probable space group: P M M N
;
_chemical_formula_sum "Si O2"
_cell_formula_units_Z 64
_cell_length_a 8.594203
_cell_length_b 15.096413
_cell_length_c 23.686223
_cell_angle_alpha 90.000000
_cell_angle_beta 90.000000
_cell_angle_gamma 90.000000
_cell_volume 3073.089368
_symmetry_space_group_name_H-M "P M M N"
_symmetry_group_IT_number 59
_space_group.IT_coordinate_system_code '2'
_symmetry_cell_setting 'orthorhombic'
loop_
_space_group_symop_operation_xyz
x,y,z
1/2-x,1/2-y,z
1/2+x,-y,-z
-x,1/2+y,-z
-x,-y,-z
1/2+x,1/2+y,-z
1/2-x,y,z
x,1/2-y,z
loop_
_atom_site_type_symbol
_atom_site_label
_atom_site_fract_x
_atom_site_fract_y
_atom_site_fract_z
Si Si1 0.930098 0.850752 0.555480
Si Si2 0.070176 0.994674 0.633302
Si Si3 0.570711 0.500579 0.753913
Si Si4 0.072594 0.349730 0.826000
Si Si5 0.931166 0.148189 0.563107
Si Si6 0.072753 0.849615 0.826721
Si Si7 0.428466 0.604366 0.059076
Si Si8 0.571561 0.604799 0.941426
O O1 0.750000 0.861516 0.539894
O O2 0.968977 0.750000 0.573568
O O3 0.028845 0.879170 0.500850
O O4 0.971840 0.914716 0.606806
O O5 0.250000 0.974873 0.622864
O O6 0.037727 0.998564 0.699424
O O7 0.026798 0.088853 0.606456
O O8 0.750000 0.500285 0.735391
O O9 0.538275 0.412769 0.789898
O O10 0.539125 0.587269 0.791079
O O11 0.250000 0.383089 0.820831
O O12 0.055852 0.250000 0.802494
O O13 0.023469 0.349677 0.891169
O O14 0.750000 0.131802 0.573454
O O15 0.978618 0.250000 0.573952
O O16 0.250000 0.883387 0.821501
O O17 0.056847 0.750000 0.802898
O O18 0.023851 0.848813 0.891915
O O19 0.250000 0.634379 0.062235
O O20 0.446238 0.499747 0.065488
O O21 0.500194 0.637626 0.000329
O O22 0.750000 0.634860 0.938270
#
# Coordination Sequence:
#
# PCOD8244196 Si02
#       8
#     8   8   8   8   8   8   8   8
#     4  10  21  39  64  95 131 168 207 253 304 360
#     4  12  25  41  64  91 124 166 209 256 305 362
#     4  12  26  45  66  89 120 160 206 258 308 358
#     4  11  24  42  65  91 121 159 201 249 306 368
#     4  10  21  39  64  95 131 168 207 253 304 360
#     4  11  24  42  65  91 121 159 201 249 306 368
#     4  10  20  35  59  90 122 159 198 245 303 363
#     4  10  20  35  59  90 122 159 198 245 303 363
#
# _framework density 20.825949000000001
#
# number of rings (size 3 to 8) (size 9 to 14) (size 15 to 20)
#    0.000    1.250    1.250    4.875    0.000    6.000 
#    0.000    0.000    0.000    0.000    0.000    0.000 
#    0.000    0.000    0.000    0.000    0.000    0.000 
#
# Total GULP energy -794061.194008 kJ/mol
# GULP energy per Si atom -12407.206156 kJ/mol
# Density = 2.077855 g / cm^3
# Si number density = 20.825949 Si / 1000 Ang^3
#
#
#
# Elastic Constant Matrix: (Units=GPa)
#
#
# Indices 1 2 3 4 5 6 
#
# 1 90.5155 26.2059 7.8307 0.0000 0.0000 0.0000
# 2 26.2059 94.0809 38.4476 0.0000 0.0000 0.0000
# 3 7.8307 38.4476 101.8895 0.0000 0.0000 0.0000
# 4 0.0000 0.0000 0.0000 -22.6651 0.0000 0.0000
# 5 0.0000 0.0000 0.0000 0.0000 37.1995 0.0000
# 6 0.0000 0.0000 0.0000 0.0000 0.0000 19.8833
#
#
#
# Elastic Compliance Matrix: (Units=1/GPa)
#
#
# Indices 1 2 3 4 5 6 
#
# 1 0.012031 -0.003515 0.000402 0.000000 0.000000 0.000000
# 2 -0.003515 0.013594 -0.004860 0.000000 0.000000 0.000000
# 3 0.000402 -0.004860 0.011617 0.000000 0.000000 0.000000
# 4 0.000000 0.000000 0.000000 -0.044121 0.000000 0.000000
# 5 0.000000 0.000000 0.000000 0.000000 0.026882 0.000000
# 6 0.000000 0.000000 0.000000 0.000000 0.000000 0.050294
#
#
# Mechanical properties :
#
#
# Convention : Reuss Voigt Hill
#
# Bulk Modulus (GPa) = 46.95636 47.93940 47.44788
# Shear Modulus (GPa) = 53.56624 21.15032 37.35828
#
# Velocity S-wave (km/s) = 5.07708 3.19027 4.23996
# Velocity P-wave (km/s) = 7.54752 6.05305 6.84121
#
# Compressibility (1/GPa) = 0.02129637
#
# Stress axis : x y z
#
# Youngs Moduli (GPa) = 83.11980 73.56029 86.07770
#
# Poissons Ratio (x) = 0.25859 -0.03459
# Poissons Ratio (y) = 0.29220 0.41830
# Poissons Ratio (z) = -0.03340 0.35747
#
# Static dielectric constant tensor:
#      x y z
#    x 3.829970 0.000000 0.000000 
#    y 0.000000 3.762870 0.000000 
#    z 0.000000 0.000000 3.661520 
# 
# 
# High freq. dielectric constant tensor:
#      x y z
#    x 1.828220 0.000000 0.000000 
#    y 0.000000 1.821850 0.000000 
#    z 0.000000 0.000000 1.809250 
# 
# From -- ./inp_files/31554.got.cif
#   From: 2010.03.12/outbox.cif.g09.slc.cpg/sg59_16_cif.got.tgz:31554.got - 2010.04.16 16:29:54.
