data_PCOD8244746
_publ_section_title
;
Structure prediction by ZEFSAII (Michael W. Deem and Ramdas Pophale) SiO2 
 PCOD8244746
Probable space group: P M M N
;
_chemical_formula_sum "Si O2"
_cell_formula_units_Z 48
_cell_length_a 9.397422
_cell_length_b 9.174259
_cell_length_c 31.200172
_cell_angle_alpha 90.000000
_cell_angle_beta 90.000000
_cell_angle_gamma 90.000000
_cell_volume 2689.903590
_symmetry_space_group_name_H-M "P M M N"
_symmetry_group_IT_number 59
_space_group.IT_coordinate_system_code '2'
_symmetry_cell_setting 'orthorhombic'
loop_
_space_group_symop_operation_xyz
x,y,z
1/2-x,1/2-y,z
1/2+x,-y,-z
-x,1/2+y,-z
-x,-y,-z
1/2+x,1/2+y,-z
1/2-x,y,z
x,1/2-y,z
loop_
_atom_site_type_symbol
_atom_site_label
_atom_site_fract_x
_atom_site_fract_y
_atom_site_fract_z
Si Si1 0.588212 0.575839 0.221491
Si Si2 0.414196 0.581595 0.622581
Si Si3 0.913349 0.922616 0.036613
Si Si4 0.418277 0.090777 0.871194
Si Si5 0.083642 0.081142 0.536890
Si Si6 0.415764 0.419488 0.293882
O O1 0.750000 0.528255 0.232750
O O2 0.576916 0.750000 0.221678
O O3 0.543537 0.512546 0.174074
O O4 0.479047 0.509930 0.254914
O O5 0.250000 0.553799 0.634464
O O6 0.442061 0.750000 0.611098
O O7 0.462360 0.485782 0.582302
O O8 0.508570 0.530033 0.662482
O O9 0.750000 0.961898 0.028601
O O10 0.938419 0.750000 0.035040
O O11 0.963971 0.985178 0.083736
O O12 0.000000 0.000000 0.000000
O O13 0.250000 0.111066 0.872807
O O14 0.490313 0.250000 0.870288
O O15 0.250000 0.056751 0.528782
O O16 0.041795 0.250000 0.536685
O O17 0.000000 0.000000 0.500000
O O18 0.250000 0.454811 0.298113
O O19 0.444954 0.250000 0.285245
#
# Coordination Sequence:
#
# PCOD8244746 Si02
#       6
#     8   8   8   8   8   8
#     4   9  17  31  53  76  94 119 161 208 247 286
#     4   9  18  34  54  73  97 133 174 210 242 282
#     4   9  17  30  48  69  94 124 158 197 241 289
#     4   7  12  26  47  68  90 119 157 199 240 283
#     4  10  21  36  55  80 108 136 167 205 248 292
#     4  10  21  35  50  72 104 137 164 195 242 296
#
# _framework density 17.844507
#
# number of rings (size 3 to 8) (size 9 to 14) (size 15 to 20)
#    0.000    3.000    0.000    3.000    0.000    4.000 
#    0.000    5.000    0.000    8.000    0.000    0.000 
#    0.000    0.000    0.000    0.000    0.000    0.000 
#
# Total GULP energy -594798.084499 kJ/mol
# GULP energy per Si atom -12391.626760 kJ/mol
# Density = 1.780389 g / cm^3
# Si number density = 17.844507 Si / 1000 Ang^3
#
#
#
# Elastic Constant Matrix: (Units=GPa)
#
#
# Indices 1 2 3 4 5 6 
#
# 1 74.6947 37.1686 80.6208 0.0000 0.0000 0.0000
# 2 37.1686 55.4580 66.7127 0.0000 0.0000 0.0000
# 3 80.6208 66.7127 197.0623 0.0000 0.0000 0.0000
# 4 0.0000 0.0000 0.0000 29.1516 0.0000 0.0000
# 5 0.0000 0.0000 0.0000 0.0000 32.6256 0.0000
# 6 0.0000 0.0000 0.0000 0.0000 0.0000 26.3505
#
#
#
# Elastic Compliance Matrix: (Units=1/GPa)
#
#
# Indices 1 2 3 4 5 6 
#
# 1 0.025810 -0.007754 -0.007934 0.000000 0.000000 0.000000
# 2 -0.007754 0.032749 -0.007915 0.000000 0.000000 0.000000
# 3 -0.007934 -0.007915 0.011000 0.000000 0.000000 0.000000
# 4 0.000000 0.000000 0.000000 0.034303 0.000000 0.000000
# 5 0.000000 0.000000 0.000000 0.000000 0.030651 0.000000
# 6 0.000000 0.000000 0.000000 0.000000 0.000000 0.037950
#
#
# Mechanical properties :
#
#
# Convention : Reuss Voigt Hill
#
# Bulk Modulus (GPa) = 44.73510 77.35770 61.04640
# Shear Modulus (GPa) = 22.01488 27.13973 24.57731
#
# Velocity S-wave (km/s) = 3.51623 3.90410 3.71523
# Velocity P-wave (km/s) = 6.45050 7.98547 7.25868
#
# Compressibility (1/GPa) = 0.02235381
#
# Stress axis : x y z
#
# Youngs Moduli (GPa) = 38.74499 30.53527 90.90962
#
# Poissons Ratio (x) = 0.23676 0.72130
# Poissons Ratio (y) = 0.30041 0.71952
# Poissons Ratio (z) = 0.30741 0.24168
#
# Static dielectric constant tensor:
#      x y z
#    x 3.110020 0.000000 0.000000 
#    y 0.000000 3.074310 0.000000 
#    z 0.000000 0.000000 0.994280 
# 
# 
# High freq. dielectric constant tensor:
#      x y z
#    x 1.668630 0.000000 0.000000 
#    y 0.000000 1.664980 0.000000 
#    z 0.000000 0.000000 1.713730 
# 
# From -- ./inp_files/32917.got.cif
#   From: 2010.03.12/outbox.cif.g09.slc.cpg/sg59_17_cif.got.tgz:32917.got - 2010.04.16 16:29:54.
