data_PCOD8244506
_publ_section_title
;
Structure prediction by ZEFSAII (Michael W. Deem and Ramdas Pophale) SiO2 
 PCOD8244506
Probable space group: P M M N
;
_chemical_formula_sum "Si O2"
_cell_formula_units_Z 36
_cell_length_a 13.801300
_cell_length_b 9.500535
_cell_length_c 15.350657
_cell_angle_alpha 90.000000
_cell_angle_beta 90.000000
_cell_angle_gamma 90.000000
_cell_volume 2012.774058
_symmetry_space_group_name_H-M "P M M N"
_symmetry_group_IT_number 59
_space_group.IT_coordinate_system_code '2'
_symmetry_cell_setting 'orthorhombic'
loop_
_space_group_symop_operation_xyz
x,y,z
1/2-x,1/2-y,z
1/2+x,-y,-z
-x,1/2+y,-z
-x,-y,-z
1/2+x,1/2+y,-z
1/2-x,y,z
x,1/2-y,z
loop_
_atom_site_type_symbol
_atom_site_label
_atom_site_fract_x
_atom_site_fract_y
_atom_site_fract_z
Si Si1 0.635455 0.250000 0.601959
Si Si2 0.514646 0.086172 0.134192
Si Si3 0.139131 0.410589 0.988511
Si Si4 0.364919 0.250000 0.604188
Si Si5 0.001189 0.977218 0.326643
Si Si6 0.499012 0.250000 0.444727
O O1 0.750000 0.250000 0.600215
O O2 0.597184 0.112027 0.651823
O O3 0.595482 0.250000 0.503466
O O4 0.538959 0.250000 0.144643
O O5 0.419606 0.058519 0.076511
O O6 0.494829 0.016849 0.226386
O O7 0.606361 0.011822 0.089462
O O8 0.250000 0.442512 0.010560
O O9 0.123034 0.250000 0.957876
O O10 0.250000 0.250000 0.604965
O O11 0.404225 0.111814 0.653641
O O12 0.403472 0.250000 0.505103
O O13 0.000991 0.114183 0.385356
#
# Coordination Sequence:
#
# PCOD8244506 Si02
#       6
#     4   8   8   4   8   4
#     4  10  22  38  56  81 114 150 186 225 276 330
#     4  10  20  37  59  81 111 145 180 226 275 317
#     4   9  20  37  58  81 109 144 180 221 274 332
#     4  10  22  38  56  81 112 150 188 223 276 334
#     4  10  21  37  59  83 111 146 187 230 273 324
#     4  10  20  38  60  82 110 146 184 232 280 324
#
# _framework density 17.885764000000002
#
# number of rings (size 3 to 8) (size 9 to 14) (size 15 to 20)
#    0.000    2.444    1.111    2.667    3.111    5.778 
#    0.000    0.000    0.000    0.000    0.000    0.000 
#    0.000    0.000    0.000    0.000    0.000    0.000 
#
# Total GULP energy -446443.183086 kJ/mol
# GULP energy per Si atom -12401.199530 kJ/mol
# Density = 1.784506 g / cm^3
# Si number density = 17.885764 Si / 1000 Ang^3
#
#
#
# Elastic Constant Matrix: (Units=GPa)
#
#
# Indices 1 2 3 4 5 6 
#
# 1 158.0926 62.1602 54.8570 0.0000 0.0000 0.0000
# 2 62.1602 143.6545 80.4809 0.0000 0.0000 0.0000
# 3 54.8570 80.4809 149.5057 0.0000 0.0000 0.0000
# 4 0.0000 0.0000 0.0000 41.1012 0.0000 0.0000
# 5 0.0000 0.0000 0.0000 0.0000 9.1609 0.0000
# 6 0.0000 0.0000 0.0000 0.0000 0.0000 20.4780
#
#
#
# Elastic Compliance Matrix: (Units=1/GPa)
#
#
# Indices 1 2 3 4 5 6 
#
# 1 0.007852 -0.002554 -0.001506 0.000000 0.000000 0.000000
# 2 -0.002554 0.010798 -0.004875 0.000000 0.000000 0.000000
# 3 -0.001506 -0.004875 0.009866 0.000000 0.000000 0.000000
# 4 0.000000 0.000000 0.000000 0.024330 0.000000 0.000000
# 5 0.000000 0.000000 0.000000 0.000000 0.109160 0.000000
# 6 0.000000 0.000000 0.000000 0.000000 0.000000 0.048833
#
#
# Mechanical properties :
#
#
# Convention : Reuss Voigt Hill
#
# Bulk Modulus (GPa) = 93.94515 94.02766 93.98641
# Shear Modulus (GPa) = 21.52775 31.06500 26.29637
#
# Velocity S-wave (km/s) = 3.47309 4.17208 3.83853
# Velocity P-wave (km/s) = 8.28989 8.71170 8.50341
#
# Compressibility (1/GPa) = 0.01064451
#
# Stress axis : x y z
#
# Youngs Moduli (GPa) = 127.35234 92.61323 101.35835
#
# Poissons Ratio (x) = 0.23651 0.15269
# Poissons Ratio (y) = 0.32522 0.49417
# Poissons Ratio (z) = 0.19185 0.45153
#
# Static dielectric constant tensor:
#      x y z
#    x 3.177430 0.000000 0.000000 
#    y 0.000000 3.517490 0.000000 
#    z 0.000000 0.000000 3.348310 
# 
# 
# High freq. dielectric constant tensor:
#      x y z
#    x 1.680660 0.000000 0.000000 
#    y 0.000000 1.710410 0.000000 
#    z 0.000000 0.000000 1.698660 
# 
# From -- ./inp_files/19804.got.cif
#   From: 2010.03.12/outbox.cif.g09.slc.cpg/sg59_10_cif.got.tgz:19804.got - 2010.04.16 16:29:54.
