data_PCOD8244378
_publ_section_title
;
Structure prediction by ZEFSAII (Michael W. Deem and Ramdas Pophale) SiO2 
 PCOD8244378
Probable space group: P M M N
;
_chemical_formula_sum "Si O2"
_cell_formula_units_Z 48
_cell_length_a 30.504752
_cell_length_b 8.903588
_cell_length_c 9.283617
_cell_angle_alpha 90.000000
_cell_angle_beta 90.000000
_cell_angle_gamma 90.000000
_cell_volume 2521.446566
_symmetry_space_group_name_H-M "P M M N"
_symmetry_group_IT_number 59
_space_group.IT_coordinate_system_code '2'
_symmetry_cell_setting 'orthorhombic'
loop_
_space_group_symop_operation_xyz
x,y,z
1/2-x,1/2-y,z
1/2+x,-y,-z
-x,1/2+y,-z
-x,-y,-z
1/2+x,1/2+y,-z
1/2-x,y,z
x,1/2-y,z
loop_
_atom_site_type_symbol
_atom_site_label
_atom_site_fract_x
_atom_site_fract_y
_atom_site_fract_z
Si Si1 0.328158 0.924678 0.165635
Si Si2 0.250000 0.073081 0.334915
Si Si3 0.250000 0.575570 0.639941
Si Si4 0.921931 0.923983 0.171062
Si Si5 0.918314 0.924471 0.838729
Si Si6 0.001643 0.927114 0.654885
Si Si7 0.332546 0.923521 0.834795
O O1 0.323948 0.750000 0.201509
O O2 0.293282 0.011889 0.259924
O O3 0.376499 0.979353 0.209673
O O4 0.318635 0.959205 0.998484
O O5 0.250000 0.250000 0.322452
O O6 0.250000 0.026719 0.500571
O O7 0.250000 0.750000 0.595669
O O8 0.207666 0.534535 0.733410
O O9 0.927932 0.750000 0.209420
O O10 0.955406 0.020575 0.262605
O O11 0.873025 0.973847 0.213680
O O12 0.930818 0.957537 0.003703
O O13 0.907134 0.750000 0.816248
O O14 0.958820 0.978647 0.742567
O O15 0.003218 0.750000 0.638398
O O16 0.000000 0.000000 0.500000
O O17 0.346405 0.750000 0.820596
#
# Coordination Sequence:
#
# PCOD8244378 Si02
#       7
#     8   4   4   8   8   8   8
#     4  10  20  37  62  87 110 141 184 230 276 328
#     4  12  25  38  54  80 116 152 185 224 272 326
#     4  10  21  38  58  80 110 146 183 224 270 324
#     4  10  20  36  59  85 112 143 182 227 276 330
#     4   9  20  38  59  84 112 143 182 229 278 327
#     4  11  23  38  56  80 113 150 187 228 275 328
#     4   9  19  37  61  86 110 140 182 230 277 326
#
# _framework density 19.036691999999999
#
# number of rings (size 3 to 8) (size 9 to 14) (size 15 to 20)
#    0.000    2.000    0.000    3.250    0.000    6.000 
#    0.000    0.833    0.000    0.000    0.000    0.000 
#    0.000    0.000    0.000    0.000    0.000    0.000 
#
# Total GULP energy -595450.115285 kJ/mol
# GULP energy per Si atom -12405.210735 kJ/mol
# Density = 1.899336 g / cm^3
# Si number density = 19.036692 Si / 1000 Ang^3
#
#
#
# Elastic Constant Matrix: (Units=GPa)
#
#
# Indices 1 2 3 4 5 6 
#
# 1 143.7700 68.6942 87.0932 0.0000 0.0000 0.0000
# 2 68.6942 91.5738 56.2442 0.0000 0.0000 0.0000
# 3 87.0932 56.2442 111.7070 0.0000 0.0000 0.0000
# 4 0.0000 0.0000 0.0000 30.8645 0.0000 0.0000
# 5 0.0000 0.0000 0.0000 0.0000 -27.2451 0.0000
# 6 0.0000 0.0000 0.0000 0.0000 0.0000 5.7980
#
#
#
# Elastic Compliance Matrix: (Units=1/GPa)
#
#
# Indices 1 2 3 4 5 6 
#
# 1 0.015126 -0.005941 -0.008802 0.000000 0.000000 0.000000
# 2 -0.005941 0.018142 -0.004503 0.000000 0.000000 0.000000
# 3 -0.008802 -0.004503 0.018082 0.000000 0.000000 0.000000
# 4 0.000000 0.000000 0.000000 0.032400 0.000000 0.000000
# 5 0.000000 0.000000 0.000000 0.000000 -0.036704 0.000000
# 6 0.000000 0.000000 0.000000 0.000000 0.000000 0.172474
#
#
# Mechanical properties :
#
#
# Convention : Reuss Voigt Hill
#
# Bulk Modulus (GPa) = 77.76736 85.67934 81.72335
# Shear Modulus (GPa) = 19.06234 10.88477 14.97356
#
# Velocity S-wave (km/s) = 3.16784 2.39378 2.80762
# Velocity P-wave (km/s) = 7.37023 7.26261 7.31662
#
# Compressibility (1/GPa) = 0.01285887
#
# Stress axis : x y z
#
# Youngs Moduli (GPa) = 66.11021 55.12006 55.30423
#
# Poissons Ratio (x) = 0.32745 0.48680
# Poissons Ratio (y) = 0.39274 0.24902
# Poissons Ratio (z) = 0.58191 0.24820
#
# Static dielectric constant tensor:
#      x y z
#    x 3.588300 0.000000 0.000000 
#    y 0.000000 3.526690 0.000000 
#    z 0.000000 0.000000 2.652530 
# 
# 
# High freq. dielectric constant tensor:
#      x y z
#    x 1.752710 0.000000 0.000000 
#    y 0.000000 1.745540 0.000000 
#    z 0.000000 0.000000 1.739060 
# 
# From -- ./inp_files/6380.got.cif
#   From: 2010.03.12/outbox.cif.g09.slc.cpg/sg59_4_cif.got.tgz:6380.got - 2010.04.16 16:29:54.
