data_PCOD8244905
_publ_section_title
;
Structure prediction by ZEFSAII (Michael W. Deem and Ramdas Pophale) SiO2 
 PCOD8244905
Probable space group: P M M N
;
_chemical_formula_sum "Si O2"
_cell_formula_units_Z 64
_cell_length_a 14.138504
_cell_length_b 9.202595
_cell_length_c 24.432098
_cell_angle_alpha 90.000000
_cell_angle_beta 90.000000
_cell_angle_gamma 90.000000
_cell_volume 3178.882900
_symmetry_space_group_name_H-M "P M M N"
_symmetry_group_IT_number 59
_space_group.IT_coordinate_system_code '2'
_symmetry_cell_setting 'orthorhombic'
loop_
_space_group_symop_operation_xyz
x,y,z
1/2-x,1/2-y,z
1/2+x,-y,-z
-x,1/2+y,-z
-x,-y,-z
1/2+x,1/2+y,-z
1/2-x,y,z
x,1/2-y,z
loop_
_atom_site_type_symbol
_atom_site_label
_atom_site_fract_x
_atom_site_fract_y
_atom_site_fract_z
Si Si1 0.358185 0.417634 0.299022
Si Si2 0.137225 0.585590 0.404870
Si Si3 0.143182 0.580243 0.996915
Si Si4 0.137039 0.414569 0.510258
Si Si5 0.362618 0.585779 0.615580
Si Si6 0.523793 0.580096 0.918583
Si Si7 0.638635 0.583406 0.277540
Si Si8 0.496694 0.580768 0.794873
O O1 0.250000 0.460308 0.287027
O O2 0.367332 0.250000 0.315853
O O3 0.400230 0.510107 0.349493
O O4 0.414774 0.454062 0.244058
O O5 0.250000 0.580879 0.405712
O O6 0.099470 0.750000 0.407340
O O7 0.097345 0.498594 0.457206
O O8 0.250000 0.532592 0.982379
O O9 0.136878 0.750000 0.008948
O O10 0.110034 0.500267 0.051888
O O11 0.076359 0.536103 0.946043
O O12 0.250000 0.415165 0.510508
O O13 0.098670 0.250000 0.510190
O O14 0.097473 0.497022 0.563784
O O15 0.250000 0.587250 0.613791
O O16 0.402464 0.750000 0.614821
O O17 0.398706 0.506485 0.670201
O O18 0.542896 0.750000 0.924097
O O19 0.523223 0.530571 0.855726
O O20 0.750000 0.569505 0.270741
O O21 0.607458 0.750000 0.284632
O O22 0.592846 0.513768 0.223679
O O23 0.468356 0.750000 0.793374
#
# Coordination Sequence:
#
# PCOD8244905 Si02
#       8
#     8   8   8   8   8   8   8   8
#     4   9  18  33  51  72 101 136 174 218 268 320
#     4   9  16  26  42  66  95 128 170 217 264 319
#     4   9  18  34  56  82 114 150 183 219 266 315
#     4   9  15  23  39  65  96 129 166 212 268 326
#     4   9  16  27  45  69  97 130 171 219 268 321
#     4   9  19  35  55  82 113 144 183 226 265 312
#     4  10  21  36  53  75 105 141 180 222 269 321
#     4  10  21  36  56  81 108 142 182 223 266 312
#
# _framework density 20.132859
#
# number of rings (size 3 to 8) (size 9 to 14) (size 15 to 20)
#    0.000    2.750    0.000    1.500    0.000    7.500 
#    0.000    2.500    0.000    2.250    0.000    0.000 
#    0.000    0.000    0.000    0.000    0.000    0.000 
#
# Total GULP energy -793769.414998 kJ/mol
# GULP energy per Si atom -12402.647109 kJ/mol
# Density = 2.008704 g / cm^3
# Si number density = 20.132859 Si / 1000 Ang^3
#
#
#
# Elastic Constant Matrix: (Units=GPa)
#
#
# Indices 1 2 3 4 5 6 
#
# 1 33.2379 11.2253 7.4238 0.0000 0.0000 0.0000
# 2 11.2253 101.3571 43.6341 0.0000 0.0000 0.0000
# 3 7.4238 43.6341 127.9641 0.0000 0.0000 0.0000
# 4 0.0000 0.0000 0.0000 36.2158 0.0000 0.0000
# 5 0.0000 0.0000 0.0000 0.0000 115.3953 0.0000
# 6 0.0000 0.0000 0.0000 0.0000 0.0000 21.6891
#
#
#
# Elastic Compliance Matrix: (Units=1/GPa)
#
#
# Indices 1 2 3 4 5 6 
#
# 1 0.031315 -0.003148 -0.000743 0.000000 0.000000 0.000000
# 2 -0.003148 0.011880 -0.003868 0.000000 0.000000 0.000000
# 3 -0.000743 -0.003868 0.009177 0.000000 0.000000 0.000000
# 4 0.000000 0.000000 0.000000 0.027612 0.000000 0.000000
# 5 0.000000 0.000000 0.000000 0.000000 0.008666 0.000000
# 6 0.000000 0.000000 0.000000 0.000000 0.000000 0.046106
#
#
# Mechanical properties :
#
#
# Convention : Reuss Voigt Hill
#
# Bulk Modulus (GPa) = 27.13501 43.01394 35.07447
# Shear Modulus (GPa) = 30.75782 48.01178 39.38480
#
# Velocity S-wave (km/s) = 3.91288 4.88869 4.42774
# Velocity P-wave (km/s) = 5.82420 7.29912 6.60297
#
# Compressibility (1/GPa) = 0.03685277
#
# Stress axis : x y z
#
# Youngs Moduli (GPa) = 31.93318 84.17460 108.96983
#
# Poissons Ratio (x) = 0.26500 0.08099
# Poissons Ratio (y) = 0.10053 0.42153
# Poissons Ratio (z) = 0.02373 0.32561
#
# Static dielectric constant tensor:
#      x y z
#    x 3.455700 0.000000 0.000000 
#    y 0.000000 3.714150 0.000000 
#    z 0.000000 0.000000 3.681460 
# 
# 
# High freq. dielectric constant tensor:
#      x y z
#    x 1.777610 0.000000 0.000000 
#    y 0.000000 1.786630 0.000000 
#    z 0.000000 0.000000 1.780760 
# 
# From -- ./inp_files/32221.got.cif
#   From: 2010.03.12/outbox.cif.g09.slc.cpg/sg59_17_cif.got.tgz:32221.got - 2010.04.16 16:29:54.
