data_PCOD8244751
_publ_section_title
;
Structure prediction by ZEFSAII (Michael W. Deem and Ramdas Pophale) SiO2 
 PCOD8244751
Probable space group: P M M N
;
_chemical_formula_sum "Si O2"
_cell_formula_units_Z 56
_cell_length_a 21.919739
_cell_length_b 13.157055
_cell_length_c 11.009542
_cell_angle_alpha 90.000000
_cell_angle_beta 90.000000
_cell_angle_gamma 90.000000
_cell_volume 3175.143233
_symmetry_space_group_name_H-M "P M M N"
_symmetry_group_IT_number 59
_space_group.IT_coordinate_system_code '2'
_symmetry_cell_setting 'orthorhombic'
loop_
_space_group_symop_operation_xyz
x,y,z
1/2-x,1/2-y,z
1/2+x,-y,-z
-x,1/2+y,-z
-x,-y,-z
1/2+x,1/2+y,-z
1/2-x,y,z
x,1/2-y,z
loop_
_atom_site_type_symbol
_atom_site_label
_atom_site_fract_x
_atom_site_fract_y
_atom_site_fract_z
Si Si1 0.500397 0.366194 0.761574
Si Si2 0.680655 0.949990 0.340612
Si Si3 0.895383 0.493021 0.683501
Si Si4 0.820153 0.135291 0.501067
Si Si5 0.073276 0.363733 0.520567
Si Si6 0.377980 0.367930 0.886486
Si Si7 0.820883 0.632552 0.857379
O O1 0.521427 0.250000 0.776678
O O2 0.558562 0.439779 0.779098
O O3 0.475103 0.386628 0.626239
O O4 0.449288 0.392537 0.862668
O O5 0.750000 0.917348 0.361376
O O6 0.641075 0.875377 0.424450
O O7 0.663255 0.938496 0.199729
O O8 0.669178 0.066852 0.381018
O O9 0.860151 0.404579 0.612627
O O10 0.936070 0.560632 0.591816
O O11 0.846005 0.563256 0.749766
O O12 0.750000 0.131172 0.542439
O O13 0.840442 0.250000 0.469047
O O14 0.065313 0.250000 0.471150
O O15 0.364700 0.250000 0.854620
O O16 0.360184 0.393396 0.023495
O O17 0.750000 0.607601 0.881226
O O18 0.829322 0.750000 0.820469
#
# Coordination Sequence:
#
# PCOD8244751 Si02
#       7
#     8   8   8   8   8   8   8
#     4   9  18  32  50  70  92 124 165 203 238 280
#     4   9  16  27  48  73  93 122 164 205 247 294
#     4  11  19  30  49  71  97 130 164 196 237 289
#     4   9  18  31  46  67  95 125 159 201 247 293
#     4   9  18  30  44  69 102 128 155 197 248 296
#     4   9  18  33  51  72  99 128 160 200 246 292
#     4  10  21  35  51  73 101 131 161 197 243 292
#
# _framework density 17.636998999999999
#
# number of rings (size 3 to 8) (size 9 to 14) (size 15 to 20)
#    0.000    2.571    0.000    3.429    0.000    2.857 
#    0.000    0.000    0.000    5.143    0.000    2.000 
#    0.000    0.000    0.000    0.000    0.000    0.000 
#
# Total GULP energy -694351.998887 kJ/mol
# GULP energy per Si atom -12399.142837 kJ/mol
# Density = 1.759686 g / cm^3
# Si number density = 17.636999 Si / 1000 Ang^3
#
#
#
# Elastic Constant Matrix: (Units=GPa)
#
#
# Indices 1 2 3 4 5 6 
#
# 1 61.2762 34.1460 8.6154 0.0000 0.0000 0.0000
# 2 34.1460 79.3144 24.4525 0.0000 0.0000 0.0000
# 3 8.6154 24.4525 43.4548 0.0000 0.0000 0.0000
# 4 0.0000 0.0000 0.0000 23.0029 0.0000 0.0000
# 5 0.0000 0.0000 0.0000 0.0000 21.5691 0.0000
# 6 0.0000 0.0000 0.0000 0.0000 0.0000 28.9410
#
#
#
# Elastic Compliance Matrix: (Units=1/GPa)
#
#
# Indices 1 2 3 4 5 6 
#
# 1 0.021517 -0.009617 0.001145 0.000000 0.000000 0.000000
# 2 -0.009617 0.019552 -0.009096 0.000000 0.000000 0.000000
# 3 0.001145 -0.009096 0.027904 0.000000 0.000000 0.000000
# 4 0.000000 0.000000 0.000000 0.043473 0.000000 0.000000
# 5 0.000000 0.000000 0.000000 0.000000 0.046363 0.000000
# 6 0.000000 0.000000 0.000000 0.000000 0.000000 0.034553
#
#
# Mechanical properties :
#
#
# Convention : Reuss Voigt Hill
#
# Bulk Modulus (GPa) = 29.55145 35.38590 32.46868
# Shear Modulus (GPa) = 20.85283 22.49137 21.67210
#
# Velocity S-wave (km/s) = 3.44224 3.57492 3.50921
# Velocity P-wave (km/s) = 5.70880 6.09484 5.90498
#
# Compressibility (1/GPa) = 0.03383929
#
# Stress axis : x y z
#
# Youngs Moduli (GPa) = 46.47412 51.14477 35.83767
#
# Poissons Ratio (x) = 0.49184 -0.04105
# Poissons Ratio (y) = 0.44692 0.32597
# Poissons Ratio (z) = -0.05323 0.46520
#
# Static dielectric constant tensor:
#      x y z
#    x 3.262470 0.000000 0.000000 
#    y 0.000000 3.268740 0.000000 
#    z 0.000000 0.000000 3.066480 
# 
# 
# High freq. dielectric constant tensor:
#      x y z
#    x 1.684460 0.000000 0.000000 
#    y 0.000000 1.677250 0.000000 
#    z 0.000000 0.000000 1.658820 
# 
# From -- ./inp_files/15994.got.cif
#   From: 2010.03.12/outbox.cif.g09.slc.cpg/sg59_8_cif.got.tgz:15994.got - 2010.04.16 16:29:54.
