data_PCOD8244909
_publ_section_title
;
Structure prediction by ZEFSAII (Michael W. Deem and Ramdas Pophale) SiO2 
 PCOD8244909
Probable space group: P M M N
;
_chemical_formula_sum "Si O2"
_cell_formula_units_Z 64
_cell_length_a 31.728674
_cell_length_b 8.801486
_cell_length_c 11.509920
_cell_angle_alpha 90.000000
_cell_angle_beta 90.000000
_cell_angle_gamma 90.000000
_cell_volume 3214.254274
_symmetry_space_group_name_H-M "P M M N"
_symmetry_group_IT_number 59
_space_group.IT_coordinate_system_code '2'
_symmetry_cell_setting 'orthorhombic'
loop_
_space_group_symop_operation_xyz
x,y,z
1/2-x,1/2-y,z
1/2+x,-y,-z
-x,1/2+y,-z
-x,-y,-z
1/2+x,1/2+y,-z
1/2-x,y,z
x,1/2-y,z
loop_
_atom_site_type_symbol
_atom_site_label
_atom_site_fract_x
_atom_site_fract_y
_atom_site_fract_z
Si Si1 0.202930 0.568663 0.088339
Si Si2 0.299637 0.582933 0.344564
Si Si3 0.377445 0.570034 0.953731
Si Si4 0.479713 0.073475 0.319017
Si Si5 0.037539 0.569891 0.074971
Si Si6 0.442850 0.426360 0.563476
Si Si7 0.629760 0.427565 0.307960
Si Si8 0.799194 0.923856 0.426871
O O1 0.250000 0.506206 0.055416
O O2 0.204612 0.750000 0.085855
O O3 0.189079 0.515931 0.217780
O O4 0.166790 0.502963 0.003120
O O5 0.250000 0.601937 0.351728
O O6 0.320422 0.750000 0.363546
O O7 0.315362 0.468702 0.444136
O O8 0.374951 0.750000 0.962701
O O9 0.382558 0.518340 0.820918
O O10 0.417886 0.509690 0.024464
O O11 0.480429 0.250000 0.285255
O O12 0.448761 0.038097 0.426925
O O13 0.464469 0.978639 0.208757
O O14 0.526483 0.025190 0.355815
O O15 0.034288 0.750000 0.065484
O O16 0.000000 0.500000 0.000000
O O17 0.451412 0.250000 0.588627
O O18 0.396130 0.475258 0.598073
O O19 0.621708 0.250000 0.325253
O O20 0.678381 0.469525 0.331599
O O21 0.750000 0.954161 0.412035
O O22 0.811177 0.750000 0.404932
#
# Coordination Sequence:
#
# PCOD8244909 Si02
#       8
#     8   8   8   8   8   8   8   8
#     4   8  14  28  52  80 109 138 170 217 276 330
#     4   8  14  27  50  78 103 130 169 215 265 326
#     4   9  20  35  51  78 110 140 180 228 275 328
#     4  10  21  38  60  87 116 145 184 230 276 333
#     4  11  22  37  58  83 115 152 190 233 282 336
#     4  10  21  38  60  85 115 149 183 224 279 339
#     4  11  22  36  56  80 109 145 186 234 280 327
#     4  10  21  36  53  75 107 145 183 227 280 336
#
# _framework density 19.911306
#
# number of rings (size 3 to 8) (size 9 to 14) (size 15 to 20)
#    0.000    2.375    0.000    3.375    0.000    4.750 
#    0.000    4.375    0.000    2.250    0.000    1.750 
#    0.000    0.000    0.000    0.000    0.000    0.000 
#
# Total GULP energy -793499.167888 kJ/mol
# GULP energy per Si atom -12398.424498 kJ/mol
# Density = 1.986599 g / cm^3
# Si number density = 19.911306 Si / 1000 Ang^3
#
#
#
# Elastic Constant Matrix: (Units=GPa)
#
#
# Indices 1 2 3 4 5 6 
#
# 1 113.3265 29.1152 64.8941 0.0000 0.0000 0.0000
# 2 29.1152 50.8679 38.5745 0.0000 0.0000 0.0000
# 3 64.8941 38.5745 125.5621 0.0000 0.0000 0.0000
# 4 0.0000 0.0000 0.0000 25.3618 0.0000 0.0000
# 5 0.0000 0.0000 0.0000 0.0000 33.2399 0.0000
# 6 0.0000 0.0000 0.0000 0.0000 0.0000 27.5343
#
#
#
# Elastic Compliance Matrix: (Units=1/GPa)
#
#
# Indices 1 2 3 4 5 6 
#
# 1 0.012882 -0.003030 -0.005727 0.000000 0.000000 0.000000
# 2 -0.003030 0.026343 -0.006527 0.000000 0.000000 0.000000
# 3 -0.005727 -0.006527 0.012929 0.000000 0.000000 0.000000
# 4 0.000000 0.000000 0.000000 0.039429 0.000000 0.000000
# 5 0.000000 0.000000 0.000000 0.000000 0.030084 0.000000
# 6 0.000000 0.000000 0.000000 0.000000 0.000000 0.036318
#
#
# Mechanical properties :
#
#
# Convention : Reuss Voigt Hill
#
# Bulk Modulus (GPa) = 46.32651 61.65823 53.99237
# Shear Modulus (GPa) = 25.54298 27.70538 26.62418
#
# Velocity S-wave (km/s) = 3.58556 3.73425 3.66066
# Velocity P-wave (km/s) = 6.36071 7.04461 6.71137
#
# Compressibility (1/GPa) = 0.02158591
#
# Stress axis : x y z
#
# Youngs Moduli (GPa) = 77.62808 37.96135 77.34546
#
# Poissons Ratio (x) = 0.11504 0.44294
# Poissons Ratio (y) = 0.23525 0.50480
# Poissons Ratio (z) = 0.44456 0.24776
#
# Static dielectric constant tensor:
#      x y z
#    x 3.645760 0.000000 0.000000 
#    y 0.000000 3.433440 0.000000 
#    z 0.000000 0.000000 3.803800 
# 
# 
# High freq. dielectric constant tensor:
#      x y z
#    x 1.773740 0.000000 0.000000 
#    y 0.000000 1.753460 0.000000 
#    z 0.000000 0.000000 1.782190 
# 
# From -- ./inp_files/19327.got.cif
#   From: 2010.03.12/outbox.cif.g09.slc.cpg/sg59_10_cif.got.tgz:19327.got - 2010.04.16 16:29:54.
