data_PCOD8244139
_publ_section_title
;
Structure prediction by ZEFSAII (Michael W. Deem and Ramdas Pophale) SiO2 
 PCOD8244139
Probable space group: P M M N
;
_chemical_formula_sum "Si O2"
_cell_formula_units_Z 56
_cell_length_a 15.076913
_cell_length_b 8.990755
_cell_length_c 21.843298
_cell_angle_alpha 90.000000
_cell_angle_beta 90.000000
_cell_angle_gamma 90.000000
_cell_volume 2960.920881
_symmetry_space_group_name_H-M "P M M N"
_symmetry_group_IT_number 59
_space_group.IT_coordinate_system_code '2'
_symmetry_cell_setting 'orthorhombic'
loop_
_space_group_symop_operation_xyz
x,y,z
1/2-x,1/2-y,z
1/2+x,-y,-z
-x,1/2+y,-z
-x,-y,-z
1/2+x,1/2+y,-z
1/2-x,y,z
x,1/2-y,z
loop_
_atom_site_type_symbol
_atom_site_label
_atom_site_fract_x
_atom_site_fract_y
_atom_site_fract_z
Si Si1 0.750000 0.584036 0.815834
Si Si2 0.648714 0.577272 0.620844
Si Si3 0.072123 0.575485 0.182662
Si Si4 0.354316 0.076761 0.623233
Si Si5 0.644854 0.416514 0.498580
Si Si6 0.926860 0.424400 0.959284
Si Si7 0.250000 0.415593 0.039540
Si Si8 0.990107 0.075271 0.289858
O O1 0.750000 0.750000 0.786020
O O2 0.664098 0.495175 0.794094
O O3 0.750000 0.597692 0.888130
O O4 0.750000 0.531515 0.639000
O O5 0.645098 0.750000 0.603914
O O6 0.612905 0.489553 0.561681
O O7 0.581896 0.537144 0.675368
O O8 0.075811 0.750000 0.194729
O O9 0.054091 0.539296 0.111691
O O10 0.994815 0.500268 0.222831
O O11 0.250000 0.047271 0.632077
O O12 0.377198 0.250000 0.625351
O O13 0.389562 0.012407 0.558723
O O14 0.404854 0.992543 0.677152
O O15 0.750000 0.414121 0.497770
O O16 0.605883 0.250000 0.493453
O O17 0.924545 0.250000 0.971364
O O18 0.834924 0.493218 0.982469
O O19 0.000000 0.500000 0.000000
O O20 0.250000 0.250000 0.010350
O O21 0.975740 0.250000 0.282498
#
# Coordination Sequence:
#
# PCOD8244139 Si02
#       8
#     4   8   8   8   8   8   4   8
#     4   9  17  31  53  79 109 147 185 220 259 314
#     4   9  19  35  52  75 110 146 177 213 264 324
#     4  10  21  36  54  81 115 149 185 225 272 327
#     4  10  21  38  59  78 100 136 180 230 284 333
#     4   9  17  31  53  79 104 133 175 225 272 322
#     4  10  20  35  58  85 116 151 188 231 277 326
#     4   9  17  31  53  83 115 147 185 224 267 320
#     4  11  23  36  55  81 109 144 183 227 272 326
#
# _framework density 18.913034
#
# number of rings (size 3 to 8) (size 9 to 14) (size 15 to 20)
#    0.000    2.286    0.000    2.571    1.000    7.714 
#    0.000    0.000    1.571    0.000    0.000    0.000 
#    0.000    0.000    0.000    0.000    0.000    0.000 
#
# Total GULP energy -694477.660996 kJ/mol
# GULP energy per Si atom -12401.386803 kJ/mol
# Density = 1.886999 g / cm^3
# Si number density = 18.913034 Si / 1000 Ang^3
#
#
#
# Elastic Constant Matrix: (Units=GPa)
#
#
# Indices 1 2 3 4 5 6 
#
# 1 78.8257 56.8354 48.2111 0.0000 0.0000 0.0000
# 2 56.8354 139.4740 66.5839 0.0000 0.0000 0.0000
# 3 48.2111 66.5839 85.9150 0.0000 0.0000 0.0000
# 4 0.0000 0.0000 0.0000 32.3959 0.0000 0.0000
# 5 0.0000 0.0000 0.0000 0.0000 30.4531 0.0000
# 6 0.0000 0.0000 0.0000 0.0000 0.0000 33.3264
#
#
#
# Elastic Compliance Matrix: (Units=1/GPa)
#
#
# Indices 1 2 3 4 5 6 
#
# 1 0.021072 -0.004669 -0.008206 0.000000 0.000000 0.000000
# 2 -0.004669 0.012415 -0.007001 0.000000 0.000000 0.000000
# 3 -0.008206 -0.007001 0.021670 0.000000 0.000000 0.000000
# 4 0.000000 0.000000 0.000000 0.030868 0.000000 0.000000
# 5 0.000000 0.000000 0.000000 0.000000 0.032837 0.000000
# 6 0.000000 0.000000 0.000000 0.000000 0.000000 0.030006
#
#
# Mechanical properties :
#
#
# Convention : Reuss Voigt Hill
#
# Bulk Modulus (GPa) = 64.91823 71.94172 68.42998
# Shear Modulus (GPa) = 25.80572 28.07403 26.93988
#
# Velocity S-wave (km/s) = 3.69784 3.85694 3.77823
# Velocity P-wave (km/s) = 7.25473 7.61284 7.43594
#
# Compressibility (1/GPa) = 0.01540399
#
# Stress axis : x y z
#
# Youngs Moduli (GPa) = 47.45718 80.54802 46.14682
#
# Poissons Ratio (x) = 0.37611 0.37866
# Poissons Ratio (y) = 0.22160 0.32309
# Poissons Ratio (z) = 0.38941 0.56394
#
# Static dielectric constant tensor:
#      x y z
#    x 3.417370 0.000000 0.000000 
#    y 0.000000 3.670910 0.000000 
#    z 0.000000 0.000000 3.352250 
# 
# 
# High freq. dielectric constant tensor:
#      x y z
#    x 1.722010 0.000000 0.000000 
#    y 0.000000 1.750780 0.000000 
#    z 0.000000 0.000000 1.719980 
# 
# From -- ./inp_files/30486.got.cif
#   From: 2010.03.12/outbox.cif.g09.slc.cpg/sg59_16_cif.got.tgz:30486.got - 2010.04.16 16:29:54.
