data_PCOD8244695
_publ_section_title
;
Structure prediction by ZEFSAII (Michael W. Deem and Ramdas Pophale) SiO2 
 PCOD8244695
Probable space group: P M M N
;
_chemical_formula_sum "Si O2"
_cell_formula_units_Z 48
_cell_length_a 9.021079
_cell_length_b 18.203001
_cell_length_c 14.675222
_cell_angle_alpha 90.000000
_cell_angle_beta 90.000000
_cell_angle_gamma 90.000000
_cell_volume 2409.828625
_symmetry_space_group_name_H-M "P M M N"
_symmetry_group_IT_number 59
_space_group.IT_coordinate_system_code '2'
_symmetry_cell_setting 'orthorhombic'
loop_
_space_group_symop_operation_xyz
x,y,z
1/2-x,1/2-y,z
1/2+x,-y,-z
-x,1/2+y,-z
-x,-y,-z
1/2+x,1/2+y,-z
1/2-x,y,z
x,1/2-y,z
loop_
_atom_site_type_symbol
_atom_site_label
_atom_site_fract_x
_atom_site_fract_y
_atom_site_fract_z
Si Si1 0.580399 0.329780 0.318278
Si Si2 0.583342 0.848743 0.864435
Si Si3 0.073941 0.517318 0.595253
Si Si4 0.413217 0.989091 0.090934
Si Si5 0.075586 0.750000 0.210891
Si Si6 0.927139 0.250000 0.996503
Si Si7 0.426220 0.592458 0.263872
O O1 0.750000 0.344822 0.290170
O O2 0.566873 0.250000 0.370545
O O3 0.486752 0.318680 0.227445
O O4 0.524916 0.399425 0.377576
O O5 0.750000 0.818206 0.874431
O O6 0.489531 0.822261 0.952192
O O7 0.584378 0.935584 0.853958
O O8 0.250000 0.511131 0.586905
O O9 0.000000 0.500000 0.500000
O O10 0.017133 0.456084 0.665452
O O11 0.250000 0.964794 0.061081
O O12 0.476281 0.929201 0.161114
O O13 0.500000 0.000000 0.000000
O O14 0.250000 0.750000 0.198295
O O15 0.028423 0.821587 0.270068
O O16 0.011881 0.750000 0.107560
O O17 0.750000 0.250000 0.001182
O O18 0.250000 0.579432 0.278502
#
# Coordination Sequence:
#
# PCOD8244695 Si02
#       7
#     8   8   8   8   4   4   8
#     4  10  21  39  63  90 118 153 197 243 296 362
#     4  11  21  33  52  83 119 157 199 249 307 353
#     4  11  24  43  68  95 123 157 199 252 313 375
#     4  10  21  34  53  81 117 158 203 252 302 362
#     4   9  20  37  61  86 115 164 217 257 298 354
#     4  11  21  35  55  82 121 168 213 253 294 358
#     4  10  20  40  63  86 119 161 209 259 307 360
#
# _framework density 19.918429
#
# number of rings (size 3 to 8) (size 9 to 14) (size 15 to 20)
#    0.000    1.667    2.500    2.250    0.000    4.000 
#    1.500    2.083    0.000    0.000    0.000    0.000 
#    0.000    0.000    0.000    0.000    0.000    0.000 
#
# Total GULP energy -594861.562583 kJ/mol
# GULP energy per Si atom -12392.949220 kJ/mol
# Density = 1.987309 g / cm^3
# Si number density = 19.918429 Si / 1000 Ang^3
#
#
#
# Elastic Constant Matrix: (Units=GPa)
#
#
# Indices 1 2 3 4 5 6 
#
# 1 77.7798 38.8666 48.4243 0.0000 0.0000 0.0000
# 2 38.8666 159.3303 60.8599 0.0000 0.0000 0.0000
# 3 48.4243 60.8599 117.0791 0.0000 0.0000 0.0000
# 4 0.0000 0.0000 0.0000 20.1745 0.0000 0.0000
# 5 0.0000 0.0000 0.0000 0.0000 34.1118 0.0000
# 6 0.0000 0.0000 0.0000 0.0000 0.0000 26.2557
#
#
#
# Elastic Compliance Matrix: (Units=1/GPa)
#
#
# Indices 1 2 3 4 5 6 
#
# 1 0.017767 -0.001905 -0.006358 0.000000 0.000000 0.000000
# 2 -0.001905 0.008036 -0.003389 0.000000 0.000000 0.000000
# 3 -0.006358 -0.003389 0.012933 0.000000 0.000000 0.000000
# 4 0.000000 0.000000 0.000000 0.049568 0.000000 0.000000
# 5 0.000000 0.000000 0.000000 0.000000 0.029315 0.000000
# 6 0.000000 0.000000 0.000000 0.000000 0.000000 0.038087
#
#
# Mechanical properties :
#
#
# Convention : Reuss Voigt Hill
#
# Bulk Modulus (GPa) = 64.80679 72.27675 68.54177
# Shear Modulus (GPa) = 27.15114 29.84429 28.49771
#
# Velocity S-wave (km/s) = 3.69605 3.87502 3.78659
# Velocity P-wave (km/s) = 7.12889 7.50907 7.32145
#
# Compressibility (1/GPa) = 0.01543048
#
# Stress axis : x y z
#
# Youngs Moduli (GPa) = 56.28265 124.44674 77.32390
#
# Poissons Ratio (x) = 0.23713 0.49164
# Poissons Ratio (y) = 0.10725 0.26204
# Poissons Ratio (z) = 0.35785 0.42174
#
# Static dielectric constant tensor:
#      x y z
#    x 3.559960 0.000000 0.000000 
#    y 0.000000 4.344870 0.000000 
#    z 0.000000 0.000000 3.011760 
# 
# 
# High freq. dielectric constant tensor:
#      x y z
#    x 1.764600 0.000000 0.000000 
#    y 0.000000 1.805100 0.000000 
#    z 0.000000 0.000000 1.754250 
# 
# From -- ./inp_files/20612.got.cif
#   From: 2010.03.12/outbox.cif.g09.slc.cpg/sg59_11_cif.got.tgz:20612.got - 2010.04.16 16:29:54.
