data_PCOD8244769
_publ_section_title
;
Structure prediction by ZEFSAII (Michael W. Deem and Ramdas Pophale) SiO2 
 PCOD8244769
Probable space group: P M M N
;
_chemical_formula_sum "Si O2"
_cell_formula_units_Z 56
_cell_length_a 9.159022
_cell_length_b 15.733353
_cell_length_c 19.779287
_cell_angle_alpha 90.000000
_cell_angle_beta 90.000000
_cell_angle_gamma 90.000000
_cell_volume 2850.237313
_symmetry_space_group_name_H-M "P M M N"
_symmetry_group_IT_number 59
_space_group.IT_coordinate_system_code '2'
_symmetry_cell_setting 'orthorhombic'
loop_
_space_group_symop_operation_xyz
x,y,z
1/2-x,1/2-y,z
1/2+x,-y,-z
-x,1/2+y,-z
-x,-y,-z
1/2+x,1/2+y,-z
1/2-x,y,z
x,1/2-y,z
loop_
_atom_site_type_symbol
_atom_site_label
_atom_site_fract_x
_atom_site_fract_y
_atom_site_fract_z
Si Si1 0.577215 0.499844 0.571286
Si Si2 0.417982 0.592450 0.076851
Si Si3 0.918232 0.418255 0.072742
Si Si4 0.579475 0.348113 0.669009
Si Si5 0.409464 0.347281 0.798954
Si Si6 0.090929 0.347734 0.189879
Si Si7 0.923208 0.845585 0.662543
O O1 0.500000 0.500000 0.500000
O O2 0.750000 0.504819 0.561408
O O3 0.533984 0.411798 0.608915
O O4 0.517716 0.583594 0.610444
O O5 0.250000 0.595697 0.098698
O O6 0.473936 0.496924 0.078883
O O7 0.508961 0.647185 0.129544
O O8 0.438673 0.627566 0.000179
O O9 0.750000 0.446026 0.082065
O O10 0.967907 0.356912 0.132637
O O11 0.750000 0.353937 0.684194
O O12 0.536021 0.250000 0.650889
O O13 0.501905 0.384519 0.736673
O O14 0.250000 0.392362 0.803260
O O15 0.385932 0.250000 0.782546
O O16 0.250000 0.389240 0.170671
O O17 0.119782 0.250000 0.201645
O O18 0.032579 0.380724 0.262598
O O19 0.750000 0.841273 0.658443
O O20 0.986677 0.750000 0.647053
#
# Coordination Sequence:
#
# PCOD8244769 Si02
#       7
#     8   8   8   8   8   8   8
#     4  10  21  36  56  83 111 143 182 221 269 328
#     4  10  21  36  53  73 104 145 185 224 272 330
#     4  10  21  35  51  76 107 140 181 230 279 324
#     4   9  19  36  56  80 112 148 185 225 273 333
#     4  10  21  36  55  81 110 139 178 230 281 326
#     4   9  18  33  54  78 103 137 181 225 273 328
#     4   8  16  33  55  79 107 140 182 226 265 317
#
# _framework density 19.647489
#
# number of rings (size 3 to 8) (size 9 to 14) (size 15 to 20)
#    0.000    2.571    0.000    2.143    2.000    4.571 
#    0.000    3.571    0.000    0.857    0.000    0.000 
#    0.000    0.000    0.000    0.000    0.000    0.000 
#
# Total GULP energy -693930.741057 kJ/mol
# GULP energy per Si atom -12391.620376 kJ/mol
# Density = 1.960277 g / cm^3
# Si number density = 19.647489 Si / 1000 Ang^3
#
#
#
# Elastic Constant Matrix: (Units=GPa)
#
#
# Indices 1 2 3 4 5 6 
#
# 1 81.3537 27.6320 65.1594 0.0000 0.0000 0.0000
# 2 27.6320 76.0900 57.7053 0.0000 0.0000 0.0000
# 3 65.1594 57.7053 168.7990 0.0000 0.0000 0.0000
# 4 0.0000 0.0000 0.0000 31.1369 0.0000 0.0000
# 5 0.0000 0.0000 0.0000 0.0000 35.0984 0.0000
# 6 0.0000 0.0000 0.0000 0.0000 0.0000 19.2087
#
#
#
# Elastic Compliance Matrix: (Units=1/GPa)
#
#
# Indices 1 2 3 4 5 6 
#
# 1 0.017956 -0.001707 -0.006348 0.000000 0.000000 0.000000
# 2 -0.001707 0.017904 -0.005462 0.000000 0.000000 0.000000
# 3 -0.006348 -0.005462 0.010242 0.000000 0.000000 0.000000
# 4 0.000000 0.000000 0.000000 0.032116 0.000000 0.000000
# 5 0.000000 0.000000 0.000000 0.000000 0.028491 0.000000
# 6 0.000000 0.000000 0.000000 0.000000 0.000000 0.052060
#
#
# Mechanical properties :
#
#
# Convention : Reuss Voigt Hill
#
# Bulk Modulus (GPa) = 52.44049 69.69291 61.06670
# Shear Modulus (GPa) = 26.02017 28.80521 27.41269
#
# Velocity S-wave (km/s) = 3.64311 3.83312 3.73933
# Velocity P-wave (km/s) = 6.66671 7.42557 7.05635
#
# Compressibility (1/GPa) = 0.01906923
#
# Stress axis : x y z
#
# Youngs Moduli (GPa) = 55.69189 55.85236 97.63870
#
# Poissons Ratio (x) = 0.09531 0.61980
# Poissons Ratio (y) = 0.09504 0.53330
# Poissons Ratio (z) = 0.35353 0.30507
#
# Static dielectric constant tensor:
#      x y z
#    x 3.578720 0.000000 0.000000 
#    y 0.000000 3.573360 0.000000 
#    z 0.000000 0.000000 3.788360 
# 
# 
# High freq. dielectric constant tensor:
#      x y z
#    x 1.751030 0.000000 0.000000 
#    y 0.000000 1.753150 0.000000 
#    z 0.000000 0.000000 1.769210 
# 
# From -- ./inp_files/29023.got.cif
#   From: 2010.03.12/outbox.cif.g09.slc.cpg/sg59_15_cif.got.tgz:29023.got - 2010.04.16 16:29:54.
