data_PCOD8244433
_publ_section_title
;
Structure prediction by ZEFSAII (Michael W. Deem and Ramdas Pophale) SiO2 
 PCOD8244433
Probable space group: P M M N
;
_chemical_formula_sum "Si O2"
_cell_formula_units_Z 32
_cell_length_a 8.656364
_cell_length_b 15.962104
_cell_length_c 11.300176
_cell_angle_alpha 90.000000
_cell_angle_beta 90.000000
_cell_angle_gamma 90.000000
_cell_volume 1561.388060
_symmetry_space_group_name_H-M "P M M N"
_symmetry_group_IT_number 59
_space_group.IT_coordinate_system_code '2'
_symmetry_cell_setting 'orthorhombic'
loop_
_space_group_symop_operation_xyz
x,y,z
1/2-x,1/2-y,z
1/2+x,-y,-z
-x,1/2+y,-z
-x,-y,-z
1/2+x,1/2+y,-z
1/2-x,y,z
x,1/2-y,z
loop_
_atom_site_type_symbol
_atom_site_label
_atom_site_fract_x
_atom_site_fract_y
_atom_site_fract_z
Si Si1 0.930924 0.750000 0.969620
Si Si2 0.421705 0.118110 0.435196
Si Si3 0.066472 0.578831 0.070815
Si Si4 0.426389 0.750000 0.720559
Si Si5 0.076588 0.568107 0.338902
O O1 0.750000 0.750000 0.997296
O O2 0.957084 0.750000 0.829794
O O3 0.006862 0.666715 0.021845
O O4 0.250000 0.156857 0.425405
O O5 0.544025 0.168905 0.358597
O O6 0.470584 0.122248 0.573042
O O7 0.424004 0.026001 0.383746
O O8 0.250000 0.575183 0.060797
O O9 0.009809 0.572195 0.206413
O O10 0.000000 0.500000 0.000000
O O11 0.250000 0.750000 0.765398
O O12 0.250000 0.604861 0.341639
#
# Coordination Sequence:
#
# PCOD8244433 Si02
#       5
#     4   8   8   4   8
#     4  12  26  43  62  89 124 161 209 261 307 366
#     4  10  20  36  60  88 117 151 193 242 295 352
#     4  11  23  41  65  92 125 166 209 255 310 368
#     4  12  24  39  60  85 116 153 195 243 299 360
#     4   9  20  38  59  85 118 155 195 240 293 355
#
# _framework density 20.494585000000001
#
# number of rings (size 3 to 8) (size 9 to 14) (size 15 to 20)
#    0.000    1.500    0.000    5.250    0.000    6.000 
#    0.000    1.250    0.000    0.000    0.000    0.000 
#    0.000    0.000    0.000    0.000    0.000    0.000 
#
# Total GULP energy -396848.641980 kJ/mol
# GULP energy per Si atom -12401.520062 kJ/mol
# Density = 2.044794 g / cm^3
# Si number density = 20.494585 Si / 1000 Ang^3
#
#
#
# Elastic Constant Matrix: (Units=GPa)
#
#
# Indices 1 2 3 4 5 6 
#
# 1 91.4159 32.3994 37.9346 0.0000 0.0000 0.0000
# 2 32.3994 90.6402 54.5594 0.0000 0.0000 0.0000
# 3 37.9346 54.5594 175.3023 0.0000 0.0000 0.0000
# 4 0.0000 0.0000 0.0000 68.8786 0.0000 0.0000
# 5 0.0000 0.0000 0.0000 0.0000 37.3299 0.0000
# 6 0.0000 0.0000 0.0000 0.0000 0.0000 45.4119
#
#
#
# Elastic Compliance Matrix: (Units=1/GPa)
#
#
# Indices 1 2 3 4 5 6 
#
# 1 0.012912 -0.003610 -0.001671 0.000000 0.000000 0.000000
# 2 -0.003610 0.014585 -0.003758 0.000000 0.000000 0.000000
# 3 -0.001671 -0.003758 0.007236 0.000000 0.000000 0.000000
# 4 0.000000 0.000000 0.000000 0.014518 0.000000 0.000000
# 5 0.000000 0.000000 0.000000 0.000000 0.026788 0.000000
# 6 0.000000 0.000000 0.000000 0.000000 0.000000 0.022021
#
#
# Mechanical properties :
#
#
# Convention : Reuss Voigt Hill
#
# Bulk Modulus (GPa) = 60.04068 67.46060 63.75064
# Shear Modulus (GPa) = 41.08864 45.82174 43.45519
#
# Velocity S-wave (km/s) = 4.48242 4.73355 4.60969
# Velocity P-wave (km/s) = 7.49326 7.92863 7.71401
#
# Compressibility (1/GPa) = 0.01665537
#
# Stress axis : x y z
#
# Youngs Moduli (GPa) = 77.44984 68.56310 138.20551
#
# Poissons Ratio (x) = 0.24749 0.23088
# Poissons Ratio (y) = 0.27957 0.51941
# Poissons Ratio (z) = 0.12938 0.25767
#
# Static dielectric constant tensor:
#      x y z
#    x 3.901570 0.000000 0.000000 
#    y 0.000000 3.602620 0.000000 
#    z 0.000000 0.000000 3.988550 
# 
# 
# High freq. dielectric constant tensor:
#      x y z
#    x 1.808120 0.000000 0.000000 
#    y 0.000000 1.800170 0.000000 
#    z 0.000000 0.000000 1.817200 
# 
# From -- ./inp_files/13771.got.cif
#   From: 2010.03.12/outbox.cif.g09.slc.cpg/sg59_7_cif.got.tgz:13771.got - 2010.04.16 16:29:54.
