data_PCOD8244476
_publ_section_title
;
Structure prediction by ZEFSAII (Michael W. Deem and Ramdas Pophale) SiO2 
 PCOD8244476
Probable space group: P M M N
;
_chemical_formula_sum "Si O2"
_cell_formula_units_Z 48
_cell_length_a 17.668445
_cell_length_b 12.702945
_cell_length_c 10.094011
_cell_angle_alpha 90.000000
_cell_angle_beta 90.000000
_cell_angle_gamma 90.000000
_cell_volume 2265.512800
_symmetry_space_group_name_H-M "P M M N"
_symmetry_group_IT_number 59
_space_group.IT_coordinate_system_code '2'
_symmetry_cell_setting 'orthorhombic'
loop_
_space_group_symop_operation_xyz
x,y,z
1/2-x,1/2-y,z
1/2+x,-y,-z
-x,1/2+y,-z
-x,-y,-z
1/2+x,1/2+y,-z
1/2-x,y,z
x,1/2-y,z
loop_
_atom_site_type_symbol
_atom_site_label
_atom_site_fract_x
_atom_site_fract_y
_atom_site_fract_z
Si Si1 0.750000 0.126008 0.802003
Si Si2 0.540123 0.624400 0.648621
Si Si3 0.335956 0.443713 0.842618
Si Si4 0.750000 0.374988 0.507348
Si Si5 0.109111 0.500980 0.576114
Si Si6 0.041653 0.372474 0.048964
Si Si7 0.874987 0.373322 0.003560
O O1 0.750000 0.250000 0.794100
O O2 0.750000 0.078401 0.656321
O O3 0.673097 0.090194 0.875901
O O4 0.539366 0.750000 0.630141
O O5 0.603487 0.572899 0.553513
O O6 0.462002 0.575446 0.599485
O O7 0.556096 0.589939 0.800180
O O8 0.250000 0.399747 0.846464
O O9 0.374542 0.422787 0.700410
O O10 0.384988 0.390790 0.959208
O O11 0.337635 0.569847 0.869183
O O12 0.750000 0.250000 0.504621
O O13 0.677532 0.418365 0.433365
O O14 0.024344 0.250000 0.053735
O O15 0.961599 0.418748 0.988169
O O16 0.870110 0.250000 0.030044
#
# Coordination Sequence:
#
# PCOD8244476 Si02
#       7
#     4   8   8   4   8   8   8
#     4   9  20  35  57  94 129 163 198 250 317 384
#     4  10  23  44  66  93 128 171 220 268 320 388
#     4  12  24  39  62  94 128 166 208 269 322 381
#     4  11  24  41  62  94 135 171 213 262 322 390
#     4  11  24  40  66  96 128 171 216 264 328 385
#     4  10  23  42  66  91 122 168 216 264 318 380
#     4  10  20  36  62  94 126 159 203 255 321 383
#
# _framework density 21.187256999999999
#
# number of rings (size 3 to 8) (size 9 to 14) (size 15 to 20)
#    0.000    1.500    3.333    1.000    2.333    3.000 
#    0.000    2.083    0.000    0.000    0.000    0.000 
#    0.000    0.000    0.000    0.000    0.000    0.000 
#
# Total GULP energy -595004.397716 kJ/mol
# GULP energy per Si atom -12395.924952 kJ/mol
# Density = 2.113903 g / cm^3
# Si number density = 21.187257 Si / 1000 Ang^3
#
#
#
# Elastic Constant Matrix: (Units=GPa)
#
#
# Indices 1 2 3 4 5 6 
#
# 1 115.0123 27.9811 46.3110 0.0000 0.0000 0.0000
# 2 27.9811 39.6185 30.1577 0.0000 0.0000 0.0000
# 3 46.3110 30.1577 146.6398 0.0000 0.0000 0.0000
# 4 0.0000 0.0000 0.0000 22.6910 0.0000 0.0000
# 5 0.0000 0.0000 0.0000 0.0000 39.3376 0.0000
# 6 0.0000 0.0000 0.0000 0.0000 0.0000 19.9831
#
#
#
# Elastic Compliance Matrix: (Units=1/GPa)
#
#
# Indices 1 2 3 4 5 6 
#
# 1 0.011087 -0.006124 -0.002242 0.000000 0.000000 0.000000
# 2 -0.006124 0.033308 -0.004916 0.000000 0.000000 0.000000
# 3 -0.002242 -0.004916 0.008539 0.000000 0.000000 0.000000
# 4 0.000000 0.000000 0.000000 0.044070 0.000000 0.000000
# 5 0.000000 0.000000 0.000000 0.000000 0.025421 0.000000
# 6 0.000000 0.000000 0.000000 0.000000 0.000000 0.050042
#
#
# Mechanical properties :
#
#
# Convention : Reuss Voigt Hill
#
# Bulk Modulus (GPa) = 37.92227 56.68558 47.30392
# Shear Modulus (GPa) = 24.05910 29.52372 26.79141
#
# Velocity S-wave (km/s) = 3.37344 3.73697 3.55985
# Velocity P-wave (km/s) = 5.75421 6.74037 6.26672
#
# Compressibility (1/GPa) = 0.02636973
#
# Stress axis : x y z
#
# Youngs Moduli (GPa) = 90.19231 30.02287 117.11582
#
# Poissons Ratio (x) = 0.18386 0.26259
# Poissons Ratio (y) = 0.55233 0.57575
# Poissons Ratio (z) = 0.20222 0.14759
#
# Static dielectric constant tensor:
#      x y z
#    x 4.096790 0.000000 0.000000 
#    y 0.000000 3.789360 0.000000 
#    z 0.000000 0.000000 4.128610 
# 
# 
# High freq. dielectric constant tensor:
#      x y z
#    x 1.838500 0.000000 0.000000 
#    y 0.000000 1.822460 0.000000 
#    z 0.000000 0.000000 1.837140 
# 
# From -- ./inp_files/10277.got.cif
#   From: 2010.03.12/outbox.cif.g09.slc.cpg/sg59_6_cif.got.tgz:10277.got - 2010.04.16 16:29:54.
