data_PCOD8244866
_publ_section_title
;
Structure prediction by ZEFSAII (Michael W. Deem and Ramdas Pophale) SiO2 
 PCOD8244866
Probable space group: P M M N
;
_chemical_formula_sum "Si O2"
_cell_formula_units_Z 56
_cell_length_a 23.294243
_cell_length_b 7.899286
_cell_length_c 16.928282
_cell_angle_alpha 90.000000
_cell_angle_beta 90.000000
_cell_angle_gamma 90.000000
_cell_volume 3114.937412
_symmetry_space_group_name_H-M "P M M N"
_symmetry_group_IT_number 59
_space_group.IT_coordinate_system_code '2'
_symmetry_cell_setting 'orthorhombic'
loop_
_space_group_symop_operation_xyz
x,y,z
1/2-x,1/2-y,z
1/2+x,-y,-z
-x,1/2+y,-z
-x,-y,-z
1/2+x,1/2+y,-z
1/2-x,y,z
x,1/2-y,z
loop_
_atom_site_type_symbol
_atom_site_label
_atom_site_fract_x
_atom_site_fract_y
_atom_site_fract_z
Si Si1 0.372243 0.050171 0.146792
Si Si2 0.182117 0.750000 0.421609
Si Si3 0.508531 0.558917 0.911246
Si Si4 0.814234 0.444216 0.006592
Si Si5 0.108603 0.440686 0.857314
Si Si6 0.682808 0.554114 0.291696
Si Si7 0.182117 0.750000 0.597316
Si Si8 0.682656 0.555493 0.688621
O O1 0.367664 0.250000 0.135822
O O2 0.436387 0.973587 0.131459
O O3 0.352545 0.000382 0.234239
O O4 0.329344 0.963819 0.085035
O O5 0.250000 0.750000 0.427760
O O6 0.154979 0.750000 0.509586
O O7 0.162324 0.576673 0.378553
O O8 0.526640 0.750000 0.917007
O O9 0.450946 0.542133 0.859722
O O10 0.500000 0.500000 0.000000
O O11 0.750000 0.512684 0.020769
O O12 0.819121 0.250000 0.032250
O O13 0.858026 0.549284 0.060053
O O14 0.089960 0.250000 0.842569
O O15 0.148950 0.504055 0.786525
O O16 0.750000 0.532486 0.273057
O O17 0.669568 0.750000 0.315998
O O18 0.662344 0.423614 0.359428
O O19 0.250000 0.750000 0.592092
O O20 0.750000 0.536188 0.706813
O O21 0.668819 0.750000 0.662745
#
# Coordination Sequence:
#
# PCOD8244866 Si02
#       8
#     8   4   8   8   8   8   4   8
#     4  10  21  36  52  71 101 139 179 220 265 311
#     4   9  18  32  52  83 113 139 169 206 262 329
#     4  11  22  36  53  73 100 137 180 229 266 305
#     4  11  23  33  48  74 100 136 179 217 262 314
#     4  11  22  36  52  72 103 140 180 223 265 311
#     4   9  19  34  53  79 110 141 176 217 262 318
#     4   9  18  32  54  81 113 143 167 206 264 327
#     4   9  18  33  53  77 108 140 173 216 263 316
#
# _framework density 17.977889999999999
#
# number of rings (size 3 to 8) (size 9 to 14) (size 15 to 20)
#    0.000    2.000    1.429    2.143    3.000    3.429 
#    0.000    2.857    0.000    0.000    0.000    1.000 
#    0.000    0.000    0.000    0.000    0.000    0.000 
#
# Total GULP energy -694236.148140 kJ/mol
# GULP energy per Si atom -12397.074074 kJ/mol
# Density = 1.793697 g / cm^3
# Si number density = 17.977890 Si / 1000 Ang^3
#
#
#
# Elastic Constant Matrix: (Units=GPa)
#
#
# Indices 1 2 3 4 5 6 
#
# 1 76.8034 19.2928 34.4141 0.0000 0.0000 0.0000
# 2 19.2928 76.8773 52.0690 0.0000 0.0000 0.0000
# 3 34.4141 52.0690 125.8392 0.0000 0.0000 0.0000
# 4 0.0000 0.0000 0.0000 30.8425 0.0000 0.0000
# 5 0.0000 0.0000 0.0000 0.0000 10.9736 0.0000
# 6 0.0000 0.0000 0.0000 0.0000 0.0000 18.7635
#
#
#
# Elastic Compliance Matrix: (Units=1/GPa)
#
#
# Indices 1 2 3 4 5 6 
#
# 1 0.014941 -0.001364 -0.003521 0.000000 0.000000 0.000000
# 2 -0.001364 0.018197 -0.007156 0.000000 0.000000 0.000000
# 3 -0.003521 -0.007156 0.011871 0.000000 0.000000 0.000000
# 4 0.000000 0.000000 0.000000 0.032423 0.000000 0.000000
# 5 0.000000 0.000000 0.000000 0.000000 0.091128 0.000000
# 6 0.000000 0.000000 0.000000 0.000000 0.000000 0.053295
#
#
# Mechanical properties :
#
#
# Convention : Reuss Voigt Hill
#
# Bulk Modulus (GPa) = 47.79115 54.56353 51.17734
# Shear Modulus (GPa) = 19.76958 23.69885 21.73422
#
# Velocity S-wave (km/s) = 3.31971 3.63467 3.48076
# Velocity P-wave (km/s) = 6.42923 6.93042 6.68452
#
# Compressibility (1/GPa) = 0.02092437
#
# Stress axis : x y z
#
# Youngs Moduli (GPa) = 66.93046 54.95363 84.24033
#
# Poissons Ratio (x) = 0.07498 0.29665
# Poissons Ratio (y) = 0.09132 0.60285
# Poissons Ratio (z) = 0.23569 0.39327
#
# Static dielectric constant tensor:
#      x y z
#    x 3.217770 0.000000 0.000000 
#    y 0.000000 3.612000 0.000000 
#    z 0.000000 0.000000 3.326280 
# 
# 
# High freq. dielectric constant tensor:
#      x y z
#    x 1.676520 0.000000 0.000000 
#    y 0.000000 1.706910 0.000000 
#    z 0.000000 0.000000 1.677130 
# 
# From -- ./inp_files/21131.got.cif
#   From: 2010.03.12/outbox.cif.g09.slc.cpg/sg59_11_cif.got.tgz:21131.got - 2010.04.16 16:29:54.
