data_PCOD8244755
_publ_section_title
;
Structure prediction by ZEFSAII (Michael W. Deem and Ramdas Pophale) SiO2 
 PCOD8244755
Probable space group: P M M N
;
_chemical_formula_sum "Si O2"
_cell_formula_units_Z 64
_cell_length_a 29.821447
_cell_length_b 8.814287
_cell_length_c 14.481240
_cell_angle_alpha 90.000000
_cell_angle_beta 90.000000
_cell_angle_gamma 90.000000
_cell_volume 3806.463337
_symmetry_space_group_name_H-M "P M M N"
_symmetry_group_IT_number 59
_space_group.IT_coordinate_system_code '2'
_symmetry_cell_setting 'orthorhombic'
loop_
_space_group_symop_operation_xyz
x,y,z
1/2-x,1/2-y,z
1/2+x,-y,-z
-x,1/2+y,-z
-x,-y,-z
1/2+x,1/2+y,-z
1/2-x,y,z
x,1/2-y,z
loop_
_atom_site_type_symbol
_atom_site_label
_atom_site_fract_x
_atom_site_fract_y
_atom_site_fract_z
Si Si1 0.199419 0.926193 0.144819
Si Si2 0.116500 0.073711 0.073520
Si Si3 0.028659 0.420326 0.763656
Si Si4 0.960918 0.574421 0.440407
Si Si5 0.423740 0.919740 0.243470
Si Si6 0.386713 0.074826 0.417730
Si Si7 0.699260 0.073539 0.641845
Si Si8 0.456880 0.571728 0.950731
O O1 0.250000 0.982882 0.129334
O O2 0.195128 0.750000 0.120673
O O3 0.185451 0.954392 0.251574
O O4 0.168339 0.021191 0.074863
O O5 0.112703 0.250000 0.049961
O O6 0.097755 0.040324 0.174854
O O7 0.088956 0.979461 0.998652
O O8 0.048433 0.250000 0.774057
O O9 0.041214 0.491934 0.663759
O O10 0.048208 0.526032 0.843869
O O11 0.975829 0.415360 0.775707
O O12 0.974087 0.750000 0.433418
O O13 0.911721 0.550589 0.484704
O O14 0.000000 0.500000 0.500000
O O15 0.403454 0.750000 0.228579
O O16 0.414476 0.973035 0.346703
O O17 0.387993 0.250000 0.387745
O O18 0.335082 0.019126 0.423132
O O19 0.750000 0.015763 0.623738
O O20 0.695925 0.250000 0.617292
O O21 0.462368 0.750000 0.959914
O O22 0.500000 0.500000 0.000000
#
# Coordination Sequence:
#
# PCOD8244755 Si02
#       8
#     8   8   8   8   8   8   8   8
#     4   9  18  33  52  74 103 137 171 208 253 304
#     4  12  23  34  51  76 105 137 173 211 253 306
#     4  10  21  37  53  71 100 138 175 216 256 295
#     4  10  21  35  51  73 103 136 172 209 252 299
#     4  11  20  31  50  71 101 140 175 210 251 298
#     4  11  21  31  48  76 105 135 172 212 252 300
#     4   9  18  32  50  71  99 136 172 207 252 305
#     4  12  24  37  54  75 101 135 174 215 257 306
#
# _framework density 16.813507000000001
#
# number of rings (size 3 to 8) (size 9 to 14) (size 15 to 20)
#    0.000    1.500    3.750    3.750    0.000    2.000 
#    0.000    1.250    0.000    0.000    0.000    0.875 
#    0.000    5.000    0.000    0.000    0.000    0.000 
#
# Total GULP energy -793609.623952 kJ/mol
# GULP energy per Si atom -12400.150374 kJ/mol
# Density = 1.677524 g / cm^3
# Si number density = 16.813507 Si / 1000 Ang^3
#
#
#
# Elastic Constant Matrix: (Units=GPa)
#
#
# Indices 1 2 3 4 5 6 
#
# 1 96.1715 38.3761 43.0500 0.0000 0.0000 0.0000
# 2 38.3761 89.2554 38.3445 0.0000 0.0000 0.0000
# 3 43.0500 38.3445 99.0358 0.0000 0.0000 0.0000
# 4 0.0000 0.0000 0.0000 23.9704 0.0000 0.0000
# 5 0.0000 0.0000 0.0000 0.0000 24.4736 0.0000
# 6 0.0000 0.0000 0.0000 0.0000 0.0000 26.5203
#
#
#
# Elastic Compliance Matrix: (Units=1/GPa)
#
#
# Indices 1 2 3 4 5 6 
#
# 1 0.014060 -0.004102 -0.004524 0.000000 0.000000 0.000000
# 2 -0.004102 0.014636 -0.003884 0.000000 0.000000 0.000000
# 3 -0.004524 -0.003884 0.013567 0.000000 0.000000 0.000000
# 4 0.000000 0.000000 0.000000 0.041718 0.000000 0.000000
# 5 0.000000 0.000000 0.000000 0.000000 0.040860 0.000000
# 6 0.000000 0.000000 0.000000 0.000000 0.000000 0.037707
#
#
# Mechanical properties :
#
#
# Convention : Reuss Voigt Hill
#
# Bulk Modulus (GPa) = 57.98780 58.22264 58.10522
# Shear Modulus (GPa) = 25.86456 25.97233 25.91844
#
# Velocity S-wave (km/s) = 3.92640 3.93457 3.93049
# Velocity P-wave (km/s) = 7.42423 7.43941 7.43182
#
# Compressibility (1/GPa) = 0.01724501
#
# Stress axis : x y z
#
# Youngs Moduli (GPa) = 71.12493 68.32547 73.70624
#
# Poissons Ratio (x) = 0.28026 0.33341
# Poissons Ratio (y) = 0.29174 0.28625
# Poissons Ratio (z) = 0.32174 0.26535
#
# Static dielectric constant tensor:
#      x y z
#    x 3.226020 0.000000 0.000000 
#    y 0.000000 3.221810 0.000000 
#    z 0.000000 0.000000 3.090320 
# 
# 
# High freq. dielectric constant tensor:
#      x y z
#    x 1.644110 0.000000 0.000000 
#    y 0.000000 1.652020 0.000000 
#    z 0.000000 0.000000 1.620530 
# 
# From -- ./inp_files/25108.got.cif
#   From: 2010.03.12/outbox.cif.g09.slc.cpg/sg59_13_cif.got.tgz:25108.got - 2010.04.16 16:29:54.
