data_PCOD8244048
_publ_section_title
;
Structure prediction by ZEFSAII (Michael W. Deem and Ramdas Pophale) SiO2 
 PCOD8244048
Probable space group: P M M N
;
_chemical_formula_sum "Si O2"
_cell_formula_units_Z 48
_cell_length_a 8.463596
_cell_length_b 16.252493
_cell_length_c 18.029820
_cell_angle_alpha 90.000000
_cell_angle_beta 90.000000
_cell_angle_gamma 90.000000
_cell_volume 2480.083502
_symmetry_space_group_name_H-M "P M M N"
_symmetry_group_IT_number 59
_space_group.IT_coordinate_system_code '2'
_symmetry_cell_setting 'orthorhombic'
loop_
_space_group_symop_operation_xyz
x,y,z
1/2-x,1/2-y,z
1/2+x,-y,-z
-x,1/2+y,-z
-x,-y,-z
1/2+x,1/2+y,-z
1/2-x,y,z
x,1/2-y,z
loop_
_atom_site_type_symbol
_atom_site_label
_atom_site_fract_x
_atom_site_fract_y
_atom_site_fract_z
Si Si1 0.437429 0.750000 0.451276
Si Si2 0.066611 0.585347 0.529818
Si Si3 0.066218 0.434384 0.312411
Si Si4 0.438024 0.493744 0.082368
Si Si5 0.562197 0.250000 0.719924
Si Si6 0.563848 0.918340 0.220215
Si Si7 0.435767 0.338936 0.168851
O O1 0.250000 0.750000 0.459512
O O2 0.506814 0.833252 0.489861
O O3 0.490553 0.750000 0.365838
O O4 0.250000 0.584282 0.512731
O O5 0.000000 0.500000 0.500000
O O6 0.035500 0.590221 0.616922
O O7 0.250000 0.436392 0.333979
O O8 0.025016 0.364802 0.252577
O O9 0.021680 0.523048 0.279551
O O10 0.250000 0.500607 0.085635
O O11 0.510211 0.563449 0.135726
O O12 0.502196 0.405798 0.111549
O O13 0.500000 0.500000 0.000000
O O14 0.750000 0.250000 0.727885
O O15 0.487804 0.326868 0.761607
O O16 0.750000 0.929731 0.227571
O O17 0.250000 0.333492 0.158209
O O18 0.514284 0.250000 0.152984
#
# Coordination Sequence:
#
# PCOD8244048 Si02
#       7
#     4   8   8   8   4   8   8
#     4   9  22  39  57  81 116 155 192 243 307 357
#     4  11  22  38  57  82 115 153 196 244 301 362
#     4  10  20  35  57  83 114 150 191 240 294 348
#     4  10  20  37  60  85 119 155 191 237 291 344
#     4  11  21  39  63  85 114 151 198 251 299 347
#     4  11  22  38  60  87 116 154 200 241 288 352
#     4   8  16  32  55  82 109 143 186 231 282 337
#
# _framework density 19.354187
#
# number of rings (size 3 to 8) (size 9 to 14) (size 15 to 20)
#    0.000    2.000    0.000    5.250    1.167    1.333 
#    1.500    3.750    0.000    9.500    0.000    0.000 
#    0.000    0.000    0.000    0.000    0.000    0.000 
#
# Total GULP energy -595161.354445 kJ/mol
# GULP energy per Si atom -12399.194884 kJ/mol
# Density = 1.931014 g / cm^3
# Si number density = 19.354187 Si / 1000 Ang^3
#
#
#
# Elastic Constant Matrix: (Units=GPa)
#
#
# Indices 1 2 3 4 5 6 
#
# 1 48.2684 21.8724 16.9452 0.0000 0.0000 0.0000
# 2 21.8724 162.7391 70.4659 0.0000 0.0000 0.0000
# 3 16.9452 70.4659 141.8363 0.0000 0.0000 0.0000
# 4 0.0000 0.0000 0.0000 36.2062 0.0000 0.0000
# 5 0.0000 0.0000 0.0000 0.0000 33.1866 0.0000
# 6 0.0000 0.0000 0.0000 0.0000 0.0000 22.5773
#
#
#
# Elastic Compliance Matrix: (Units=1/GPa)
#
#
# Indices 1 2 3 4 5 6 
#
# 1 0.022308 -0.002350 -0.001498 0.000000 0.000000 0.000000
# 2 -0.002350 0.008076 -0.003732 0.000000 0.000000 0.000000
# 3 -0.001498 -0.003732 0.009083 0.000000 0.000000 0.000000
# 4 0.000000 0.000000 0.000000 0.027620 0.000000 0.000000
# 5 0.000000 0.000000 0.000000 0.000000 0.030133 0.000000
# 6 0.000000 0.000000 0.000000 0.000000 0.000000 0.044292
#
#
# Mechanical properties :
#
#
# Convention : Reuss Voigt Hill
#
# Bulk Modulus (GPa) = 41.13647 63.49009 52.31328
# Shear Modulus (GPa) = 30.34462 34.63138 32.48800
#
# Velocity S-wave (km/s) = 3.96391 4.23466 4.10152
# Velocity P-wave (km/s) = 6.50007 7.53560 7.03691
#
# Compressibility (1/GPa) = 0.02430933
#
# Stress axis : x y z
#
# Youngs Moduli (GPa) = 44.82681 123.81663 110.09205
#
# Poissons Ratio (x) = 0.29093 0.16490
# Poissons Ratio (y) = 0.10533 0.41084
# Poissons Ratio (z) = 0.06714 0.46205
#
# Static dielectric constant tensor:
#      x y z
#    x 3.428880 0.000000 0.000000 
#    y 0.000000 4.014390 0.000000 
#    z 0.000000 0.000000 3.439160 
# 
# 
# High freq. dielectric constant tensor:
#      x y z
#    x 1.741750 0.000000 0.000000 
#    y 0.000000 1.765040 0.000000 
#    z 0.000000 0.000000 1.756250 
# 
# From -- ./inp_files/25591.got.cif
#   From: 2010.03.12/outbox.cif.g09.slc.cpg/sg59_13_cif.got.tgz:25591.got - 2010.04.16 16:29:54.
