data_PCOD8244577
_publ_section_title
;
Structure prediction by ZEFSAII (Michael W. Deem and Ramdas Pophale) SiO2 
 PCOD8244577
Probable space group: P M M N
;
_chemical_formula_sum "Si O2"
_cell_formula_units_Z 48
_cell_length_a 15.335676
_cell_length_b 8.902664
_cell_length_c 18.362517
_cell_angle_alpha 90.000000
_cell_angle_beta 90.000000
_cell_angle_gamma 90.000000
_cell_volume 2507.004527
_symmetry_space_group_name_H-M "P M M N"
_symmetry_group_IT_number 59
_space_group.IT_coordinate_system_code '2'
_symmetry_cell_setting 'orthorhombic'
loop_
_space_group_symop_operation_xyz
x,y,z
1/2-x,1/2-y,z
1/2+x,-y,-z
-x,1/2+y,-z
-x,-y,-z
1/2+x,1/2+y,-z
1/2-x,y,z
x,1/2-y,z
loop_
_atom_site_type_symbol
_atom_site_label
_atom_site_fract_x
_atom_site_fract_y
_atom_site_fract_z
Si Si1 0.090572 0.925879 0.335936
Si Si2 0.915543 0.076323 0.168807
Si Si3 0.590422 0.074486 0.336159
Si Si4 0.594056 0.075395 0.832781
Si Si5 0.750000 0.921670 0.413780
Si Si6 0.250000 0.078073 0.414022
Si Si7 0.250000 0.427044 0.082180
Si Si8 0.250000 0.925487 0.927361
O O1 0.084181 0.750000 0.351159
O O2 0.111582 0.959483 0.251727
O O3 0.165234 0.995775 0.384641
O O4 0.000463 0.001223 0.359731
O O5 0.941128 0.250000 0.159719
O O6 0.888954 0.041468 0.251759
O O7 0.834709 0.030652 0.118927
O O8 0.997816 0.977637 0.144194
O O9 0.585921 0.250000 0.352701
O O10 0.664866 0.002764 0.384476
O O11 0.603337 0.250000 0.850680
O O12 0.663913 0.987102 0.879462
O O13 0.750000 0.750000 0.387235
O O14 0.750000 0.933752 0.499918
O O15 0.250000 0.250000 0.387292
O O16 0.250000 0.250000 0.087435
O O17 0.250000 0.475868 0.998937
O O18 0.250000 0.750000 0.947453
#
# Coordination Sequence:
#
# PCOD8244577 Si02
#       8
#     8   8   8   8   4   4   4   4
#     4  10  21  38  61  87 113 144 185 233 283 334
#     4   9  19  37  61  87 112 143 185 230 276 328
#     4  10  20  37  62  88 113 145 187 232 280 334
#     4  10  21  38  60  85 112 144 183 229 280 331
#     4  11  24  39  55  81 117 153 190 231 278 332
#     4  11  24  39  56  81 114 153 192 231 278 332
#     4  12  25  38  55  81 113 150 189 228 274 330
#     4  10  21  38  58  81 114 150 183 226 276 326
#
# _framework density 19.146353999999999
#
# number of rings (size 3 to 8) (size 9 to 14) (size 15 to 20)
#    0.000    1.833    0.000    3.750    0.000    9.333 
#    0.000    0.833    0.000    0.000    0.000    0.000 
#    0.000    0.000    0.000    0.000    0.000    0.000 
#
# Total GULP energy -595464.900022 kJ/mol
# GULP energy per Si atom -12405.518750 kJ/mol
# Density = 1.910278 g / cm^3
# Si number density = 19.146354 Si / 1000 Ang^3
#
#
#
# Elastic Constant Matrix: (Units=GPa)
#
#
# Indices 1 2 3 4 5 6 
#
# 1 162.1505 87.6214 76.0960 0.0000 0.0000 0.0000
# 2 87.6214 130.6564 62.9636 0.0000 0.0000 0.0000
# 3 76.0960 62.9636 83.4058 0.0000 0.0000 0.0000
# 4 0.0000 0.0000 0.0000 30.8501 0.0000 0.0000
# 5 0.0000 0.0000 0.0000 0.0000 -139.5616 0.0000
# 6 0.0000 0.0000 0.0000 0.0000 0.0000 32.9486
#
#
#
# Elastic Compliance Matrix: (Units=1/GPa)
#
#
# Indices 1 2 3 4 5 6 
#
# 1 0.012230 -0.004440 -0.007806 0.000000 0.000000 0.000000
# 2 -0.004440 0.013642 -0.006248 0.000000 0.000000 0.000000
# 3 -0.007806 -0.006248 0.023828 0.000000 0.000000 0.000000
# 4 0.000000 0.000000 0.000000 0.032415 0.000000 0.000000
# 5 0.000000 0.000000 0.000000 0.000000 -0.007165 0.000000
# 6 0.000000 0.000000 0.000000 0.000000 0.000000 0.030350
#
#
# Mechanical properties :
#
#
# Convention : Reuss Voigt Hill
#
# Bulk Modulus (GPa) = 78.66426 92.17498 85.41962
# Shear Modulus (GPa) = 34.12409 -5.18381 14.47014
#
# Velocity S-wave (km/s) = 4.22628 -1.64722 2.75210
# Velocity P-wave (km/s) = 8.06165 6.68050 7.40335
#
# Compressibility (1/GPa) = 0.01271225
#
# Stress axis : x y z
#
# Youngs Moduli (GPa) = 81.76912 73.30416 41.96708
#
# Poissons Ratio (x) = 0.32544 0.32761
# Poissons Ratio (y) = 0.36302 0.26220
# Poissons Ratio (z) = 0.63831 0.45799
#
# Static dielectric constant tensor:
#      x y z
#    x 3.627420 0.000000 0.000000 
#    y 0.000000 3.653130 0.000000 
#    z 0.000000 0.000000 3.477060 
# 
# 
# High freq. dielectric constant tensor:
#      x y z
#    x 1.760850 0.000000 0.000000 
#    y 0.000000 1.757120 0.000000 
#    z 0.000000 0.000000 1.740740 
# 
# From -- ./inp_files/27510.got.cif
#   From: 2010.03.12/outbox.cif.g09.slc.cpg/sg59_14_cif.got.tgz:27510.got - 2010.04.16 16:29:54.
