data_PCOD8244885
_publ_section_title
;
Structure prediction by ZEFSAII (Michael W. Deem and Ramdas Pophale) SiO2 
 PCOD8244885
Probable space group: P M M N
;
_chemical_formula_sum "Si O2"
_cell_formula_units_Z 48
_cell_length_a 13.425363
_cell_length_b 13.425378
_cell_length_c 15.113315
_cell_angle_alpha 90.000000
_cell_angle_beta 90.000000
_cell_angle_gamma 90.000000
_cell_volume 2724.032556
_symmetry_space_group_name_H-M "P M M N"
_symmetry_group_IT_number 59
_space_group.IT_coordinate_system_code '2'
_symmetry_cell_setting 'orthorhombic'
loop_
_space_group_symop_operation_xyz
x,y,z
1/2-x,1/2-y,z
1/2+x,-y,-z
-x,1/2+y,-z
-x,-y,-z
1/2+x,1/2+y,-z
1/2-x,y,z
x,1/2-y,z
loop_
_atom_site_type_symbol
_atom_site_label
_atom_site_fract_x
_atom_site_fract_y
_atom_site_fract_z
Si Si1 0.366303 0.470531 0.079557
Si Si2 0.970534 0.633697 0.079558
Si Si3 0.023516 0.137604 0.432034
Si Si4 0.634761 0.526016 0.230867
Si Si5 0.362396 0.476485 0.567965
Si Si6 0.526012 0.634761 0.769134
O O1 0.250000 0.494735 0.072748
O O2 0.425044 0.574955 0.075059
O O3 0.387989 0.412906 0.170883
O O4 0.398945 0.398945 0.999998
O O5 0.994741 0.750000 0.072747
O O6 0.912911 0.612014 0.170886
O O7 0.989588 0.250000 0.446517
O O8 0.111880 0.111878 0.499998
O O9 0.061380 0.120358 0.331971
O O10 0.927283 0.072718 0.454772
O O11 0.750000 0.509416 0.206582
O O12 0.620359 0.561381 0.331973
O O13 0.578880 0.421123 0.213411
O O14 0.250000 0.510416 0.553483
O O15 0.509408 0.750000 0.793416
#
# Coordination Sequence:
#
# PCOD8244885 Si02
#       6
#     8   8   8   8   8   8
#     4  10  21  36  53  74 100 129 162 199 238 282
#     4  10  21  36  53  74 100 129 162 199 238 282
#     4   9  18  32  49  70  97 127 160 200 243 287
#     4   9  18  32  50  73  99 127 160 198 241 288
#     4   9  18  32  49  70  97 127 160 200 243 287
#     4   9  18  32  50  73  99 127 160 198 241 288
#
# _framework density 17.620934999999999
#
# number of rings (size 3 to 8) (size 9 to 14) (size 15 to 20)
#    0.000    2.667    0.000    1.000    0.000    5.000 
#    0.000    6.667    0.000    6.000    0.000    9.333 
#    0.000    0.000    0.000    0.000    0.000    0.000 
#
# Total GULP energy -595237.300351 kJ/mol
# GULP energy per Si atom -12400.777091 kJ/mol
# Density = 1.758083 g / cm^3
# Si number density = 17.620935 Si / 1000 Ang^3
#
#
#
# Elastic Constant Matrix: (Units=GPa)
#
#
# Indices 1 2 3 4 5 6 
#
# 1 118.5025 49.4313 56.6263 0.0000 0.0000 0.0000
# 2 49.4313 118.5058 56.6282 0.0000 0.0000 0.0000
# 3 56.6263 56.6282 102.4162 0.0000 0.0000 0.0000
# 4 0.0000 0.0000 0.0000 25.5794 0.0000 0.0000
# 5 0.0000 0.0000 0.0000 0.0000 25.5796 0.0000
# 6 0.0000 0.0000 0.0000 0.0000 0.0000 12.0451
#
#
#
# Elastic Compliance Matrix: (Units=1/GPa)
#
#
# Indices 1 2 3 4 5 6 
#
# 1 0.011986 -0.002491 -0.005250 0.000000 0.000000 0.000000
# 2 -0.002491 0.011986 -0.005250 0.000000 0.000000 0.000000
# 3 -0.005250 -0.005250 0.015570 0.000000 0.000000 0.000000
# 4 0.000000 0.000000 0.000000 0.039094 0.000000 0.000000
# 5 0.000000 0.000000 0.000000 0.000000 0.039094 0.000000
# 6 0.000000 0.000000 0.000000 0.000000 0.000000 0.083021
#
#
# Mechanical properties :
#
#
# Convention : Reuss Voigt Hill
#
# Bulk Modulus (GPa) = 73.74609 73.86622 73.80615
# Shear Modulus (GPa) = 21.62129 24.42341 23.02235
#
# Velocity S-wave (km/s) = 3.50669 3.72700 3.61852
# Velocity P-wave (km/s) = 7.63794 7.78019 7.70939
#
# Compressibility (1/GPa) = 0.01356004
#
# Stress axis : x y z
#
# Youngs Moduli (GPa) = 83.42751 83.42869 64.22721
#
# Poissons Ratio (x) = 0.20783 0.33719
# Poissons Ratio (y) = 0.20783 0.33720
# Poissons Ratio (z) = 0.43799 0.43801
#
# Static dielectric constant tensor:
#      x y z
#    x 3.163750 0.000000 0.000000 
#    y 0.000000 3.163770 0.000000 
#    z 0.000000 0.000000 3.547380 
# 
# 
# High freq. dielectric constant tensor:
#      x y z
#    x 1.672380 0.000000 0.000000 
#    y 0.000000 1.672380 0.000000 
#    z 0.000000 0.000000 1.697510 
# 
# From -- ./inp_files/22401.got.cif
#   From: 2010.03.12/outbox.cif.g09.slc.cpg/sg59_12_cif.got.tgz:22401.got - 2010.04.16 16:29:54.
