data_PCOD8244522
_publ_section_title
;
Structure prediction by ZEFSAII (Michael W. Deem and Ramdas Pophale) SiO2 
 PCOD8244522
Probable space group: P M M N
;
_chemical_formula_sum "Si O2"
_cell_formula_units_Z 64
_cell_length_a 28.695435
_cell_length_b 8.774618
_cell_length_c 12.598591
_cell_angle_alpha 90.000000
_cell_angle_beta 90.000000
_cell_angle_gamma 90.000000
_cell_volume 3172.217880
_symmetry_space_group_name_H-M "P M M N"
_symmetry_group_IT_number 59
_space_group.IT_coordinate_system_code '2'
_symmetry_cell_setting 'orthorhombic'
loop_
_space_group_symop_operation_xyz
x,y,z
1/2-x,1/2-y,z
1/2+x,-y,-z
-x,1/2+y,-z
-x,-y,-z
1/2+x,1/2+y,-z
1/2-x,y,z
x,1/2-y,z
loop_
_atom_site_type_symbol
_atom_site_label
_atom_site_fract_x
_atom_site_fract_y
_atom_site_fract_z
Si Si1 0.889612 0.425864 0.864004
Si Si2 0.803262 0.570288 0.380020
Si Si3 0.560843 0.928894 0.670190
Si Si4 0.303371 0.428440 0.052597
Si Si5 0.044256 0.574172 0.946075
Si Si6 0.456021 0.569761 0.709382
Si Si7 0.388321 0.930261 0.526694
Si Si8 0.695183 0.418922 0.164044
O O1 0.892380 0.250000 0.828604
O O2 0.917945 0.531157 0.784054
O O3 0.835868 0.480319 0.865203
O O4 0.910441 0.451512 0.981559
O O5 0.750000 0.521132 0.405227
O O6 0.806789 0.750000 0.369733
O O7 0.837164 0.507957 0.471925
O O8 0.822658 0.496315 0.271479
O O9 0.566636 0.750000 0.648025
O O10 0.507138 0.980668 0.670424
O O11 0.587117 0.025411 0.581945
O O12 0.250000 0.474325 0.076513
O O13 0.311369 0.250000 0.066539
O O14 0.318414 0.475219 0.934152
O O15 0.031544 0.750000 0.933578
O O16 0.053875 0.505182 0.828272
O O17 0.000000 0.500000 0.000000
O O18 0.452416 0.750000 0.710138
O O19 0.418636 0.504720 0.625524
O O20 0.382252 0.750000 0.531587
O O21 0.750000 0.401719 0.170739
O O22 0.672272 0.250000 0.151826
#
# Coordination Sequence:
#
# PCOD8244522 Si02
#       8
#     8   8   8   8   8   8   8   8
#     4  11  23  37  60  90 122 158 200 248 298 358
#     4  10  21  38  58  84 119 156 198 246 297 355
#     4  11  22  41  64  84 117 160 201 246 301 357
#     4  10  21  37  57  84 119 159 203 248 297 356
#     4  10  20  37  59  88 122 156 194 237 292 354
#     4   9  20  38  61  88 121 158 194 243 298 354
#     4  11  23  39  62  90 120 154 202 252 299 356
#     4   9  17  31  53  80 112 151 191 236 293 348
#
# _framework density 20.175159000000001
#
# number of rings (size 3 to 8) (size 9 to 14) (size 15 to 20)
#    0.000    1.875    1.250    2.625    1.750    3.500 
#    0.000    3.750    0.000    3.750    0.000    0.000 
#    0.000    0.000    0.000    0.000    0.000    0.000 
#
# Total GULP energy -793673.379371 kJ/mol
# GULP energy per Si atom -12401.146553 kJ/mol
# Density = 2.012924 g / cm^3
# Si number density = 20.175159 Si / 1000 Ang^3
#
#
#
# Elastic Constant Matrix: (Units=GPa)
#
#
# Indices 1 2 3 4 5 6 
#
# 1 109.3504 34.7899 29.5305 0.0000 0.0000 0.0000
# 2 34.7899 59.4153 15.6738 0.0000 0.0000 0.0000
# 3 29.5305 15.6738 64.9406 0.0000 0.0000 0.0000
# 4 0.0000 0.0000 0.0000 32.5532 0.0000 0.0000
# 5 0.0000 0.0000 0.0000 0.0000 25.5790 0.0000
# 6 0.0000 0.0000 0.0000 0.0000 0.0000 27.2142
#
#
#
# Elastic Compliance Matrix: (Units=1/GPa)
#
#
# Indices 1 2 3 4 5 6 
#
# 1 0.012170 -0.006052 -0.004074 0.000000 0.000000 0.000000
# 2 -0.006052 0.020984 -0.002313 0.000000 0.000000 0.000000
# 3 -0.004074 -0.002313 0.017809 0.000000 0.000000 0.000000
# 4 0.000000 0.000000 0.000000 0.030719 0.000000 0.000000
# 5 0.000000 0.000000 0.000000 0.000000 0.039095 0.000000
# 6 0.000000 0.000000 0.000000 0.000000 0.000000 0.036745
#
#
# Mechanical properties :
#
#
# Convention : Reuss Voigt Hill
#
# Bulk Modulus (GPa) = 38.33210 43.74386 41.03798
# Shear Modulus (GPa) = 26.16501 27.31675 26.74088
#
# Velocity S-wave (km/s) = 3.60515 3.68364 3.64460
# Velocity P-wave (km/s) = 6.03078 6.31042 6.17218
#
# Compressibility (1/GPa) = 0.02608779
#
# Stress axis : x y z
#
# Youngs Moduli (GPa) = 82.16703 47.65488 56.15037
#
# Poissons Ratio (x) = 0.28839 0.22874
# Poissons Ratio (y) = 0.49724 0.12987
# Poissons Ratio (z) = 0.33472 0.11022
#
# Static dielectric constant tensor:
#      x y z
#    x 3.800570 0.000000 0.000000 
#    y 0.000000 3.573660 0.000000 
#    z 0.000000 0.000000 3.692990 
# 
# 
# High freq. dielectric constant tensor:
#      x y z
#    x 1.794990 0.000000 0.000000 
#    y 0.000000 1.781660 0.000000 
#    z 0.000000 0.000000 1.776610 
# 
# From -- ./inp_files/19221.got.cif
#   From: 2010.03.12/outbox.cif.g09.slc.cpg/sg59_10_cif.got.tgz:19221.got - 2010.04.16 16:29:54.
