data_PCOD8244591
_publ_section_title
;
Structure prediction by ZEFSAII (Michael W. Deem and Ramdas Pophale) SiO2 
 PCOD8244591
Probable space group: P M M N
;
_chemical_formula_sum "Si O2"
_cell_formula_units_Z 48
_cell_length_a 9.055646
_cell_length_b 18.161945
_cell_length_c 14.582357
_cell_angle_alpha 90.000000
_cell_angle_beta 90.000000
_cell_angle_gamma 90.000000
_cell_volume 2398.333200
_symmetry_space_group_name_H-M "P M M N"
_symmetry_group_IT_number 59
_space_group.IT_coordinate_system_code '2'
_symmetry_cell_setting 'orthorhombic'
loop_
_space_group_symop_operation_xyz
x,y,z
1/2-x,1/2-y,z
1/2+x,-y,-z
-x,1/2+y,-z
-x,-y,-z
1/2+x,1/2+y,-z
1/2-x,y,z
x,1/2-y,z
loop_
_atom_site_type_symbol
_atom_site_label
_atom_site_fract_x
_atom_site_fract_y
_atom_site_fract_z
Si Si1 0.081544 0.250000 0.302893
Si Si2 0.581326 0.329756 0.817183
Si Si3 0.426220 0.750000 0.504069
Si Si4 0.915974 0.486481 0.407406
Si Si5 0.424407 0.518647 0.094564
Si Si6 0.917154 0.649609 0.365315
Si Si7 0.420136 0.408930 0.252828
O O1 0.250000 0.250000 0.339953
O O2 0.055288 0.178591 0.237585
O O3 0.974222 0.250000 0.390109
O O4 0.750000 0.346035 0.788045
O O5 0.570117 0.250000 0.869740
O O6 0.524888 0.398515 0.877813
O O7 0.486052 0.318501 0.726539
O O8 0.250000 0.750000 0.498569
O O9 0.489823 0.822718 0.453360
O O10 0.750000 0.459885 0.428196
O O11 0.919989 0.562479 0.352657
O O12 0.000000 0.500000 0.500000
O O13 0.994593 0.425418 0.346540
O O14 0.250000 0.513623 0.081478
O O15 0.480431 0.457861 0.168427
O O16 0.500000 0.500000 0.000000
O O17 0.750000 0.678330 0.376761
O O18 0.250000 0.429165 0.268814
#
# Coordination Sequence:
#
# PCOD8244591 Si02
#       7
#     4   8   4   8   8   8   8
#     4  10  22  40  60  83 116 157 206 257 300 348
#     4  10  20  37  62  90 119 152 192 242 303 361
#     4  12  24  36  54  83 122 165 206 247 296 358
#     4  11  23  36  55  84 117 156 202 250 299 361
#     4  10  22  41  65  92 122 156 198 249 310 373
#     4  11  22  35  54  83 118 155 199 247 298 351
#     4  10  21  40  63  85 116 158 203 254 306 358
#
# _framework density 20.013898999999999
#
# number of rings (size 3 to 8) (size 9 to 14) (size 15 to 20)
#    0.000    1.500    2.500    2.750    0.000    8.000 
#    1.500    0.000    0.000    0.000    0.000    0.000 
#    0.000    0.000    0.000    0.000    0.000    0.000 
#
# Total GULP energy -595081.665335 kJ/mol
# GULP energy per Si atom -12397.534694 kJ/mol
# Density = 1.996835 g / cm^3
# Si number density = 20.013899 Si / 1000 Ang^3
#
#
#
# Elastic Constant Matrix: (Units=GPa)
#
#
# Indices 1 2 3 4 5 6 
#
# 1 95.7341 37.5231 43.7246 0.0000 0.0000 0.0000
# 2 37.5231 152.6119 57.3819 0.0000 0.0000 0.0000
# 3 43.7246 57.3819 115.6942 0.0000 0.0000 0.0000
# 4 0.0000 0.0000 0.0000 22.8202 0.0000 0.0000
# 5 0.0000 0.0000 0.0000 0.0000 34.8746 0.0000
# 6 0.0000 0.0000 0.0000 0.0000 0.0000 18.7181
#
#
#
# Elastic Compliance Matrix: (Units=1/GPa)
#
#
# Indices 1 2 3 4 5 6 
#
# 1 0.012955 -0.001653 -0.004077 0.000000 0.000000 0.000000
# 2 -0.001653 0.008265 -0.003475 0.000000 0.000000 0.000000
# 3 -0.004077 -0.003475 0.011908 0.000000 0.000000 0.000000
# 4 0.000000 0.000000 0.000000 0.043821 0.000000 0.000000
# 5 0.000000 0.000000 0.000000 0.000000 0.028674 0.000000
# 6 0.000000 0.000000 0.000000 0.000000 0.000000 0.053424
#
#
# Mechanical properties :
#
#
# Convention : Reuss Voigt Hill
#
# Bulk Modulus (GPa) = 67.93387 71.25548 69.59468
# Shear Modulus (GPa) = 27.41791 30.30993 28.86392
#
# Velocity S-wave (km/s) = 3.70529 3.89581 3.80174
# Velocity P-wave (km/s) = 7.23344 7.47775 7.35661
#
# Compressibility (1/GPa) = 0.01472020
#
# Stress axis : x y z
#
# Youngs Moduli (GPa) = 77.18903 120.98538 83.97967
#
# Poissons Ratio (x) = 0.19993 0.34235
# Poissons Ratio (y) = 0.12756 0.29182
# Poissons Ratio (z) = 0.31467 0.42042
#
# Static dielectric constant tensor:
#      x y z
#    x 3.607500 0.000000 0.000000 
#    y 0.000000 5.261690 0.000000 
#    z 0.000000 0.000000 3.313440 
# 
# 
# High freq. dielectric constant tensor:
#      x y z
#    x 1.779070 0.000000 0.000000 
#    y 0.000000 1.808020 0.000000 
#    z 0.000000 0.000000 1.747690 
# 
# From -- ./inp_files/20505.got.cif
#   From: 2010.03.12/outbox.cif.g09.slc.cpg/sg59_11_cif.got.tgz:20505.got - 2010.04.16 16:29:54.
