data_PCOD8244981
_publ_section_title
;
Structure prediction by ZEFSAII (Michael W. Deem and Ramdas Pophale) SiO2 
 PCOD8244981
Probable space group: P M M N
;
_chemical_formula_sum "Si O2"
_cell_formula_units_Z 48
_cell_length_a 8.862080
_cell_length_b 15.416730
_cell_length_c 16.791706
_cell_angle_alpha 90.000000
_cell_angle_beta 90.000000
_cell_angle_gamma 90.000000
_cell_volume 2294.154987
_symmetry_space_group_name_H-M "P M M N"
_symmetry_group_IT_number 59
_space_group.IT_coordinate_system_code '2'
_symmetry_cell_setting 'orthorhombic'
loop_
_space_group_symop_operation_xyz
x,y,z
1/2-x,1/2-y,z
1/2+x,-y,-z
-x,1/2+y,-z
-x,-y,-z
1/2+x,1/2+y,-z
1/2-x,y,z
x,1/2-y,z
loop_
_atom_site_type_symbol
_atom_site_label
_atom_site_fract_x
_atom_site_fract_y
_atom_site_fract_z
Si Si1 0.420103 0.592450 0.161944
Si Si2 0.424069 0.151493 0.686380
Si Si3 0.078873 0.107602 0.167206
Si Si4 0.428183 0.998826 0.413819
Si Si5 0.422198 0.351067 0.991919
Si Si6 0.077274 0.652865 0.678554
O O1 0.250000 0.628654 0.165887
O O2 0.523794 0.647158 0.221796
O O3 0.425057 0.493262 0.189068
O O4 0.478723 0.598054 0.072003
O O5 0.250000 0.123777 0.681452
O O6 0.446932 0.250000 0.655895
O O7 0.520737 0.087176 0.632347
O O8 0.250000 0.143662 0.173015
O O9 0.973349 0.156757 0.229572
O O10 0.014073 0.126486 0.079308
O O11 0.250000 0.995874 0.421783
O O12 0.472938 0.086996 0.369490
O O13 0.500000 0.000000 0.500000
O O14 0.250000 0.383379 0.985230
O O15 0.436114 0.250000 0.974081
O O16 0.250000 0.621341 0.673226
O O17 0.060120 0.750000 0.642952
#
# Coordination Sequence:
#
# PCOD8244981 Si02
#       6
#     8   8   8   8   8   8
#     4  11  22  36  58  89 123 165 216 268 321 376
#     4  11  24  43  68  97 131 172 215 262 320 382
#     4  10  21  38  60  87 121 167 217 266 322 378
#     4  12  26  46  72 100 132 169 209 260 319 380
#     4  10  21  36  54  80 118 166 218 268 319 377
#     4  11  24  42  67  99 133 171 215 263 317 379
#
# _framework density 20.922737000000001
#
# number of rings (size 3 to 8) (size 9 to 14) (size 15 to 20)
#    0.000    1.167    1.667    4.500    0.000    7.667 
#    0.000    0.000    0.000    0.000    0.000    0.000 
#    0.000    0.000    0.000    0.000    0.000    0.000 
#
# Total GULP energy -595471.410046 kJ/mol
# GULP energy per Si atom -12405.654376 kJ/mol
# Density = 2.087512 g / cm^3
# Si number density = 20.922737 Si / 1000 Ang^3
#
#
#
# Elastic Constant Matrix: (Units=GPa)
#
#
# Indices 1 2 3 4 5 6 
#
# 1 145.2663 50.3853 58.4263 0.0000 0.0000 0.0000
# 2 50.3853 93.7124 36.9463 0.0000 0.0000 0.0000
# 3 58.4263 36.9463 129.6095 0.0000 0.0000 0.0000
# 4 0.0000 0.0000 0.0000 16.3198 0.0000 0.0000
# 5 0.0000 0.0000 0.0000 0.0000 41.6344 0.0000
# 6 0.0000 0.0000 0.0000 0.0000 0.0000 20.6055
#
#
#
# Elastic Compliance Matrix: (Units=1/GPa)
#
#
# Indices 1 2 3 4 5 6 
#
# 1 0.009501 -0.003853 -0.003185 0.000000 0.000000 0.000000
# 2 -0.003853 0.013584 -0.002136 0.000000 0.000000 0.000000
# 3 -0.003185 -0.002136 0.009760 0.000000 0.000000 0.000000
# 4 0.000000 0.000000 0.000000 0.061275 0.000000 0.000000
# 5 0.000000 0.000000 0.000000 0.000000 0.024019 0.000000
# 6 0.000000 0.000000 0.000000 0.000000 0.000000 0.048531
#
#
# Mechanical properties :
#
#
# Convention : Reuss Voigt Hill
#
# Bulk Modulus (GPa) = 68.96905 73.34489 71.15697
# Shear Modulus (GPa) = 26.33669 30.56730 28.45200
#
# Velocity S-wave (km/s) = 3.55175 3.82640 3.69163
# Velocity P-wave (km/s) = 7.06082 7.39277 7.22870
#
# Compressibility (1/GPa) = 0.01449926
#
# Stress axis : x y z
#
# Youngs Moduli (GPa) = 105.25057 73.61398 102.46037
#
# Poissons Ratio (x) = 0.28362 0.32631
# Poissons Ratio (y) = 0.40551 0.21881
# Poissons Ratio (z) = 0.33519 0.15721
#
# Static dielectric constant tensor:
#      x y z
#    x 3.827280 0.000000 0.000000 
#    y 0.000000 3.763320 0.000000 
#    z 0.000000 0.000000 3.816560 
# 
# 
# High freq. dielectric constant tensor:
#      x y z
#    x 1.822260 0.000000 0.000000 
#    y 0.000000 1.828800 0.000000 
#    z 0.000000 0.000000 1.819840 
# 
# From -- ./inp_files/25428.got.cif
#   From: 2010.03.12/outbox.cif.g09.slc.cpg/sg59_13_cif.got.tgz:25428.got - 2010.04.16 16:29:54.
