data_PCOD8244122
_publ_section_title
;
Structure prediction by ZEFSAII (Michael W. Deem and Ramdas Pophale) SiO2 
 PCOD8244122
Probable space group: P M M N
;
_chemical_formula_sum "Si O2"
_cell_formula_units_Z 64
_cell_length_a 9.126915
_cell_length_b 22.958524
_cell_length_c 15.752235
_cell_angle_alpha 90.000000
_cell_angle_beta 90.000000
_cell_angle_gamma 90.000000
_cell_volume 3300.731152
_symmetry_space_group_name_H-M "P M M N"
_symmetry_group_IT_number 59
_space_group.IT_coordinate_system_code '2'
_symmetry_cell_setting 'orthorhombic'
loop_
_space_group_symop_operation_xyz
x,y,z
1/2-x,1/2-y,z
1/2+x,-y,-z
-x,1/2+y,-z
-x,-y,-z
1/2+x,1/2+y,-z
1/2-x,y,z
x,1/2-y,z
loop_
_atom_site_type_symbol
_atom_site_label
_atom_site_fract_x
_atom_site_fract_y
_atom_site_fract_z
Si Si1 0.075998 0.316651 0.326900
Si Si2 0.079781 0.089051 0.462340
Si Si3 0.084705 0.419408 0.768377
Si Si4 0.080285 0.963510 0.386546
Si Si5 0.582097 0.007239 0.088799
Si Si6 0.923140 0.614733 0.840315
Si Si7 0.914044 0.316244 0.023613
Si Si8 0.916080 0.315771 0.827618
O O1 0.250000 0.314549 0.324381
O O2 0.014094 0.250000 0.332190
O O3 0.023990 0.355055 0.407989
O O4 0.020306 0.349174 0.241710
O O5 0.250000 0.095962 0.484428
O O6 0.991423 0.083754 0.549883
O O7 0.049842 0.030214 0.410350
O O8 0.250000 0.418367 0.734281
O O9 0.074432 0.445969 0.862669
O O10 0.988097 0.457759 0.705707
O O11 0.024461 0.353958 0.771155
O O12 0.250000 0.948798 0.383658
O O13 0.750000 0.025613 0.071114
O O14 0.506105 0.053501 0.151831
O O15 0.500000 0.000000 0.000000
O O16 0.750000 0.603470 0.835909
O O17 0.962450 0.650186 0.924639
O O18 0.750000 0.341887 0.038936
O O19 0.916158 0.250000 0.053968
O O20 0.958146 0.321178 0.925888
O O21 0.750000 0.337154 0.813591
O O22 0.934777 0.250000 0.795936
#
# Coordination Sequence:
#
# PCOD8244122 Si02
#       8
#     8   8   8   8   8   8   8   8
#     4   9  18  33  54  81 113 148 185 227 277 334
#     4   9  18  35  58  82 107 137 178 224 271 327
#     4  11  23  37  55  81 109 138 177 222 266 318
#     4  10  20  35  58  84 109 140 176 220 275 331
#     4  11  24  39  55  79 112 149 189 234 283 331
#     4  11  21  33  52  79 111 147 188 230 274 330
#     4   9  18  33  52  74 103 142 186 229 273 319
#     4   9  19  36  56  76 101 136 175 216 264 316
#
# _framework density 19.389643
#
# number of rings (size 3 to 8) (size 9 to 14) (size 15 to 20)
#    0.000    2.125    0.000    4.125    0.000    7.000 
#    0.000    3.125    0.000    4.125    0.000    0.000 
#    0.000    0.000    0.000    0.000    0.000    0.000 
#
# Total GULP energy -793569.627760 kJ/mol
# GULP energy per Si atom -12399.525434 kJ/mol
# Density = 1.934551 g / cm^3
# Si number density = 19.389643 Si / 1000 Ang^3
#
#
#
# Elastic Constant Matrix: (Units=GPa)
#
#
# Indices 1 2 3 4 5 6 
#
# 1 75.0116 43.6727 40.4106 0.0000 0.0000 0.0000
# 2 43.6727 102.7415 36.4775 0.0000 0.0000 0.0000
# 3 40.4106 36.4775 77.3835 0.0000 0.0000 0.0000
# 4 0.0000 0.0000 0.0000 35.2471 0.0000 0.0000
# 5 0.0000 0.0000 0.0000 0.0000 32.3936 0.0000
# 6 0.0000 0.0000 0.0000 0.0000 0.0000 28.9665
#
#
#
# Elastic Compliance Matrix: (Units=1/GPa)
#
#
# Indices 1 2 3 4 5 6 
#
# 1 0.021358 -0.006148 -0.008255 0.000000 0.000000 0.000000
# 2 -0.006148 0.013459 -0.003134 0.000000 0.000000 0.000000
# 3 -0.008255 -0.003134 0.018711 0.000000 0.000000 0.000000
# 4 0.000000 0.000000 0.000000 0.028371 0.000000 0.000000
# 5 0.000000 0.000000 0.000000 0.000000 0.030870 0.000000
# 6 0.000000 0.000000 0.000000 0.000000 0.000000 0.034523
#
#
# Mechanical properties :
#
#
# Convention : Reuss Voigt Hill
#
# Bulk Modulus (GPa) = 54.18939 55.13981 54.66460
# Shear Modulus (GPa) = 26.52269 28.29316 27.40792
#
# Velocity S-wave (km/s) = 3.70250 3.82408 3.76378
# Velocity P-wave (km/s) = 6.80340 6.92803 6.86600
#
# Compressibility (1/GPa) = 0.01845380
#
# Stress axis : x y z
#
# Youngs Moduli (GPa) = 46.82098 74.29922 53.44426
#
# Poissons Ratio (x) = 0.45677 0.44121
# Poissons Ratio (y) = 0.28784 0.16750
# Poissons Ratio (z) = 0.38653 0.23286
#
# Static dielectric constant tensor:
#      x y z
#    x 3.449190 0.000000 0.000000 
#    y 0.000000 3.675610 0.000000 
#    z 0.000000 0.000000 3.430190 
# 
# 
# High freq. dielectric constant tensor:
#      x y z
#    x 1.744780 0.000000 0.000000 
#    y 0.000000 1.757240 0.000000 
#    z 0.000000 0.000000 1.746860 
# 
# From -- ./inp_files/21495.got.cif
#   From: 2010.03.12/outbox.cif.g09.slc.cpg/sg59_11_cif.got.tgz:21495.got - 2010.04.16 16:29:54.
