data_PCOD8244264
_publ_section_title
;
Structure prediction by ZEFSAII (Michael W. Deem and Ramdas Pophale) SiO2 
 PCOD8244264
Probable space group: P M M N
;
_chemical_formula_sum "Si O2"
_cell_formula_units_Z 64
_cell_length_a 17.609078
_cell_length_b 15.447749
_cell_length_c 11.946423
_cell_angle_alpha 90.000000
_cell_angle_beta 90.000000
_cell_angle_gamma 90.000000
_cell_volume 3249.673356
_symmetry_space_group_name_H-M "P M M N"
_symmetry_group_IT_number 59
_space_group.IT_coordinate_system_code '2'
_symmetry_cell_setting 'orthorhombic'
loop_
_space_group_symop_operation_xyz
x,y,z
1/2-x,1/2-y,z
1/2+x,-y,-z
-x,1/2+y,-z
-x,-y,-z
1/2+x,1/2+y,-z
1/2-x,y,z
x,1/2-y,z
loop_
_atom_site_type_symbol
_atom_site_label
_atom_site_fract_x
_atom_site_fract_y
_atom_site_fract_z
Si Si1 0.097908 0.070486 0.703345
Si Si2 0.839259 0.996218 0.912299
Si Si3 0.922211 0.845837 0.517829
Si Si4 0.663804 0.392129 0.296210
Si Si5 0.425919 0.504023 0.317705
Si Si6 0.595455 0.156293 0.529551
Si Si7 0.162668 0.348152 0.913519
Si Si8 0.839476 0.344749 0.057244
O O1 0.123573 0.119770 0.590233
O O2 0.106661 0.133607 0.809417
O O3 0.013768 0.028957 0.696886
O O4 0.159037 0.994835 0.718600
O O5 0.750000 0.004481 0.885674
O O6 0.885858 0.990291 0.799346
O O7 0.857639 0.910903 0.983767
O O8 0.871921 0.080448 0.977477
O O9 0.892887 0.750000 0.555215
O O10 0.005837 0.838621 0.469238
O O11 0.916913 0.912872 0.619234
O O12 0.750000 0.362593 0.313196
O O13 0.618053 0.360281 0.402550
O O14 0.627845 0.350460 0.183566
O O15 0.380399 0.578954 0.386784
O O16 0.628556 0.250000 0.569763
O O17 0.250000 0.362145 0.876397
O O18 0.148583 0.250000 0.954059
O O19 0.750000 0.359731 0.066906
O O20 0.859689 0.250000 0.007124
#
# Coordination Sequence:
#
# PCOD8244264 Si02
#       8
#     8   8   8   8   8   8   8   8
#     4  11  19  37  60  85 113 145 187 240 287 338
#     4  10  22  39  58  80 111 153 193 231 280 340
#     4  10  20  37  59  81 111 151 187 228 283 340
#     4  11  19  32  58  86 113 144 184 235 287 337
#     4  11  22  38  58  82 117 155 191 230 277 339
#     4  10  20  36  56  82 114 149 185 225 282 342
#     4  10  21  39  62  85 112 147 190 242 292 332
#     4   9  18  34  55  79 109 146 184 227 281 336
#
# _framework density 19.694286999999999
#
# number of rings (size 3 to 8) (size 9 to 14) (size 15 to 20)
#    0.000    1.750    3.750    1.875    0.000    3.250 
#    0.000    0.000    0.000    1.500    0.000    0.000 
#    0.000    0.000    0.000    0.000    0.000    0.000 
#
# Total GULP energy -793361.654653 kJ/mol
# GULP energy per Si atom -12396.275854 kJ/mol
# Density = 1.964946 g / cm^3
# Si number density = 19.694287 Si / 1000 Ang^3
#
#
#
# Elastic Constant Matrix: (Units=GPa)
#
#
# Indices 1 2 3 4 5 6 
#
# 1 21.8519 19.6617 27.7874 0.0000 0.0000 0.0000
# 2 19.6617 185.4508 79.2539 0.0000 0.0000 0.0000
# 3 27.7874 79.2539 146.1373 0.0000 0.0000 0.0000
# 4 0.0000 0.0000 0.0000 15.4181 0.0000 0.0000
# 5 0.0000 0.0000 0.0000 0.0000 -11.9818 0.0000
# 6 0.0000 0.0000 0.0000 0.0000 0.0000 9.2257
#
#
#
# Elastic Compliance Matrix: (Units=1/GPa)
#
#
# Indices 1 2 3 4 5 6 
#
# 1 0.060900 -0.001963 -0.010515 0.000000 0.000000 0.000000
# 2 -0.001963 0.007082 -0.003468 0.000000 0.000000 0.000000
# 3 -0.010515 -0.003468 0.010723 0.000000 0.000000 0.000000
# 4 0.000000 0.000000 0.000000 0.064859 0.000000 0.000000
# 5 0.000000 0.000000 0.000000 0.000000 -0.083460 0.000000
# 6 0.000000 0.000000 0.000000 0.000000 0.000000 0.108393
#
#
# Mechanical properties :
#
#
# Convention : Reuss Voigt Hill
#
# Bulk Modulus (GPa) = 21.36128 67.42733 44.39431
# Shear Modulus (GPa) = 23.14874 17.64819 20.39846
#
# Velocity S-wave (km/s) = 3.43214 2.99675 3.22181
# Velocity P-wave (km/s) = 5.15520 6.80333 6.03579
#
# Compressibility (1/GPa) = 0.04681366
#
# Stress axis : x y z
#
# Youngs Moduli (GPa) = 16.42027 141.19680 93.25795
#
# Poissons Ratio (x) = 0.27715 0.98065
# Poissons Ratio (y) = 0.03223 0.32339
# Poissons Ratio (z) = 0.17267 0.48963
#
# Static dielectric constant tensor:
#      x y z
#    x 3.236540 0.000000 0.000000 
#    y 0.000000 4.126690 0.000000 
#    z 0.000000 0.000000 3.524640 
# 
# 
# High freq. dielectric constant tensor:
#      x y z
#    x 1.728050 0.000000 0.000000 
#    y 0.000000 1.789350 0.000000 
#    z 0.000000 0.000000 1.765860 
# 
# From -- ./inp_files/17846.got.cif
#   From: 2010.03.12/outbox.cif.g09.slc.cpg/sg59_9_cif.got.tgz:17846.got - 2010.04.16 16:29:54.
