data_PCOD8244750
_publ_section_title
;
Structure prediction by ZEFSAII (Michael W. Deem and Ramdas Pophale) SiO2 
 PCOD8244750
Probable space group: P M M N
;
_chemical_formula_sum "Si O2"
_cell_formula_units_Z 56
_cell_length_a 9.602602
_cell_length_b 14.071055
_cell_length_c 21.702528
_cell_angle_alpha 90.000000
_cell_angle_beta 90.000000
_cell_angle_gamma 90.000000
_cell_volume 2932.418257
_symmetry_space_group_name_H-M "P M M N"
_symmetry_group_IT_number 59
_space_group.IT_coordinate_system_code '2'
_symmetry_cell_setting 'orthorhombic'
loop_
_space_group_symop_operation_xyz
x,y,z
1/2-x,1/2-y,z
1/2+x,-y,-z
-x,1/2+y,-z
-x,-y,-z
1/2+x,1/2+y,-z
1/2-x,y,z
x,1/2-y,z
loop_
_atom_site_type_symbol
_atom_site_label
_atom_site_fract_x
_atom_site_fract_y
_atom_site_fract_z
Si Si1 0.594198 0.636979 0.080316
Si Si2 0.910913 0.358317 0.166769
Si Si3 0.406831 0.362851 0.055840
Si Si4 0.089529 0.492323 0.730626
Si Si5 0.410043 0.006147 0.589864
Si Si6 0.909220 0.137428 0.807688
Si Si7 0.411939 0.858706 0.486550
O O1 0.750000 0.600236 0.097082
O O2 0.595152 0.750000 0.080284
O O3 0.484517 0.598914 0.130407
O O4 0.549440 0.600049 0.012341
O O5 0.750000 0.364248 0.149509
O O6 0.957647 0.250000 0.179281
O O7 0.946963 0.415973 0.228343
O O8 0.991760 0.404291 0.108427
O O9 0.250000 0.395374 0.070901
O O10 0.418385 0.250000 0.056127
O O11 0.250000 0.460981 0.739468
O O12 0.057923 0.519938 0.660350
O O13 0.989900 0.405327 0.749200
O O14 0.250000 0.035608 0.580345
O O15 0.502726 0.095668 0.569628
O O16 0.447655 0.913190 0.549927
O O17 0.750000 0.102328 0.808768
O O18 0.918021 0.250000 0.802165
O O19 0.250000 0.866849 0.469818
O O20 0.458182 0.750000 0.495185
#
# Coordination Sequence:
#
# PCOD8244750 Si02
#       7
#     8   8   8   8   8   8   8
#     4   8  14  27  48  71  95 126 165 210 260 311
#     4   9  18  32  50  73 100 130 167 212 257 300
#     4   8  14  26  46  71  97 127 164 207 258 312
#     4  10  21  36  53  74 103 139 174 206 245 297
#     4   9  19  35  54  78 107 138 172 207 243 290
#     4  10  21  35  51  73 100 131 170 216 262 305
#     4   9  18  34  57  83 109 136 166 204 250 294
#
# _framework density 19.096867
#
# number of rings (size 3 to 8) (size 9 to 14) (size 15 to 20)
#    0.000    3.000    0.000    1.286    0.000    4.000 
#    0.000    9.286    0.000    0.000    0.000    4.000 
#    0.000    0.000    0.000    0.000    0.000    0.000 
#
# Total GULP energy -694345.093972 kJ/mol
# GULP energy per Si atom -12399.019535 kJ/mol
# Density = 1.905340 g / cm^3
# Si number density = 19.096867 Si / 1000 Ang^3
#
#
#
# Elastic Constant Matrix: (Units=GPa)
#
#
# Indices 1 2 3 4 5 6 
#
# 1 80.7336 32.2053 52.9748 0.0000 0.0000 0.0000
# 2 32.2053 63.9217 30.6670 0.0000 0.0000 0.0000
# 3 52.9748 30.6670 126.9694 0.0000 0.0000 0.0000
# 4 0.0000 0.0000 0.0000 19.1393 0.0000 0.0000
# 5 0.0000 0.0000 0.0000 0.0000 29.6548 0.0000
# 6 0.0000 0.0000 0.0000 0.0000 0.0000 22.6600
#
#
#
# Elastic Compliance Matrix: (Units=1/GPa)
#
#
# Indices 1 2 3 4 5 6 
#
# 1 0.019244 -0.006609 -0.006433 0.000000 0.000000 0.000000
# 2 -0.006609 0.019965 -0.002064 0.000000 0.000000 0.000000
# 3 -0.006433 -0.002064 0.011058 0.000000 0.000000 0.000000
# 4 0.000000 0.000000 0.000000 0.052249 0.000000 0.000000
# 5 0.000000 0.000000 0.000000 0.000000 0.033721 0.000000
# 6 0.000000 0.000000 0.000000 0.000000 0.000000 0.044131
#
#
# Mechanical properties :
#
#
# Convention : Reuss Voigt Hill
#
# Bulk Modulus (GPa) = 49.86578 55.92431 52.89505
# Shear Modulus (GPa) = 23.01339 24.67600 23.84470
#
# Velocity S-wave (km/s) = 3.47520 3.59855 3.53741
# Velocity P-wave (km/s) = 6.50165 6.82746 6.66654
#
# Compressibility (1/GPa) = 0.02005383
#
# Stress axis : x y z
#
# Youngs Moduli (GPa) = 51.96466 50.08876 90.42898
#
# Poissons Ratio (x) = 0.33106 0.58170
# Poissons Ratio (y) = 0.34346 0.18669
# Poissons Ratio (z) = 0.33427 0.10341
#
# Static dielectric constant tensor:
#      x y z
#    x 3.563180 0.000000 0.000000 
#    y 0.000000 3.335070 0.000000 
#    z 0.000000 0.000000 3.615920 
# 
# 
# High freq. dielectric constant tensor:
#      x y z
#    x 1.738690 0.000000 0.000000 
#    y 0.000000 1.732320 0.000000 
#    z 0.000000 0.000000 1.739410 
# 
# From -- ./inp_files/29036.got.cif
#   From: 2010.03.12/outbox.cif.g09.slc.cpg/sg59_15_cif.got.tgz:29036.got - 2010.04.16 16:29:54.
