data_PCOD8244797
_publ_section_title
;
Structure prediction by ZEFSAII (Michael W. Deem and Ramdas Pophale) SiO2 
 PCOD8244797
Probable space group: P M M N
;
_chemical_formula_sum "Si O2"
_cell_formula_units_Z 40
_cell_length_a 9.319351
_cell_length_b 9.415629
_cell_length_c 25.280856
_cell_angle_alpha 90.000000
_cell_angle_beta 90.000000
_cell_angle_gamma 90.000000
_cell_volume 2218.333215
_symmetry_space_group_name_H-M "P M M N"
_symmetry_group_IT_number 59
_space_group.IT_coordinate_system_code '2'
_symmetry_cell_setting 'orthorhombic'
loop_
_space_group_symop_operation_xyz
x,y,z
1/2-x,1/2-y,z
1/2+x,-y,-z
-x,1/2+y,-z
-x,-y,-z
1/2+x,1/2+y,-z
1/2-x,y,z
x,1/2-y,z
loop_
_atom_site_type_symbol
_atom_site_label
_atom_site_fract_x
_atom_site_fract_y
_atom_site_fract_z
Si Si1 0.919421 0.411016 0.338269
Si Si2 0.416332 0.583795 0.955353
Si Si3 0.584899 0.585856 0.850714
Si Si4 0.917117 0.414807 0.747827
Si Si5 0.912630 0.414316 0.457543
O O1 0.750000 0.431552 0.333079
O O2 0.961618 0.250000 0.322316
O O3 0.970205 0.441927 0.398220
O O4 0.997626 0.522843 0.301338
O O5 0.250000 0.539104 0.955264
O O6 0.435575 0.750000 0.966528
O O7 0.484679 0.541665 0.899323
O O8 0.500000 0.500000 0.000000
O O9 0.750000 0.553830 0.865961
O O10 0.563796 0.750000 0.835473
O O11 0.533771 0.492702 0.801272
O O12 0.750000 0.440902 0.737361
O O13 0.954679 0.250000 0.753764
O O14 0.750000 0.466754 0.461142
O O15 0.925311 0.250000 0.471896
O O16 0.000000 0.500000 0.500000
#
# Coordination Sequence:
#
# PCOD8244797 Si02
#       5
#     8   8   8   8   8
#     4   9  19  36  55  74 100 136 175 213 254 303
#     4  10  21  36  55  80 108 138 173 213 257 304
#     4   9  18  34  54  74 101 139 178 213 251 300
#     4  10  21  35  52  78 109 137 168 210 259 307
#     4   9  19  35  53  75 103 134 170 212 257 305
#
# _framework density 18.031555000000001
#
# number of rings (size 3 to 8) (size 9 to 14) (size 15 to 20)
#    0.000    2.600    0.000    2.400    0.000    6.400 
#    0.000   10.000    0.000    0.000    0.000    0.000 
#    0.000    0.000    0.000    0.000    0.000    0.000 
#
# Total GULP energy -496066.168119 kJ/mol
# GULP energy per Si atom -12401.654203 kJ/mol
# Density = 1.799051 g / cm^3
# Si number density = 18.031555 Si / 1000 Ang^3
#
#
#
# Elastic Constant Matrix: (Units=GPa)
#
#
# Indices 1 2 3 4 5 6 
#
# 1 80.6588 47.7681 70.8912 0.0000 0.0000 0.0000
# 2 47.7681 85.3750 78.0183 0.0000 0.0000 0.0000
# 3 70.8912 78.0183 143.4890 0.0000 0.0000 0.0000
# 4 0.0000 0.0000 0.0000 40.9681 0.0000 0.0000
# 5 0.0000 0.0000 0.0000 0.0000 38.3973 0.0000
# 6 0.0000 0.0000 0.0000 0.0000 0.0000 31.9487
#
#
#
# Elastic Compliance Matrix: (Units=1/GPa)
#
#
# Indices 1 2 3 4 5 6 
#
# 1 0.022907 -0.004918 -0.008643 0.000000 0.000000 0.000000
# 2 -0.004918 0.024336 -0.010802 0.000000 0.000000 0.000000
# 3 -0.008643 -0.010802 0.017113 0.000000 0.000000 0.000000
# 4 0.000000 0.000000 0.000000 0.024409 0.000000 0.000000
# 5 0.000000 0.000000 0.000000 0.000000 0.026043 0.000000
# 6 0.000000 0.000000 0.000000 0.000000 0.000000 0.031300
#
#
# Mechanical properties :
#
#
# Convention : Reuss Voigt Hill
#
# Bulk Modulus (GPa) = 63.98487 78.09753 71.04120
# Shear Modulus (GPa) = 24.99420 29.78584 27.39002
#
# Velocity S-wave (km/s) = 3.72712 4.06873 3.90167
# Velocity P-wave (km/s) = 7.35418 8.09187 7.73183
#
# Compressibility (1/GPa) = 0.01562869
#
# Stress axis : x y z
#
# Youngs Moduli (GPa) = 43.65455 41.09069 58.43586
#
# Poissons Ratio (x) = 0.20210 0.50507
# Poissons Ratio (y) = 0.21471 0.63124
# Poissons Ratio (z) = 0.37731 0.44387
#
# Static dielectric constant tensor:
#      x y z
#    x 3.312560 0.000000 0.000000 
#    y 0.000000 3.296120 0.000000 
#    z 0.000000 0.000000 3.366550 
# 
# 
# High freq. dielectric constant tensor:
#      x y z
#    x 1.695770 0.000000 0.000000 
#    y 0.000000 1.696550 0.000000 
#    z 0.000000 0.000000 1.707370 
# 
# From -- ./inp_files/31140.got.cif
#   From: 2010.03.12/outbox.cif.g09.slc.cpg/sg59_16_cif.got.tgz:31140.got - 2010.04.16 16:29:54.
