data_PCOD8244409
_publ_section_title
;
Structure prediction by ZEFSAII (Michael W. Deem and Ramdas Pophale) SiO2 
 PCOD8244409
Probable space group: P M M N
;
_chemical_formula_sum "Si O2"
_cell_formula_units_Z 48
_cell_length_a 9.225621
_cell_length_b 17.625151
_cell_length_c 15.883636
_cell_angle_alpha 90.000000
_cell_angle_beta 90.000000
_cell_angle_gamma 90.000000
_cell_volume 2582.726280
_symmetry_space_group_name_H-M "P M M N"
_symmetry_group_IT_number 59
_space_group.IT_coordinate_system_code '2'
_symmetry_cell_setting 'orthorhombic'
loop_
_space_group_symop_operation_xyz
x,y,z
1/2-x,1/2-y,z
1/2+x,-y,-z
-x,1/2+y,-z
-x,-y,-z
1/2+x,1/2+y,-z
1/2-x,y,z
x,1/2-y,z
loop_
_atom_site_type_symbol
_atom_site_label
_atom_site_fract_x
_atom_site_fract_y
_atom_site_fract_z
Si Si1 0.580263 0.614187 0.888917
Si Si2 0.915279 0.613480 0.523010
Si Si3 0.920136 0.045667 0.813425
Si Si4 0.916670 0.250000 0.197900
Si Si5 0.416216 0.750000 0.603650
Si Si6 0.085304 0.957786 0.379901
Si Si7 0.919162 0.662743 0.075379
O O1 0.750000 0.627490 0.871080
O O2 0.529454 0.530648 0.860957
O O3 0.492662 0.674948 0.835751
O O4 0.542783 0.623996 0.986708
O O5 0.750000 0.640093 0.511957
O O6 0.927536 0.541330 0.582842
O O7 0.008075 0.676737 0.567386
O O8 0.979985 0.598207 0.430500
O O9 0.750000 0.057136 0.823918
O O10 0.966380 0.039659 0.716310
O O11 0.997389 0.118836 0.851713
O O12 0.750000 0.250000 0.168855
O O13 0.932651 0.250000 0.297115
O O14 0.250000 0.750000 0.575187
O O15 0.250000 0.927874 0.387454
O O16 0.750000 0.657414 0.094734
O O17 0.971026 0.750000 0.073821
#
# Coordination Sequence:
#
# PCOD8244409 Si02
#       7
#     8   8   8   4   4   8   8
#     4  10  20  38  60  82 115 153 188 231 287 340
#     4  10  20  36  60  84 109 147 190 228 274 338
#     4  10  21  36  59  87 111 148 195 234 278 337
#     4  11  23  35  55  88 119 148 187 233 284 337
#     4  11  23  37  53  82 119 148 177 227 286 333
#     4   9  19  37  57  82 114 146 184 231 283 331
#     4  10  21  38  57  80 114 155 191 233 287 331
#
# _framework density 18.585013
#
# number of rings (size 3 to 8) (size 9 to 14) (size 15 to 20)
#    0.000    2.000    0.833    2.500    0.000    5.667 
#    1.500    0.000    0.000    0.000    0.000    0.000 
#    0.000    0.000    0.000    0.000    0.000    0.000 
#
# Total GULP energy -595387.680007 kJ/mol
# GULP energy per Si atom -12403.910000 kJ/mol
# Density = 1.854271 g / cm^3
# Si number density = 18.585013 Si / 1000 Ang^3
#
#
#
# Elastic Constant Matrix: (Units=GPa)
#
#
# Indices 1 2 3 4 5 6 
#
# 1 88.5765 42.4632 54.5726 0.0000 0.0000 0.0000
# 2 42.4632 65.3311 50.0750 0.0000 0.0000 0.0000
# 3 54.5726 50.0750 125.0646 0.0000 0.0000 0.0000
# 4 0.0000 0.0000 0.0000 -23.8136 0.0000 0.0000
# 5 0.0000 0.0000 0.0000 0.0000 28.1650 0.0000
# 6 0.0000 0.0000 0.0000 0.0000 0.0000 35.6204
#
#
#
# Elastic Compliance Matrix: (Units=1/GPa)
#
#
# Indices 1 2 3 4 5 6 
#
# 1 0.018057 -0.008220 -0.004588 0.000000 0.000000 0.000000
# 2 -0.008220 0.025826 -0.006754 0.000000 0.000000 0.000000
# 3 -0.004588 -0.006754 0.012702 0.000000 0.000000 0.000000
# 4 0.000000 0.000000 0.000000 -0.041993 0.000000 0.000000
# 5 0.000000 0.000000 0.000000 0.000000 0.035505 0.000000
# 6 0.000000 0.000000 0.000000 0.000000 0.000000 0.028074
#
#
# Mechanical properties :
#
#
# Convention : Reuss Voigt Hill
#
# Bulk Modulus (GPa) = 57.26846 63.68820 60.47833
# Shear Modulus (GPa) = 40.61250 16.78513 28.69882
#
# Velocity S-wave (km/s) = 4.67971 3.00851 3.93388
# Velocity P-wave (km/s) = 7.75118 6.81257 7.29699
#
# Compressibility (1/GPa) = 0.01746162
#
# Stress axis : x y z
#
# Youngs Moduli (GPa) = 55.38022 38.72081 78.72729
#
# Poissons Ratio (x) = 0.31828 0.36121
# Poissons Ratio (y) = 0.45521 0.53171
# Poissons Ratio (z) = 0.25409 0.26151
#
# Static dielectric constant tensor:
#      x y z
#    x 3.481500 0.000000 0.000000 
#    y 0.000000 3.481860 0.000000 
#    z 0.000000 0.000000 3.484240 
# 
# 
# High freq. dielectric constant tensor:
#      x y z
#    x 1.722460 0.000000 0.000000 
#    y 0.000000 1.723580 0.000000 
#    z 0.000000 0.000000 1.729360 
# 
# From -- ./inp_files/20508.got.cif
#   From: 2010.03.12/outbox.cif.g09.slc.cpg/sg59_11_cif.got.tgz:20508.got - 2010.04.16 16:29:54.
