data_PCOD8244779
_publ_section_title
;
Structure prediction by ZEFSAII (Michael W. Deem and Ramdas Pophale) SiO2 
 PCOD8244779
Probable space group: P M M N
;
_chemical_formula_sum "Si O2"
_cell_formula_units_Z 56
_cell_length_a 14.350003
_cell_length_b 9.476354
_cell_length_c 21.560535
_cell_angle_alpha 90.000000
_cell_angle_beta 90.000000
_cell_angle_gamma 90.000000
_cell_volume 2931.924624
_symmetry_space_group_name_H-M "P M M N"
_symmetry_group_IT_number 59
_space_group.IT_coordinate_system_code '2'
_symmetry_cell_setting 'orthorhombic'
loop_
_space_group_symop_operation_xyz
x,y,z
1/2-x,1/2-y,z
1/2+x,-y,-z
-x,1/2+y,-z
-x,-y,-z
1/2+x,1/2+y,-z
1/2-x,y,z
x,1/2-y,z
loop_
_atom_site_type_symbol
_atom_site_label
_atom_site_fract_x
_atom_site_fract_y
_atom_site_fract_z
Si Si1 0.857785 0.413106 0.837930
Si Si2 0.995560 0.412676 0.588991
Si Si3 0.993908 0.412503 0.729480
Si Si4 0.642569 0.084640 0.481095
Si Si5 0.143796 0.584493 0.795009
Si Si6 0.639105 0.909452 0.954634
Si Si7 0.139360 0.593115 0.932913
O O1 0.750000 0.446101 0.826010
O O2 0.873219 0.250000 0.855934
O O3 0.897445 0.508127 0.894072
O O4 0.909597 0.455616 0.774692
O O5 0.023423 0.250000 0.579741
O O6 0.963487 0.444406 0.659126
O O7 0.087251 0.503571 0.573009
O O8 0.907102 0.452682 0.546347
O O9 0.020654 0.250000 0.738646
O O10 0.084747 0.502845 0.744243
O O11 0.750000 0.033818 0.483817
O O12 0.637230 0.250000 0.466507
O O13 0.250000 0.538512 0.785084
O O14 0.131489 0.750000 0.784819
O O15 0.109629 0.542015 0.864288
O O16 0.750000 0.912881 0.956518
O O17 0.601109 0.750000 0.952474
O O18 0.598641 0.985376 0.016172
O O19 0.250000 0.599796 0.936144
O O20 0.099673 0.750000 0.946387
#
# Coordination Sequence:
#
# PCOD8244779 Si02
#       7
#     8   8   8   8   8   8   8
#     4   9  18  33  51  70  96 132 171 209 252 305
#     4   9  19  35  53  77 109 138 166 206 252 293
#     4  10  21  35  52  76 104 135 171 209 250 296
#     4   9  18  34  57  82 106 135 171 207 243 289
#     4   9  19  35  53  73  99 134 173 211 255 307
#     4   9  16  26  44  71  98 124 160 209 262 309
#     4   8  14  27  47  68  91 123 164 208 255 306
#
# _framework density 19.100082
#
# number of rings (size 3 to 8) (size 9 to 14) (size 15 to 20)
#    0.000    3.000    0.000    1.286    0.000    5.143 
#    0.000    7.857    0.000    0.000    0.000    4.000 
#    0.000    0.000    0.000    0.000    0.000    0.000 
#
# Total GULP energy -694332.799825 kJ/mol
# GULP energy per Si atom -12398.799997 kJ/mol
# Density = 1.905661 g / cm^3
# Si number density = 19.100082 Si / 1000 Ang^3
#
#
#
# Elastic Constant Matrix: (Units=GPa)
#
#
# Indices 1 2 3 4 5 6 
#
# 1 50.8799 8.8798 0.1636 0.0000 0.0000 0.0000
# 2 8.8798 55.2080 25.8112 0.0000 0.0000 0.0000
# 3 0.1636 25.8112 82.2536 0.0000 0.0000 0.0000
# 4 0.0000 0.0000 0.0000 30.4089 0.0000 0.0000
# 5 0.0000 0.0000 0.0000 0.0000 43.8479 0.0000
# 6 0.0000 0.0000 0.0000 0.0000 0.0000 17.5451
#
#
#
# Elastic Compliance Matrix: (Units=1/GPa)
#
#
# Indices 1 2 3 4 5 6 
#
# 1 0.020315 -0.003807 0.001154 0.000000 0.000000 0.000000
# 2 -0.003807 0.021941 -0.006878 0.000000 0.000000 0.000000
# 3 0.001154 -0.006878 0.014313 0.000000 0.000000 0.000000
# 4 0.000000 0.000000 0.000000 0.032885 0.000000 0.000000
# 5 0.000000 0.000000 0.000000 0.000000 0.022806 0.000000
# 6 0.000000 0.000000 0.000000 0.000000 0.000000 0.056996
#
#
# Mechanical properties :
#
#
# Convention : Reuss Voigt Hill
#
# Bulk Modulus (GPa) = 26.66061 28.67231 27.66646
# Shear Modulus (GPa) = 24.89788 28.59283 26.74535
#
# Velocity S-wave (km/s) = 3.61439 3.87331 3.74608
# Velocity P-wave (km/s) = 5.60420 5.92010 5.76431
#
# Compressibility (1/GPa) = 0.03750852
#
# Stress axis : x y z
#
# Youngs Moduli (GPa) = 49.22501 45.57652 69.86453
#
# Poissons Ratio (x) = 0.17352 -0.08064
# Poissons Ratio (y) = 0.18741 0.48050
# Poissons Ratio (z) = -0.05682 0.31346
#
# Static dielectric constant tensor:
#      x y z
#    x 3.317110 0.000000 0.000000 
#    y 0.000000 3.514770 0.000000 
#    z 0.000000 0.000000 3.573560 
# 
# 
# High freq. dielectric constant tensor:
#      x y z
#    x 1.734640 0.000000 0.000000 
#    y 0.000000 1.736400 0.000000 
#    z 0.000000 0.000000 1.740790 
# 
# From -- ./inp_files/30323.got.cif
#   From: 2010.03.12/outbox.cif.g09.slc.cpg/sg59_16_cif.got.tgz:30323.got - 2010.04.16 16:29:54.
