data_PCOD8244137
_publ_section_title
;
Structure prediction by ZEFSAII (Michael W. Deem and Ramdas Pophale) SiO2 
 PCOD8244137
Probable space group: P M M N
;
_chemical_formula_sum "Si O2"
_cell_formula_units_Z 56
_cell_length_a 15.117448
_cell_length_b 8.952052
_cell_length_c 21.988182
_cell_angle_alpha 90.000000
_cell_angle_beta 90.000000
_cell_angle_gamma 90.000000
_cell_volume 2975.708618
_symmetry_space_group_name_H-M "P M M N"
_symmetry_group_IT_number 59
_space_group.IT_coordinate_system_code '2'
_symmetry_cell_setting 'orthorhombic'
loop_
_space_group_symop_operation_xyz
x,y,z
1/2-x,1/2-y,z
1/2+x,-y,-z
-x,1/2+y,-z
-x,-y,-z
1/2+x,1/2+y,-z
1/2-x,y,z
x,1/2-y,z
loop_
_atom_site_type_symbol
_atom_site_label
_atom_site_fract_x
_atom_site_fract_y
_atom_site_fract_z
Si Si1 0.645140 0.917397 0.502987
Si Si2 0.496248 0.074088 0.291146
Si Si3 0.071630 0.574286 0.181487
Si Si4 0.927244 0.425765 0.958838
Si Si5 0.853073 0.074331 0.625335
Si Si6 0.149050 0.575821 0.618038
Si Si7 0.750000 0.583388 0.960153
Si Si8 0.750000 0.917064 0.816384
O O1 0.750000 0.915903 0.500615
O O2 0.606872 0.750000 0.509310
O O3 0.613310 0.014921 0.560036
O O4 0.610408 0.990020 0.440568
O O5 0.483347 0.250000 0.285571
O O6 0.587283 0.032953 0.325207
O O7 0.503340 0.001540 0.223723
O O8 0.410670 0.005774 0.323701
O O9 0.073476 0.750000 0.191756
O O10 0.053251 0.533416 0.111385
O O11 0.164550 0.508019 0.205008
O O12 0.925529 0.250000 0.968922
O O13 0.835069 0.492563 0.982227
O O14 0.000000 0.500000 0.000000
O O15 0.750000 0.034161 0.636207
O O16 0.869335 0.250000 0.627936
O O17 0.250000 0.528554 0.633659
O O18 0.143978 0.750000 0.602733
O O19 0.750000 0.750000 0.988777
O O20 0.750000 0.594166 0.888351
O O21 0.750000 0.750000 0.788086
#
# Coordination Sequence:
#
# PCOD8244137 Si02
#       8
#     8   8   8   8   8   8   4   4
#     4   9  17  31  53  79 104 132 172 221 269 320
#     4  11  23  36  54  79 106 140 181 225 269 323
#     4  10  21  36  54  79 113 147 182 221 269 324
#     4  10  20  35  58  85 114 150 188 229 275 325
#     4  10  21  36  53  75 108 146 177 213 266 324
#     4   9  19  37  58  77  99 132 177 227 277 324
#     4   9  17  31  53  83 115 145 181 224 267 318
#     4   9  17  31  53  79 107 143 181 216 257 310
#
# _framework density 18.819049
#
# number of rings (size 3 to 8) (size 9 to 14) (size 15 to 20)
#    0.000    2.286    0.000    2.571    1.000    7.714 
#    0.000    0.000    1.571    0.000    0.000    0.000 
#    0.000    0.000    0.000    0.000    0.000    0.000 
#
# Total GULP energy -694441.085654 kJ/mol
# GULP energy per Si atom -12400.733672 kJ/mol
# Density = 1.877622 g / cm^3
# Si number density = 18.819049 Si / 1000 Ang^3
#
#
#
# Elastic Constant Matrix: (Units=GPa)
#
#
# Indices 1 2 3 4 5 6 
#
# 1 90.6807 50.8586 59.5566 0.0000 0.0000 0.0000
# 2 50.8586 112.3288 59.4560 0.0000 0.0000 0.0000
# 3 59.5566 59.4560 101.2675 0.0000 0.0000 0.0000
# 4 0.0000 0.0000 0.0000 34.5052 0.0000 0.0000
# 5 0.0000 0.0000 0.0000 0.0000 29.5895 0.0000
# 6 0.0000 0.0000 0.0000 0.0000 0.0000 27.4636
#
#
#
# Elastic Compliance Matrix: (Units=1/GPa)
#
#
# Indices 1 2 3 4 5 6 
#
# 1 0.019087 -0.003918 -0.008925 0.000000 0.000000 0.000000
# 2 -0.003918 0.013721 -0.005751 0.000000 0.000000 0.000000
# 3 -0.008925 -0.005751 0.018500 0.000000 0.000000 0.000000
# 4 0.000000 0.000000 0.000000 0.028981 0.000000 0.000000
# 5 0.000000 0.000000 0.000000 0.000000 0.033796 0.000000
# 6 0.000000 0.000000 0.000000 0.000000 0.000000 0.036412
#
#
# Mechanical properties :
#
#
# Convention : Reuss Voigt Hill
#
# Bulk Modulus (GPa) = 70.82480 71.55770 71.19125
# Shear Modulus (GPa) = 25.98874 27.27206 26.63040
#
# Velocity S-wave (km/s) = 3.72019 3.81093 3.76583
# Velocity P-wave (km/s) = 7.49462 7.58096 7.53791
#
# Compressibility (1/GPa) = 0.01411935
#
# Stress axis : x y z
#
# Youngs Moduli (GPa) = 52.39277 72.88333 54.05279
#
# Poissons Ratio (x) = 0.28554 0.48241
# Poissons Ratio (y) = 0.20526 0.31088
# Poissons Ratio (z) = 0.46760 0.41919
#
# Static dielectric constant tensor:
#      x y z
#    x 3.419940 0.000000 0.000000 
#    y 0.000000 3.641120 0.000000 
#    z 0.000000 0.000000 3.426230 
# 
# 
# High freq. dielectric constant tensor:
#      x y z
#    x 1.715480 0.000000 0.000000 
#    y 0.000000 1.745970 0.000000 
#    z 0.000000 0.000000 1.719050 
# 
# From -- ./inp_files/30428.got.cif
#   From: 2010.03.12/outbox.cif.g09.slc.cpg/sg59_16_cif.got.tgz:30428.got - 2010.04.16 16:29:54.
