data_PCOD8244958
_publ_section_title
;
Structure prediction by ZEFSAII (Michael W. Deem and Ramdas Pophale) SiO2 
 PCOD8244958
Probable space group: P M M N
;
_chemical_formula_sum "Si O2"
_cell_formula_units_Z 48
_cell_length_a 9.105279
_cell_length_b 9.025166
_cell_length_c 30.449071
_cell_angle_alpha 90.000000
_cell_angle_beta 90.000000
_cell_angle_gamma 90.000000
_cell_volume 2502.202786
_symmetry_space_group_name_H-M "P M M N"
_symmetry_group_IT_number 59
_space_group.IT_coordinate_system_code '2'
_symmetry_cell_setting 'orthorhombic'
loop_
_space_group_symop_operation_xyz
x,y,z
1/2-x,1/2-y,z
1/2+x,-y,-z
-x,1/2+y,-z
-x,-y,-z
1/2+x,1/2+y,-z
1/2-x,y,z
x,1/2-y,z
loop_
_atom_site_type_symbol
_atom_site_label
_atom_site_fract_x
_atom_site_fract_y
_atom_site_fract_z
Si Si1 0.420548 0.920493 0.872808
Si Si2 0.419420 0.921881 0.303280
Si Si3 0.921374 0.424217 0.540601
Si Si4 0.921582 0.083933 0.797347
Si Si5 0.421448 0.576872 0.620695
Si Si6 0.577526 0.921065 0.040004
O O1 0.250000 0.952290 0.866079
O O2 0.454339 0.750000 0.882222
O O3 0.499103 0.967596 0.828303
O O4 0.481738 0.011857 0.914312
O O5 0.250000 0.958511 0.314013
O O6 0.451150 0.750000 0.313688
O O7 0.455665 0.958384 0.252834
O O8 0.525366 0.025823 0.331495
O O9 0.750000 0.462871 0.538935
O O10 0.949072 0.250000 0.538073
O O11 0.000000 0.500000 0.500000
O O12 0.987741 0.485004 0.585387
O O13 0.750000 0.075390 0.806520
O O14 0.979111 0.250000 0.807194
O O15 0.250000 0.541687 0.615238
O O16 0.453292 0.750000 0.614393
O O17 0.750000 0.948668 0.035484
O O18 0.535005 0.750000 0.039209
O O19 0.500000 0.000000 0.000000
#
# Coordination Sequence:
#
# PCOD8244958 Si02
#       6
#     8   8   8   8   8   8
#     4  10  21  36  54  78 109 143 179 221 269 321
#     4   9  19  37  59  82 109 143 185 230 275 325
#     4  11  24  41  62  88 116 147 186 230 275 326
#     4   9  19  36  57  81 109 142 182 227 273 323
#     4  11  24  39  56  83 117 150 187 229 273 326
#     4  10  21  37  57  80 106 139 179 221 268 323
#
# _framework density 19.183098000000001
#
# number of rings (size 3 to 8) (size 9 to 14) (size 15 to 20)
#    0.000    2.000    0.000    4.000    0.000   11.333 
#    0.000    5.000    0.000    0.000    0.000    0.000 
#    0.000    0.000    0.000    0.000    0.000    0.000 
#
# Total GULP energy -595401.051429 kJ/mol
# GULP energy per Si atom -12404.188571 kJ/mol
# Density = 1.913944 g / cm^3
# Si number density = 19.183098 Si / 1000 Ang^3
#
#
#
# Elastic Constant Matrix: (Units=GPa)
#
#
# Indices 1 2 3 4 5 6 
#
# 1 86.0236 70.2587 65.6225 0.0000 0.0000 0.0000
# 2 70.2587 98.7513 70.5956 0.0000 0.0000 0.0000
# 3 65.6225 70.5956 134.5053 0.0000 0.0000 0.0000
# 4 0.0000 0.0000 0.0000 42.8961 0.0000 0.0000
# 5 0.0000 0.0000 0.0000 0.0000 40.3684 0.0000
# 6 0.0000 0.0000 0.0000 0.0000 0.0000 34.5202
#
#
#
# Elastic Compliance Matrix: (Units=1/GPa)
#
#
# Indices 1 2 3 4 5 6 
#
# 1 0.030106 -0.017477 -0.005515 0.000000 0.000000 0.000000
# 2 -0.017477 0.026353 -0.005305 0.000000 0.000000 0.000000
# 3 -0.005515 -0.005305 0.012910 0.000000 0.000000 0.000000
# 4 0.000000 0.000000 0.000000 0.023312 0.000000 0.000000
# 5 0.000000 0.000000 0.000000 0.000000 0.024772 0.000000
# 6 0.000000 0.000000 0.000000 0.000000 0.000000 0.028969
#
#
# Mechanical properties :
#
#
# Convention : Reuss Voigt Hill
#
# Bulk Modulus (GPa) = 78.27939 81.35930 79.81935
# Shear Modulus (GPa) = 24.12271 31.07716 27.59993
#
# Velocity S-wave (km/s) = 3.54997 4.02932 3.79722
# Velocity P-wave (km/s) = 7.59592 8.00945 7.80543
#
# Compressibility (1/GPa) = 0.01277475
#
# Stress axis : x y z
#
# Youngs Moduli (GPa) = 33.21602 37.94639 77.46014
#
# Poissons Ratio (x) = 0.66317 0.42723
# Poissons Ratio (y) = 0.58050 0.41092
# Poissons Ratio (z) = 0.18320 0.20130
#
# Static dielectric constant tensor:
#      x y z
#    x 3.455740 0.000000 0.000000 
#    y 0.000000 3.213750 0.000000 
#    z 0.000000 0.000000 3.644270 
# 
# 
# High freq. dielectric constant tensor:
#      x y z
#    x 1.742670 0.000000 0.000000 
#    y 0.000000 1.754020 0.000000 
#    z 0.000000 0.000000 1.761170 
# 
# From -- ./inp_files/32887.got.cif
#   From: 2010.03.12/outbox.cif.g09.slc.cpg/sg59_17_cif.got.tgz:32887.got - 2010.04.16 16:29:54.
