data_PCOD8244640
_publ_section_title
;
Structure prediction by ZEFSAII (Michael W. Deem and Ramdas Pophale) SiO2 
 PCOD8244640
Probable space group: P M M N
;
_chemical_formula_sum "Si O2"
_cell_formula_units_Z 48
_cell_length_a 9.377903
_cell_length_b 8.662404
_cell_length_c 28.776214
_cell_angle_alpha 90.000000
_cell_angle_beta 90.000000
_cell_angle_gamma 90.000000
_cell_volume 2337.641052
_symmetry_space_group_name_H-M "P M M N"
_symmetry_group_IT_number 59
_space_group.IT_coordinate_system_code '2'
_symmetry_cell_setting 'orthorhombic'
loop_
_space_group_symop_operation_xyz
x,y,z
1/2-x,1/2-y,z
1/2+x,-y,-z
-x,1/2+y,-z
-x,-y,-z
1/2+x,1/2+y,-z
1/2-x,y,z
x,1/2-y,z
loop_
_atom_site_type_symbol
_atom_site_label
_atom_site_fract_x
_atom_site_fract_y
_atom_site_fract_z
Si Si1 0.250000 0.569836 0.932732
Si Si2 0.090239 0.071155 0.209799
Si Si3 0.084100 0.068899 0.372238
Si Si4 0.041263 0.069606 0.106107
Si Si5 0.083780 0.069770 0.711528
Si Si6 0.750000 0.068844 0.964447
Si Si7 0.413748 0.432225 0.542811
O O1 0.250000 0.750000 0.942628
O O2 0.378789 0.521993 0.899846
O O3 0.250000 0.491488 0.983972
O O4 0.250000 0.049594 0.230228
O O5 0.042864 0.250000 0.212590
O O6 0.091943 0.012994 0.156596
O O7 0.976464 0.968239 0.237508
O O8 0.250000 0.016449 0.372485
O O9 0.073122 0.250000 0.382182
O O10 0.011502 0.030754 0.323341
O O11 0.995048 0.978147 0.410644
O O12 0.073722 0.250000 0.100887
O O13 0.113272 0.983433 0.063708
O O14 0.250000 0.022393 0.708094
O O15 0.064887 0.250000 0.700438
O O16 0.750000 0.250000 0.968815
O O17 0.500000 0.500000 0.500000
O O18 0.250000 0.494216 0.543449
O O19 0.412369 0.250000 0.538145
#
# Coordination Sequence:
#
# PCOD8244640 Si02
#       7
#     4   8   8   8   8   4   8
#     4   9  20  35  57  85 113 147 193 239 286 345
#     4  10  21  38  61  87 111 145 196 243 287 349
#     4  11  24  42  65  94 126 162 209 258 303 360
#     4  10  20  38  60  82 111 150 193 238 287 346
#     4  11  25  42  61  89 123 157 194 241 300 363
#     4  11  21  35  55  85 117 149 189 235 288 349
#     4  11  24  41  63  94 131 171 217 265 313 367
#
# _framework density 20.533519999999999
#
# number of rings (size 3 to 8) (size 9 to 14) (size 15 to 20)
#    0.000    1.500    0.833    3.750    1.167   11.000 
#    0.000    1.250    0.000    0.000    0.000    0.000 
#    0.000    0.000    0.000    0.000    0.000    0.000 
#
# Total GULP energy -595197.036117 kJ/mol
# GULP energy per Si atom -12399.938252 kJ/mol
# Density = 2.048678 g / cm^3
# Si number density = 20.533520 Si / 1000 Ang^3
#
#
#
# Elastic Constant Matrix: (Units=GPa)
#
#
# Indices 1 2 3 4 5 6 
#
# 1 170.1494 35.9338 48.6239 0.0000 0.0000 0.0000
# 2 35.9338 49.6390 19.2762 0.0000 0.0000 0.0000
# 3 48.6239 19.2762 99.4491 0.0000 0.0000 0.0000
# 4 0.0000 0.0000 0.0000 34.2262 0.0000 0.0000
# 5 0.0000 0.0000 0.0000 0.0000 26.1966 0.0000
# 6 0.0000 0.0000 0.0000 0.0000 0.0000 34.1025
#
#
#
# Elastic Compliance Matrix: (Units=1/GPa)
#
#
# Indices 1 2 3 4 5 6 
#
# 1 0.007630 -0.004406 -0.002876 0.000000 0.000000 0.000000
# 2 -0.004406 0.024330 -0.002561 0.000000 0.000000 0.000000
# 3 -0.002876 -0.002561 0.011958 0.000000 0.000000 0.000000
# 4 0.000000 0.000000 0.000000 0.029217 0.000000 0.000000
# 5 0.000000 0.000000 0.000000 0.000000 0.038173 0.000000
# 6 0.000000 0.000000 0.000000 0.000000 0.000000 0.029323
#
#
# Mechanical properties :
#
#
# Convention : Reuss Voigt Hill
#
# Bulk Modulus (GPa) = 41.27177 58.54503 49.90840
# Shear Modulus (GPa) = 29.69190 33.26530 31.47860
#
# Velocity S-wave (km/s) = 3.80678 4.02935 3.91965
# Velocity P-wave (km/s) = 6.28216 7.08670 6.69652
#
# Compressibility (1/GPa) = 0.02422964
#
# Stress axis : x y z
#
# Youngs Moduli (GPa) = 131.06639 41.10183 83.62439
#
# Poissons Ratio (x) = 0.18110 0.24053
# Poissons Ratio (y) = 0.57751 0.21420
# Poissons Ratio (z) = 0.37700 0.10528
#
# Static dielectric constant tensor:
#      x y z
#    x 4.158880 0.000000 0.000000 
#    y 0.000000 -7.692100 0.000000 
#    z 0.000000 0.000000 4.063110 
# 
# 
# High freq. dielectric constant tensor:
#      x y z
#    x 1.821640 0.000000 0.000000 
#    y 0.000000 1.786580 0.000000 
#    z 0.000000 0.000000 1.815990 
# 
# From -- ./inp_files/32934.got.cif
#   From: 2010.03.12/outbox.cif.g09.slc.cpg/sg59_17_cif.got.tgz:32934.got - 2010.04.16 16:29:54.
