data_PCOD8244668
_publ_section_title
;
Structure prediction by ZEFSAII (Michael W. Deem and Ramdas Pophale) SiO2 
 PCOD8244668
Probable space group: P M M N
;
_chemical_formula_sum "Si O2"
_cell_formula_units_Z 64
_cell_length_a 22.276872
_cell_length_b 14.777340
_cell_length_c 9.197283
_cell_angle_alpha 90.000000
_cell_angle_beta 90.000000
_cell_angle_gamma 90.000000
_cell_volume 3027.680370
_symmetry_space_group_name_H-M "P M M N"
_symmetry_group_IT_number 59
_space_group.IT_coordinate_system_code '2'
_symmetry_cell_setting 'orthorhombic'
loop_
_space_group_symop_operation_xyz
x,y,z
1/2-x,1/2-y,z
1/2+x,-y,-z
-x,1/2+y,-z
-x,-y,-z
1/2+x,1/2+y,-z
1/2-x,y,z
x,1/2-y,z
loop_
_atom_site_type_symbol
_atom_site_label
_atom_site_fract_x
_atom_site_fract_y
_atom_site_fract_z
Si Si1 0.316429 0.472047 0.128154
Si Si2 0.978159 0.909380 0.682902
Si Si3 0.628186 0.645355 0.106439
Si Si4 0.385377 0.648305 0.181652
Si Si5 0.320191 0.451182 0.622700
Si Si6 0.648371 0.846917 0.636181
Si Si7 0.498776 0.352607 0.001789
Si Si8 0.582420 0.425151 0.525746
O O1 0.250000 0.470993 0.063979
O O2 0.337175 0.575703 0.125477
O O3 0.319899 0.434474 0.292315
O O4 0.355740 0.395571 0.050164
O O5 0.923504 0.840160 0.658104
O O6 0.994536 0.915881 0.854732
O O7 0.036918 0.879908 0.590521
O O8 0.954072 0.005232 0.626941
O O9 0.649922 0.750000 0.121594
O O10 0.659836 0.576471 0.216187
O O11 0.556339 0.638293 0.111721
O O12 0.364231 0.750000 0.140909
O O13 0.393658 0.647244 0.356899
O O14 0.444750 0.620692 0.094536
O O15 0.250000 0.479530 0.621659
O O16 0.334461 0.360341 0.532172
O O17 0.361600 0.532879 0.563015
O O18 0.674813 0.750000 0.687561
O O19 0.502727 0.250000 0.060554
#
# Coordination Sequence:
#
# PCOD8244668 Si02
#       8
#     8   8   8   8   8   8   8   8
#     4  12  25  42  64  91 125 169 215 260 309 372
#     4  10  20  38  63  93 130 164 203 255 322 388
#     4  11  24  41  64  98 135 170 204 248 313 388
#     4  11  25  44  66  94 123 162 219 275 325 372
#     4  11  24  41  60  89 129 171 216 252 303 374
#     4  11  22  38  63  95 129 162 202 253 310 381
#     4  10  22  39  63  94 126 162 204 257 317 379
#     4  10  23  39  61  97 122 167 212 262 321 375
#
# _framework density 21.138294999999999
#
# number of rings (size 3 to 8) (size 9 to 14) (size 15 to 20)
#    0.000    1.250    3.750    1.875    7.000    5.250 
#    0.000    0.000    0.000    0.000    0.000    0.000 
#    0.000    0.000    0.000    0.000    0.000    0.000 
#
# Total GULP energy -793246.681932 kJ/mol
# GULP energy per Si atom -12394.479405 kJ/mol
# Density = 2.109018 g / cm^3
# Si number density = 21.138295 Si / 1000 Ang^3
#
#
#
# Elastic Constant Matrix: (Units=GPa)
#
#
# Indices 1 2 3 4 5 6 
#
# 1 100.4427 37.6906 31.2934 0.0000 0.0000 0.0000
# 2 37.6906 87.7507 15.2882 0.0000 0.0000 0.0000
# 3 31.2934 15.2882 80.8593 0.0000 0.0000 0.0000
# 4 0.0000 0.0000 0.0000 25.0401 0.0000 0.0000
# 5 0.0000 0.0000 0.0000 0.0000 22.1199 0.0000
# 6 0.0000 0.0000 0.0000 0.0000 0.0000 13.9098
#
#
#
# Elastic Compliance Matrix: (Units=1/GPa)
#
#
# Indices 1 2 3 4 5 6 
#
# 1 0.013083 -0.004899 -0.004137 0.000000 0.000000 0.000000
# 2 -0.004899 0.013618 -0.000679 0.000000 0.000000 0.000000
# 3 -0.004137 -0.000679 0.014097 0.000000 0.000000 0.000000
# 4 0.000000 0.000000 0.000000 0.039936 0.000000 0.000000
# 5 0.000000 0.000000 0.000000 0.000000 0.045208 0.000000
# 6 0.000000 0.000000 0.000000 0.000000 0.000000 0.071892
#
#
# Mechanical properties :
#
#
# Convention : Reuss Voigt Hill
#
# Bulk Modulus (GPa) = 46.79782 48.62187 47.70985
# Shear Modulus (GPa) = 22.28302 24.53266 23.40784
#
# Velocity S-wave (km/s) = 3.25030 3.41042 3.33132
# Velocity P-wave (km/s) = 6.02269 6.20965 6.11688
#
# Compressibility (1/GPa) = 0.02136852
#
# Stress axis : x y z
#
# Youngs Moduli (GPa) = 76.43487 73.43071 70.93894
#
# Poissons Ratio (x) = 0.35971 0.29348
# Poissons Ratio (y) = 0.37443 0.04817
# Poissons Ratio (z) = 0.31622 0.04986
#
# Static dielectric constant tensor:
#      x y z
#    x 3.805860 0.000000 0.000000 
#    y 0.000000 3.533110 0.000000 
#    z 0.000000 0.000000 3.814230 
# 
# 
# High freq. dielectric constant tensor:
#      x y z
#    x 1.821850 0.000000 0.000000 
#    y 0.000000 1.811850 0.000000 
#    z 0.000000 0.000000 1.835020 
# 
# From -- ./inp_files/12188.got.cif
#   From: 2010.03.12/outbox.cif.g09.slc.cpg/sg59_7_cif.got.tgz:12188.got - 2010.04.16 16:29:54.
