data_PCOD8244524
_publ_section_title
;
Structure prediction by ZEFSAII (Michael W. Deem and Ramdas Pophale) SiO2 
 PCOD8244524
Probable space group: P M M N
;
_chemical_formula_sum "Si O2"
_cell_formula_units_Z 48
_cell_length_a 8.652365
_cell_length_b 16.352762
_cell_length_c 16.506795
_cell_angle_alpha 90.000000
_cell_angle_beta 90.000000
_cell_angle_gamma 90.000000
_cell_volume 2335.547507
_symmetry_space_group_name_H-M "P M M N"
_symmetry_group_IT_number 59
_space_group.IT_coordinate_system_code '2'
_symmetry_cell_setting 'orthorhombic'
loop_
_space_group_symop_operation_xyz
x,y,z
1/2-x,1/2-y,z
1/2+x,-y,-z
-x,1/2+y,-z
-x,-y,-z
1/2+x,1/2+y,-z
1/2-x,y,z
x,1/2-y,z
loop_
_atom_site_type_symbol
_atom_site_label
_atom_site_fract_x
_atom_site_fract_y
_atom_site_fract_z
Si Si1 0.927069 0.564406 0.216502
Si Si2 0.567438 0.159260 0.469534
Si Si3 0.931206 0.420765 0.955719
Si Si4 0.427841 0.250000 0.200641
Si Si5 0.929486 0.106940 0.298038
Si Si6 0.078216 0.846443 0.356292
Si Si7 0.431169 0.750000 0.972292
O O1 0.750000 0.571648 0.188736
O O2 0.964346 0.478867 0.257871
O O3 0.034965 0.575578 0.139233
O O4 0.963491 0.632267 0.283533
O O5 0.750000 0.166244 0.477757
O O6 0.498368 0.250000 0.453409
O O7 0.521677 0.102620 0.392993
O O8 0.509819 0.122449 0.556274
O O9 0.750000 0.423462 0.971723
O O10 0.000196 0.334192 0.989102
O O11 0.000000 0.500000 0.000000
O O12 0.250000 0.250000 0.173670
O O13 0.462884 0.329215 0.253105
O O14 0.535079 0.250000 0.122240
O O15 0.750000 0.132936 0.289428
O O16 0.250000 0.882821 0.339033
O O17 0.089445 0.750000 0.362926
O O18 0.250000 0.750000 0.988168
#
# Coordination Sequence:
#
# PCOD8244524 Si02
#       7
#     8   8   8   4   8   8   4
#     4  11  24  38  57  89 122 157 197 244 299 353
#     4   8  14  30  58  84 107 152 207 243 278 340
#     4  11  24  44  67  91 121 157 201 253 305 365
#     4  12  24  36  58  93 122 145 186 243 302 351
#     4  10  20  37  60  83 117 162 201 235 287 357
#     4   9  19  36  59  84 113 155 205 249 293 346
#     4  10  24  44  66  87 112 157 204 239 294 371
#
# _framework density 20.551926999999999
#
# number of rings (size 3 to 8) (size 9 to 14) (size 15 to 20)
#    0.000    2.000    0.833    3.750    1.167    7.667 
#    0.000    0.833    0.000    0.000    0.000    0.000 
#    0.000    0.000    0.000    0.000    0.000    0.000 
#
# Total GULP energy -595039.275054 kJ/mol
# GULP energy per Si atom -12396.651564 kJ/mol
# Density = 2.050515 g / cm^3
# Si number density = 20.551927 Si / 1000 Ang^3
#
#
#
# Elastic Constant Matrix: (Units=GPa)
#
#
# Indices 1 2 3 4 5 6 
#
# 1 35.5398 26.5474 13.7789 0.0000 0.0000 0.0000
# 2 26.5474 95.8527 54.7378 0.0000 0.0000 0.0000
# 3 13.7789 54.7378 156.6208 0.0000 0.0000 0.0000
# 4 0.0000 0.0000 0.0000 30.8882 0.0000 0.0000
# 5 0.0000 0.0000 0.0000 0.0000 28.2821 0.0000
# 6 0.0000 0.0000 0.0000 0.0000 0.0000 25.9171
#
#
#
# Elastic Compliance Matrix: (Units=1/GPa)
#
#
# Indices 1 2 3 4 5 6 
#
# 1 0.035496 -0.010054 0.000391 0.000000 0.000000 0.000000
# 2 -0.010054 0.015882 -0.004666 0.000000 0.000000 0.000000
# 3 0.000391 -0.004666 0.007981 0.000000 0.000000 0.000000
# 4 0.000000 0.000000 0.000000 0.032375 0.000000 0.000000
# 5 0.000000 0.000000 0.000000 0.000000 0.035358 0.000000
# 6 0.000000 0.000000 0.000000 0.000000 0.000000 0.038585
#
#
# Mechanical properties :
#
#
# Convention : Reuss Voigt Hill
#
# Bulk Modulus (GPa) = 32.57259 53.12684 42.84972
# Shear Modulus (GPa) = 24.44163 29.88077 27.16120
#
# Velocity S-wave (km/s) = 3.45231 3.81716 3.63931
# Velocity P-wave (km/s) = 5.63689 6.73304 6.20920
#
# Compressibility (1/GPa) = 0.03070066
#
# Stress axis : x y z
#
# Youngs Moduli (GPa) = 28.17202 62.96452 125.29436
#
# Poissons Ratio (x) = 0.63307 -0.04901
# Poissons Ratio (y) = 0.28325 0.58463
# Poissons Ratio (z) = -0.01102 0.29380
#
# Static dielectric constant tensor:
#      x y z
#    x 3.466710 0.000000 0.000000 
#    y 0.000000 3.675150 0.000000 
#    z 0.000000 0.000000 3.997120 
# 
# 
# High freq. dielectric constant tensor:
#      x y z
#    x 1.775650 0.000000 0.000000 
#    y 0.000000 1.799560 0.000000 
#    z 0.000000 0.000000 1.824670 
# 
# From -- ./inp_files/20532.got.cif
#   From: 2010.03.12/outbox.cif.g09.slc.cpg/sg59_11_cif.got.tgz:20532.got - 2010.04.16 16:29:54.
