data_PCOD8244049
_publ_section_title
;
Structure prediction by ZEFSAII (Michael W. Deem and Ramdas Pophale) SiO2 
 PCOD8244049
Probable space group: P M M N
;
_chemical_formula_sum "Si O2"
_cell_formula_units_Z 48
_cell_length_a 14.645120
_cell_length_b 8.816737
_cell_length_c 19.888381
_cell_angle_alpha 90.000000
_cell_angle_beta 90.000000
_cell_angle_gamma 90.000000
_cell_volume 2568.030940
_symmetry_space_group_name_H-M "P M M N"
_symmetry_group_IT_number 59
_space_group.IT_coordinate_system_code '2'
_symmetry_cell_setting 'orthorhombic'
loop_
_space_group_symop_operation_xyz
x,y,z
1/2-x,1/2-y,z
1/2+x,-y,-z
-x,1/2+y,-z
-x,-y,-z
1/2+x,1/2+y,-z
1/2-x,y,z
x,1/2-y,z
loop_
_atom_site_type_symbol
_atom_site_label
_atom_site_fract_x
_atom_site_fract_y
_atom_site_fract_z
Si Si1 0.931431 0.072595 0.050930
Si Si2 0.562516 0.429380 0.205732
Si Si3 0.750000 0.071183 0.483057
Si Si4 0.750000 0.429778 0.633836
Si Si5 0.750000 0.579802 0.211782
Si Si6 0.946682 0.430417 0.437871
Si Si7 0.445921 0.930393 0.315759
Si Si8 0.750000 0.581326 0.052524
O O1 0.933539 0.250000 0.042747
O O2 0.950967 0.025561 0.127900
O O3 0.835376 0.010842 0.025641
O O4 0.000000 0.000000 0.000000
O O5 0.560965 0.250000 0.217010
O O6 0.658970 0.491021 0.235057
O O7 0.478101 0.508275 0.243589
O O8 0.750000 0.250000 0.491549
O O9 0.750000 0.000915 0.558458
O O10 0.659603 0.019504 0.443002
O O11 0.750000 0.250000 0.630225
O O12 0.658498 0.485089 0.672196
O O13 0.750000 0.750000 0.242395
O O14 0.750000 0.587732 0.132219
O O15 0.957412 0.250000 0.438787
O O16 0.000000 0.500000 0.500000
O O17 0.986449 0.497475 0.369901
O O18 0.453644 0.750000 0.319197
O O19 0.750000 0.750000 0.021724
#
# Coordination Sequence:
#
# PCOD8244049 Si02
#       8
#     8   8   4   4   4   8   8   4
#     4  10  20  35  57  83 114 151 191 234 283 342
#     4  10  21  37  56  83 117 150 184 230 287 339
#     4   9  18  35  57  79 109 144 179 221 277 333
#     4   9  18  36  58  78 104 145 188 226 276 332
#     4   9  17  32  56  82 108 144 185 224 271 334
#     4  11  21  36  57  81 108 141 181 227 279 335
#     4  11  22  38  59  81 109 146 190 236 281 337
#     4   9  17  31  53  81 111 143 184 231 280 333
#
# _framework density 18.691362999999999
#
# number of rings (size 3 to 8) (size 9 to 14) (size 15 to 20)
#    0.000    2.000    1.667    2.500    0.000    4.667 
#    0.000    7.500    0.000    4.000    0.000    0.000 
#    0.000    0.000    0.000    0.000    0.000    0.000 
#
# Total GULP energy -595156.880932 kJ/mol
# GULP energy per Si atom -12399.101686 kJ/mol
# Density = 1.864882 g / cm^3
# Si number density = 18.691363 Si / 1000 Ang^3
#
#
#
# Elastic Constant Matrix: (Units=GPa)
#
#
# Indices 1 2 3 4 5 6 
#
# 1 186.5849 57.5272 77.3586 0.0000 0.0000 0.0000
# 2 57.5272 84.7943 47.1802 0.0000 0.0000 0.0000
# 3 77.3586 47.1802 86.6013 0.0000 0.0000 0.0000
# 4 0.0000 0.0000 0.0000 31.7150 0.0000 0.0000
# 5 0.0000 0.0000 0.0000 0.0000 45.8180 0.0000
# 6 0.0000 0.0000 0.0000 0.0000 0.0000 33.1237
#
#
#
# Elastic Compliance Matrix: (Units=1/GPa)
#
#
# Indices 1 2 3 4 5 6 
#
# 1 0.008812 -0.002294 -0.006622 0.000000 0.000000 0.000000
# 2 -0.002294 0.017520 -0.007496 0.000000 0.000000 0.000000
# 3 -0.006622 -0.007496 0.021546 0.000000 0.000000 0.000000
# 4 0.000000 0.000000 0.000000 0.031531 0.000000 0.000000
# 5 0.000000 0.000000 0.000000 0.000000 0.021825 0.000000
# 6 0.000000 0.000000 0.000000 0.000000 0.000000 0.030190
#
#
# Mechanical properties :
#
#
# Convention : Reuss Voigt Hill
#
# Bulk Modulus (GPa) = 66.42301 80.23470 73.32885
# Shear Modulus (GPa) = 29.53915 33.85898 31.69906
#
# Velocity S-wave (km/s) = 3.97969 4.26076 4.12262
# Velocity P-wave (km/s) = 7.53201 8.19907 7.87261
#
# Compressibility (1/GPa) = 0.01505502
#
# Stress axis : x y z
#
# Youngs Moduli (GPa) = 113.47822 57.07664 46.41203
#
# Poissons Ratio (x) = 0.13093 0.30734
# Poissons Ratio (y) = 0.26032 0.34790
# Poissons Ratio (z) = 0.75145 0.42784
#
# Static dielectric constant tensor:
#      x y z
#    x 3.729030 0.000000 0.000000 
#    y 0.000000 3.476030 0.000000 
#    z 0.000000 0.000000 3.338590 
# 
# 
# High freq. dielectric constant tensor:
#      x y z
#    x 1.736900 0.000000 0.000000 
#    y 0.000000 1.726780 0.000000 
#    z 0.000000 0.000000 1.708030 
# 
# From -- ./inp_files/27521.got.cif
#   From: 2010.03.12/outbox.cif.g09.slc.cpg/sg59_14_cif.got.tgz:27521.got - 2010.04.16 16:29:54.
