data_PCOD8244700
_publ_section_title
;
Structure prediction by ZEFSAII (Michael W. Deem and Ramdas Pophale) SiO2 
 PCOD8244700
Probable space group: P M M N
;
_chemical_formula_sum "Si O2"
_cell_formula_units_Z 56
_cell_length_a 14.338519
_cell_length_b 13.128724
_cell_length_c 17.663973
_cell_angle_alpha 90.000000
_cell_angle_beta 90.000000
_cell_angle_gamma 90.000000
_cell_volume 3325.180361
_symmetry_space_group_name_H-M "P M M N"
_symmetry_group_IT_number 59
_space_group.IT_coordinate_system_code '2'
_symmetry_cell_setting 'orthorhombic'
loop_
_space_group_symop_operation_xyz
x,y,z
1/2-x,1/2-y,z
1/2+x,-y,-z
-x,1/2+y,-z
-x,-y,-z
1/2+x,1/2+y,-z
1/2-x,y,z
x,1/2-y,z
loop_
_atom_site_type_symbol
_atom_site_label
_atom_site_fract_x
_atom_site_fract_y
_atom_site_fract_z
Si Si1 0.144343 0.136425 0.239563
Si Si2 0.987807 0.004795 0.676499
Si Si3 0.855107 0.367436 0.572181
Si Si4 0.356317 0.001585 0.094966
Si Si5 0.642784 0.366167 0.394591
Si Si6 0.501528 0.867732 0.172612
Si Si7 0.640858 0.635103 0.044007
O O1 0.250000 0.132240 0.268396
O O2 0.106884 0.250000 0.231230
O O3 0.084164 0.082923 0.303230
O O4 0.134056 0.087739 0.157732
O O5 0.937421 0.072125 0.613198
O O6 0.012136 0.072680 0.749164
O O7 0.081624 0.951375 0.647306
O O8 0.750000 0.404038 0.595298
O O9 0.865607 0.250000 0.595163
O O10 0.870005 0.382592 0.483507
O O11 0.250000 0.964640 0.085789
O O12 0.415662 0.904068 0.120095
O O13 0.394056 0.052869 0.017692
O O14 0.750000 0.384363 0.370996
O O15 0.613509 0.250000 0.372960
O O16 0.485193 0.750000 0.191728
O O17 0.594785 0.887947 0.124852
O O18 0.750000 0.623769 0.056158
O O19 0.615288 0.750000 0.016982
#
# Coordination Sequence:
#
# PCOD8244700 Si02
#       7
#     8   8   8   8   8   8   8
#     4   9  17  28  43  68  97 119 147 192 242 287
#     4  11  19  30  49  72  97 128 160 192 237 293
#     4   9  18  33  52  73  97 125 159 198 239 289
#     4   9  17  30  49  68  88 121 161 197 234 276
#     4   9  19  35  53  72  93 122 163 206 244 283
#     4  10  21  32  44  69 101 128 156 192 234 282
#     4   9  17  31  50  68  88 119 159 199 236 276
#
# _framework density 16.841191999999999
#
# number of rings (size 3 to 8) (size 9 to 14) (size 15 to 20)
#    0.000    2.571    0.000    3.429    0.000    3.143 
#    0.000    0.000    0.000    2.143    0.000    8.000 
#    0.000    0.000    0.000    0.000    0.000    0.000 
#
# Total GULP energy -694241.703323 kJ/mol
# GULP energy per Si atom -12397.173274 kJ/mol
# Density = 1.680286 g / cm^3
# Si number density = 16.841192 Si / 1000 Ang^3
#
#
#
# Elastic Constant Matrix: (Units=GPa)
#
#
# Indices 1 2 3 4 5 6 
#
# 1 82.1777 56.3985 51.2637 0.0000 0.0000 0.0000
# 2 56.3985 90.8555 46.6884 0.0000 0.0000 0.0000
# 3 51.2637 46.6884 74.1967 0.0000 0.0000 0.0000
# 4 0.0000 0.0000 0.0000 23.4463 0.0000 0.0000
# 5 0.0000 0.0000 0.0000 0.0000 28.2773 0.0000
# 6 0.0000 0.0000 0.0000 0.0000 0.0000 30.8865
#
#
#
# Elastic Compliance Matrix: (Units=1/GPa)
#
#
# Indices 1 2 3 4 5 6 
#
# 1 0.026825 -0.010534 -0.011905 0.000000 0.000000 0.000000
# 2 -0.010534 0.020403 -0.005561 0.000000 0.000000 0.000000
# 3 -0.011905 -0.005561 0.025202 0.000000 0.000000 0.000000
# 4 0.000000 0.000000 0.000000 0.042651 0.000000 0.000000
# 5 0.000000 0.000000 0.000000 0.000000 0.035364 0.000000
# 6 0.000000 0.000000 0.000000 0.000000 0.000000 0.032377
#
#
# Mechanical properties :
#
#
# Convention : Reuss Voigt Hill
#
# Bulk Modulus (GPa) = 60.86194 61.77013 61.31604
# Shear Modulus (GPa) = 20.46691 22.71397 21.59044
#
# Velocity S-wave (km/s) = 3.48988 3.67647 3.58439
# Velocity P-wave (km/s) = 7.24267 7.40132 7.32242
#
# Compressibility (1/GPa) = 0.01643063
#
# Stress axis : x y z
#
# Youngs Moduli (GPa) = 37.27911 49.01334 39.67886
#
# Poissons Ratio (x) = 0.51628 0.47239
# Poissons Ratio (y) = 0.39268 0.22064
# Poissons Ratio (z) = 0.44382 0.27254
#
# Static dielectric constant tensor:
#      x y z
#    x 3.240250 0.000000 0.000000 
#    y 0.000000 3.199570 0.000000 
#    z 0.000000 0.000000 3.073920 
# 
# 
# High freq. dielectric constant tensor:
#      x y z
#    x 1.647230 0.000000 0.000000 
#    y 0.000000 1.650340 0.000000 
#    z 0.000000 0.000000 1.645950 
# 
# From -- ./inp_files/22491.got.cif
#   From: 2010.03.12/outbox.cif.g09.slc.cpg/sg59_12_cif.got.tgz:22491.got - 2010.04.16 16:29:54.
