data_PCOD8244185
_publ_section_title
;
Structure prediction by ZEFSAII (Michael W. Deem and Ramdas Pophale) SiO2 
 PCOD8244185
Probable space group: P M M N
;
_chemical_formula_sum "Si O2"
_cell_formula_units_Z 64
_cell_length_a 9.125246
_cell_length_b 18.451436
_cell_length_c 19.794330
_cell_angle_alpha 90.000000
_cell_angle_beta 90.000000
_cell_angle_gamma 90.000000
_cell_volume 3332.848393
_symmetry_space_group_name_H-M "P M M N"
_symmetry_group_IT_number 59
_space_group.IT_coordinate_system_code '2'
_symmetry_cell_setting 'orthorhombic'
loop_
_space_group_symop_operation_xyz
x,y,z
1/2-x,1/2-y,z
1/2+x,-y,-z
-x,1/2+y,-z
-x,-y,-z
1/2+x,1/2+y,-z
1/2-x,y,z
x,1/2-y,z
loop_
_atom_site_type_symbol
_atom_site_label
_atom_site_fract_x
_atom_site_fract_y
_atom_site_fract_z
Si Si1 0.581347 0.914643 0.288815
Si Si2 0.079520 0.415903 0.933397
Si Si3 0.081250 0.919897 0.682386
Si Si4 0.579386 0.562037 0.912918
Si Si5 0.919482 0.332591 0.827076
Si Si6 0.919172 0.666216 0.425137
Si Si7 0.423086 0.167736 0.205725
Si Si8 0.076565 0.571565 0.527673
O O1 0.750000 0.895932 0.272230
O O2 0.477668 0.883295 0.231869
O O3 0.535999 0.880148 0.360016
O O4 0.552849 0.999835 0.290133
O O5 0.250000 0.416894 0.916496
O O6 0.012133 0.489180 0.902470
O O7 0.004529 0.348107 0.896695
O O8 0.048461 0.406420 0.012686
O O9 0.250000 0.898161 0.689400
O O10 0.030587 0.915482 0.604918
O O11 0.988572 0.863065 0.725245
O O12 0.750000 0.543238 0.903600
O O13 0.524312 0.621009 0.858805
O O14 0.750000 0.349446 0.838907
O O15 0.947322 0.250000 0.806079
O O16 0.750000 0.652240 0.444265
O O17 0.949842 0.750000 0.409694
O O18 0.021225 0.641337 0.486673
O O19 0.250000 0.164620 0.212377
O O20 0.477647 0.250000 0.195091
O O21 0.250000 0.561718 0.520429
O O22 0.000000 0.500000 0.500000
#
# Coordination Sequence:
#
# PCOD8244185 Si02
#       8
#     8   8   8   8   8   8   8   8
#     4  10  20  38  61  83 110 147 191 234 281 342
#     4  10  20  35  59  87 113 146 191 238 287 346
#     4  10  22  39  60  85 113 146 188 235 281 337
#     4   9  19  37  60  85 114 148 188 238 289 339
#     4  11  24  38  52  78 117 153 188 233 282 334
#     4  10  21  38  60  87 119 151 186 234 291 348
#     4  10  22  39  58  83 115 151 193 238 286 341
#     4  11  22  39  61  85 116 151 193 239 286 344
#
# _framework density 19.202793
#
# number of rings (size 3 to 8) (size 9 to 14) (size 15 to 20)
#    0.000    1.875    1.250    2.250    0.000    8.000 
#    0.000    3.750    0.000    0.000    0.000    0.000 
#    0.000    0.000    0.000    0.000    0.000    0.000 
#
# Total GULP energy -793913.295146 kJ/mol
# GULP energy per Si atom -12404.895237 kJ/mol
# Density = 1.915909 g / cm^3
# Si number density = 19.202793 Si / 1000 Ang^3
#
#
#
# Elastic Constant Matrix: (Units=GPa)
#
#
# Indices 1 2 3 4 5 6 
#
# 1 66.1650 34.4257 46.8628 0.0000 0.0000 0.0000
# 2 34.4257 85.1863 49.7499 0.0000 0.0000 0.0000
# 3 46.8628 49.7499 118.2823 0.0000 0.0000 0.0000
# 4 0.0000 0.0000 0.0000 22.5744 0.0000 0.0000
# 5 0.0000 0.0000 0.0000 0.0000 34.8519 0.0000
# 6 0.0000 0.0000 0.0000 0.0000 0.0000 32.5448
#
#
#
# Elastic Compliance Matrix: (Units=1/GPa)
#
#
# Indices 1 2 3 4 5 6 
#
# 1 0.022610 -0.005177 -0.006780 0.000000 0.000000 0.000000
# 2 -0.005177 0.016747 -0.004993 0.000000 0.000000 0.000000
# 3 -0.006780 -0.004993 0.013241 0.000000 0.000000 0.000000
# 4 0.000000 0.000000 0.000000 0.044298 0.000000 0.000000
# 5 0.000000 0.000000 0.000000 0.000000 0.028693 0.000000
# 6 0.000000 0.000000 0.000000 0.000000 0.000000 0.030727
#
#
# Mechanical properties :
#
#
# Convention : Reuss Voigt Hill
#
# Bulk Modulus (GPa) = 53.48480 59.07894 56.28187
# Shear Modulus (GPa) = 25.45205 27.23390 26.34298
#
# Velocity S-wave (km/s) = 3.64460 3.77002 3.70784
# Velocity P-wave (km/s) = 6.75455 7.05573 6.90678
#
# Compressibility (1/GPa) = 0.01869690
#
# Stress axis : x y z
#
# Youngs Moduli (GPa) = 44.22864 59.71215 75.52555
#
# Poissons Ratio (x) = 0.30915 0.51208
# Poissons Ratio (y) = 0.22899 0.37707
# Poissons Ratio (z) = 0.29988 0.29812
#
# Static dielectric constant tensor:
#      x y z
#    x 3.510600 0.000000 0.000000 
#    y 0.000000 3.551940 0.000000 
#    z 0.000000 0.000000 3.699880 
# 
# 
# High freq. dielectric constant tensor:
#      x y z
#    x 1.745260 0.000000 0.000000 
#    y 0.000000 1.748140 0.000000 
#    z 0.000000 0.000000 1.757750 
# 
# From -- ./inp_files/29550.got.cif
#   From: 2010.03.12/outbox.cif.g09.slc.cpg/sg59_15_cif.got.tgz:29550.got - 2010.04.16 16:29:54.
