data_PCOD8244146
_publ_section_title
;
Structure prediction by ZEFSAII (Michael W. Deem and Ramdas Pophale) SiO2 
 PCOD8244146
Probable space group: P M M N
;
_chemical_formula_sum "Si O2"
_cell_formula_units_Z 48
_cell_length_a 8.847703
_cell_length_b 19.033683
_cell_length_c 15.049326
_cell_angle_alpha 90.000000
_cell_angle_beta 90.000000
_cell_angle_gamma 90.000000
_cell_volume 2534.372327
_symmetry_space_group_name_H-M "P M M N"
_symmetry_group_IT_number 59
_space_group.IT_coordinate_system_code '2'
_symmetry_cell_setting 'orthorhombic'
loop_
_space_group_symop_operation_xyz
x,y,z
1/2-x,1/2-y,z
1/2+x,-y,-z
-x,1/2+y,-z
-x,-y,-z
1/2+x,1/2+y,-z
1/2-x,y,z
x,1/2-y,z
loop_
_atom_site_type_symbol
_atom_site_label
_atom_site_fract_x
_atom_site_fract_y
_atom_site_fract_z
Si Si1 0.429102 0.926586 0.714754
Si Si2 0.573671 0.428467 0.769583
Si Si3 0.926566 0.927947 0.530896
Si Si4 0.075612 0.331052 0.633561
Si Si5 0.426689 0.572204 0.028113
Si Si6 0.429647 0.671459 0.874319
O O1 0.250000 0.925437 0.705418
O O2 0.501898 0.901567 0.622781
O O3 0.487820 0.873402 0.790388
O O4 0.478313 0.005164 0.737796
O O5 0.750000 0.445646 0.758298
O O6 0.528985 0.361618 0.711106
O O7 0.532572 0.409131 0.870803
O O8 0.750000 0.940984 0.544125
O O9 0.961719 0.868275 0.459225
O O10 0.000000 0.000000 0.500000
O O11 0.250000 0.342430 0.659958
O O12 0.034492 0.250000 0.621799
O O13 0.250000 0.562692 0.013755
O O14 0.500000 0.500000 0.000000
O O15 0.487672 0.634598 0.964854
O O16 0.250000 0.674939 0.873250
O O17 0.498210 0.750000 0.869733
#
# Coordination Sequence:
#
# PCOD8244146 Si02
#       6
#     8   8   8   8   8   8
#     4  11  21  35  59  86 114 153 195 239 287 341
#     4  11  22  35  58  89 117 151 195 242 287 340
#     4  11  22  37  60  87 116 150 192 237 285 345
#     4  10  23  42  61  83 116 156 192 234 292 349
#     4  10  20  35  58  86 115 151 193 238 285 340
#     4   9  19  36  57  83 116 153 192 236 288 343
#
# _framework density 18.939601
#
# number of rings (size 3 to 8) (size 9 to 14) (size 15 to 20)
#    0.000    1.667    3.333    1.500    0.000    3.000 
#    0.000    1.667    0.000    4.000    0.000    0.000 
#    0.000    0.000    0.000    0.000    0.000    0.000 
#
# Total GULP energy -595367.992203 kJ/mol
# GULP energy per Si atom -12403.499838 kJ/mol
# Density = 1.889649 g / cm^3
# Si number density = 18.939601 Si / 1000 Ang^3
#
#
#
# Elastic Constant Matrix: (Units=GPa)
#
#
# Indices 1 2 3 4 5 6 
#
# 1 61.8453 32.5083 53.6000 0.0000 0.0000 0.0000
# 2 32.5083 143.8107 74.4273 0.0000 0.0000 0.0000
# 3 53.6000 74.4273 175.3029 0.0000 0.0000 0.0000
# 4 0.0000 0.0000 0.0000 35.2391 0.0000 0.0000
# 5 0.0000 0.0000 0.0000 0.0000 30.0862 0.0000
# 6 0.0000 0.0000 0.0000 0.0000 0.0000 22.0486
#
#
#
# Elastic Compliance Matrix: (Units=1/GPa)
#
#
# Indices 1 2 3 4 5 6 
#
# 1 0.022417 -0.001948 -0.006027 0.000000 0.000000 0.000000
# 2 -0.001948 0.009081 -0.003260 0.000000 0.000000 0.000000
# 3 -0.006027 -0.003260 0.008931 0.000000 0.000000 0.000000
# 4 0.000000 0.000000 0.000000 0.028378 0.000000 0.000000
# 5 0.000000 0.000000 0.000000 0.000000 0.033238 0.000000
# 6 0.000000 0.000000 0.000000 0.000000 0.000000 0.045354
#
#
# Mechanical properties :
#
#
# Convention : Reuss Voigt Hill
#
# Bulk Modulus (GPa) = 55.68171 78.00334 66.84253
# Shear Modulus (GPa) = 28.43248 32.16967 30.30107
#
# Velocity S-wave (km/s) = 3.87876 4.12581 4.00419
# Velocity P-wave (km/s) = 7.03727 7.99819 7.53307
#
# Compressibility (1/GPa) = 0.01795922
#
# Stress axis : x y z
#
# Youngs Moduli (GPa) = 44.60926 110.11958 111.96686
#
# Poissons Ratio (x) = 0.21453 0.67482
# Poissons Ratio (y) = 0.08690 0.36499
# Poissons Ratio (z) = 0.26886 0.35897
#
# Static dielectric constant tensor:
#      x y z
#    x 3.366610 0.000000 0.000000 
#    y 0.000000 3.397140 0.000000 
#    z 0.000000 0.000000 3.984170 
# 
# 
# High freq. dielectric constant tensor:
#      x y z
#    x 1.724400 0.000000 0.000000 
#    y 0.000000 1.733510 0.000000 
#    z 0.000000 0.000000 1.754970 
# 
# From -- ./inp_files/20323.got.cif
#   From: 2010.03.12/outbox.cif.g09.slc.cpg/sg59_11_cif.got.tgz:20323.got - 2010.04.16 16:29:54.
