data_PCOD8244202
_publ_section_title
;
Structure prediction by ZEFSAII (Michael W. Deem and Ramdas Pophale) SiO2 
 PCOD8244202
Probable space group: P M M N
;
_chemical_formula_sum "Si O2"
_cell_formula_units_Z 48
_cell_length_a 8.374595
_cell_length_b 27.916898
_cell_length_c 10.183462
_cell_angle_alpha 90.000000
_cell_angle_beta 90.000000
_cell_angle_gamma 90.000000
_cell_volume 2380.819223
_symmetry_space_group_name_H-M "P M M N"
_symmetry_group_IT_number 59
_space_group.IT_coordinate_system_code '2'
_symmetry_cell_setting 'orthorhombic'
loop_
_space_group_symop_operation_xyz
x,y,z
1/2-x,1/2-y,z
1/2+x,-y,-z
-x,1/2+y,-z
-x,-y,-z
1/2+x,1/2+y,-z
1/2-x,y,z
x,1/2-y,z
loop_
_atom_site_type_symbol
_atom_site_label
_atom_site_fract_x
_atom_site_fract_y
_atom_site_fract_z
Si Si1 0.432681 0.600177 0.999200
Si Si2 0.066184 0.803263 0.121577
Si Si3 0.434914 0.602797 0.502527
Si Si4 0.066542 0.051756 0.749749
Si Si5 0.066083 0.447730 0.248912
Si Si6 0.565753 0.803923 0.402205
O O1 0.250000 0.592632 0.954938
O O2 0.548250 0.576961 0.892641
O O3 0.473417 0.656869 0.011851
O O4 0.455609 0.575027 0.139586
O O5 0.250000 0.808297 0.166916
O O6 0.032634 0.750000 0.063773
O O7 0.957027 0.813276 0.247538
O O8 0.250000 0.589359 0.494855
O O9 0.528778 0.574259 0.390841
O O10 0.505512 0.589212 0.642825
O O11 0.459108 0.659720 0.486301
O O12 0.250000 0.061687 0.785027
O O13 0.038443 0.995291 0.742865
O O14 0.250000 0.460920 0.271797
O O15 0.750000 0.812440 0.436499
O O16 0.511565 0.750000 0.438141
#
# Coordination Sequence:
#
# PCOD8244202 Si02
#       6
#     8   8   8   8   8   8
#     4  11  22  39  62  91 124 160 202 248 298 357
#     4   9  18  34  59  89 120 155 197 244 292 348
#     4  12  24  41  63  90 122 159 202 249 301 360
#     4  12  24  41  64  90 120 157 203 251 300 358
#     4  12  26  43  61  85 121 162 203 251 305 361
#     4  10  20  35  59  91 123 155 197 247 297 350
#
# _framework density 20.161125999999999
#
# number of rings (size 3 to 8) (size 9 to 14) (size 15 to 20)
#    0.000    1.000    1.667    6.500    0.000    1.667 
#    0.000    0.833    0.000    3.000    0.000    0.000 
#    0.000    0.000    0.000    0.000    0.000    0.000 
#
# Total GULP energy -595490.836668 kJ/mol
# GULP energy per Si atom -12406.059097 kJ/mol
# Density = 2.011524 g / cm^3
# Si number density = 20.161126 Si / 1000 Ang^3
#
#
#
# Elastic Constant Matrix: (Units=GPa)
#
#
# Indices 1 2 3 4 5 6 
#
# 1 77.5418 19.4480 11.9736 0.0000 0.0000 0.0000
# 2 19.4480 115.1503 38.9252 0.0000 0.0000 0.0000
# 3 11.9736 38.9252 68.2408 0.0000 0.0000 0.0000
# 4 0.0000 0.0000 0.0000 -0.5629 0.0000 0.0000
# 5 0.0000 0.0000 0.0000 0.0000 31.1221 0.0000
# 6 0.0000 0.0000 0.0000 0.0000 0.0000 24.9787
#
#
#
# Elastic Compliance Matrix: (Units=1/GPa)
#
#
# Indices 1 2 3 4 5 6 
#
# 1 0.013563 -0.001841 -0.001330 0.000000 0.000000 0.000000
# 2 -0.001841 0.011009 -0.005956 0.000000 0.000000 0.000000
# 3 -0.001330 -0.005956 0.018285 0.000000 0.000000 0.000000
# 4 0.000000 0.000000 0.000000 -1.776539 0.000000 0.000000
# 5 0.000000 0.000000 0.000000 0.000000 0.032132 0.000000
# 6 0.000000 0.000000 0.000000 0.000000 0.000000 0.040034
#
#
# Mechanical properties :
#
#
# Convention : Reuss Voigt Hill
#
# Bulk Modulus (GPa) = 40.64635 44.62518 42.63576
# Shear Modulus (GPa) = -3.05799 23.81332 10.37766
#
# Velocity S-wave (km/s) = -1.23291 3.44052 2.27124
# Velocity P-wave (km/s) = 4.26354 6.16159 5.29825
#
# Compressibility (1/GPa) = 0.02460246
#
# Stress axis : x y z
#
# Youngs Moduli (GPa) = 73.72794 90.83655 54.68998
#
# Poissons Ratio (x) = 0.16726 0.07271
# Poissons Ratio (y) = 0.13576 0.32576
# Poissons Ratio (z) = 0.09802 0.54106
#
# Static dielectric constant tensor:
#      x y z
#    x 3.647790 0.000000 0.000000 
#    y 0.000000 3.995810 0.000000 
#    z 0.000000 0.000000 3.383620 
# 
# 
# High freq. dielectric constant tensor:
#      x y z
#    x 1.796460 0.000000 0.000000 
#    y 0.000000 1.805150 0.000000 
#    z 0.000000 0.000000 1.762340 
# 
# From -- ./inp_files/6249.got.cif
#   From: 2010.03.12/outbox.cif.g09.slc.cpg/sg59_4_cif.got.tgz:6249.got - 2010.04.16 16:29:54.
