data_PCOD8244576
_publ_section_title
;
Structure prediction by ZEFSAII (Michael W. Deem and Ramdas Pophale) SiO2 
 PCOD8244576
Probable space group: P M M N
;
_chemical_formula_sum "Si O2"
_cell_formula_units_Z 64
_cell_length_a 22.887042
_cell_length_b 8.852265
_cell_length_c 16.115894
_cell_angle_alpha 90.000000
_cell_angle_beta 90.000000
_cell_angle_gamma 90.000000
_cell_volume 3265.114948
_symmetry_space_group_name_H-M "P M M N"
_symmetry_group_IT_number 59
_space_group.IT_coordinate_system_code '2'
_symmetry_cell_setting 'orthorhombic'
loop_
_space_group_symop_operation_xyz
x,y,z
1/2-x,1/2-y,z
1/2+x,-y,-z
-x,1/2+y,-z
-x,-y,-z
1/2+x,1/2+y,-z
1/2-x,y,z
x,1/2-y,z
loop_
_atom_site_type_symbol
_atom_site_label
_atom_site_fract_x
_atom_site_fract_y
_atom_site_fract_z
Si Si1 0.412008 0.072904 0.555192
Si Si2 0.994605 0.572532 0.090272
Si Si3 0.317871 0.570842 0.663552
Si Si4 0.124179 0.425590 0.823693
Si Si5 0.974243 0.925236 0.611717
Si Si6 0.420348 0.075725 0.212931
Si Si7 0.181764 0.585418 0.965136
Si Si8 0.316318 0.925459 0.148801
O O1 0.402294 0.250000 0.566466
O O2 0.428990 0.027898 0.461022
O O3 0.351744 0.991495 0.582363
O O4 0.466267 0.021129 0.612024
O O5 0.990813 0.750000 0.076963
O O6 0.938405 0.515351 0.143061
O O7 0.050090 0.528746 0.144188
O O8 0.000000 0.500000 0.000000
O O9 0.250000 0.514499 0.664352
O O10 0.319360 0.750000 0.662123
O O11 0.353421 0.515447 0.743853
O O12 0.123332 0.250000 0.800452
O O13 0.168073 0.455087 0.899623
O O14 0.991237 0.750000 0.602530
O O15 0.943185 0.964482 0.696715
O O16 0.430209 0.250000 0.190855
O O17 0.352363 0.030271 0.212003
O O18 0.250000 0.602585 0.975085
O O19 0.156404 0.750000 0.936564
O O20 0.157849 0.544165 0.056274
O O21 0.250000 0.979818 0.156760
O O22 0.322521 0.750000 0.172286
#
# Coordination Sequence:
#
# PCOD8244576 Si02
#       8
#     8   8   8   8   8   8   8   8
#     4  10  20  37  62  88 112 142 183 229 277 330
#     4  11  24  39  55  80 114 151 191 236 286 337
#     4  11  24  40  58  82 115 155 194 233 285 348
#     4  11  23  36  53  80 110 142 186 235 280 330
#     4   9  20  38  60  87 117 147 179 221 278 339
#     4  11  22  36  56  82 111 143 179 220 269 325
#     4   9  18  33  52  73 100 138 181 222 267 318
#     4   9  19  36  56  77 104 140 179 220 267 315
#
# _framework density 19.601148999999999
#
# number of rings (size 3 to 8) (size 9 to 14) (size 15 to 20)
#    0.000    1.875    0.000    4.500    0.000   11.000 
#    0.000    1.875    0.000    3.750    0.000    0.000 
#    0.000    0.000    0.000    0.000    0.000    0.000 
#
# Total GULP energy -793547.794356 kJ/mol
# GULP energy per Si atom -12399.184287 kJ/mol
# Density = 1.955654 g / cm^3
# Si number density = 19.601149 Si / 1000 Ang^3
#
#
#
# Elastic Constant Matrix: (Units=GPa)
#
#
# Indices 1 2 3 4 5 6 
#
# 1 108.1123 41.2444 60.8538 0.0000 0.0000 0.0000
# 2 41.2444 60.0344 35.8164 0.0000 0.0000 0.0000
# 3 60.8538 35.8164 96.3082 0.0000 0.0000 0.0000
# 4 0.0000 0.0000 0.0000 29.4460 0.0000 0.0000
# 5 0.0000 0.0000 0.0000 0.0000 33.3683 0.0000
# 6 0.0000 0.0000 0.0000 0.0000 0.0000 33.5967
#
#
#
# Elastic Compliance Matrix: (Units=1/GPa)
#
#
# Indices 1 2 3 4 5 6 
#
# 1 0.016066 -0.006401 -0.007771 0.000000 0.000000 0.000000
# 2 -0.006401 0.023957 -0.004865 0.000000 0.000000 0.000000
# 3 -0.007771 -0.004865 0.017103 0.000000 0.000000 0.000000
# 4 0.000000 0.000000 0.000000 0.033961 0.000000 0.000000
# 5 0.000000 0.000000 0.000000 0.000000 0.029969 0.000000
# 6 0.000000 0.000000 0.000000 0.000000 0.000000 0.029765
#
#
# Mechanical properties :
#
#
# Convention : Reuss Voigt Hill
#
# Bulk Modulus (GPa) = 52.48842 60.03157 56.25999
# Shear Modulus (GPa) = 25.60902 27.71820 26.66361
#
# Velocity S-wave (km/s) = 3.61848 3.76455 3.69224
# Velocity P-wave (km/s) = 6.65539 7.04193 6.85139
#
# Compressibility (1/GPa) = 0.01905182
#
# Stress axis : x y z
#
# Youngs Moduli (GPa) = 62.24445 41.74111 58.47073
#
# Poissons Ratio (x) = 0.26720 0.45436
# Poissons Ratio (y) = 0.39845 0.28445
# Poissons Ratio (z) = 0.48369 0.20306
#
# Static dielectric constant tensor:
#      x y z
#    x 3.712320 0.000000 0.000000 
#    y 0.000000 3.571570 0.000000 
#    z 0.000000 0.000000 3.586970 
# 
# 
# High freq. dielectric constant tensor:
#      x y z
#    x 1.768050 0.000000 0.000000 
#    y 0.000000 1.764190 0.000000 
#    z 0.000000 0.000000 1.759280 
# 
# From -- ./inp_files/24773.got.cif
#   From: 2010.03.12/outbox.cif.g09.slc.cpg/sg59_13_cif.got.tgz:24773.got - 2010.04.16 16:29:54.
