data_PCOD8244936
_publ_section_title
;
Structure prediction by ZEFSAII (Michael W. Deem and Ramdas Pophale) SiO2 
 PCOD8244936
Probable space group: P M M N
;
_chemical_formula_sum "Si O2"
_cell_formula_units_Z 64
_cell_length_a 13.778210
_cell_length_b 9.046478
_cell_length_c 28.819733
_cell_angle_alpha 90.000000
_cell_angle_beta 90.000000
_cell_angle_gamma 90.000000
_cell_volume 3592.214686
_symmetry_space_group_name_H-M "P M M N"
_symmetry_group_IT_number 59
_space_group.IT_coordinate_system_code '2'
_symmetry_cell_setting 'orthorhombic'
loop_
_space_group_symop_operation_xyz
x,y,z
1/2-x,1/2-y,z
1/2+x,-y,-z
-x,1/2+y,-z
-x,-y,-z
1/2+x,1/2+y,-z
1/2-x,y,z
x,1/2-y,z
loop_
_atom_site_type_symbol
_atom_site_label
_atom_site_fract_x
_atom_site_fract_y
_atom_site_fract_z
Si Si1 0.365570 0.082448 0.019563
Si Si2 0.638443 0.422147 0.071036
Si Si3 0.862086 0.420152 0.337456
Si Si4 0.477038 0.924703 0.837780
Si Si5 0.362552 0.422492 0.756716
Si Si6 0.363171 0.922368 0.112530
Si Si7 0.858011 0.922507 0.516467
Si Si8 0.452488 0.923451 0.567424
O O1 0.250000 0.074793 0.017258
O O2 0.403654 0.250000 0.022872
O O3 0.401801 0.996624 0.065084
O O4 0.408321 0.006472 0.973123
O O5 0.750000 0.466837 0.077297
O O6 0.625897 0.250000 0.061058
O O7 0.586891 0.471746 0.118053
O O8 0.750000 0.440686 0.351375
O O9 0.883595 0.250000 0.324273
O O10 0.890552 0.523462 0.294534
O O11 0.927838 0.474401 0.380472
O O12 0.489218 0.750000 0.833090
O O13 0.427307 0.986027 0.792049
O O14 0.581906 0.001026 0.844348
O O15 0.250000 0.456649 0.767106
O O16 0.385966 0.250000 0.761195
O O17 0.250000 0.952166 0.120195
O O18 0.387362 0.750000 0.110424
O O19 0.750000 0.965000 0.534123
O O20 0.866586 0.750000 0.506354
O O21 0.936513 0.970125 0.555515
O O22 0.878277 0.002228 0.468056
O O23 0.436107 0.750000 0.562727
#
# Coordination Sequence:
#
# PCOD8244936 Si02
#       8
#     8   8   8   8   8   8   8   8
#     4   9  17  30  49  72  97 126 161 199 236 279
#     4   9  18  32  49  71 100 131 159 189 232 287
#     4   9  17  30  49  71  95 126 165 207 248 290
#     4  11  22  35  54  77 100 128 162 201 245 295
#     4  10  21  36  54  77 104 131 160 198 246 300
#     4  10  21  37  55  73  96 127 162 202 246 290
#     4   9  17  28  43  67 101 137 170 208 253 296
#     4   9  17  29  46  69  97 132 174 213 249 295
#
# _framework density 17.816306999999998
#
# number of rings (size 3 to 8) (size 9 to 14) (size 15 to 20)
#    0.000    2.500    0.000    2.250    0.000    6.250 
#    0.000    2.500    0.000    0.750    0.000    1.750 
#    0.000    0.000    0.000    0.000    0.000    0.000 
#
# Total GULP energy -793702.268293 kJ/mol
# GULP energy per Si atom -12401.597942 kJ/mol
# Density = 1.777576 g / cm^3
# Si number density = 17.816307 Si / 1000 Ang^3
#
#
#
# Elastic Constant Matrix: (Units=GPa)
#
#
# Indices 1 2 3 4 5 6 
#
# 1 77.7538 40.0684 59.8006 0.0000 0.0000 0.0000
# 2 40.0684 82.6181 54.5325 0.0000 0.0000 0.0000
# 3 59.8006 54.5325 119.8652 0.0000 0.0000 0.0000
# 4 0.0000 0.0000 0.0000 31.9191 0.0000 0.0000
# 5 0.0000 0.0000 0.0000 0.0000 29.3320 0.0000
# 6 0.0000 0.0000 0.0000 0.0000 0.0000 23.1580
#
#
#
# Elastic Compliance Matrix: (Units=1/GPa)
#
#
# Indices 1 2 3 4 5 6 
#
# 1 0.022194 -0.004938 -0.008826 0.000000 0.000000 0.000000
# 2 -0.004938 0.018397 -0.005906 0.000000 0.000000 0.000000
# 3 -0.008826 -0.005906 0.015433 0.000000 0.000000 0.000000
# 4 0.000000 0.000000 0.000000 0.031329 0.000000 0.000000
# 5 0.000000 0.000000 0.000000 0.000000 0.034092 0.000000
# 6 0.000000 0.000000 0.000000 0.000000 0.000000 0.043182
#
#
# Mechanical properties :
#
#
# Convention : Reuss Voigt Hill
#
# Bulk Modulus (GPa) = 59.93888 65.44890 62.69389
# Shear Modulus (GPa) = 23.86306 25.27085 24.56695
#
# Velocity S-wave (km/s) = 3.66374 3.77027 3.71739
# Velocity P-wave (km/s) = 7.18423 7.46782 7.32740
#
# Compressibility (1/GPa) = 0.01668366
#
# Stress axis : x y z
#
# Youngs Moduli (GPa) = 45.05746 54.35617 64.79634
#
# Poissons Ratio (x) = 0.26841 0.57189
# Poissons Ratio (y) = 0.22250 0.38270
# Poissons Ratio (z) = 0.39767 0.32104
#
# Static dielectric constant tensor:
#      x y z
#    x 3.409710 0.000000 0.000000 
#    y 0.000000 3.320450 0.000000 
#    z 0.000000 0.000000 3.227020 
# 
# 
# High freq. dielectric constant tensor:
#      x y z
#    x 1.686960 0.000000 0.000000 
#    y 0.000000 1.693870 0.000000 
#    z 0.000000 0.000000 1.673260 
# 
# From -- ./inp_files/33319.got.cif
#   From: 2010.03.12/outbox.cif.g09.slc.cpg/sg59_17_cif.got.tgz:33319.got - 2010.04.16 16:29:54.
