data_PCOD8244253
_publ_section_title
;
Structure prediction by ZEFSAII (Michael W. Deem and Ramdas Pophale) SiO2 
 PCOD8244253
Probable space group: P M M N
;
_chemical_formula_sum "Si O2"
_cell_formula_units_Z 48
_cell_length_a 9.203922
_cell_length_b 17.747899
_cell_length_c 15.959047
_cell_angle_alpha 90.000000
_cell_angle_beta 90.000000
_cell_angle_gamma 90.000000
_cell_volume 2606.914765
_symmetry_space_group_name_H-M "P M M N"
_symmetry_group_IT_number 59
_space_group.IT_coordinate_system_code '2'
_symmetry_cell_setting 'orthorhombic'
loop_
_space_group_symop_operation_xyz
x,y,z
1/2-x,1/2-y,z
1/2+x,-y,-z
-x,1/2+y,-z
-x,-y,-z
1/2+x,1/2+y,-z
1/2-x,y,z
x,1/2-y,z
loop_
_atom_site_type_symbol
_atom_site_label
_atom_site_fract_x
_atom_site_fract_y
_atom_site_fract_z
Si Si1 0.581019 0.615036 0.887481
Si Si2 0.917381 0.604299 0.520316
Si Si3 0.921505 0.045519 0.814251
Si Si4 0.922873 0.250000 0.203151
Si Si5 0.582688 0.750000 0.625494
Si Si6 0.079435 0.959522 0.376511
Si Si7 0.918383 0.663199 0.074402
O O1 0.750000 0.629492 0.864892
O O2 0.531162 0.531610 0.860216
O O3 0.484354 0.675269 0.839500
O O4 0.552238 0.623848 0.985679
O O5 0.750000 0.595527 0.496697
O O6 0.952559 0.679972 0.567820
O O7 0.967974 0.538844 0.583508
O O8 0.004955 0.604920 0.432856
O O9 0.750000 0.055590 0.819613
O O10 0.977033 0.042805 0.718633
O O11 0.992826 0.118136 0.856286
O O12 0.750000 0.250000 0.196281
O O13 0.971575 0.250000 0.298717
O O14 0.750000 0.750000 0.657697
O O15 0.250000 0.946762 0.378896
O O16 0.750000 0.659194 0.098185
O O17 0.971341 0.750000 0.071739
#
# Coordination Sequence:
#
# PCOD8244253 Si02
#       7
#     8   8   8   4   4   8   8
#     4  10  20  39  61  80 112 153 190 228 282 341
#     4   9  18  34  57  79 103 141 183 222 269 327
#     4  10  21  36  59  86 110 148 193 233 278 334
#     4  12  24  34  54  89 120 145 182 233 286 333
#     4  10  20  36  56  79 108 143 182 223 272 335
#     4   9  18  34  53  78 109 140 177 222 277 327
#     4  10  21  38  58  81 112 151 189 232 285 332
#
# _framework density 18.412569000000001
#
# number of rings (size 3 to 8) (size 9 to 14) (size 15 to 20)
#    0.000    2.167    0.833    2.250    0.000    5.667 
#    1.500    3.333    0.000    0.000    0.000    0.000 
#    0.000    0.000    0.000    0.000    0.000    0.000 
#
# Total GULP energy -595291.816346 kJ/mol
# GULP energy per Si atom -12401.912841 kJ/mol
# Density = 1.837066 g / cm^3
# Si number density = 18.412569 Si / 1000 Ang^3
#
#
#
# Elastic Constant Matrix: (Units=GPa)
#
#
# Indices 1 2 3 4 5 6 
#
# 1 53.8093 41.2369 52.4284 0.0000 0.0000 0.0000
# 2 41.2369 87.4473 65.2275 0.0000 0.0000 0.0000
# 3 52.4284 65.2275 146.6379 0.0000 0.0000 0.0000
# 4 0.0000 0.0000 0.0000 2.2303 0.0000 0.0000
# 5 0.0000 0.0000 0.0000 0.0000 33.6171 0.0000
# 6 0.0000 0.0000 0.0000 0.0000 0.0000 28.8644
#
#
#
# Elastic Compliance Matrix: (Units=1/GPa)
#
#
# Indices 1 2 3 4 5 6 
#
# 1 0.033817 -0.010368 -0.007479 0.000000 0.000000 0.000000
# 2 -0.010368 0.020293 -0.005320 0.000000 0.000000 0.000000
# 3 -0.007479 -0.005320 0.011860 0.000000 0.000000 0.000000
# 4 0.000000 0.000000 0.000000 0.448375 0.000000 0.000000
# 5 0.000000 0.000000 0.000000 0.000000 0.029747 0.000000
# 6 0.000000 0.000000 0.000000 0.000000 0.000000 0.034645
#
#
# Mechanical properties :
#
#
# Convention : Reuss Voigt Hill
#
# Bulk Modulus (GPa) = 50.92698 67.29779 59.11239
# Shear Modulus (GPa) = 7.91623 21.54248 14.72936
#
# Velocity S-wave (km/s) = 2.07574 3.42422 2.83143
# Velocity P-wave (km/s) = 5.78479 7.22931 6.54701
#
# Compressibility (1/GPa) = 0.01963596
#
# Stress axis : x y z
#
# Youngs Moduli (GPa) = 29.57123 49.27893 84.31958
#
# Poissons Ratio (x) = 0.51094 0.63060
# Poissons Ratio (y) = 0.30660 0.44854
# Poissons Ratio (z) = 0.22115 0.26214
#
# Static dielectric constant tensor:
#      x y z
#    x 3.267930 0.000000 0.000000 
#    y 0.000000 3.443670 0.000000 
#    z 0.000000 0.000000 3.519910 
# 
# 
# High freq. dielectric constant tensor:
#      x y z
#    x 1.701970 0.000000 0.000000 
#    y 0.000000 1.717320 0.000000 
#    z 0.000000 0.000000 1.723110 
# 
# From -- ./inp_files/20507.got.cif
#   From: 2010.03.12/outbox.cif.g09.slc.cpg/sg59_11_cif.got.tgz:20507.got - 2010.04.16 16:29:54.
