data_PCOD8244858
_publ_section_title
;
Structure prediction by ZEFSAII (Michael W. Deem and Ramdas Pophale) SiO2 
 PCOD8244858
Probable space group: P M M N
;
_chemical_formula_sum "Si O2"
_cell_formula_units_Z 64
_cell_length_a 14.206067
_cell_length_b 24.734216
_cell_length_c 9.104547
_cell_angle_alpha 90.000000
_cell_angle_beta 90.000000
_cell_angle_gamma 90.000000
_cell_volume 3199.118667
_symmetry_space_group_name_H-M "P M M N"
_symmetry_group_IT_number 59
_space_group.IT_coordinate_system_code '2'
_symmetry_cell_setting 'orthorhombic'
loop_
_space_group_symop_operation_xyz
x,y,z
1/2-x,1/2-y,z
1/2+x,-y,-z
-x,1/2+y,-z
-x,-y,-z
1/2+x,1/2+y,-z
1/2-x,y,z
x,1/2-y,z
loop_
_atom_site_type_symbol
_atom_site_label
_atom_site_fract_x
_atom_site_fract_y
_atom_site_fract_z
Si Si1 0.358899 0.005449 0.590104
Si Si2 0.092076 0.394788 0.790310
Si Si3 0.933124 0.047802 0.942653
Si Si4 0.858550 0.686883 0.451177
Si Si5 0.508348 0.688356 0.722386
Si Si6 0.854191 0.633225 0.900146
Si Si7 0.639469 0.097043 0.236094
Si Si8 0.642816 0.531306 0.725195
O O1 0.250000 0.994879 0.559760
O O2 0.369712 0.052824 0.707335
O O3 0.407593 0.020059 0.432863
O O4 0.400844 0.950202 0.657339
O O5 0.093404 0.343231 0.684993
O O6 0.988436 0.405953 0.853123
O O7 0.157580 0.381851 0.929667
O O8 0.861337 0.021569 0.826849
O O9 0.875822 0.077513 0.069743
O O10 0.000000 0.000000 0.000000
O O11 0.750000 0.667732 0.473918
O O12 0.862376 0.750000 0.416237
O O13 0.919789 0.671605 0.592806
O O14 0.474356 0.750000 0.708802
O O15 0.571299 0.681346 0.870776
O O16 0.415174 0.651925 0.724194
O O17 0.750000 0.649057 0.843392
O O18 0.901827 0.582719 0.810403
O O19 0.750000 0.108069 0.259600
O O20 0.750000 0.547137 0.697224
#
# Coordination Sequence:
#
# PCOD8244858 Si02
#       8
#     8   8   8   8   8   8   8   8
#     4  10  21  35  57  87 119 156 198 243 295 361
#     4  12  22  35  61  89 128 163 202 239 299 364
#     4  12  21  37  56  88 127 166 202 245 301 359
#     4  10  23  43  64  89 124 162 200 248 310 376
#     4  11  24  43  64  88 115 155 209 260 311 365
#     4  11  21  36  59  89 126 161 199 245 301 366
#     4  11  23  42  63  89 123 162 209 260 313 363
#     4  10  21  36  55  85 123 163 201 240 294 361
#
# _framework density 20.005510999999998
#
# number of rings (size 3 to 8) (size 9 to 14) (size 15 to 20)
#    0.000    1.125    3.750    2.625    1.750    5.000 
#    0.000    0.000    0.000    0.000    0.000    0.000 
#    0.000    0.000    0.000    0.000    0.000    0.000 
#
# Total GULP energy -793511.256200 kJ/mol
# GULP energy per Si atom -12398.613378 kJ/mol
# Density = 1.995998 g / cm^3
# Si number density = 20.005511 Si / 1000 Ang^3
#
#
#
# Elastic Constant Matrix: (Units=GPa)
#
#
# Indices 1 2 3 4 5 6 
#
# 1 62.1640 38.5952 28.3501 0.0000 0.0000 0.0000
# 2 38.5952 92.7833 55.6859 0.0000 0.0000 0.0000
# 3 28.3501 55.6859 131.8915 0.0000 0.0000 0.0000
# 4 0.0000 0.0000 0.0000 35.7424 0.0000 0.0000
# 5 0.0000 0.0000 0.0000 0.0000 31.4343 0.0000
# 6 0.0000 0.0000 0.0000 0.0000 0.0000 31.1794
#
#
#
# Elastic Compliance Matrix: (Units=1/GPa)
#
#
# Indices 1 2 3 4 5 6 
#
# 1 0.021817 -0.008385 -0.001149 0.000000 0.000000 0.000000
# 2 -0.008385 0.017659 -0.005653 0.000000 0.000000 0.000000
# 3 -0.001149 -0.005653 0.010216 0.000000 0.000000 0.000000
# 4 0.000000 0.000000 0.000000 0.027978 0.000000 0.000000
# 5 0.000000 0.000000 0.000000 0.000000 0.031812 0.000000
# 6 0.000000 0.000000 0.000000 0.000000 0.000000 0.032072
#
#
# Mechanical properties :
#
#
# Convention : Reuss Voigt Hill
#
# Bulk Modulus (GPa) = 51.77120 59.12235 55.44678
# Shear Modulus (GPa) = 28.03185 30.61840 29.32512
#
# Velocity S-wave (km/s) = 3.74733 3.91640 3.83280
# Velocity P-wave (km/s) = 6.68266 7.07588 6.88208
#
# Compressibility (1/GPa) = 0.01931576
#
# Stress axis : x y z
#
# Youngs Moduli (GPa) = 45.83640 56.62884 97.88711
#
# Poissons Ratio (x) = 0.47486 0.11248
# Poissons Ratio (y) = 0.38436 0.55338
# Poissons Ratio (z) = 0.05267 0.32014
#
# Static dielectric constant tensor:
#      x y z
#    x 3.516950 0.000000 0.000000 
#    y 0.000000 3.571030 0.000000 
#    z 0.000000 0.000000 3.943830 
# 
# 
# High freq. dielectric constant tensor:
#      x y z
#    x 1.772530 0.000000 0.000000 
#    y 0.000000 1.765430 0.000000 
#    z 0.000000 0.000000 1.793450 
# 
# From -- ./inp_files/9613.got.cif
#   From: 2010.03.12/outbox.cif.g09.slc.cpg/sg59_5_cif.got.tgz:9613.got - 2010.04.16 16:29:54.
