data_PCOD8244687
_publ_section_title
;
Structure prediction by ZEFSAII (Michael W. Deem and Ramdas Pophale) SiO2 
 PCOD8244687
Probable space group: P M M N
;
_chemical_formula_sum "Si O2"
_cell_formula_units_Z 48
_cell_length_a 14.930772
_cell_length_b 8.748356
_cell_length_c 18.882086
_cell_angle_alpha 90.000000
_cell_angle_beta 90.000000
_cell_angle_gamma 90.000000
_cell_volume 2466.372575
_symmetry_space_group_name_H-M "P M M N"
_symmetry_group_IT_number 59
_space_group.IT_coordinate_system_code '2'
_symmetry_cell_setting 'orthorhombic'
loop_
_space_group_symop_operation_xyz
x,y,z
1/2-x,1/2-y,z
1/2+x,-y,-z
-x,1/2+y,-z
-x,-y,-z
1/2+x,1/2+y,-z
1/2-x,y,z
x,1/2-y,z
loop_
_atom_site_type_symbol
_atom_site_label
_atom_site_fract_x
_atom_site_fract_y
_atom_site_fract_z
Si Si1 0.389030 0.930065 0.345423
Si Si2 0.646300 0.075475 0.161845
Si Si3 0.250000 0.568020 0.072639
Si Si4 0.405860 0.429562 0.981434
Si Si5 0.250000 0.930305 0.231136
Si Si6 0.750000 0.929493 0.552822
Si Si7 0.750000 0.070956 0.400995
Si Si8 0.425104 0.572216 0.686887
O O1 0.381414 0.750000 0.354748
O O2 0.338529 0.984493 0.273617
O O3 0.340276 0.004204 0.412594
O O4 0.492010 0.977685 0.343414
O O5 0.750000 0.054728 0.181252
O O6 0.627472 0.250000 0.138126
O O7 0.588883 0.031742 0.230702
O O8 0.618606 0.961661 0.099753
O O9 0.250000 0.750000 0.070845
O O10 0.250000 0.500014 0.152385
O O11 0.336823 0.508055 0.033667
O O12 0.405804 0.250000 0.994545
O O13 0.500000 0.500000 0.000000
O O14 0.250000 0.750000 0.224080
O O15 0.750000 0.750000 0.563033
O O16 0.750000 0.970939 0.470927
O O17 0.750000 0.250000 0.419695
O O18 0.662930 0.025172 0.356100
O O19 0.446116 0.750000 0.677444
#
# Coordination Sequence:
#
# PCOD8244687 Si02
#       8
#     8   8   4   8   4   4   4   8
#     4  10  21  40  63  90 121 158 197 242 301 360
#     4  10  20  39  64  88 120 161 200 249 307 361
#     4  11  22  41  63  87 121 157 198 256 313 364
#     4  12  26  42  60  88 121 163 210 254 306 365
#     4   8  19  38  60  84 114 152 194 242 302 360
#     4  11  23  41  64  90 120 157 201 248 295 352
#     4  10  21  40  63  89 125 162 197 244 296 352
#     4  10  21  38  62  93 123 158 202 245 297 357
#
# _framework density 19.461780999999998
#
# number of rings (size 3 to 8) (size 9 to 14) (size 15 to 20)
#    0.000    1.667    1.667    3.500    2.333    2.000 
#    0.000    4.167    0.000    0.000    0.000    0.000 
#    0.000    0.000    0.000    0.000    0.000    0.000 
#
# Total GULP energy -595367.118543 kJ/mol
# GULP energy per Si atom -12403.481636 kJ/mol
# Density = 1.941749 g / cm^3
# Si number density = 19.461781 Si / 1000 Ang^3
#
#
#
# Elastic Constant Matrix: (Units=GPa)
#
#
# Indices 1 2 3 4 5 6 
#
# 1 144.3010 50.2158 50.2764 0.0000 0.0000 0.0000
# 2 50.2158 100.9281 48.2484 0.0000 0.0000 0.0000
# 3 50.2764 48.2484 125.5586 0.0000 0.0000 0.0000
# 4 0.0000 0.0000 0.0000 25.0761 0.0000 0.0000
# 5 0.0000 0.0000 0.0000 0.0000 32.0728 0.0000
# 6 0.0000 0.0000 0.0000 0.0000 0.0000 32.9673
#
#
#
# Elastic Compliance Matrix: (Units=1/GPa)
#
#
# Indices 1 2 3 4 5 6 
#
# 1 0.008882 -0.003331 -0.002277 0.000000 0.000000 0.000000
# 2 -0.003331 0.013387 -0.003810 0.000000 0.000000 0.000000
# 3 -0.002277 -0.003810 0.010340 0.000000 0.000000 0.000000
# 4 0.000000 0.000000 0.000000 0.039879 0.000000 0.000000
# 5 0.000000 0.000000 0.000000 0.000000 0.031179 0.000000
# 6 0.000000 0.000000 0.000000 0.000000 0.000000 0.030333
#
#
# Mechanical properties :
#
#
# Convention : Reuss Voigt Hill
#
# Bulk Modulus (GPa) = 72.60371 74.25211 73.42791
# Shear Modulus (GPa) = 31.76066 32.82638 32.29352
#
# Velocity S-wave (km/s) = 4.04412 4.11141 4.07791
# Velocity P-wave (km/s) = 7.69372 7.79576 7.74491
#
# Compressibility (1/GPa) = 0.01377340
#
# Stress axis : x y z
#
# Youngs Moduli (GPa) = 112.58295 74.70004 96.70928
#
# Poissons Ratio (x) = 0.24882 0.22018
# Poissons Ratio (y) = 0.37501 0.36850
# Poissons Ratio (z) = 0.25632 0.28464
#
# Static dielectric constant tensor:
#      x y z
#    x 3.629890 0.000000 0.000000 
#    y 0.000000 3.396670 0.000000 
#    z 0.000000 0.000000 3.787840 
# 
# 
# High freq. dielectric constant tensor:
#      x y z
#    x 1.767600 0.000000 0.000000 
#    y 0.000000 1.751390 0.000000 
#    z 0.000000 0.000000 1.766280 
# 
# From -- ./inp_files/27546.got.cif
#   From: 2010.03.12/outbox.cif.g09.slc.cpg/sg59_14_cif.got.tgz:27546.got - 2010.04.16 16:29:54.
