data_PCOD8244726
_publ_section_title
;
Structure prediction by ZEFSAII (Michael W. Deem and Ramdas Pophale) SiO2 
 PCOD8244726
Probable space group: P M M N
;
_chemical_formula_sum "Si O2"
_cell_formula_units_Z 32
_cell_length_a 7.728108
_cell_length_b 24.113362
_cell_length_c 8.790843
_cell_angle_alpha 90.000000
_cell_angle_beta 90.000000
_cell_angle_gamma 90.000000
_cell_volume 1638.179446
_symmetry_space_group_name_H-M "P M M N"
_symmetry_group_IT_number 59
_space_group.IT_coordinate_system_code '2'
_symmetry_cell_setting 'orthorhombic'
loop_
_space_group_symop_operation_xyz
x,y,z
1/2-x,1/2-y,z
1/2+x,-y,-z
-x,1/2+y,-z
-x,-y,-z
1/2+x,1/2+y,-z
1/2-x,y,z
x,1/2-y,z
loop_
_atom_site_type_symbol
_atom_site_label
_atom_site_fract_x
_atom_site_fract_y
_atom_site_fract_z
Si Si1 0.750000 0.685432 0.820969
Si Si2 0.750000 0.685071 0.176000
Si Si3 0.942321 0.897958 0.357975
Si Si4 0.952391 0.499108 0.174876
Si Si5 0.553617 0.384055 0.314215
O O1 0.750000 0.750000 0.788467
O O2 0.575136 0.662679 0.745863
O O3 0.750000 0.671570 0.998420
O O4 0.750000 0.750000 0.212481
O O5 0.578341 0.656480 0.249296
O O6 0.750000 0.915639 0.416322
O O7 0.033050 0.947879 0.263076
O O8 0.058879 0.884004 0.502885
O O9 0.750000 0.504792 0.191522
O O10 0.018200 0.442683 0.252112
O O11 0.000000 0.500000 0.000000
O O12 0.750000 0.372402 0.256916
#
# Coordination Sequence:
#
# PCOD8244726 Si02
#       5
#     4   4   8   8   8
#     4  11  23  43  67  87 121 165 202 263 314 363
#     4   9  19  37  65  89 113 161 214 251 306 365
#     4   9  19  36  57  84 122 159 205 245 304 366
#     4  10  21  34  55  87 123 166 206 251 304 368
#     4  11  23  38  61  92 124 159 208 251 309 373
#
# _framework density 19.533881000000001
#
# number of rings (size 3 to 8) (size 9 to 14) (size 15 to 20)
#    0.750    1.250    1.250    2.250    1.750    3.500 
#    0.000    1.250    0.000    1.500    0.000    0.000 
#    0.000    0.000    0.000    0.000    0.000    0.000 
#
# Total GULP energy -396677.907266 kJ/mol
# GULP energy per Si atom -12396.184602 kJ/mol
# Density = 1.948942 g / cm^3
# Si number density = 19.533881 Si / 1000 Ang^3
#
#
#
# Elastic Constant Matrix: (Units=GPa)
#
#
# Indices 1 2 3 4 5 6 
#
# 1 64.3588 39.2209 28.2050 0.0000 0.0000 0.0000
# 2 39.2209 141.3638 81.4583 0.0000 0.0000 0.0000
# 3 28.2050 81.4583 149.1040 0.0000 0.0000 0.0000
# 4 0.0000 0.0000 0.0000 31.7316 0.0000 0.0000
# 5 0.0000 0.0000 0.0000 0.0000 28.1938 0.0000
# 6 0.0000 0.0000 0.0000 0.0000 0.0000 24.0594
#
#
#
# Elastic Compliance Matrix: (Units=1/GPa)
#
#
# Indices 1 2 3 4 5 6 
#
# 1 0.018808 -0.004624 -0.001032 0.000000 0.000000 0.000000
# 2 -0.004624 0.011461 -0.005387 0.000000 0.000000 0.000000
# 3 -0.001032 -0.005387 0.009845 0.000000 0.000000 0.000000
# 4 0.000000 0.000000 0.000000 0.031514 0.000000 0.000000
# 5 0.000000 0.000000 0.000000 0.000000 0.035469 0.000000
# 6 0.000000 0.000000 0.000000 0.000000 0.000000 0.041564
#
#
# Mechanical properties :
#
#
# Convention : Reuss Voigt Hill
#
# Bulk Modulus (GPa) = 55.46554 72.51055 63.98805
# Shear Modulus (GPa) = 28.28796 30.52644 29.40720
#
# Velocity S-wave (km/s) = 3.80958 3.95744 3.88422
# Velocity P-wave (km/s) = 6.91424 7.62121 7.27632
#
# Compressibility (1/GPa) = 0.01802921
#
# Stress axis : x y z
#
# Youngs Moduli (GPa) = 53.16959 87.25503 101.57772
#
# Poissons Ratio (x) = 0.40343 0.10481
# Poissons Ratio (y) = 0.24584 0.54715
# Poissons Ratio (z) = 0.05486 0.47000
#
# Static dielectric constant tensor:
#      x y z
#    x 3.336630 0.000000 0.000000 
#    y 0.000000 3.619100 0.000000 
#    z 0.000000 0.000000 3.531070 
# 
# 
# High freq. dielectric constant tensor:
#      x y z
#    x 1.737100 0.000000 0.000000 
#    y 0.000000 1.757870 0.000000 
#    z 0.000000 0.000000 1.773200 
# 
# From -- ./inp_files/5579.got.cif
#   From: 2010.03.12/outbox.cif.g09.slc.cpg/sg59_3_cif.got.tgz:5579.got - 2010.04.16 16:29:54.
