data_PCOD8244717
_publ_section_title
;
Structure prediction by ZEFSAII (Michael W. Deem and Ramdas Pophale) SiO2 
 PCOD8244717
Probable space group: P M M N
;
_chemical_formula_sum "Si O2"
_cell_formula_units_Z 48
_cell_length_a 22.746923
_cell_length_b 12.807332
_cell_length_c 8.857772
_cell_angle_alpha 90.000000
_cell_angle_beta 90.000000
_cell_angle_gamma 90.000000
_cell_volume 2580.511641
_symmetry_space_group_name_H-M "P M M N"
_symmetry_group_IT_number 59
_space_group.IT_coordinate_system_code '2'
_symmetry_cell_setting 'orthorhombic'
loop_
_space_group_symop_operation_xyz
x,y,z
1/2-x,1/2-y,z
1/2+x,-y,-z
-x,1/2+y,-z
-x,-y,-z
1/2+x,1/2+y,-z
1/2-x,y,z
x,1/2-y,z
loop_
_atom_site_type_symbol
_atom_site_label
_atom_site_fract_x
_atom_site_fract_y
_atom_site_fract_z
Si Si1 0.492854 0.369524 0.806417
Si Si2 0.317378 0.054663 0.676182
Si Si3 0.682172 0.368640 0.535634
Si Si4 0.924325 0.867117 0.486037
Si Si5 0.101662 0.505327 0.244812
Si Si6 0.625355 0.627797 0.027939
O O1 0.511477 0.250000 0.793831
O O2 0.467170 0.407915 0.645656
O O3 0.551515 0.432921 0.847704
O O4 0.443595 0.384196 0.934280
O O5 0.250000 0.087825 0.653217
O O6 0.357176 0.131353 0.575223
O O7 0.334639 0.066524 0.851186
O O8 0.328349 0.935830 0.617293
O O9 0.750000 0.371835 0.583488
O O10 0.661417 0.250000 0.503025
O O11 0.646595 0.414965 0.677049
O O12 0.940120 0.750000 0.533479
O O13 0.932767 0.938344 0.630844
O O14 0.136688 0.428265 0.132184
O O15 0.643504 0.750000 0.021094
#
# Coordination Sequence:
#
# PCOD8244717 Si02
#       6
#     8   8   8   8   8   8
#     4   9  18  33  50  69  96 133 172 205 243 292
#     4   9  18  34  55  73  94 132 172 203 244 297
#     4   9  19  36  55  75  99 127 165 213 255 292
#     4   9  18  31  49  74 100 128 167 212 252 291
#     4  11  19  31  52  75 102 134 165 203 252 303
#     4  10  21  34  49  74 107 136 164 203 247 294
#
# _framework density 18.600961999999999
#
# number of rings (size 3 to 8) (size 9 to 14) (size 15 to 20)
#    0.000    2.500    0.000    3.500    0.000    2.000 
#    0.000    1.667    0.000   11.000    0.000    0.000 
#    0.000    0.000    0.000    0.000    0.000    0.000 
#
# Total GULP energy -595100.320831 kJ/mol
# GULP energy per Si atom -12397.923351 kJ/mol
# Density = 1.855863 g / cm^3
# Si number density = 18.600962 Si / 1000 Ang^3
#
#
#
# Elastic Constant Matrix: (Units=GPa)
#
#
# Indices 1 2 3 4 5 6 
#
# 1 63.3776 34.8695 12.0195 0.0000 0.0000 0.0000
# 2 34.8695 106.6966 47.4366 0.0000 0.0000 0.0000
# 3 12.0195 47.4366 76.4315 0.0000 0.0000 0.0000
# 4 0.0000 0.0000 0.0000 29.1169 0.0000 0.0000
# 5 0.0000 0.0000 0.0000 0.0000 17.7358 0.0000
# 6 0.0000 0.0000 0.0000 0.0000 0.0000 25.8581
#
#
#
# Elastic Compliance Matrix: (Units=1/GPa)
#
#
# Indices 1 2 3 4 5 6 
#
# 1 0.019319 -0.006854 0.001216 0.000000 0.000000 0.000000
# 2 -0.006854 0.015376 -0.008465 0.000000 0.000000 0.000000
# 3 0.001216 -0.008465 0.018146 0.000000 0.000000 0.000000
# 4 0.000000 0.000000 0.000000 0.034344 0.000000 0.000000
# 5 0.000000 0.000000 0.000000 0.000000 0.056383 0.000000
# 6 0.000000 0.000000 0.000000 0.000000 0.000000 0.038673
#
#
# Mechanical properties :
#
#
# Convention : Reuss Voigt Hill
#
# Bulk Modulus (GPa) = 40.59370 48.35077 44.47223
# Shear Modulus (GPa) = 22.86664 24.68750 23.77707
#
# Velocity S-wave (km/s) = 3.50998 3.64705 3.57917
# Velocity P-wave (km/s) = 6.18849 6.61700 6.40633
#
# Compressibility (1/GPa) = 0.02463437
#
# Stress axis : x y z
#
# Youngs Moduli (GPa) = 51.76269 65.03681 55.10812
#
# Poissons Ratio (x) = 0.44578 -0.06701
# Poissons Ratio (y) = 0.35479 0.46649
# Poissons Ratio (z) = -0.06294 0.55054
#
# Static dielectric constant tensor:
#      x y z
#    x 3.306220 0.000000 0.000000 
#    y 0.000000 3.459210 0.000000 
#    z 0.000000 0.000000 3.243170 
# 
# 
# High freq. dielectric constant tensor:
#      x y z
#    x 1.714340 0.000000 0.000000 
#    y 0.000000 1.725060 0.000000 
#    z 0.000000 0.000000 1.706650 
# 
# From -- ./inp_files/7568.got.cif
#   From: 2010.03.12/outbox.cif.g09.slc.cpg/sg59_4_cif.got.tgz:7568.got - 2010.04.16 16:29:54.
