data_PCOD8244228
_publ_section_title
;
Structure prediction by ZEFSAII (Michael W. Deem and Ramdas Pophale) SiO2 
 PCOD8244228
Probable space group: P M M N
;
_chemical_formula_sum "Si O2"
_cell_formula_units_Z 48
_cell_length_a 28.514493
_cell_length_b 9.680084
_cell_length_c 9.768228
_cell_angle_alpha 90.000000
_cell_angle_beta 90.000000
_cell_angle_gamma 90.000000
_cell_volume 2696.252544
_symmetry_space_group_name_H-M "P M M N"
_symmetry_group_IT_number 59
_space_group.IT_coordinate_system_code '2'
_symmetry_cell_setting 'orthorhombic'
loop_
_space_group_symop_operation_xyz
x,y,z
1/2-x,1/2-y,z
1/2+x,-y,-z
-x,1/2+y,-z
-x,-y,-z
1/2+x,1/2+y,-z
1/2-x,y,z
x,1/2-y,z
loop_
_atom_site_type_symbol
_atom_site_label
_atom_site_fract_x
_atom_site_fract_y
_atom_site_fract_z
Si Si1 0.130079 0.909162 0.493083
Si Si2 0.804587 0.407977 0.263649
Si Si3 0.980136 0.590321 0.878786
Si Si4 0.695968 0.590178 0.009239
Si Si5 0.377678 0.088441 0.223833
Si Si6 0.971215 0.093974 0.400301
O O1 0.134648 0.750000 0.446019
O O2 0.171612 0.953720 0.594687
O O3 0.083381 0.934343 0.580507
O O4 0.132144 0.004449 0.360865
O O5 0.750000 0.429083 0.287842
O O6 0.817625 0.250000 0.227729
O O7 0.821988 0.501999 0.138233
O O8 0.980379 0.750000 0.923303
O O9 0.927493 0.543503 0.839859
O O10 0.015288 0.560686 0.754624
O O11 0.000000 0.500000 0.000000
O O12 0.750000 0.555042 0.972221
O O13 0.690043 0.750000 0.048586
O O14 0.663890 0.551076 0.880449
O O15 0.378239 0.250000 0.261070
O O16 0.985025 0.250000 0.437378
O O17 0.000000 0.000000 0.500000
#
# Coordination Sequence:
#
# PCOD8244228 Si02
#       6
#     8   8   8   8   8   8
#     4  10  21  35  54  80 106 137 176 216 259 310
#     4   9  19  36  56  79 107 137 172 216 263 312
#     4  10  22  37  53  77 107 139 175 217 260 308
#     4   9  19  36  56  78 105 137 174 216 261 311
#     4  10  21  37  54  77 108 139 175 217 261 310
#     4  10  20  36  55  76 105 140 175 213 257 306
#
# _framework density 17.802486999999999
#
# number of rings (size 3 to 8) (size 9 to 14) (size 15 to 20)
#    0.000    2.333    1.667    0.000    2.333    3.333 
#    0.000    0.000    0.000    0.000    0.000    0.000 
#    0.000    0.000    0.000    0.000    0.000    0.000 
#
# Total GULP energy -595308.035597 kJ/mol
# GULP energy per Si atom -12402.250742 kJ/mol
# Density = 1.776197 g / cm^3
# Si number density = 17.802487 Si / 1000 Ang^3
#
#
#
# Elastic Constant Matrix: (Units=GPa)
#
#
# Indices 1 2 3 4 5 6 
#
# 1 90.5379 52.2350 80.8966 0.0000 0.0000 0.0000
# 2 52.2350 80.4759 88.2977 0.0000 0.0000 0.0000
# 3 80.8966 88.2977 158.3028 0.0000 0.0000 0.0000
# 4 0.0000 0.0000 0.0000 42.5560 0.0000 0.0000
# 5 0.0000 0.0000 0.0000 0.0000 38.3212 0.0000
# 6 0.0000 0.0000 0.0000 0.0000 0.0000 23.7883
#
#
#
# Elastic Compliance Matrix: (Units=1/GPa)
#
#
# Indices 1 2 3 4 5 6 
#
# 1 0.021018 -0.004788 -0.008070 0.000000 0.000000 0.000000
# 2 -0.004788 0.033116 -0.016025 0.000000 0.000000 0.000000
# 3 -0.008070 -0.016025 0.019379 0.000000 0.000000 0.000000
# 4 0.000000 0.000000 0.000000 0.023498 0.000000 0.000000
# 5 0.000000 0.000000 0.000000 0.000000 0.026095 0.000000
# 6 0.000000 0.000000 0.000000 0.000000 0.000000 0.042037
#
#
# Mechanical properties :
#
#
# Convention : Reuss Voigt Hill
#
# Bulk Modulus (GPa) = 63.50000 85.79723 74.64861
# Shear Modulus (GPa) = 21.91454 28.12559 25.02007
#
# Velocity S-wave (km/s) = 3.51234 3.97907 3.75297
# Velocity P-wave (km/s) = 7.22463 8.33122 7.79758
#
# Compressibility (1/GPa) = 0.01574803
#
# Stress axis : x y z
#
# Youngs Moduli (GPa) = 47.57757 30.19718 51.60143
#
# Poissons Ratio (x) = 0.14457 0.41644
# Poissons Ratio (y) = 0.22779 0.82689
# Poissons Ratio (z) = 0.38397 0.48390
#
# Static dielectric constant tensor:
#      x y z
#    x 4.010270 0.000000 0.000000 
#    y 0.000000 3.331340 0.000000 
#    z 0.000000 0.000000 3.339920 
# 
# 
# High freq. dielectric constant tensor:
#      x y z
#    x 1.699510 0.000000 0.000000 
#    y 0.000000 1.688130 0.000000 
#    z 0.000000 0.000000 1.688400 
# 
# From -- ./inp_files/6204.got.cif
#   From: 2010.03.12/outbox.cif.g09.slc.cpg/sg59_4_cif.got.tgz:6204.got - 2010.04.16 16:29:54.
