data_PCOD8244461
_publ_section_title
;
Structure prediction by ZEFSAII (Michael W. Deem and Ramdas Pophale) SiO2 
 PCOD8244461
Probable space group: P M M N
;
_chemical_formula_sum "Si O2"
_cell_formula_units_Z 64
_cell_length_a 9.040018
_cell_length_b 28.189081
_cell_length_c 12.883429
_cell_angle_alpha 90.000000
_cell_angle_beta 90.000000
_cell_angle_gamma 90.000000
_cell_volume 3283.081631
_symmetry_space_group_name_H-M "P M M N"
_symmetry_group_IT_number 59
_space_group.IT_coordinate_system_code '2'
_symmetry_cell_setting 'orthorhombic'
loop_
_space_group_symop_operation_xyz
x,y,z
1/2-x,1/2-y,z
1/2+x,-y,-z
-x,1/2+y,-z
-x,-y,-z
1/2+x,1/2+y,-z
1/2-x,y,z
x,1/2-y,z
loop_
_atom_site_type_symbol
_atom_site_label
_atom_site_fract_x
_atom_site_fract_y
_atom_site_fract_z
Si Si1 0.424586 0.646881 0.972057
Si Si2 0.425268 0.696649 0.177354
Si Si3 0.077499 0.545960 0.042728
Si Si4 0.578229 0.031308 0.413109
Si Si5 0.923744 0.305761 0.239083
Si Si6 0.417058 0.142557 0.644531
Si Si7 0.584772 0.546233 0.250594
Si Si8 0.575922 0.631910 0.589186
O O1 0.250000 0.653789 0.976031
O O2 0.485245 0.671706 0.868216
O O3 0.492714 0.671147 0.075296
O O4 0.467861 0.591308 0.972884
O O5 0.250000 0.694828 0.174540
O O6 0.485251 0.750000 0.177317
O O7 0.474883 0.671781 0.282673
O O8 0.250000 0.537148 0.037790
O O9 0.033585 0.555235 0.161189
O O10 0.000000 0.500000 0.000000
O O11 0.750000 0.037578 0.443490
O O12 0.503999 0.081898 0.395950
O O13 0.500000 0.000000 0.500000
O O14 0.561066 0.004661 0.303269
O O15 0.750000 0.316161 0.253242
O O16 0.956999 0.250000 0.237587
O O17 0.012767 0.329385 0.332257
O O18 0.250000 0.158432 0.669544
O O19 0.437354 0.086327 0.662044
O O20 0.456851 0.152549 0.525142
O O21 0.750000 0.549082 0.202619
O O22 0.750000 0.624450 0.607145
#
# Coordination Sequence:
#
# PCOD8244461 Si02
#       8
#     8   8   8   8   8   8   8   8
#     4   9  19  38  62  87 117 154 193 241 301 359
#     4  10  20  36  61  91 117 145 192 249 297 352
#     4  11  23  38  58  88 124 159 196 239 298 361
#     4  11  22  38  61  89 121 157 200 247 297 357
#     4  10  22  42  66  89 116 158 210 259 311 366
#     4  10  21  39  59  83 120 159 193 237 299 361
#     4  10  21  39  59  82 118 159 198 240 293 359
#     4  11  24  42  61  88 124 163 208 253 305 363
#
# _framework density 19.493880999999998
#
# number of rings (size 3 to 8) (size 9 to 14) (size 15 to 20)
#    0.000    1.750    2.500    1.500    1.750    4.500 
#    0.000    3.750    0.000    1.500    0.000    0.000 
#    0.000    0.000    0.000    0.000    0.000    0.000 
#
# Total GULP energy -793724.556114 kJ/mol
# GULP energy per Si atom -12401.946189 kJ/mol
# Density = 1.944951 g / cm^3
# Si number density = 19.493881 Si / 1000 Ang^3
#
#
#
# Elastic Constant Matrix: (Units=GPa)
#
#
# Indices 1 2 3 4 5 6 
#
# 1 70.8695 58.0535 46.8968 0.0000 0.0000 0.0000
# 2 58.0535 138.6025 73.4392 0.0000 0.0000 0.0000
# 3 46.8968 73.4392 137.4217 0.0000 0.0000 0.0000
# 4 0.0000 0.0000 0.0000 32.8594 0.0000 0.0000
# 5 0.0000 0.0000 0.0000 0.0000 33.0324 0.0000
# 6 0.0000 0.0000 0.0000 0.0000 0.0000 31.3522
#
#
#
# Elastic Compliance Matrix: (Units=1/GPa)
#
#
# Indices 1 2 3 4 5 6 
#
# 1 0.022774 -0.007562 -0.003731 0.000000 0.000000 0.000000
# 2 -0.007562 0.012576 -0.004140 0.000000 0.000000 0.000000
# 3 -0.003731 -0.004140 0.010762 0.000000 0.000000 0.000000
# 4 0.000000 0.000000 0.000000 0.030433 0.000000 0.000000
# 5 0.000000 0.000000 0.000000 0.000000 0.030273 0.000000
# 6 0.000000 0.000000 0.000000 0.000000 0.000000 0.031896
#
#
# Mechanical properties :
#
#
# Convention : Reuss Voigt Hill
#
# Bulk Modulus (GPa) = 65.58803 78.18585 71.88694
# Shear Modulus (GPa) = 28.62690 30.68242 29.65466
#
# Velocity S-wave (km/s) = 3.83627 3.97161 3.90453
# Velocity P-wave (km/s) = 7.30350 7.82474 7.56861
#
# Compressibility (1/GPa) = 0.01524668
#
# Stress axis : x y z
#
# Youngs Moduli (GPa) = 43.91043 79.51776 92.91608
#
# Poissons Ratio (x) = 0.60132 0.34663
# Poissons Ratio (y) = 0.33205 0.38467
# Poissons Ratio (z) = 0.16381 0.32920
#
# Static dielectric constant tensor:
#      x y z
#    x 3.504850 0.000000 0.000000 
#    y 0.000000 3.685010 0.000000 
#    z 0.000000 0.000000 3.689990 
# 
# 
# High freq. dielectric constant tensor:
#      x y z
#    x 1.745550 0.000000 0.000000 
#    y 0.000000 1.769040 0.000000 
#    z 0.000000 0.000000 1.765620 
# 
# From -- ./inp_files/14996.got.cif
#   From: 2010.03.12/outbox.cif.g09.slc.cpg/sg59_8_cif.got.tgz:14996.got - 2010.04.16 16:29:54.
