data_PCOD8244425
_publ_section_title
;
Structure prediction by ZEFSAII (Michael W. Deem and Ramdas Pophale) SiO2 
 PCOD8244425
Probable space group: P M M N
;
_chemical_formula_sum "Si O2"
_cell_formula_units_Z 64
_cell_length_a 18.723926
_cell_length_b 8.858596
_cell_length_c 19.945185
_cell_angle_alpha 90.000000
_cell_angle_beta 90.000000
_cell_angle_gamma 90.000000
_cell_volume 3308.261882
_symmetry_space_group_name_H-M "P M M N"
_symmetry_group_IT_number 59
_space_group.IT_coordinate_system_code '2'
_symmetry_cell_setting 'orthorhombic'
loop_
_space_group_symop_operation_xyz
x,y,z
1/2-x,1/2-y,z
1/2+x,-y,-z
-x,1/2+y,-z
-x,-y,-z
1/2+x,1/2+y,-z
1/2-x,y,z
x,1/2-y,z
loop_
_atom_site_type_symbol
_atom_site_label
_atom_site_fract_x
_atom_site_fract_y
_atom_site_fract_z
Si Si1 0.415405 0.571376 0.101194
Si Si2 0.910494 0.425680 0.662948
Si Si3 0.924613 0.073740 0.512446
Si Si4 0.565726 0.926900 0.282612
Si Si5 0.060078 0.928297 0.862232
Si Si6 0.666674 0.575906 0.779459
Si Si7 0.832373 0.427715 0.387578
Si Si8 0.329598 0.571379 0.972769
O O1 0.426112 0.750000 0.098887
O O2 0.492140 0.493656 0.098899
O O3 0.375207 0.529189 0.169164
O O4 0.370583 0.508913 0.038123
O O5 0.895525 0.250000 0.677369
O O6 0.895489 0.468844 0.585897
O O7 0.856101 0.527057 0.705132
O O8 0.991928 0.467900 0.680736
O O9 0.937767 0.250000 0.507318
O O10 0.867388 0.018755 0.457568
O O11 0.000000 0.000000 0.500000
O O12 0.574199 0.750000 0.272021
O O13 0.568275 0.004857 0.211007
O O14 0.631188 0.986950 0.326165
O O15 0.051544 0.750000 0.856898
O O16 0.129376 0.975507 0.905234
O O17 0.750000 0.547718 0.788910
O O18 0.646234 0.750000 0.791354
O O19 0.750000 0.475005 0.389582
O O20 0.842021 0.250000 0.376620
O O21 0.250000 0.501025 0.970388
O O22 0.324966 0.750000 0.978879
#
# Coordination Sequence:
#
# PCOD8244425 Si02
#       8
#     8   8   8   8   8   8   8   8
#     4  11  21  37  62  88 116 154 195 238 289 352
#     4  10  21  37  59  86 116 153 194 238 289 350
#     4  10  20  36  60  87 114 149 194 241 290 347
#     4  11  22  38  60  88 119 154 199 245 292 349
#     4  11  22  37  61  89 118 153 195 247 296 347
#     4  11  24  39  57  86 121 154 192 237 286 344
#     4  10  22  39  60  88 120 156 198 244 298 357
#     4   9  20  38  59  85 116 151 194 242 295 353
#
# _framework density 19.345504999999999
#
# number of rings (size 3 to 8) (size 9 to 14) (size 15 to 20)
#    0.000    1.625    2.500    2.250    0.000    3.750 
#    0.000    4.375    0.000    4.125    0.000    0.000 
#    0.000    0.000    0.000    0.000    0.000    0.000 
#
# Total GULP energy -793863.034512 kJ/mol
# GULP energy per Si atom -12404.109914 kJ/mol
# Density = 1.930147 g / cm^3
# Si number density = 19.345505 Si / 1000 Ang^3
#
#
#
# Elastic Constant Matrix: (Units=GPa)
#
#
# Indices 1 2 3 4 5 6 
#
# 1 126.7329 47.3009 72.6288 0.0000 0.0000 0.0000
# 2 47.3009 49.2592 37.9208 0.0000 0.0000 0.0000
# 3 72.6288 37.9208 118.0826 0.0000 0.0000 0.0000
# 4 0.0000 0.0000 0.0000 24.1512 0.0000 0.0000
# 5 0.0000 0.0000 0.0000 0.0000 34.9612 0.0000
# 6 0.0000 0.0000 0.0000 0.0000 0.0000 27.6378
#
#
#
# Elastic Compliance Matrix: (Units=1/GPa)
#
#
# Indices 1 2 3 4 5 6 
#
# 1 0.015025 -0.009715 -0.006121 0.000000 0.000000 0.000000
# 2 -0.009715 0.033249 -0.004702 0.000000 0.000000 0.000000
# 3 -0.006121 -0.004702 0.013744 0.000000 0.000000 0.000000
# 4 0.000000 0.000000 0.000000 0.041406 0.000000 0.000000
# 5 0.000000 0.000000 0.000000 0.000000 0.028603 0.000000
# 6 0.000000 0.000000 0.000000 0.000000 0.000000 0.036182
#
#
# Mechanical properties :
#
#
# Convention : Reuss Voigt Hill
#
# Bulk Modulus (GPa) = 47.75400 67.75286 57.75343
# Shear Modulus (GPa) = 23.11965 26.43166 24.77566
#
# Velocity S-wave (km/s) = 3.46076 3.70035 3.58256
# Velocity P-wave (km/s) = 6.38025 7.30448 6.85795
#
# Compressibility (1/GPa) = 0.02094065
#
# Stress axis : x y z
#
# Youngs Moduli (GPa) = 66.55759 30.07575 72.76042
#
# Poissons Ratio (x) = 0.29218 0.44539
# Poissons Ratio (y) = 0.64660 0.34214
# Poissons Ratio (z) = 0.40742 0.14142
#
# Static dielectric constant tensor:
#      x y z
#    x 3.656630 0.000000 0.000000 
#    y 0.000000 3.436070 0.000000 
#    z 0.000000 0.000000 4.025830 
# 
# 
# High freq. dielectric constant tensor:
#      x y z
#    x 1.757000 0.000000 0.000000 
#    y 0.000000 1.743410 0.000000 
#    z 0.000000 0.000000 1.768330 
# 
# From -- ./inp_files/30803.got.cif
#   From: 2010.03.12/outbox.cif.g09.slc.cpg/sg59_16_cif.got.tgz:30803.got - 2010.04.16 16:29:54.
