data_PCOD8244260
_publ_section_title
;
Structure prediction by ZEFSAII (Michael W. Deem and Ramdas Pophale) SiO2 
 PCOD8244260
Probable space group: P M M N
;
_chemical_formula_sum "Si O2"
_cell_formula_units_Z 48
_cell_length_a 16.037363
_cell_length_b 9.095753
_cell_length_c 16.903270
_cell_angle_alpha 90.000000
_cell_angle_beta 90.000000
_cell_angle_gamma 90.000000
_cell_volume 2465.711986
_symmetry_space_group_name_H-M "P M M N"
_symmetry_group_IT_number 59
_space_group.IT_coordinate_system_code '2'
_symmetry_cell_setting 'orthorhombic'
loop_
_space_group_symop_operation_xyz
x,y,z
1/2-x,1/2-y,z
1/2+x,-y,-z
-x,1/2+y,-z
-x,-y,-z
1/2+x,1/2+y,-z
1/2-x,y,z
x,1/2-y,z
loop_
_atom_site_type_symbol
_atom_site_label
_atom_site_fract_x
_atom_site_fract_y
_atom_site_fract_z
Si Si1 0.750000 0.076518 0.269536
Si Si2 0.416665 0.076015 0.468394
Si Si3 0.568115 0.419728 0.834181
Si Si4 0.843200 0.074815 0.990505
Si Si5 0.250000 0.423249 0.562540
Si Si6 0.401667 0.576212 0.839801
Si Si7 0.654904 0.081073 0.673637
O O1 0.750000 0.250000 0.283336
O O2 0.669981 0.024930 0.219966
O O3 0.750000 0.998310 0.352990
O O4 0.429493 0.250000 0.470632
O O5 0.334183 0.026904 0.517134
O O6 0.500000 0.000000 0.500000
O O7 0.404084 0.023109 0.378440
O O8 0.544241 0.250000 0.844433
O O9 0.604133 0.484887 0.916160
O O10 0.486541 0.507377 0.808413
O O11 0.636143 0.442647 0.765971
O O12 0.750000 0.011275 0.984082
O O13 0.839996 0.250000 0.989324
O O14 0.883393 0.016738 0.071832
O O15 0.250000 0.250000 0.574148
O O16 0.409038 0.750000 0.840682
O O17 0.750000 0.035227 0.659006
O O18 0.638816 0.250000 0.649288
#
# Coordination Sequence:
#
# PCOD8244260 Si02
#       7
#     4   8   8   8   4   8   8
#     4  10  22  38  58  83 110 148 194 233 280 342
#     4  11  24  43  65  91 120 155 196 241 297 357
#     4  10  21  34  55  86 115 147 189 235 283 336
#     4   9  16  32  57  80 109 150 192 232 276 331
#     4  10  24  44  64  87 118 152 192 243 296 350
#     4  10  20  36  56  81 112 149 192 236 281 335
#     4  10  21  39  61  87 119 153 193 238 287 346
#
# _framework density 19.466992999999999
#
# number of rings (size 3 to 8) (size 9 to 14) (size 15 to 20)
#    0.000    2.000    1.667    1.500    2.333    4.667 
#    0.000    0.000    0.000    2.500    0.000    0.000 
#    0.000    0.000    0.000    0.000    0.000    0.000 
#
# Total GULP energy -595305.030064 kJ/mol
# GULP energy per Si atom -12402.188126 kJ/mol
# Density = 1.942269 g / cm^3
# Si number density = 19.466993 Si / 1000 Ang^3
#
#
#
# Elastic Constant Matrix: (Units=GPa)
#
#
# Indices 1 2 3 4 5 6 
#
# 1 128.3964 38.4995 39.3831 0.0000 0.0000 0.0000
# 2 38.4995 38.1390 33.6703 0.0000 0.0000 0.0000
# 3 39.3831 33.6703 118.2408 0.0000 0.0000 0.0000
# 4 0.0000 0.0000 0.0000 28.6704 0.0000 0.0000
# 5 0.0000 0.0000 0.0000 0.0000 32.3751 0.0000
# 6 0.0000 0.0000 0.0000 0.0000 0.0000 30.4077
#
#
#
# Elastic Compliance Matrix: (Units=1/GPa)
#
#
# Indices 1 2 3 4 5 6 
#
# 1 0.011210 -0.010713 -0.000683 0.000000 0.000000 0.000000
# 2 -0.010713 0.045263 -0.009321 0.000000 0.000000 0.000000
# 3 -0.000683 -0.009321 0.011339 0.000000 0.000000 0.000000
# 4 0.000000 0.000000 0.000000 0.034879 0.000000 0.000000
# 5 0.000000 0.000000 0.000000 0.000000 0.030888 0.000000
# 6 0.000000 0.000000 0.000000 0.000000 0.000000 0.032886
#
#
# Mechanical properties :
#
#
# Convention : Reuss Voigt Hill
#
# Bulk Modulus (GPa) = 37.91027 56.43133 47.17080
# Shear Modulus (GPa) = 23.07417 29.83885 26.45651
#
# Velocity S-wave (km/s) = 3.44655 3.91934 3.69052
# Velocity P-wave (km/s) = 5.94598 7.03795 6.51488
#
# Compressibility (1/GPa) = 0.02637808
#
# Stress axis : x y z
#
# Youngs Moduli (GPa) = 89.20425 22.09316 88.19064
#
# Poissons Ratio (x) = 0.23668 0.06025
# Poissons Ratio (y) = 0.95565 0.82201
# Poissons Ratio (z) = 0.06095 0.20593
#
# Static dielectric constant tensor:
#      x y z
#    x 3.668780 0.000000 0.000000 
#    y 0.000000 3.267100 0.000000 
#    z 0.000000 0.000000 3.633680 
# 
# 
# High freq. dielectric constant tensor:
#      x y z
#    x 1.770040 0.000000 0.000000 
#    y 0.000000 1.729970 0.000000 
#    z 0.000000 0.000000 1.770120 
# 
# From -- ./inp_files/20625.got.cif
#   From: 2010.03.12/outbox.cif.g09.slc.cpg/sg59_11_cif.got.tgz:20625.got - 2010.04.16 16:29:54.
