data_PCOD8244321
_publ_section_title
;
Structure prediction by ZEFSAII (Michael W. Deem and Ramdas Pophale) SiO2 
 PCOD8244321
Probable space group: P M M N
;
_chemical_formula_sum "Si O2"
_cell_formula_units_Z 56
_cell_length_a 13.114727
_cell_length_b 15.172591
_cell_length_c 14.243847
_cell_angle_alpha 90.000000
_cell_angle_beta 90.000000
_cell_angle_gamma 90.000000
_cell_volume 2834.303190
_symmetry_space_group_name_H-M "P M M N"
_symmetry_group_IT_number 59
_space_group.IT_coordinate_system_code '2'
_symmetry_cell_setting 'orthorhombic'
loop_
_space_group_symop_operation_xyz
x,y,z
1/2-x,1/2-y,z
1/2+x,-y,-z
-x,1/2+y,-z
-x,-y,-z
1/2+x,1/2+y,-z
1/2-x,y,z
x,1/2-y,z
loop_
_atom_site_type_symbol
_atom_site_label
_atom_site_fract_x
_atom_site_fract_y
_atom_site_fract_z
Si Si1 0.038049 0.647679 0.138253
Si Si2 0.633560 0.852840 0.279014
Si Si3 0.637836 0.353268 0.049827
Si Si4 0.973630 0.145312 0.235858
Si Si5 0.861950 0.149876 0.420033
Si Si6 0.364936 0.002893 0.251039
Si Si7 0.026925 0.931245 0.421298
O O1 0.067779 0.750000 0.156630
O O2 0.051628 0.622518 0.028310
O O3 0.116667 0.585478 0.191661
O O4 0.923740 0.629601 0.178888
O O5 0.750000 0.888627 0.272727
O O6 0.634391 0.750000 0.302357
O O7 0.572136 0.899856 0.363236
O O8 0.750000 0.395595 0.028591
O O9 0.651441 0.250000 0.050435
O O10 0.602093 0.383177 0.152478
O O11 0.998546 0.250000 0.236737
O O12 0.926000 0.108317 0.333421
O O13 0.074813 0.089318 0.216976
O O14 0.750000 0.104389 0.426510
O O15 0.846742 0.250000 0.390795
O O16 0.919720 0.147307 0.520119
O O17 0.250000 0.032702 0.241417
O O18 0.389214 0.977557 0.357415
O O19 0.000000 0.000000 0.500000
#
# Coordination Sequence:
#
# PCOD8244321 Si02
#       7
#     8   8   8   8   8   8   8
#     4   9  19  37  60  87 117 144 182 237 293 346
#     4   9  19  36  57  81 111 147 184 223 276 343
#     4   9  17  33  60  89 115 149 191 238 291 341
#     4  10  21  38  56  81 117 155 197 237 275 334
#     4  10  20  36  58  82 110 145 186 237 292 338
#     4  11  23  38  56  82 114 151 192 237 288 341
#     4  11  21  37  54  79 110 141 184 238 280 334
#
# _framework density 19.757942
#
# number of rings (size 3 to 8) (size 9 to 14) (size 15 to 20)
#    0.000    2.143    1.429    1.714    0.000    5.143 
#    0.000    1.429    0.000    2.571    0.000    0.000 
#    0.000    0.000    0.000    0.000    0.000    0.000 
#
# Total GULP energy -693935.220827 kJ/mol
# GULP energy per Si atom -12391.700372 kJ/mol
# Density = 1.971297 g / cm^3
# Si number density = 19.757942 Si / 1000 Ang^3
#
#
#
# Elastic Constant Matrix: (Units=GPa)
#
#
# Indices 1 2 3 4 5 6 
#
# 1 167.4037 37.6879 63.2667 0.0000 0.0000 0.0000
# 2 37.6879 52.9223 24.2599 0.0000 0.0000 0.0000
# 3 63.2667 24.2599 129.2621 0.0000 0.0000 0.0000
# 4 0.0000 0.0000 0.0000 24.6966 0.0000 0.0000
# 5 0.0000 0.0000 0.0000 0.0000 18.7617 0.0000
# 6 0.0000 0.0000 0.0000 0.0000 0.0000 26.9524
#
#
#
# Elastic Compliance Matrix: (Units=1/GPa)
#
#
# Indices 1 2 3 4 5 6 
#
# 1 0.008153 -0.004351 -0.003174 0.000000 0.000000 0.000000
# 2 -0.004351 0.022996 -0.002186 0.000000 0.000000 0.000000
# 3 -0.003174 -0.002186 0.009700 0.000000 0.000000 0.000000
# 4 0.000000 0.000000 0.000000 0.040491 0.000000 0.000000
# 5 0.000000 0.000000 0.000000 0.000000 0.053300 0.000000
# 6 0.000000 0.000000 0.000000 0.000000 0.000000 0.037102
#
#
# Mechanical properties :
#
#
# Convention : Reuss Voigt Hill
#
# Bulk Modulus (GPa) = 46.67045 66.66856 56.66950
# Shear Modulus (GPa) = 25.21346 29.04038 27.12692
#
# Velocity S-wave (km/s) = 3.57615 3.83797 3.70937
# Velocity P-wave (km/s) = 6.38155 7.31135 6.86222
#
# Compressibility (1/GPa) = 0.02142684
#
# Stress axis : x y z
#
# Youngs Moduli (GPa) = 122.66147 43.48519 103.09394
#
# Poissons Ratio (x) = 0.18920 0.32718
# Poissons Ratio (y) = 0.53369 0.22541
# Poissons Ratio (z) = 0.38928 0.09508
#
# Static dielectric constant tensor:
#      x y z
#    x 4.015290 0.000000 0.000000 
#    y 0.000000 3.525780 0.000000 
#    z 0.000000 0.000000 4.404420 
# 
# 
# High freq. dielectric constant tensor:
#      x y z
#    x 1.763480 0.000000 0.000000 
#    y 0.000000 1.760420 0.000000 
#    z 0.000000 0.000000 1.776320 
# 
# From -- ./inp_files/22512.got.cif
#   From: 2010.03.12/outbox.cif.g09.slc.cpg/sg59_12_cif.got.tgz:22512.got - 2010.04.16 16:29:54.
