data_PCOD8244438
_publ_section_title
;
Structure prediction by ZEFSAII (Michael W. Deem and Ramdas Pophale) SiO2 
 PCOD8244438
Probable space group: P M M N
;
_chemical_formula_sum "Si O2"
_cell_formula_units_Z 64
_cell_length_a 25.280653
_cell_length_b 9.064525
_cell_length_c 14.373782
_cell_angle_alpha 90.000000
_cell_angle_beta 90.000000
_cell_angle_gamma 90.000000
_cell_volume 3293.854359
_symmetry_space_group_name_H-M "P M M N"
_symmetry_group_IT_number 59
_space_group.IT_coordinate_system_code '2'
_symmetry_cell_setting 'orthorhombic'
loop_
_space_group_symop_operation_xyz
x,y,z
1/2-x,1/2-y,z
1/2+x,-y,-z
-x,1/2+y,-z
-x,-y,-z
1/2+x,1/2+y,-z
1/2-x,y,z
x,1/2-y,z
loop_
_atom_site_type_symbol
_atom_site_label
_atom_site_fract_x
_atom_site_fract_y
_atom_site_fract_z
Si Si1 0.688084 0.080382 0.902858
Si Si2 0.899563 0.578046 0.386272
Si Si3 0.640132 0.422408 0.090352
Si Si4 0.809213 0.578733 0.717835
Si Si5 0.689907 0.075363 0.278145
Si Si6 0.408407 0.421233 0.400463
Si Si7 0.495025 0.575622 0.278733
Si Si8 0.981987 0.076677 0.093753
O O1 0.750000 0.059413 0.918683
O O2 0.672026 0.250000 0.890309
O O3 0.668598 0.998864 0.810349
O O4 0.659024 0.007950 0.992367
O O5 0.887710 0.750000 0.376167
O O6 0.846987 0.492229 0.357291
O O7 0.912749 0.536093 0.491972
O O8 0.948925 0.529002 0.323113
O O9 0.651971 0.250000 0.083628
O O10 0.673144 0.488115 0.176896
O O11 0.579384 0.457895 0.108414
O O12 0.750000 0.521221 0.691939
O O13 0.807351 0.750000 0.740696
O O14 0.848648 0.544033 0.633126
O O15 0.750000 0.028184 0.298711
O O16 0.682586 0.250000 0.280206
O O17 0.422891 0.250000 0.383180
O O18 0.448805 0.524691 0.346590
O O19 0.491232 0.750000 0.263804
O O20 0.487016 0.494497 0.180260
O O21 0.994150 0.250000 0.088761
O O22 0.000000 0.000000 0.000000
#
# Coordination Sequence:
#
# PCOD8244438 Si02
#       8
#     8   8   8   8   8   8   8   8
#     4   9  17  31  53  79 107 141 181 224 271 327
#     4  10  22  40  60  85 117 151 194 245 300 356
#     4   9  18  34  56  81 111 148 187 230 283 340
#     4   9  19  36  55  79 112 146 182 227 282 342
#     4  10  20  36  60  88 118 155 199 244 293 353
#     4  10  22  39  61  86 111 151 197 240 294 353
#     4  11  23  40  61  87 117 152 194 245 295 350
#     4  11  23  39  59  86 120 157 191 237 294 349
#
# _framework density 19.430125
#
# number of rings (size 3 to 8) (size 9 to 14) (size 15 to 20)
#    0.000    2.125    1.250    1.500    1.750    3.750 
#    0.000    2.500    0.000    3.000    0.000    0.000 
#    0.000    0.000    0.000    0.000    0.000    0.000 
#
# Total GULP energy -793751.864427 kJ/mol
# GULP energy per Si atom -12402.372882 kJ/mol
# Density = 1.938590 g / cm^3
# Si number density = 19.430125 Si / 1000 Ang^3
#
#
#
# Elastic Constant Matrix: (Units=GPa)
#
#
# Indices 1 2 3 4 5 6 
#
# 1 94.3131 47.1812 51.3806 0.0000 0.0000 0.0000
# 2 47.1812 59.6534 48.7655 0.0000 0.0000 0.0000
# 3 51.3806 48.7655 135.4390 0.0000 0.0000 0.0000
# 4 0.0000 0.0000 0.0000 32.5569 0.0000 0.0000
# 5 0.0000 0.0000 0.0000 0.0000 33.6702 0.0000
# 6 0.0000 0.0000 0.0000 0.0000 0.0000 28.0356
#
#
#
# Elastic Compliance Matrix: (Units=1/GPa)
#
#
# Indices 1 2 3 4 5 6 
#
# 1 0.018090 -0.012326 -0.002425 0.000000 0.000000 0.000000
# 2 -0.012326 0.032154 -0.006901 0.000000 0.000000 0.000000
# 3 -0.002425 -0.006901 0.010788 0.000000 0.000000 0.000000
# 4 0.000000 0.000000 0.000000 0.030715 0.000000 0.000000
# 5 0.000000 0.000000 0.000000 0.000000 0.029700 0.000000
# 6 0.000000 0.000000 0.000000 0.000000 0.000000 0.035669
#
#
# Mechanical properties :
#
#
# Convention : Reuss Voigt Hill
#
# Bulk Modulus (GPa) = 56.40602 64.89556 60.65079
# Shear Modulus (GPa) = 24.23317 28.32442 26.27879
#
# Velocity S-wave (km/s) = 3.53540 3.82220 3.68159
# Velocity P-wave (km/s) = 6.76451 7.27674 7.02529
#
# Compressibility (1/GPa) = 0.01772861
#
# Stress axis : x y z
#
# Youngs Moduli (GPa) = 55.27925 31.10061 92.69467
#
# Poissons Ratio (x) = 0.38333 0.22477
# Poissons Ratio (y) = 0.68135 0.63971
# Poissons Ratio (z) = 0.13404 0.21463
#
# Static dielectric constant tensor:
#      x y z
#    x 3.487890 0.000000 0.000000 
#    y 0.000000 3.404390 0.000000 
#    z 0.000000 0.000000 3.665320 
# 
# 
# High freq. dielectric constant tensor:
#      x y z
#    x 1.761620 0.000000 0.000000 
#    y 0.000000 1.737060 0.000000 
#    z 0.000000 0.000000 1.767150 
# 
# From -- ./inp_files/24728.got.cif
#   From: 2010.03.12/outbox.cif.g09.slc.cpg/sg59_13_cif.got.tgz:24728.got - 2010.04.16 16:29:54.
