data_PCOD8244573
_publ_section_title
;
Structure prediction by ZEFSAII (Michael W. Deem and Ramdas Pophale) SiO2 
 PCOD8244573
Probable space group: P M M N
;
_chemical_formula_sum "Si O2"
_cell_formula_units_Z 40
_cell_length_a 9.168417
_cell_length_b 7.708490
_cell_length_c 29.223186
_cell_angle_alpha 90.000000
_cell_angle_beta 90.000000
_cell_angle_gamma 90.000000
_cell_volume 2065.338465
_symmetry_space_group_name_H-M "P M M N"
_symmetry_group_IT_number 59
_space_group.IT_coordinate_system_code '2'
_symmetry_cell_setting 'orthorhombic'
loop_
_space_group_symop_operation_xyz
x,y,z
1/2-x,1/2-y,z
1/2+x,-y,-z
-x,1/2+y,-z
-x,-y,-z
1/2+x,1/2+y,-z
1/2-x,y,z
x,1/2-y,z
loop_
_atom_site_type_symbol
_atom_site_label
_atom_site_fract_x
_atom_site_fract_y
_atom_site_fract_z
Si Si1 0.917296 0.952055 0.045845
Si Si2 0.582665 0.943056 0.866437
Si Si3 0.924507 0.250000 0.699332
Si Si4 0.422570 0.750000 0.196982
Si Si5 0.923254 0.048986 0.355922
Si Si6 0.592807 0.452492 0.456603
O O1 0.750000 0.010343 0.040883
O O2 0.931620 0.750000 0.056215
O O3 0.989261 0.054028 0.087535
O O4 0.000000 0.000000 0.000000
O O5 0.750000 0.988728 0.878906
O O6 0.570841 0.750000 0.845258
O O7 0.520100 0.078610 0.829293
O O8 0.750000 0.250000 0.694852
O O9 0.981275 0.250000 0.751497
O O10 0.987890 0.425427 0.677686
O O11 0.250000 0.750000 0.198517
O O12 0.750000 0.020731 0.350439
O O13 0.963674 0.250000 0.345630
O O14 0.973450 0.992404 0.407420
O O15 0.500000 0.500000 0.500000
O O16 0.750000 0.543126 0.463103
O O17 0.615555 0.250000 0.454263
#
# Coordination Sequence:
#
# PCOD8244573 Si02
#       6
#     8   8   4   4   8   8
#     4  11  23  37  55  83 118 155 193 233 281 337
#     4  10  20  37  62  86 111 149 192 233 285 344
#     4  11  23  37  61  93 119 151 197 251 304 353
#     4   9  20  39  59  85 119 151 187 239 298 345
#     4   9  20  40  60  80 115 159 198 239 293 357
#     4   9  19  34  52  77 109 145 187 232 282 343
#
# _framework density 19.367287000000001
#
# number of rings (size 3 to 8) (size 9 to 14) (size 15 to 20)
#    0.000    2.200    1.000    2.700    1.400    6.400 
#    0.000    6.000    0.000    0.000    0.000    0.000 
#    0.000    0.000    0.000    0.000    0.000    0.000 
#
# Total GULP energy -495861.629049 kJ/mol
# GULP energy per Si atom -12396.540726 kJ/mol
# Density = 1.932321 g / cm^3
# Si number density = 19.367287 Si / 1000 Ang^3
#
#
#
# Elastic Constant Matrix: (Units=GPa)
#
#
# Indices 1 2 3 4 5 6 
#
# 1 84.5927 43.4689 60.0167 0.0000 0.0000 0.0000
# 2 43.4689 112.4418 69.0012 0.0000 0.0000 0.0000
# 3 60.0167 69.0012 172.7928 0.0000 0.0000 0.0000
# 4 0.0000 0.0000 0.0000 33.3845 0.0000 0.0000
# 5 0.0000 0.0000 0.0000 0.0000 29.8861 0.0000
# 6 0.0000 0.0000 0.0000 0.0000 0.0000 28.6216
#
#
#
# Elastic Compliance Matrix: (Units=1/GPa)
#
#
# Indices 1 2 3 4 5 6 
#
# 1 0.016873 -0.003876 -0.004313 0.000000 0.000000 0.000000
# 2 -0.003876 0.012671 -0.003713 0.000000 0.000000 0.000000
# 3 -0.004313 -0.003713 0.008768 0.000000 0.000000 0.000000
# 4 0.000000 0.000000 0.000000 0.029954 0.000000 0.000000
# 5 0.000000 0.000000 0.000000 0.000000 0.033460 0.000000
# 6 0.000000 0.000000 0.000000 0.000000 0.000000 0.034939
#
#
# Mechanical properties :
#
#
# Convention : Reuss Voigt Hill
#
# Bulk Modulus (GPa) = 68.93224 79.42233 74.17728
# Shear Modulus (GPa) = 30.24701 31.53447 30.89074
#
# Velocity S-wave (km/s) = 3.95620 4.03952 3.99807
# Velocity P-wave (km/s) = 7.51918 7.92808 7.72633
#
# Compressibility (1/GPa) = 0.01450700
#
# Stress axis : x y z
#
# Youngs Moduli (GPa) = 59.26628 78.92104 114.05042
#
# Poissons Ratio (x) = 0.30594 0.49185
# Poissons Ratio (y) = 0.22975 0.42352
# Poissons Ratio (z) = 0.25559 0.29307
#
# Static dielectric constant tensor:
#      x y z
#    x 3.386540 0.000000 0.000000 
#    y 0.000000 3.552380 0.000000 
#    z 0.000000 0.000000 2.338390 
# 
# 
# High freq. dielectric constant tensor:
#      x y z
#    x 1.738920 0.000000 0.000000 
#    y 0.000000 1.765530 0.000000 
#    z 0.000000 0.000000 1.753410 
# 
# From -- ./inp_files/32446.got.cif
#   From: 2010.03.12/outbox.cif.g09.slc.cpg/sg59_17_cif.got.tgz:32446.got - 2010.04.16 16:29:54.
