data_PCOD8244259
_publ_section_title
;
Structure prediction by ZEFSAII (Michael W. Deem and Ramdas Pophale) SiO2 
 PCOD8244259
Probable space group: P M M N
;
_chemical_formula_sum "Si O2"
_cell_formula_units_Z 64
_cell_length_a 9.975295
_cell_length_b 22.076630
_cell_length_c 14.591531
_cell_angle_alpha 90.000000
_cell_angle_beta 90.000000
_cell_angle_gamma 90.000000
_cell_volume 3213.360043
_symmetry_space_group_name_H-M "P M M N"
_symmetry_group_IT_number 59
_space_group.IT_coordinate_system_code '2'
_symmetry_cell_setting 'orthorhombic'
loop_
_space_group_symop_operation_xyz
x,y,z
1/2-x,1/2-y,z
1/2+x,-y,-z
-x,1/2+y,-z
-x,-y,-z
1/2+x,1/2+y,-z
1/2-x,y,z
x,1/2-y,z
loop_
_atom_site_type_symbol
_atom_site_label
_atom_site_fract_x
_atom_site_fract_y
_atom_site_fract_z
Si Si1 0.103643 0.679987 0.288360
Si Si2 0.600646 0.614922 0.156978
Si Si3 0.592500 0.907926 0.770908
Si Si4 0.395222 0.681927 0.686341
Si Si5 0.095220 0.055761 0.022816
Si Si6 0.896590 0.506904 0.278648
Si Si7 0.896804 0.947873 0.470279
Si Si8 0.501808 0.818444 0.490494
O O1 0.250000 0.650664 0.270894
O O2 0.107636 0.750000 0.266428
O O3 0.002150 0.653754 0.214528
O O4 0.070798 0.669230 0.394620
O O5 0.750000 0.641229 0.174845
O O6 0.591714 0.544404 0.185410
O O7 0.568759 0.611395 0.048369
O O8 0.750000 0.907098 0.747184
O O9 0.522224 0.846964 0.737301
O O10 0.563547 0.917130 0.877742
O O11 0.518654 0.960134 0.712483
O O12 0.250000 0.652946 0.712914
O O13 0.399115 0.750000 0.721742
O O14 0.401446 0.680279 0.575766
O O15 0.250000 0.033991 0.017223
O O16 0.000000 0.000000 0.000000
O O17 0.750000 0.474067 0.282948
O O18 0.908219 0.555772 0.360216
O O19 0.750000 0.970806 0.501256
O O20 0.907726 0.878566 0.507237
O O21 0.000000 0.000000 0.500000
O O22 0.571537 0.750000 0.487782
#
# Coordination Sequence:
#
# PCOD8244259 Si02
#       8
#     8   8   8   8   8   8   8   8
#     4  10  21  37  59  88 120 154 194 242 293 343
#     4  10  20  37  58  82 114 151 191 234 283 344
#     4  11  23  38  59  90 119 148 191 244 300 349
#     4  10  22  41  63  85 112 153 200 240 287 350
#     4  10  21  37  59  86 115 149 191 237 290 351
#     4  10  20  36  56  80 115 155 192 233 283 346
#     4  11  24  39  55  84 121 161 203 245 298 355
#     4  10  21  39  63  90 119 156 205 254 297 351
#
# _framework density 19.916848000000002
#
# number of rings (size 3 to 8) (size 9 to 14) (size 15 to 20)
#    0.000    1.750    2.500    1.500    0.000    7.750 
#    0.000    3.125    0.000    3.750    0.000    0.000 
#    0.000    0.000    0.000    0.000    0.000    0.000 
#
# Total GULP energy -792840.558729 kJ/mol
# GULP energy per Si atom -12388.133730 kJ/mol
# Density = 1.987152 g / cm^3
# Si number density = 19.916848 Si / 1000 Ang^3
#
#
#
# Elastic Constant Matrix: (Units=GPa)
#
#
# Indices 1 2 3 4 5 6 
#
# 1 151.2566 57.6857 51.5993 0.0000 0.0000 0.0000
# 2 57.6857 97.8784 33.1118 0.0000 0.0000 0.0000
# 3 51.5993 33.1118 80.1152 0.0000 0.0000 0.0000
# 4 0.0000 0.0000 0.0000 25.6606 0.0000 0.0000
# 5 0.0000 0.0000 0.0000 0.0000 23.6738 0.0000
# 6 0.0000 0.0000 0.0000 0.0000 0.0000 31.9972
#
#
#
# Elastic Compliance Matrix: (Units=1/GPa)
#
#
# Indices 1 2 3 4 5 6 
#
# 1 0.009773 -0.004221 -0.004550 0.000000 0.000000 0.000000
# 2 -0.004221 0.013700 -0.002944 0.000000 0.000000 0.000000
# 3 -0.004550 -0.002944 0.016629 0.000000 0.000000 0.000000
# 4 0.000000 0.000000 0.000000 0.038970 0.000000 0.000000
# 5 0.000000 0.000000 0.000000 0.000000 0.042241 0.000000
# 6 0.000000 0.000000 0.000000 0.000000 0.000000 0.031253
#
#
# Mechanical properties :
#
#
# Convention : Reuss Voigt Hill
#
# Bulk Modulus (GPa) = 59.97642 68.22710 64.10176
# Shear Modulus (GPa) = 27.54008 28.72321 28.13164
#
# Velocity S-wave (km/s) = 3.72257 3.80169 3.76234
# Velocity P-wave (km/s) = 6.97535 7.32126 7.15040
#
# Compressibility (1/GPa) = 0.01667322
#
# Stress axis : x y z
#
# Youngs Moduli (GPa) = 102.32114 72.99183 60.13464
#
# Poissons Ratio (x) = 0.30807 0.27362
# Poissons Ratio (y) = 0.43186 0.17703
# Poissons Ratio (z) = 0.46558 0.21488
#
# Static dielectric constant tensor:
#      x y z
#    x 3.797260 0.000000 0.000000 
#    y 0.000000 3.523870 0.000000 
#    z 0.000000 0.000000 3.720180 
# 
# 
# High freq. dielectric constant tensor:
#      x y z
#    x 1.778630 0.000000 0.000000 
#    y 0.000000 1.762980 0.000000 
#    z 0.000000 0.000000 1.781230 
# 
# From -- ./inp_files/21522.got.cif
#   From: 2010.03.12/outbox.cif.g09.slc.cpg/sg59_11_cif.got.tgz:21522.got - 2010.04.16 16:29:54.
