data_PCOD8244562
_publ_section_title
;
Structure prediction by ZEFSAII (Michael W. Deem and Ramdas Pophale) SiO2 
 PCOD8244562
Probable space group: P M M N
;
_chemical_formula_sum "Si O2"
_cell_formula_units_Z 64
_cell_length_a 14.058148
_cell_length_b 25.436275
_cell_length_c 9.174996
_cell_angle_alpha 90.000000
_cell_angle_beta 90.000000
_cell_angle_gamma 90.000000
_cell_volume 3280.858547
_symmetry_space_group_name_H-M "P M M N"
_symmetry_group_IT_number 59
_space_group.IT_coordinate_system_code '2'
_symmetry_cell_setting 'orthorhombic'
loop_
_space_group_symop_operation_xyz
x,y,z
1/2-x,1/2-y,z
1/2+x,-y,-z
-x,1/2+y,-z
-x,-y,-z
1/2+x,1/2+y,-z
1/2-x,y,z
x,1/2-y,z
loop_
_atom_site_type_symbol
_atom_site_label
_atom_site_fract_x
_atom_site_fract_y
_atom_site_fract_z
Si Si1 0.353217 0.187608 0.093132
Si Si2 0.862608 0.689268 0.583185
Si Si3 0.959210 0.514988 0.232961
Si Si4 0.999017 0.620822 0.387091
Si Si5 0.643229 0.371243 0.073861
Si Si6 0.137953 0.984729 0.049729
Si Si7 0.861601 0.081864 0.377469
Si Si8 0.512542 0.310848 0.885043
O O1 0.250000 0.162027 0.069435
O O2 0.346481 0.250000 0.091822
O O3 0.392269 0.171505 0.252908
O O4 0.415173 0.167768 0.957529
O O5 0.750000 0.682152 0.560466
O O6 0.890968 0.750000 0.553210
O O7 0.917729 0.651284 0.474515
O O8 0.919441 0.470905 0.341488
O O9 0.952177 0.568750 0.321611
O O10 0.069356 0.501649 0.186790
O O11 0.892340 0.519921 0.089485
O O12 0.092639 0.608009 0.480684
O O13 0.037837 0.657705 0.259199
O O14 0.750000 0.358007 0.038073
O O15 0.626161 0.376956 0.245974
O O16 0.613994 0.424736 0.991672
O O17 0.588591 0.321151 0.011736
O O18 0.250000 0.993704 0.086818
O O19 0.750000 0.069036 0.404039
O O20 0.508435 0.250000 0.845637
#
# Coordination Sequence:
#
# PCOD8244562 Si02
#       8
#     8   8   8   8   8   8   8   8
#     4   8  16  34  57  77 102 146 198 237 277 334
#     4   9  19  37  59  83 119 165 204 242 293 355
#     4  10  20  37  61  88 117 155 198 245 298 358
#     4  12  23  36  57  89 125 158 194 241 302 367
#     4   9  18  37  61  82 109 151 196 239 289 344
#     4   9  18  36  62  88 117 151 192 245 304 354
#     4  10  23  42  63  83 115 159 200 247 304 362
#     4  11  22  35  57  88 119 152 192 245 296 343
#
# _framework density 19.507089000000001
#
# number of rings (size 3 to 8) (size 9 to 14) (size 15 to 20)
#    0.000    2.250    1.250    3.375    0.000    2.750 
#    0.000    2.500    0.000    2.625    0.000    0.000 
#    0.000    0.000    0.000    0.000    0.000    0.000 
#
# Total GULP energy -793362.981687 kJ/mol
# GULP energy per Si atom -12396.296589 kJ/mol
# Density = 1.946269 g / cm^3
# Si number density = 19.507089 Si / 1000 Ang^3
#
#
#
# Elastic Constant Matrix: (Units=GPa)
#
#
# Indices 1 2 3 4 5 6 
#
# 1 117.8395 51.4193 60.8859 0.0000 0.0000 0.0000
# 2 51.4193 66.6100 62.3913 0.0000 0.0000 0.0000
# 3 60.8859 62.3913 114.1248 0.0000 0.0000 0.0000
# 4 0.0000 0.0000 0.0000 36.2679 0.0000 0.0000
# 5 0.0000 0.0000 0.0000 0.0000 22.6860 0.0000
# 6 0.0000 0.0000 0.0000 0.0000 0.0000 28.0662
#
#
#
# Elastic Compliance Matrix: (Units=1/GPa)
#
#
# Indices 1 2 3 4 5 6 
#
# 1 0.013291 -0.007415 -0.003037 0.000000 0.000000 0.000000
# 2 -0.007415 0.034905 -0.015126 0.000000 0.000000 0.000000
# 3 -0.003037 -0.015126 0.018652 0.000000 0.000000 0.000000
# 4 0.000000 0.000000 0.000000 0.027573 0.000000 0.000000
# 5 0.000000 0.000000 0.000000 0.000000 0.044080 0.000000
# 6 0.000000 0.000000 0.000000 0.000000 0.000000 0.035630
#
#
# Mechanical properties :
#
#
# Convention : Reuss Voigt Hill
#
# Bulk Modulus (GPa) = 63.73042 71.99638 67.86340
# Shear Modulus (GPa) = 21.69024 25.66256 23.67640
#
# Velocity S-wave (km/s) = 3.33816 3.63099 3.48765
# Velocity P-wave (km/s) = 6.89921 7.38693 7.14723
#
# Compressibility (1/GPa) = 0.01569109
#
# Stress axis : x y z
#
# Youngs Moduli (GPa) = 75.23950 28.64882 53.61358
#
# Poissons Ratio (x) = 0.21244 0.16281
# Poissons Ratio (y) = 0.55793 0.81098
# Poissons Ratio (z) = 0.22849 0.43335
#
# Static dielectric constant tensor:
#      x y z
#    x 3.843240 0.000000 0.000000 
#    y 0.000000 3.436100 0.000000 
#    z 0.000000 0.000000 3.663240 
# 
# 
# High freq. dielectric constant tensor:
#      x y z
#    x 1.761670 0.000000 0.000000 
#    y 0.000000 1.742340 0.000000 
#    z 0.000000 0.000000 1.763120 
# 
# From -- ./inp_files/9552.got.cif
#   From: 2010.03.12/outbox.cif.g09.slc.cpg/sg59_5_cif.got.tgz:9552.got - 2010.04.16 16:29:54.
