data_PCOD8244921
_publ_section_title
;
Structure prediction by ZEFSAII (Michael W. Deem and Ramdas Pophale) SiO2 
 PCOD8244921
Probable space group: P M M N
;
_chemical_formula_sum "Si O2"
_cell_formula_units_Z 64
_cell_length_a 8.975579
_cell_length_b 22.741753
_cell_length_c 18.212015
_cell_angle_alpha 90.000000
_cell_angle_beta 90.000000
_cell_angle_gamma 90.000000
_cell_volume 3717.443798
_symmetry_space_group_name_H-M "P M M N"
_symmetry_group_IT_number 59
_space_group.IT_coordinate_system_code '2'
_symmetry_cell_setting 'orthorhombic'
loop_
_space_group_symop_operation_xyz
x,y,z
1/2-x,1/2-y,z
1/2+x,-y,-z
-x,1/2+y,-z
-x,-y,-z
1/2+x,1/2+y,-z
1/2-x,y,z
x,1/2-y,z
loop_
_atom_site_type_symbol
_atom_site_label
_atom_site_fract_x
_atom_site_fract_y
_atom_site_fract_z
Si Si1 0.578951 0.679957 0.754570
Si Si2 0.082610 0.179664 0.929809
Si Si3 0.923302 0.370207 0.634969
Si Si4 0.573452 0.814414 0.913913
Si Si5 0.574131 0.112257 0.373182
Si Si6 0.921202 0.818009 0.499083
Si Si7 0.575232 0.316357 0.786383
Si Si8 0.075662 0.999247 0.420943
O O1 0.750000 0.664160 0.734972
O O2 0.557508 0.750000 0.751691
O O3 0.535120 0.654429 0.835991
O O4 0.469138 0.649834 0.697579
O O5 0.250000 0.158013 0.915946
O O6 0.073852 0.250000 0.934301
O O7 0.987312 0.155466 0.861662
O O8 0.022089 0.154355 0.009293
O O9 0.750000 0.354459 0.623053
O O10 0.974379 0.356413 0.717969
O O11 0.956204 0.438044 0.619190
O O12 0.021258 0.328731 0.582945
O O13 0.750000 0.807157 0.918804
O O14 0.499306 0.750000 0.910685
O O15 0.750000 0.103819 0.376374
O O16 0.522950 0.144606 0.446789
O O17 0.495762 0.048902 0.369153
O O18 0.750000 0.838401 0.506204
O O19 0.937261 0.750000 0.519802
O O20 0.750000 0.315371 0.794558
O O21 0.513861 0.250000 0.774657
O O22 0.250000 0.011031 0.431184
O O23 0.000000 0.000000 0.500000
#
# Coordination Sequence:
#
# PCOD8244921 Si02
#       8
#     8   8   8   8   8   8   8   8
#     4   9  17  31  51  74 101 132 166 205 246 290
#     4   8  13  23  41  66  96 130 165 195 227 277
#     4  10  21  36  54  73  95 127 164 203 250 297
#     4   7  11  22  42  67  95 128 163 197 235 281
#     4  12  24  36  51  72  99 132 164 201 250 297
#     4  11  23  36  52  74  99 128 162 200 243 293
#     4   9  17  29  45  69 102 133 158 189 234 290
#     4  11  22  38  58  76  93 121 165 214 256 296
#
# _framework density 17.216132000000002
#
# number of rings (size 3 to 8) (size 9 to 14) (size 15 to 20)
#    0.000    2.375    1.250    4.125    0.000    4.250 
#    0.000    1.875    0.000    2.250    0.000    0.875 
#    0.000    0.000    0.000    0.000    0.000    0.000 
#
# Total GULP energy -793185.753458 kJ/mol
# GULP energy per Si atom -12393.527398 kJ/mol
# Density = 1.717695 g / cm^3
# Si number density = 17.216132 Si / 1000 Ang^3
#
#
#
# Elastic Constant Matrix: (Units=GPa)
#
#
# Indices 1 2 3 4 5 6 
#
# 1 70.9013 28.6275 39.5458 0.0000 0.0000 0.0000
# 2 28.6275 50.8220 27.6325 0.0000 0.0000 0.0000
# 3 39.5458 27.6325 136.8419 0.0000 0.0000 0.0000
# 4 0.0000 0.0000 0.0000 6.0749 0.0000 0.0000
# 5 0.0000 0.0000 0.0000 0.0000 26.9158 0.0000
# 6 0.0000 0.0000 0.0000 0.0000 0.0000 19.4507
#
#
#
# Elastic Compliance Matrix: (Units=1/GPa)
#
#
# Indices 1 2 3 4 5 6 
#
# 1 0.019978 -0.009115 -0.003933 0.000000 0.000000 0.000000
# 2 -0.009115 0.026262 -0.002669 0.000000 0.000000 0.000000
# 3 -0.003933 -0.002669 0.008983 0.000000 0.000000 0.000000
# 4 0.000000 0.000000 0.000000 0.164611 0.000000 0.000000
# 5 0.000000 0.000000 0.000000 0.000000 0.037153 0.000000
# 6 0.000000 0.000000 0.000000 0.000000 0.000000 0.051412
#
#
# Mechanical properties :
#
#
# Convention : Reuss Voigt Hill
#
# Bulk Modulus (GPa) = 42.03520 50.01964 46.02742
# Shear Modulus (GPa) = 14.37762 21.33892 17.85827
#
# Velocity S-wave (km/s) = 2.89299 3.52443 3.22421
# Velocity P-wave (km/s) = 5.96895 6.75864 6.37603
#
# Compressibility (1/GPa) = 0.02378959
#
# Stress axis : x y z
#
# Youngs Moduli (GPa) = 50.05506 38.07776 111.31912
#
# Poissons Ratio (x) = 0.34708 0.43780
# Poissons Ratio (y) = 0.45625 0.29711
# Poissons Ratio (z) = 0.19686 0.10163
#
# Static dielectric constant tensor:
#      x y z
#    x 3.128420 0.000000 0.000000 
#    y 0.000000 3.038950 0.000000 
#    z 0.000000 0.000000 3.617880 
# 
# 
# High freq. dielectric constant tensor:
#      x y z
#    x 1.654410 0.000000 0.000000 
#    y 0.000000 1.621660 0.000000 
#    z 0.000000 0.000000 1.680690 
# 
# From -- ./inp_files/26435.got.cif
#   From: 2010.03.12/outbox.cif.g09.slc.cpg/sg59_14_cif.got.tgz:26435.got - 2010.04.16 16:29:54.
