data_PCOD8244278
_publ_section_title
;
Structure prediction by ZEFSAII (Michael W. Deem and Ramdas Pophale) SiO2 
 PCOD8244278
Probable space group: P M M N
;
_chemical_formula_sum "Si O2"
_cell_formula_units_Z 48
_cell_length_a 9.023664
_cell_length_b 19.180077
_cell_length_c 14.874835
_cell_angle_alpha 90.000000
_cell_angle_beta 90.000000
_cell_angle_gamma 90.000000
_cell_volume 2574.455677
_symmetry_space_group_name_H-M "P M M N"
_symmetry_group_IT_number 59
_space_group.IT_coordinate_system_code '2'
_symmetry_cell_setting 'orthorhombic'
loop_
_space_group_symop_operation_xyz
x,y,z
1/2-x,1/2-y,z
1/2+x,-y,-z
-x,1/2+y,-z
-x,-y,-z
1/2+x,1/2+y,-z
1/2-x,y,z
x,1/2-y,z
loop_
_atom_site_type_symbol
_atom_site_label
_atom_site_fract_x
_atom_site_fract_y
_atom_site_fract_z
Si Si1 0.079814 0.169731 0.072038
Si Si2 0.076183 0.939462 0.256184
Si Si3 0.576216 0.067475 0.539214
Si Si4 0.419151 0.169273 0.864520
Si Si5 0.574272 0.327782 0.389931
Si Si6 0.074662 0.584004 0.779253
O O1 0.250000 0.154667 0.097857
O O2 0.040452 0.250000 0.091402
O O3 0.971699 0.121604 0.129301
O O4 0.051375 0.151548 0.968361
O O5 0.250000 0.952648 0.248044
O O6 0.029120 0.921198 0.357972
O O7 0.031464 0.874461 0.195358
O O8 0.993261 0.007582 0.221881
O O9 0.750000 0.055880 0.528722
O O10 0.524272 0.134782 0.482146
O O11 0.500000 0.000000 0.500000
O O12 0.250000 0.150754 0.839330
O O13 0.451333 0.250000 0.845595
O O14 0.750000 0.323100 0.383748
O O15 0.505333 0.250000 0.388203
O O16 0.513258 0.371657 0.305279
O O17 0.250000 0.576865 0.776038
#
# Coordination Sequence:
#
# PCOD8244278 Si02
#       6
#     8   8   8   8   8   8
#     4   9  19  37  59  82 112 148 184 230 286 337
#     4  11  23  36  56  85 114 149 189 233 283 332
#     4  10  20  36  57  79 109 148 185 226 276 332
#     4   9  20  40  62  82 109 148 189 230 281 339
#     4   9  18  33  54  81 110 142 182 226 274 330
#     4  11  21  34  56  83 113 151 189 230 277 334
#
# _framework density 18.644718000000001
#
# number of rings (size 3 to 8) (size 9 to 14) (size 15 to 20)
#    0.000    2.167    1.667    2.500    0.000    4.000 
#    0.000    3.333    0.000    1.500    0.000    0.000 
#    0.000    0.000    0.000    0.000    0.000    0.000 
#
# Total GULP energy -595313.721013 kJ/mol
# GULP energy per Si atom -12402.369188 kJ/mol
# Density = 1.860228 g / cm^3
# Si number density = 18.644718 Si / 1000 Ang^3
#
#
#
# Elastic Constant Matrix: (Units=GPa)
#
#
# Indices 1 2 3 4 5 6 
#
# 1 56.9915 39.0104 45.2560 0.0000 0.0000 0.0000
# 2 39.0104 117.1649 68.1061 0.0000 0.0000 0.0000
# 3 45.2560 68.1061 120.9934 0.0000 0.0000 0.0000
# 4 0.0000 0.0000 0.0000 39.1728 0.0000 0.0000
# 5 0.0000 0.0000 0.0000 0.0000 25.7471 0.0000
# 6 0.0000 0.0000 0.0000 0.0000 0.0000 28.0054
#
#
#
# Elastic Compliance Matrix: (Units=1/GPa)
#
#
# Indices 1 2 3 4 5 6 
#
# 1 0.026497 -0.004550 -0.007350 0.000000 0.000000 0.000000
# 2 -0.004550 0.013467 -0.005879 0.000000 0.000000 0.000000
# 3 -0.007350 -0.005879 0.014323 0.000000 0.000000 0.000000
# 4 0.000000 0.000000 0.000000 0.025528 0.000000 0.000000
# 5 0.000000 0.000000 0.000000 0.000000 0.038839 0.000000
# 6 0.000000 0.000000 0.000000 0.000000 0.000000 0.035707
#
#
# Mechanical properties :
#
#
# Convention : Reuss Voigt Hill
#
# Bulk Modulus (GPa) = 53.38884 66.65499 60.02191
# Shear Modulus (GPa) = 25.48909 28.10355 26.79632
#
# Velocity S-wave (km/s) = 3.70144 3.88663 3.79516
# Velocity P-wave (km/s) = 6.85306 7.48124 7.17403
#
# Compressibility (1/GPa) = 0.01873051
#
# Stress axis : x y z
#
# Youngs Moduli (GPa) = 37.73971 74.25525 69.81753
#
# Poissons Ratio (x) = 0.33786 0.51315
# Poissons Ratio (y) = 0.17172 0.41043
# Poissons Ratio (z) = 0.27738 0.43652
#
# Static dielectric constant tensor:
#      x y z
#    x 3.228440 0.000000 0.000000 
#    y 0.000000 3.484540 0.000000 
#    z 0.000000 0.000000 3.501980 
# 
# 
# High freq. dielectric constant tensor:
#      x y z
#    x 1.707500 0.000000 0.000000 
#    y 0.000000 1.729540 0.000000 
#    z 0.000000 0.000000 1.733160 
# 
# From -- ./inp_files/20371.got.cif
#   From: 2010.03.12/outbox.cif.g09.slc.cpg/sg59_11_cif.got.tgz:20371.got - 2010.04.16 16:29:54.
