data_PCOD8244984
_publ_section_title
;
Structure prediction by ZEFSAII (Michael W. Deem and Ramdas Pophale) SiO2 
 PCOD8244984
Probable space group: P M M N
;
_chemical_formula_sum "Si O2"
_cell_formula_units_Z 40
_cell_length_a 9.009441
_cell_length_b 29.451928
_cell_length_c 7.580897
_cell_angle_alpha 90.000000
_cell_angle_beta 90.000000
_cell_angle_gamma 90.000000
_cell_volume 2011.556205
_symmetry_space_group_name_H-M "P M M N"
_symmetry_group_IT_number 59
_space_group.IT_coordinate_system_code '2'
_symmetry_cell_setting 'orthorhombic'
loop_
_space_group_symop_operation_xyz
x,y,z
1/2-x,1/2-y,z
1/2+x,-y,-z
-x,1/2+y,-z
-x,-y,-z
1/2+x,1/2+y,-z
1/2-x,y,z
x,1/2-y,z
loop_
_atom_site_type_symbol
_atom_site_label
_atom_site_fract_x
_atom_site_fract_y
_atom_site_fract_z
Si Si1 0.086416 0.545443 0.042026
Si Si2 0.090170 0.544056 0.453639
Si Si3 0.427294 0.857861 0.430928
Si Si4 0.424610 0.364351 0.942105
Si Si5 0.920684 0.697332 0.728544
O O1 0.250000 0.545447 0.950866
O O2 0.109582 0.548543 0.247612
O O3 0.991926 0.588852 0.979945
O O4 0.000000 0.500000 0.000000
O O5 0.250000 0.537525 0.545098
O O6 0.020789 0.592732 0.510703
O O7 0.000000 0.500000 0.500000
O O8 0.250000 0.856868 0.407213
O O9 0.501272 0.848635 0.241045
O O10 0.478226 0.820078 0.568591
O O11 0.250000 0.371020 0.910954
O O12 0.460555 0.326229 0.086658
O O13 0.750000 0.688160 0.677725
O O14 0.954671 0.750000 0.754859
#
# Coordination Sequence:
#
# PCOD8244984 Si02
#       5
#     8   8   8   8   8
#     4  10  21  36  54  82 117 155 198 242 293 355
#     4   9  20  35  52  79 113 150 192 234 284 346
#     4  10  22  40  60  88 123 158 198 248 303 360
#     4  10  21  39  62  88 120 160 202 249 302 358
#     4  10  23  42  64  90 118 155 204 252 301 359
#
# _framework density 19.885102
#
# number of rings (size 3 to 8) (size 9 to 14) (size 15 to 20)
#    0.000    2.200    0.000    3.000    2.800    7.600 
#    0.000    2.000    0.000    0.000    0.000    0.000 
#    0.000    0.000    0.000    0.000    0.000    0.000 
#
# Total GULP energy -495819.518031 kJ/mol
# GULP energy per Si atom -12395.487951 kJ/mol
# Density = 1.983984 g / cm^3
# Si number density = 19.885102 Si / 1000 Ang^3
#
#
#
# Elastic Constant Matrix: (Units=GPa)
#
#
# Indices 1 2 3 4 5 6 
#
# 1 123.8635 71.7726 53.9369 0.0000 0.0000 0.0000
# 2 71.7726 165.4474 64.9527 0.0000 0.0000 0.0000
# 3 53.9369 64.9527 86.1278 0.0000 0.0000 0.0000
# 4 0.0000 0.0000 0.0000 36.9826 0.0000 0.0000
# 5 0.0000 0.0000 0.0000 0.0000 26.4145 0.0000
# 6 0.0000 0.0000 0.0000 0.0000 0.0000 34.4402
#
#
#
# Elastic Compliance Matrix: (Units=1/GPa)
#
#
# Indices 1 2 3 4 5 6 
#
# 1 0.012227 -0.003265 -0.005195 0.000000 0.000000 0.000000
# 2 -0.003265 0.009458 -0.005088 0.000000 0.000000 0.000000
# 3 -0.005195 -0.005088 0.018701 0.000000 0.000000 0.000000
# 4 0.000000 0.000000 0.000000 0.027040 0.000000 0.000000
# 5 0.000000 0.000000 0.000000 0.000000 0.037858 0.000000
# 6 0.000000 0.000000 0.000000 0.000000 0.000000 0.029036
#
#
# Mechanical properties :
#
#
# Convention : Reuss Voigt Hill
#
# Bulk Modulus (GPa) = 75.24197 84.08477 79.66337
# Shear Modulus (GPa) = 30.14825 31.88590 31.01708
#
# Velocity S-wave (km/s) = 3.89797 4.00873 3.95373
# Velocity P-wave (km/s) = 7.62754 7.98772 7.80970
#
# Compressibility (1/GPa) = 0.01329046
#
# Stress axis : x y z
#
# Youngs Moduli (GPa) = 81.78294 105.72974 53.47205
#
# Poissons Ratio (x) = 0.34519 0.27780
# Poissons Ratio (y) = 0.26701 0.27208
# Poissons Ratio (z) = 0.42488 0.53797
#
# Static dielectric constant tensor:
#      x y z
#    x 3.972200 0.000000 0.000000 
#    y 0.000000 3.340740 0.000000 
#    z 0.000000 0.000000 3.318320 
# 
# 
# High freq. dielectric constant tensor:
#      x y z
#    x 1.782500 0.000000 0.000000 
#    y 0.000000 1.781120 0.000000 
#    z 0.000000 0.000000 1.772490 
# 
# From -- ./inp_files/5859.got.cif
#   From: 2010.03.12/outbox.cif.g09.slc.cpg/sg59_3_cif.got.tgz:5859.got - 2010.04.16 16:29:54.
