data_PCOD8244359
_publ_section_title
;
Structure prediction by ZEFSAII (Michael W. Deem and Ramdas Pophale) SiO2 
 PCOD8244359
Probable space group: P M M N
;
_chemical_formula_sum "Si O2"
_cell_formula_units_Z 64
_cell_length_a 18.585940
_cell_length_b 12.902115
_cell_length_c 13.826671
_cell_angle_alpha 90.000000
_cell_angle_beta 90.000000
_cell_angle_gamma 90.000000
_cell_volume 3315.607157
_symmetry_space_group_name_H-M "P M M N"
_symmetry_group_IT_number 59
_space_group.IT_coordinate_system_code '2'
_symmetry_cell_setting 'orthorhombic'
loop_
_space_group_symop_operation_xyz
x,y,z
1/2-x,1/2-y,z
1/2+x,-y,-z
-x,1/2+y,-z
-x,-y,-z
1/2+x,1/2+y,-z
1/2-x,y,z
x,1/2-y,z
loop_
_atom_site_type_symbol
_atom_site_label
_atom_site_fract_x
_atom_site_fract_y
_atom_site_fract_z
Si Si1 0.329761 0.864434 0.502340
Si Si2 0.053440 0.522137 0.409077
Si Si3 0.671809 0.870934 0.893587
Si Si4 0.833481 0.368343 0.138225
Si Si5 0.928464 0.535530 0.048795
Si Si6 0.669820 0.506142 0.318293
Si Si7 0.333375 0.128118 0.322348
Si Si8 0.044236 0.370777 0.743528
O O1 0.250000 0.875683 0.455228
O O2 0.336661 0.750000 0.549276
O O3 0.393963 0.879507 0.426446
O O4 0.341881 0.955318 0.578585
O O5 0.106985 0.425091 0.391264
O O6 0.000000 0.500000 0.500000
O O7 0.010910 0.553316 0.311977
O O8 0.750000 0.916201 0.925592
O O9 0.679504 0.750000 0.879811
O O10 0.651586 0.913694 0.786837
O O11 0.612899 0.891270 0.974519
O O12 0.750000 0.375943 0.109710
O O13 0.860248 0.250000 0.136812
O O14 0.879754 0.433972 0.062901
O O15 0.848919 0.414889 0.243475
O O16 0.949219 0.598963 0.144412
O O17 0.000000 0.500000 0.000000
O O18 0.750000 0.547207 0.302641
O O19 0.621344 0.607832 0.305787
O O20 0.250000 0.101738 0.351721
O O21 0.346664 0.250000 0.332547
O O22 0.023933 0.250000 0.732654
#
# Coordination Sequence:
#
# PCOD8244359 Si02
#       8
#     8   8   8   8   8   8   8   8
#     4  10  20  36  59  82 106 143 193 242 283 334
#     4  12  23  39  57  82 120 159 196 238 292 355
#     4   9  18  36  62  87 110 144 194 246 293 347
#     4   9  18  33  54  79 109 144 185 233 282 339
#     4  11  22  36  56  83 118 154 191 234 296 357
#     4   9  18  36  57  81 109 145 190 235 283 336
#     4   9  20  40  65  90 114 146 197 255 300 343
#     4  11  24  40  55  82 121 159 194 240 296 354
#
# _framework density 19.302648999999999
#
# number of rings (size 3 to 8) (size 9 to 14) (size 15 to 20)
#    0.000    2.000    1.250    3.375    0.000    4.250 
#    0.000    1.875    0.000    0.000    0.000    5.250 
#    0.000    0.000    0.000    0.000    0.000    0.000 
#
# Total GULP energy -793143.795684 kJ/mol
# GULP energy per Si atom -12392.871808 kJ/mol
# Density = 1.925872 g / cm^3
# Si number density = 19.302649 Si / 1000 Ang^3
#
#
#
# Elastic Constant Matrix: (Units=GPa)
#
#
# Indices 1 2 3 4 5 6 
#
# 1 122.5706 42.6384 57.1251 0.0000 0.0000 0.0000
# 2 42.6384 84.1547 28.1186 0.0000 0.0000 0.0000
# 3 57.1251 28.1186 86.3166 0.0000 0.0000 0.0000
# 4 0.0000 0.0000 0.0000 22.4424 0.0000 0.0000
# 5 0.0000 0.0000 0.0000 0.0000 40.3083 0.0000
# 6 0.0000 0.0000 0.0000 0.0000 0.0000 30.0863
#
#
#
# Elastic Compliance Matrix: (Units=1/GPa)
#
#
# Indices 1 2 3 4 5 6 
#
# 1 0.012976 -0.004158 -0.007233 0.000000 0.000000 0.000000
# 2 -0.004158 0.014666 -0.002026 0.000000 0.000000 0.000000
# 3 -0.007233 -0.002026 0.017032 0.000000 0.000000 0.000000
# 4 0.000000 0.000000 0.000000 0.044559 0.000000 0.000000
# 5 0.000000 0.000000 0.000000 0.000000 0.024809 0.000000
# 6 0.000000 0.000000 0.000000 0.000000 0.000000 0.033238
#
#
# Mechanical properties :
#
#
# Convention : Reuss Voigt Hill
#
# Bulk Modulus (GPa) = 56.05187 60.97845 58.51516
# Shear Modulus (GPa) = 27.76839 29.57804 28.67322
#
# Velocity S-wave (km/s) = 3.79698 3.91875 3.85834
# Velocity P-wave (km/s) = 6.95156 7.22044 7.08727
#
# Compressibility (1/GPa) = 0.01784062
#
# Stress axis : x y z
#
# Youngs Moduli (GPa) = 77.06541 68.18290 58.71192
#
# Poissons Ratio (x) = 0.28348 0.42468
# Poissons Ratio (y) = 0.32041 0.11896
# Poissons Ratio (z) = 0.55743 0.13815
#
# Static dielectric constant tensor:
#      x y z
#    x 3.694230 0.000000 0.000000 
#    y 0.000000 3.378500 0.000000 
#    z 0.000000 0.000000 3.464860 
# 
# 
# High freq. dielectric constant tensor:
#      x y z
#    x 1.765470 0.000000 0.000000 
#    y 0.000000 1.739600 0.000000 
#    z 0.000000 0.000000 1.745050 
# 
# From -- ./inp_files/23950.got.cif
#   From: 2010.03.12/outbox.cif.g09.slc.cpg/sg59_12_cif.got.tgz:23950.got - 2010.04.16 16:29:54.
