data_PCOD8244828
_publ_section_title
;
Structure prediction by ZEFSAII (Michael W. Deem and Ramdas Pophale) SiO2 
 PCOD8244828
Probable space group: P M M N
;
_chemical_formula_sum "Si O2"
_cell_formula_units_Z 56
_cell_length_a 15.231638
_cell_length_b 8.966994
_cell_length_c 21.354110
_cell_angle_alpha 90.000000
_cell_angle_beta 90.000000
_cell_angle_gamma 90.000000
_cell_volume 2916.587192
_symmetry_space_group_name_H-M "P M M N"
_symmetry_group_IT_number 59
_space_group.IT_coordinate_system_code '2'
_symmetry_cell_setting 'orthorhombic'
loop_
_space_group_symop_operation_xyz
x,y,z
1/2-x,1/2-y,z
1/2+x,-y,-z
-x,1/2+y,-z
-x,-y,-z
1/2+x,1/2+y,-z
1/2-x,y,z
x,1/2-y,z
loop_
_atom_site_type_symbol
_atom_site_label
_atom_site_fract_x
_atom_site_fract_y
_atom_site_fract_z
Si Si1 0.351529 0.921780 0.575432
Si Si2 0.848681 0.579284 0.876815
Si Si3 0.093519 0.576560 0.002284
Si Si4 0.652936 0.427531 0.565370
Si Si5 0.349452 0.920649 0.863508
Si Si6 0.505056 0.426028 0.794696
Si Si7 0.998134 0.926517 0.347861
O O1 0.250000 0.944028 0.592839
O O2 0.378991 0.750000 0.581470
O O3 0.369976 0.980619 0.505015
O O4 0.407264 0.016398 0.624146
O O5 0.750000 0.569232 0.849837
O O6 0.878710 0.750000 0.885969
O O7 0.849430 0.498105 0.943526
O O8 0.913421 0.501995 0.828425
O O9 0.081290 0.750000 0.017627
O O10 0.143407 0.550191 0.937403
O O11 0.000000 0.500000 0.000000
O O12 0.750000 0.486629 0.584676
O O13 0.654126 0.250000 0.566419
O O14 0.580735 0.492487 0.613130
O O15 0.250000 0.955464 0.842575
O O16 0.374787 0.750000 0.848216
O O17 0.413266 0.028865 0.825798
O O18 0.516204 0.250000 0.800152
O O19 0.506171 0.481506 0.723245
O O20 0.997785 0.750000 0.351668
#
# Coordination Sequence:
#
# PCOD8244828 Si02
#       7
#     8   8   8   8   8   8   8
#     4   9  18  33  55  82 109 142 182 222 271 330
#     4  11  24  41  61  85 114 150 190 233 284 337
#     4  11  21  36  62  91 117 145 182 230 286 340
#     4   8  15  31  55  81 109 140 178 225 274 328
#     4  10  22  40  61  83 110 147 188 230 279 334
#     4  11  24  39  56  81 113 151 192 235 280 332
#     4  10  21  35  54  81 110 144 185 227 277 326
#
# _framework density 19.200523
#
# number of rings (size 3 to 8) (size 9 to 14) (size 15 to 20)
#    0.000    2.000    1.429    3.000    0.000    5.143 
#    0.000    4.286    0.000    1.286    0.000    0.000 
#    0.000    0.000    0.000    0.000    0.000    0.000 
#
# Total GULP energy -694502.267826 kJ/mol
# GULP energy per Si atom -12401.826211 kJ/mol
# Density = 1.915682 g / cm^3
# Si number density = 19.200523 Si / 1000 Ang^3
#
#
#
# Elastic Constant Matrix: (Units=GPa)
#
#
# Indices 1 2 3 4 5 6 
#
# 1 117.9809 40.4323 64.6732 0.0000 0.0000 0.0000
# 2 40.4323 68.0001 49.1385 0.0000 0.0000 0.0000
# 3 64.6732 49.1385 135.2183 0.0000 0.0000 0.0000
# 4 0.0000 0.0000 0.0000 24.3404 0.0000 0.0000
# 5 0.0000 0.0000 0.0000 0.0000 1.2727 0.0000
# 6 0.0000 0.0000 0.0000 0.0000 0.0000 25.4299
#
#
#
# Elastic Compliance Matrix: (Units=1/GPa)
#
#
# Indices 1 2 3 4 5 6 
#
# 1 0.012295 -0.004151 -0.004372 0.000000 0.000000 0.000000
# 2 -0.004151 0.021345 -0.005771 0.000000 0.000000 0.000000
# 3 -0.004372 -0.005771 0.011584 0.000000 0.000000 0.000000
# 4 0.000000 0.000000 0.000000 0.041084 0.000000 0.000000
# 5 0.000000 0.000000 0.000000 0.000000 0.785753 0.000000
# 6 0.000000 0.000000 0.000000 0.000000 0.000000 0.039324
#
#
# Mechanical properties :
#
#
# Convention : Reuss Voigt Hill
#
# Bulk Modulus (GPa) = 60.11571 69.96527 65.04049
# Shear Modulus (GPa) = 5.28810 21.33895 13.31353
#
# Velocity S-wave (km/s) = 1.66136 3.33734 2.63609
# Velocity P-wave (km/s) = 5.92094 7.16721 6.57367
#
# Compressibility (1/GPa) = 0.01663459
#
# Stress axis : x y z
#
# Youngs Moduli (GPa) = 81.33246 46.85045 86.32760
#
# Poissons Ratio (x) = 0.19449 0.37743
# Poissons Ratio (y) = 0.33763 0.49821
# Poissons Ratio (z) = 0.35559 0.27038
#
# Static dielectric constant tensor:
#      x y z
#    x 3.812670 0.000000 0.000000 
#    y 0.000000 3.451190 0.000000 
#    z 0.000000 0.000000 3.648130 
# 
# 
# High freq. dielectric constant tensor:
#      x y z
#    x 1.760180 0.000000 0.000000 
#    y 0.000000 1.733500 0.000000 
#    z 0.000000 0.000000 1.745250 
# 
# From -- ./inp_files/29019.got.cif
#   From: 2010.03.12/outbox.cif.g09.slc.cpg/sg59_15_cif.got.tgz:29019.got - 2010.04.16 16:29:54.
