data_PCOD8244284
_publ_section_title
;
Structure prediction by ZEFSAII (Michael W. Deem and Ramdas Pophale) SiO2 
 PCOD8244284
Probable space group: P M M N
;
_chemical_formula_sum "Si O2"
_cell_formula_units_Z 56
_cell_length_a 22.615741
_cell_length_b 8.998885
_cell_length_c 14.616411
_cell_angle_alpha 90.000000
_cell_angle_beta 90.000000
_cell_angle_gamma 90.000000
_cell_volume 2974.680114
_symmetry_space_group_name_H-M "P M M N"
_symmetry_group_IT_number 59
_space_group.IT_coordinate_system_code '2'
_symmetry_cell_setting 'orthorhombic'
loop_
_space_group_symop_operation_xyz
x,y,z
1/2-x,1/2-y,z
1/2+x,-y,-z
-x,1/2+y,-z
-x,-y,-z
1/2+x,1/2+y,-z
1/2-x,y,z
x,1/2-y,z
loop_
_atom_site_type_symbol
_atom_site_label
_atom_site_fract_x
_atom_site_fract_y
_atom_site_fract_z
Si Si1 0.368627 0.421324 0.881724
Si Si2 0.987413 0.424942 0.095821
Si Si3 0.076277 0.575141 0.587687
Si Si4 0.681264 0.578932 0.921982
Si Si5 0.589934 0.420742 0.802460
Si Si6 0.316630 0.077939 0.689135
Si Si7 0.541786 0.080354 0.612466
O O1 0.388871 0.250000 0.886407
O O2 0.425079 0.523776 0.863736
O O3 0.324381 0.448956 0.797736
O O4 0.337693 0.469631 0.976159
O O5 0.988287 0.250000 0.083243
O O6 0.037775 0.474135 0.164533
O O7 0.000000 0.500000 0.000000
O O8 0.077208 0.750000 0.601807
O O9 0.136322 0.512410 0.630088
O O10 0.073157 0.527371 0.480942
O O11 0.017395 0.512252 0.636479
O O12 0.750000 0.551132 0.911226
O O13 0.664137 0.750000 0.904705
O O14 0.651002 0.476772 0.845490
O O15 0.579097 0.250000 0.831778
O O16 0.590504 0.437247 0.692487
O O17 0.250000 0.026633 0.663704
O O18 0.325808 0.250000 0.665619
O O19 0.520666 0.250000 0.603037
#
# Coordination Sequence:
#
# PCOD8244284 Si02
#       7
#     8   8   8   8   8   8   8
#     4  10  20  36  57  80 110 147 186 227 274 330
#     4  12  23  35  53  81 114 146 181 226 276 326
#     4  10  20  36  59  86 112 141 181 232 282 329
#     4  10  21  37  56  77 105 144 187 228 269 319
#     4  11  22  37  57  81 110 145 183 226 273 326
#     4  10  21  37  57  82 114 153 191 226 274 337
#     4   9  20  38  59  83 112 145 181 223 282 343
#
# _framework density 18.825552999999999
#
# number of rings (size 3 to 8) (size 9 to 14) (size 15 to 20)
#    0.000    1.714    1.429    3.429    0.000    8.000 
#    0.000    0.714    0.000    6.857    0.000    0.000 
#    0.000    0.000    0.000    0.000    0.000    0.000 
#
# Total GULP energy -694500.225869 kJ/mol
# GULP energy per Si atom -12401.789748 kJ/mol
# Density = 1.878271 g / cm^3
# Si number density = 18.825553 Si / 1000 Ang^3
#
#
#
# Elastic Constant Matrix: (Units=GPa)
#
#
# Indices 1 2 3 4 5 6 
#
# 1 119.6607 54.1080 54.3168 0.0000 0.0000 0.0000
# 2 54.1080 94.5927 38.6142 0.0000 0.0000 0.0000
# 3 54.3168 38.6142 93.5413 0.0000 0.0000 0.0000
# 4 0.0000 0.0000 0.0000 29.1516 0.0000 0.0000
# 5 0.0000 0.0000 0.0000 0.0000 28.1073 0.0000
# 6 0.0000 0.0000 0.0000 0.0000 0.0000 33.0449
#
#
#
# Elastic Compliance Matrix: (Units=1/GPa)
#
#
# Indices 1 2 3 4 5 6 
#
# 1 0.013270 -0.005346 -0.005499 0.000000 0.000000 0.000000
# 2 -0.005346 0.014868 -0.003033 0.000000 0.000000 0.000000
# 3 -0.005499 -0.003033 0.015136 0.000000 0.000000 0.000000
# 4 0.000000 0.000000 0.000000 0.034303 0.000000 0.000000
# 5 0.000000 0.000000 0.000000 0.000000 0.035578 0.000000
# 6 0.000000 0.000000 0.000000 0.000000 0.000000 0.030262
#
#
# Mechanical properties :
#
#
# Convention : Reuss Voigt Hill
#
# Bulk Modulus (GPa) = 64.44297 66.87474 65.65885
# Shear Modulus (GPa) = 28.35338 28.77783 28.56560
#
# Velocity S-wave (km/s) = 3.88508 3.91405 3.89959
# Velocity P-wave (km/s) = 7.37774 7.48511 7.43162
#
# Compressibility (1/GPa) = 0.01551760
#
# Stress axis : x y z
#
# Youngs Moduli (GPa) = 75.35564 67.25922 66.06945
#
# Poissons Ratio (x) = 0.35957 0.36331
# Poissons Ratio (y) = 0.40286 0.20040
# Poissons Ratio (z) = 0.41437 0.20401
#
# Static dielectric constant tensor:
#      x y z
#    x 3.465030 0.000000 0.000000 
#    y 0.000000 3.419420 0.000000 
#    z 0.000000 0.000000 0.952860 
# 
# 
# High freq. dielectric constant tensor:
#      x y z
#    x 1.724160 0.000000 0.000000 
#    y 0.000000 1.732270 0.000000 
#    z 0.000000 0.000000 1.734450 
# 
# From -- ./inp_files/20896.got.cif
#   From: 2010.03.12/outbox.cif.g09.slc.cpg/sg59_11_cif.got.tgz:20896.got - 2010.04.16 16:29:54.
