data_PCOD8244580
_publ_section_title
;
Structure prediction by ZEFSAII (Michael W. Deem and Ramdas Pophale) SiO2 
 PCOD8244580
Probable space group: P M M N
;
_chemical_formula_sum "Si O2"
_cell_formula_units_Z 40
_cell_length_a 7.691342
_cell_length_b 8.917737
_cell_length_c 29.202146
_cell_angle_alpha 90.000000
_cell_angle_beta 90.000000
_cell_angle_gamma 90.000000
_cell_volume 2002.956655
_symmetry_space_group_name_H-M "P M M N"
_symmetry_group_IT_number 59
_space_group.IT_coordinate_system_code '2'
_symmetry_cell_setting 'orthorhombic'
loop_
_space_group_symop_operation_xyz
x,y,z
1/2-x,1/2-y,z
1/2+x,-y,-z
-x,1/2+y,-z
-x,-y,-z
1/2+x,1/2+y,-z
1/2-x,y,z
x,1/2-y,z
loop_
_atom_site_type_symbol
_atom_site_label
_atom_site_fract_x
_atom_site_fract_y
_atom_site_fract_z
Si Si1 0.750000 0.427971 0.300952
Si Si2 0.250000 0.570925 0.802840
Si Si3 0.057368 0.421900 0.363754
Si Si4 0.453297 0.083810 0.046096
Si Si5 0.046769 0.573277 0.138323
Si Si6 0.548712 0.578303 0.453179
O O1 0.750000 0.250000 0.299736
O O2 0.750000 0.487588 0.249321
O O3 0.579273 0.489344 0.327303
O O4 0.250000 0.750000 0.807267
O O5 0.427179 0.506942 0.824287
O O6 0.250000 0.436721 0.342224
O O7 0.009977 0.250000 0.374508
O O8 0.057425 0.508746 0.411488
O O9 0.250000 0.101921 0.049527
O O10 0.539727 0.250000 0.046838
O O11 0.518415 0.986912 0.089112
O O12 0.500000 0.000000 0.000000
O O13 0.250000 0.534813 0.147655
O O14 0.014449 0.750000 0.139593
O O15 0.500000 0.500000 0.500000
O O16 0.750000 0.556466 0.442135
O O17 0.495014 0.750000 0.458048
#
# Coordination Sequence:
#
# PCOD8244580 Si02
#       6
#     4   4   8   8   8   8
#     4   9  20  39  61  89 121 153 195 247 302 355
#     4  11  23  39  65  95 121 159 205 255 314 371
#     4  10  20  37  62  88 116 153 195 241 295 352
#     4  10  21  36  56  84 118 157 200 245 297 359
#     4  10  22  41  62  86 121 162 205 254 306 363
#     4  11  23  37  55  83 118 157 198 240 290 349
#
# _framework density 19.970476999999999
#
# number of rings (size 3 to 8) (size 9 to 14) (size 15 to 20)
#    0.000    1.800    1.000    2.700    1.400    7.200 
#    0.000    4.000    0.000    0.000    0.000    0.000 
#    0.000    0.000    0.000    0.000    0.000    0.000 
#
# Total GULP energy -496041.764070 kJ/mol
# GULP energy per Si atom -12401.044102 kJ/mol
# Density = 1.992502 g / cm^3
# Si number density = 19.970477 Si / 1000 Ang^3
#
#
#
# Elastic Constant Matrix: (Units=GPa)
#
#
# Indices 1 2 3 4 5 6 
#
# 1 105.3114 47.6757 67.1918 0.0000 0.0000 0.0000
# 2 47.6757 117.0574 59.0887 0.0000 0.0000 0.0000
# 3 67.1918 59.0887 175.1579 0.0000 0.0000 0.0000
# 4 0.0000 0.0000 0.0000 29.6126 0.0000 0.0000
# 5 0.0000 0.0000 0.0000 0.0000 33.3744 0.0000
# 6 0.0000 0.0000 0.0000 0.0000 0.0000 28.4709
#
#
#
# Elastic Compliance Matrix: (Units=1/GPa)
#
#
# Indices 1 2 3 4 5 6 
#
# 1 0.013681 -0.003523 -0.004060 0.000000 0.000000 0.000000
# 2 -0.003523 0.011203 -0.002428 0.000000 0.000000 0.000000
# 3 -0.004060 -0.002428 0.008086 0.000000 0.000000 0.000000
# 4 0.000000 0.000000 0.000000 0.033769 0.000000 0.000000
# 5 0.000000 0.000000 0.000000 0.000000 0.029963 0.000000
# 6 0.000000 0.000000 0.000000 0.000000 0.000000 0.035124
#
#
# Mechanical properties :
#
#
# Convention : Reuss Voigt Hill
#
# Bulk Modulus (GPa) = 77.22806 82.82656 80.02731
# Shear Modulus (GPa) = 32.01804 33.19630 32.60717
#
# Velocity S-wave (km/s) = 4.00843 4.08152 4.04514
# Velocity P-wave (km/s) = 7.75747 7.98600 7.87257
#
# Compressibility (1/GPa) = 0.01294866
#
# Stress axis : x y z
#
# Youngs Moduli (GPa) = 73.09650 89.26052 123.67805
#
# Poissons Ratio (x) = 0.31443 0.50208
# Poissons Ratio (y) = 0.25749 0.30029
# Poissons Ratio (z) = 0.29674 0.21673
#
# Static dielectric constant tensor:
#      x y z
#    x 5.249740 0.000000 0.000000 
#    y 0.000000 3.584690 0.000000 
#    z 0.000000 0.000000 3.548850 
# 
# 
# High freq. dielectric constant tensor:
#      x y z
#    x 1.789590 0.000000 0.000000 
#    y 0.000000 1.777840 0.000000 
#    z 0.000000 0.000000 1.776470 
# 
# From -- ./inp_files/32383.got.cif
#   From: 2010.03.12/outbox.cif.g09.slc.cpg/sg59_17_cif.got.tgz:32383.got - 2010.04.16 16:29:54.
