data_PCOD8244505
_publ_section_title
;
Structure prediction by ZEFSAII (Michael W. Deem and Ramdas Pophale) SiO2 
 PCOD8244505
Probable space group: P M M N
;
_chemical_formula_sum "Si O2"
_cell_formula_units_Z 48
_cell_length_a 8.858248
_cell_length_b 17.756241
_cell_length_c 15.836907
_cell_angle_alpha 90.000000
_cell_angle_beta 90.000000
_cell_angle_gamma 90.000000
_cell_volume 2490.974216
_symmetry_space_group_name_H-M "P M M N"
_symmetry_group_IT_number 59
_space_group.IT_coordinate_system_code '2'
_symmetry_cell_setting 'orthorhombic'
loop_
_space_group_symop_operation_xyz
x,y,z
1/2-x,1/2-y,z
1/2+x,-y,-z
-x,1/2+y,-z
-x,-y,-z
1/2+x,1/2+y,-z
1/2-x,y,z
x,1/2-y,z
loop_
_atom_site_type_symbol
_atom_site_label
_atom_site_fract_x
_atom_site_fract_y
_atom_site_fract_z
Si Si1 0.427692 0.250000 0.104627
Si Si2 0.571034 0.888824 0.597942
Si Si3 0.579049 0.386440 0.014815
Si Si4 0.577993 0.532863 0.129225
Si Si5 0.929168 0.462335 0.691653
Si Si6 0.071395 0.337397 0.584193
Si Si7 0.069626 0.250000 0.293449
O O1 0.250000 0.250000 0.110559
O O2 0.478940 0.322767 0.055438
O O3 0.496498 0.250000 0.198932
O O4 0.750000 0.884039 0.598271
O O5 0.511201 0.872342 0.503796
O O6 0.506609 0.824318 0.659845
O O7 0.515944 0.970740 0.629093
O O8 0.750000 0.358679 0.002104
O O9 0.571362 0.456687 0.076762
O O10 0.509788 0.403375 0.923026
O O11 0.750000 0.558718 0.144655
O O12 0.494990 0.519582 0.217045
O O13 0.750000 0.459380 0.697896
O O14 0.991228 0.382550 0.659312
O O15 0.250000 0.346644 0.592952
O O16 0.024453 0.250000 0.590125
O O17 0.250000 0.250000 0.294013
#
# Coordination Sequence:
#
# PCOD8244505 Si02
#       7
#     4   8   8   8   8   8   4
#     4  11  21  33  55  88 121 154 189 227 278 347
#     4   9  17  32  55  83 113 148 189 234 282 335
#     4  10  21  38  60  84 116 151 187 237 290 338
#     4  10  21  39  61  84 112 149 193 237 286 344
#     4  11  22  35  56  86 117 148 188 237 289 347
#     4  10  20  37  59  80 109 151 197 240 282 334
#     4   9  16  29  53  84 115 146 187 233 276 329
#
# _framework density 19.269570999999999
#
# number of rings (size 3 to 8) (size 9 to 14) (size 15 to 20)
#    0.000    2.000    0.833    3.250    0.000    3.667 
#    1.500    0.833    0.000    2.000    0.000    0.000 
#    0.000    0.000    0.000    0.000    0.000    0.000 
#
# Total GULP energy -595307.814754 kJ/mol
# GULP energy per Si atom -12402.246141 kJ/mol
# Density = 1.922571 g / cm^3
# Si number density = 19.269571 Si / 1000 Ang^3
#
#
#
# Elastic Constant Matrix: (Units=GPa)
#
#
# Indices 1 2 3 4 5 6 
#
# 1 67.6637 30.1695 29.0846 0.0000 0.0000 0.0000
# 2 30.1695 74.6243 29.3814 0.0000 0.0000 0.0000
# 3 29.0846 29.3814 73.3500 0.0000 0.0000 0.0000
# 4 0.0000 0.0000 0.0000 7.7396 0.0000 0.0000
# 5 0.0000 0.0000 0.0000 0.0000 29.3626 0.0000
# 6 0.0000 0.0000 0.0000 0.0000 0.0000 36.4949
#
#
#
# Elastic Compliance Matrix: (Units=1/GPa)
#
#
# Indices 1 2 3 4 5 6 
#
# 1 0.019734 -0.005814 -0.005496 0.000000 0.000000 0.000000
# 2 -0.005814 0.017623 -0.004754 0.000000 0.000000 0.000000
# 3 -0.005496 -0.004754 0.017717 0.000000 0.000000 0.000000
# 4 0.000000 0.000000 0.000000 0.129206 0.000000 0.000000
# 5 0.000000 0.000000 0.000000 0.000000 0.034057 0.000000
# 6 0.000000 0.000000 0.000000 0.000000 0.000000 0.027401
#
#
# Mechanical properties :
#
#
# Convention : Reuss Voigt Hill
#
# Bulk Modulus (GPa) = 43.58106 43.65656 43.61881
# Shear Modulus (GPa) = 17.51236 23.18625 20.34931
#
# Velocity S-wave (km/s) = 3.01792 3.47256 3.25319
# Velocity P-wave (km/s) = 5.89995 6.22761 6.06599
#
# Compressibility (1/GPa) = 0.02294575
#
# Stress axis : x y z
#
# Youngs Moduli (GPa) = 50.67474 56.74508 56.44441
#
# Poissons Ratio (x) = 0.32993 0.31021
# Poissons Ratio (y) = 0.29463 0.26831
# Poissons Ratio (z) = 0.27850 0.26974
#
# Static dielectric constant tensor:
#      x y z
#    x 3.363000 0.000000 0.000000 
#    y 0.000000 3.131550 0.000000 
#    z 0.000000 0.000000 3.630060 
# 
# 
# High freq. dielectric constant tensor:
#      x y z
#    x 1.731790 0.000000 0.000000 
#    y 0.000000 1.752730 0.000000 
#    z 0.000000 0.000000 1.758540 
# 
# From -- ./inp_files/20491.got.cif
#   From: 2010.03.12/outbox.cif.g09.slc.cpg/sg59_11_cif.got.tgz:20491.got - 2010.04.16 16:29:54.
