data_PCOD8244287
_publ_section_title
;
Structure prediction by ZEFSAII (Michael W. Deem and Ramdas Pophale) SiO2 
 PCOD8244287
Probable space group: P M M N
;
_chemical_formula_sum "Si O2"
_cell_formula_units_Z 48
_cell_length_a 30.599831
_cell_length_b 8.751059
_cell_length_c 9.138614
_cell_angle_alpha 90.000000
_cell_angle_beta 90.000000
_cell_angle_gamma 90.000000
_cell_volume 2447.146524
_symmetry_space_group_name_H-M "P M M N"
_symmetry_group_IT_number 59
_space_group.IT_coordinate_system_code '2'
_symmetry_cell_setting 'orthorhombic'
loop_
_space_group_symop_operation_xyz
x,y,z
1/2-x,1/2-y,z
1/2+x,-y,-z
-x,1/2+y,-z
-x,-y,-z
1/2+x,1/2+y,-z
1/2-x,y,z
x,1/2-y,z
loop_
_atom_site_type_symbol
_atom_site_label
_atom_site_fract_x
_atom_site_fract_y
_atom_site_fract_z
Si Si1 0.300572 0.572371 0.423563
Si Si2 0.376973 0.569975 0.899316
Si Si3 0.378223 0.070867 0.585929
Si Si4 0.039324 0.571571 0.087415
Si Si5 0.798084 0.068448 0.905470
Si Si6 0.958692 0.068703 0.581524
O O1 0.250000 0.546040 0.464916
O O2 0.313009 0.750000 0.440417
O O3 0.329802 0.474541 0.533992
O O4 0.309920 0.513653 0.258528
O O5 0.374757 0.750000 0.863720
O O6 0.384568 0.475874 0.753274
O O7 0.415561 0.529287 0.009960
O O8 0.332769 0.509183 0.976404
O O9 0.385619 0.250000 0.570039
O O10 0.413691 0.984197 0.489362
O O11 0.031411 0.750000 0.090161
O O12 0.040512 0.507881 0.252230
O O13 0.000000 0.500000 0.000000
O O14 0.750000 0.007191 0.950350
O O15 0.797888 0.250000 0.901807
O O16 0.961157 0.250000 0.573131
O O17 0.000000 0.000000 0.500000
#
# Coordination Sequence:
#
# PCOD8244287 Si02
#       6
#     8   8   8   8   8   8
#     4   9  18  36  62  87 111 145 190 238 287 339
#     4  10  20  36  57  81 110 146 187 232 281 329
#     4  12  25  38  54  82 119 156 192 232 279 332
#     4  10  22  38  59  84 111 143 182 230 278 329
#     4   8  15  31  58  87 109 135 181 236 285 336
#     4  11  23  41  63  88 116 147 187 232 280 335
#
# _framework density 19.614681000000001
#
# number of rings (size 3 to 8) (size 9 to 14) (size 15 to 20)
#    0.000    2.000    0.000    5.000    0.000    8.333 
#    0.000    4.167    0.000    1.000    0.000    0.000 
#    0.000    0.000    0.000    0.000    0.000    0.000 
#
# Total GULP energy -595298.661565 kJ/mol
# GULP energy per Si atom -12402.055449 kJ/mol
# Density = 1.957004 g / cm^3
# Si number density = 19.614681 Si / 1000 Ang^3
#
#
#
# Elastic Constant Matrix: (Units=GPa)
#
#
# Indices 1 2 3 4 5 6 
#
# 1 127.3479 38.0614 73.3698 0.0000 0.0000 0.0000
# 2 38.0614 54.7304 43.4104 0.0000 0.0000 0.0000
# 3 73.3698 43.4104 157.7538 0.0000 0.0000 0.0000
# 4 0.0000 0.0000 0.0000 23.9472 0.0000 0.0000
# 5 0.0000 0.0000 0.0000 0.0000 41.2329 0.0000
# 6 0.0000 0.0000 0.0000 0.0000 0.0000 29.4289
#
#
#
# Elastic Compliance Matrix: (Units=1/GPa)
#
#
# Indices 1 2 3 4 5 6 
#
# 1 0.011661 -0.004871 -0.004083 0.000000 0.000000 0.000000
# 2 -0.004871 0.025407 -0.004726 0.000000 0.000000 0.000000
# 3 -0.004083 -0.004726 0.009538 0.000000 0.000000 0.000000
# 4 0.000000 0.000000 0.000000 0.041759 0.000000 0.000000
# 5 0.000000 0.000000 0.000000 0.000000 0.024252 0.000000
# 6 0.000000 0.000000 0.000000 0.000000 0.000000 0.033980
#
#
# Mechanical properties :
#
#
# Convention : Reuss Voigt Hill
#
# Bulk Modulus (GPa) = 51.95705 72.16836 62.06270
# Shear Modulus (GPa) = 27.72038 31.25451 29.48744
#
# Velocity S-wave (km/s) = 3.76340 3.99610 3.88149
# Velocity P-wave (km/s) = 6.74022 7.62658 7.19706
#
# Compressibility (1/GPa) = 0.01924667
#
# Stress axis : x y z
#
# Youngs Moduli (GPa) = 85.75913 39.35879 104.83869
#
# Poissons Ratio (x) = 0.19171 0.42805
# Poissons Ratio (y) = 0.41771 0.49549
# Poissons Ratio (z) = 0.35015 0.18602
#
# Static dielectric constant tensor:
#      x y z
#    x 3.811350 0.000000 0.000000 
#    y 0.000000 3.374300 0.000000 
#    z 0.000000 0.000000 3.798740 
# 
# 
# High freq. dielectric constant tensor:
#      x y z
#    x 1.781970 0.000000 0.000000 
#    y 0.000000 1.737370 0.000000 
#    z 0.000000 0.000000 1.774910 
# 
# From -- ./inp_files/12967.got.cif
#   From: 2010.03.12/outbox.cif.g09.slc.cpg/sg59_7_cif.got.tgz:12967.got - 2010.04.16 16:29:54.
