data_PCOD8244818
_publ_section_title
;
Structure prediction by ZEFSAII (Michael W. Deem and Ramdas Pophale) SiO2 
 PCOD8244818
Probable space group: P M M N
;
_chemical_formula_sum "Si O2"
_cell_formula_units_Z 40
_cell_length_a 7.700518
_cell_length_b 9.201225
_cell_length_c 28.986551
_cell_angle_alpha 90.000000
_cell_angle_beta 90.000000
_cell_angle_gamma 90.000000
_cell_volume 2053.818845
_symmetry_space_group_name_H-M "P M M N"
_symmetry_group_IT_number 59
_space_group.IT_coordinate_system_code '2'
_symmetry_cell_setting 'orthorhombic'
loop_
_space_group_symop_operation_xyz
x,y,z
1/2-x,1/2-y,z
1/2+x,-y,-z
-x,1/2+y,-z
-x,-y,-z
1/2+x,1/2+y,-z
1/2-x,y,z
x,1/2-y,z
loop_
_atom_site_type_symbol
_atom_site_label
_atom_site_fract_x
_atom_site_fract_y
_atom_site_fract_z
Si Si1 0.549978 0.419207 0.365375
Si Si2 0.047695 0.416442 0.046037
Si Si3 0.750000 0.919200 0.704224
Si Si4 0.943451 0.584139 0.134006
Si Si5 0.453526 0.088794 0.545046
Si Si6 0.750000 0.421099 0.800338
O O1 0.750000 0.458640 0.352707
O O2 0.532349 0.250000 0.377519
O O3 0.424861 0.462274 0.323257
O O4 0.478683 0.505765 0.409719
O O5 0.250000 0.429545 0.056397
O O6 0.988372 0.250000 0.040728
O O7 0.946697 0.487286 0.088391
O O8 0.000000 0.500000 0.000000
O O9 0.750000 0.750000 0.715884
O O10 0.750000 0.005658 0.751181
O O11 0.750000 0.573336 0.155307
O O12 0.989016 0.750000 0.120153
O O13 0.079399 0.526938 0.171894
O O14 0.250000 0.102709 0.548911
O O15 0.537803 0.250000 0.542665
O O16 0.500000 0.000000 0.500000
O O17 0.750000 0.250000 0.792578
#
# Coordination Sequence:
#
# PCOD8244818 Si02
#       6
#     8   8   4   8   8   4
#     4   9  19  37  57  79 112 149 187 237 290 338
#     4  11  23  37  56  85 120 157 197 239 286 344
#     4  10  22  38  60  86 112 148 194 240 289 348
#     4  10  21  39  62  86 115 153 195 239 290 344
#     4  10  21  35  53  80 113 149 189 233 283 341
#     4  10  22  40  60  86 118 150 188 242 297 344
#
# _framework density 19.475915000000001
#
# number of rings (size 3 to 8) (size 9 to 14) (size 15 to 20)
#    0.000    2.000    1.000    1.800    1.400    7.600 
#    0.000    0.000    0.000    0.000    0.000    0.000 
#    0.000    0.000    0.000    0.000    0.000    0.000 
#
# Total GULP energy -496069.464914 kJ/mol
# GULP energy per Si atom -12401.736623 kJ/mol
# Density = 1.943159 g / cm^3
# Si number density = 19.475915 Si / 1000 Ang^3
#
#
#
# Elastic Constant Matrix: (Units=GPa)
#
#
# Indices 1 2 3 4 5 6 
#
# 1 105.5372 40.1005 63.1045 0.0000 0.0000 0.0000
# 2 40.1005 103.9486 75.4945 0.0000 0.0000 0.0000
# 3 63.1045 75.4945 169.9023 0.0000 0.0000 0.0000
# 4 0.0000 0.0000 0.0000 43.2101 0.0000 0.0000
# 5 0.0000 0.0000 0.0000 0.0000 31.1933 0.0000
# 6 0.0000 0.0000 0.0000 0.0000 0.0000 21.7458
#
#
#
# Elastic Compliance Matrix: (Units=1/GPa)
#
#
# Indices 1 2 3 4 5 6 
#
# 1 0.012495 -0.002140 -0.003690 0.000000 0.000000 0.000000
# 2 -0.002140 0.014571 -0.005679 0.000000 0.000000 0.000000
# 3 -0.003690 -0.005679 0.009780 0.000000 0.000000 0.000000
# 4 0.000000 0.000000 0.000000 0.023143 0.000000 0.000000
# 5 0.000000 0.000000 0.000000 0.000000 0.032058 0.000000
# 6 0.000000 0.000000 0.000000 0.000000 0.000000 0.045986
#
#
# Mechanical properties :
#
#
# Convention : Reuss Voigt Hill
#
# Bulk Modulus (GPa) = 72.32647 81.86522 77.09585
# Shear Modulus (GPa) = 30.18239 32.60908 31.39574
#
# Velocity S-wave (km/s) = 3.94093 4.09630 4.01936
# Velocity P-wave (km/s) = 7.61084 8.03108 7.82378
#
# Compressibility (1/GPa) = 0.01382620
#
# Stress axis : x y z
#
# Youngs Moduli (GPa) = 80.03316 68.63160 102.25282
#
# Poissons Ratio (x) = 0.14690 0.37728
# Poissons Ratio (y) = 0.17131 0.58072
# Poissons Ratio (z) = 0.29530 0.38978
#
# Static dielectric constant tensor:
#      x y z
#    x 5.290110 0.000000 0.000000 
#    y 0.000000 3.656050 0.000000 
#    z 0.000000 0.000000 3.329210 
# 
# 
# High freq. dielectric constant tensor:
#      x y z
#    x 1.769920 0.000000 0.000000 
#    y 0.000000 1.760310 0.000000 
#    z 0.000000 0.000000 1.749750 
# 
# From -- ./inp_files/32416.got.cif
#   From: 2010.03.12/outbox.cif.g09.slc.cpg/sg59_17_cif.got.tgz:32416.got - 2010.04.16 16:29:54.
