data_PCOD8244623
_publ_section_title
;
Structure prediction by ZEFSAII (Michael W. Deem and Ramdas Pophale) SiO2 
 PCOD8244623
Probable space group: P M M N
;
_chemical_formula_sum "Si O2"
_cell_formula_units_Z 64
_cell_length_a 23.061622
_cell_length_b 18.245512
_cell_length_c 7.678884
_cell_angle_alpha 90.000000
_cell_angle_beta 90.000000
_cell_angle_gamma 90.000000
_cell_volume 3231.052475
_symmetry_space_group_name_H-M "P M M N"
_symmetry_group_IT_number 59
_space_group.IT_coordinate_system_code '2'
_symmetry_cell_setting 'orthorhombic'
loop_
_space_group_symop_operation_xyz
x,y,z
1/2-x,1/2-y,z
1/2+x,-y,-z
-x,1/2+y,-z
-x,-y,-z
1/2+x,1/2+y,-z
1/2-x,y,z
x,1/2-y,z
loop_
_atom_site_type_symbol
_atom_site_label
_atom_site_fract_x
_atom_site_fract_y
_atom_site_fract_z
Si Si1 0.184293 0.944788 0.913333
Si Si2 0.186957 0.423511 0.152123
Si Si3 0.397306 0.450219 0.706615
Si Si4 0.478888 0.583087 0.199621
Si Si5 0.684060 0.833727 0.197019
Si Si6 0.523709 0.164882 0.437557
Si Si7 0.909964 0.334525 0.092541
Si Si8 0.427103 0.059087 0.335210
O O1 0.250000 0.934436 0.841153
O O2 0.154357 0.866350 0.946383
O O3 0.143331 0.985814 0.775982
O O4 0.185991 0.991971 0.089575
O O5 0.250000 0.406952 0.237463
O O6 0.136484 0.410755 0.289134
O O7 0.176579 0.369286 0.991876
O O8 0.452082 0.429335 0.828820
O O9 0.358939 0.376931 0.674326
O O10 0.424177 0.478210 0.525674
O O11 0.463083 0.627371 0.376404
O O12 0.449260 0.502851 0.202744
O O13 0.456797 0.625147 0.029534
O O14 0.750000 0.841980 0.263163
O O15 0.664411 0.750000 0.188513
O O16 0.510757 0.250000 0.471982
O O17 0.575748 0.155040 0.297908
O O18 0.468349 0.129297 0.343124
O O19 0.909411 0.250000 0.039212
#
# Coordination Sequence:
#
# PCOD8244623 Si02
#       8
#     8   8   8   8   8   8   8   8
#     4  10  20  38  58  82 113 145 190 247 287 335
#     4   9  19  34  54  78 108 145 185 232 279 331
#     4  10  21  34  58  85 111 150 191 231 291 343
#     4  11  22  39  59  85 121 151 191 240 291 348
#     4   9  19  36  54  76 111 152 191 230 274 329
#     4  10  23  39  55  86 123 151 191 242 288 347
#     4  11  23  38  62  87 111 158 198 232 300 359
#     4  11  21  36  57  83 114 150 187 236 292 346
#
# _framework density 19.807787999999999
#
# number of rings (size 3 to 8) (size 9 to 14) (size 15 to 20)
#    0.000    1.875    1.250    4.500    3.500    5.250 
#    0.000    0.000    0.000    1.500    0.000    1.750 
#    0.000    0.000    0.000    0.000    0.000    0.000 
#
# Total GULP energy -793410.839376 kJ/mol
# GULP energy per Si atom -12397.044365 kJ/mol
# Density = 1.976270 g / cm^3
# Si number density = 19.807788 Si / 1000 Ang^3
#
#
#
# Elastic Constant Matrix: (Units=GPa)
#
#
# Indices 1 2 3 4 5 6 
#
# 1 112.6469 35.8859 11.6784 0.0000 0.0000 0.0000
# 2 35.8859 75.9874 14.4109 0.0000 0.0000 0.0000
# 3 11.6784 14.4109 42.4471 0.0000 0.0000 0.0000
# 4 0.0000 0.0000 0.0000 25.1816 0.0000 0.0000
# 5 0.0000 0.0000 0.0000 0.0000 28.3365 0.0000
# 6 0.0000 0.0000 0.0000 0.0000 0.0000 29.5448
#
#
#
# Elastic Compliance Matrix: (Units=1/GPa)
#
#
# Indices 1 2 3 4 5 6 
#
# 1 0.010515 -0.004721 -0.001290 0.000000 0.000000 0.000000
# 2 -0.004721 0.016185 -0.004196 0.000000 0.000000 0.000000
# 3 -0.001290 -0.004196 0.025338 0.000000 0.000000 0.000000
# 4 0.000000 0.000000 0.000000 0.039712 0.000000 0.000000
# 5 0.000000 0.000000 0.000000 0.000000 0.035290 0.000000
# 6 0.000000 0.000000 0.000000 0.000000 0.000000 0.033847
#
#
# Mechanical properties :
#
#
# Convention : Reuss Voigt Hill
#
# Bulk Modulus (GPa) = 31.62151 39.44797 35.53474
# Shear Modulus (GPa) = 26.06290 27.88634 26.97462
#
# Velocity S-wave (km/s) = 3.63132 3.75620 3.69429
# Velocity P-wave (km/s) = 5.79489 6.22661 6.01463
#
# Compressibility (1/GPa) = 0.03162404
#
# Stress axis : x y z
#
# Youngs Moduli (GPa) = 95.10154 61.78374 39.46598
#
# Poissons Ratio (x) = 0.29169 0.05092
# Poissons Ratio (y) = 0.44899 0.16560
# Poissons Ratio (z) = 0.12269 0.25925
#
# Static dielectric constant tensor:
#      x y z
#    x 3.790760 0.000000 0.000000 
#    y 0.000000 3.688900 0.000000 
#    z 0.000000 0.000000 3.397690 
# 
# 
# High freq. dielectric constant tensor:
#      x y z
#    x 1.778770 0.000000 0.000000 
#    y 0.000000 1.770660 0.000000 
#    z 0.000000 0.000000 1.755480 
# 
# From -- ./inp_files/11611.got.cif
#   From: 2010.03.12/outbox.cif.g09.slc.cpg/sg59_6_cif.got.tgz:11611.got - 2010.04.16 16:29:54.
