data_PCOD8244140
_publ_section_title
;
Structure prediction by ZEFSAII (Michael W. Deem and Ramdas Pophale) SiO2 
 PCOD8244140
Probable space group: P M M N
;
_chemical_formula_sum "Si O2"
_cell_formula_units_Z 64
_cell_length_a 21.466742
_cell_length_b 15.323713
_cell_length_c 10.555179
_cell_angle_alpha 90.000000
_cell_angle_beta 90.000000
_cell_angle_gamma 90.000000
_cell_volume 3472.128174
_symmetry_space_group_name_H-M "P M M N"
_symmetry_group_IT_number 59
_space_group.IT_coordinate_system_code '2'
_symmetry_cell_setting 'orthorhombic'
loop_
_space_group_symop_operation_xyz
x,y,z
1/2-x,1/2-y,z
1/2+x,-y,-z
-x,1/2+y,-z
-x,-y,-z
1/2+x,1/2+y,-z
1/2-x,y,z
x,1/2-y,z
loop_
_atom_site_type_symbol
_atom_site_label
_atom_site_fract_x
_atom_site_fract_y
_atom_site_fract_z
Si Si1 0.823281 1.000000 0.048387
Si Si2 0.460564 0.847266 0.303983
Si Si3 0.417319 0.899098 0.563331
Si Si4 0.678185 0.152311 0.240236
Si Si5 0.417318 0.399102 0.563332
Si Si6 0.460562 0.152734 0.303983
Si Si7 0.946367 0.500000 0.893048
Si Si8 0.821815 0.652312 0.240236
O O1 0.750000 0.000001 0.002809
O O2 0.838984 0.913594 0.128206
O O3 0.838985 0.086404 0.128209
O O4 0.874160 0.000000 0.937401
O O5 0.445730 0.750000 0.253619
O O6 0.412473 0.871819 0.416321
O O7 0.529572 0.846950 0.362196
O O8 0.455354 0.913073 0.188041
O O9 0.352444 0.876683 0.628363
O O10 0.470430 0.846948 0.637804
O O11 0.434697 0.999998 0.573671
O O12 0.750000 0.147327 0.271990
O O13 0.657988 0.250000 0.198823
O O14 0.412472 0.371823 0.416321
O O15 0.352442 0.376689 0.628364
O O16 0.445725 0.250000 0.253622
O O17 0.455353 0.086928 0.188040
O O18 0.000000 0.500000 0.000000
O O19 0.750000 0.647335 0.271988
O O20 0.842018 0.750000 0.198829
#
# Coordination Sequence:
#
# PCOD8244140 Si02
#       8
#     8   8   8   8   8   8   8   8
#     4  10  22  39  57  79 113 152 188 231 279 321
#     4  11  22  37  57  83 113 145 179 225 284 332
#     4  11  18  35  60  84 115 142 172 224 288 341
#     4  10  20  35  58  86 111 141 184 229 275 329
#     4  11  18  35  60  84 115 142 172 224 288 341
#     4  11  22  37  57  83 113 145 179 225 284 332
#     4  12  24  38  57  82 111 148 198 237 262 323
#     4  10  20  35  58  86 111 141 184 229 275 329
#
# _framework density 18.432499
#
# number of rings (size 3 to 8) (size 9 to 14) (size 15 to 20)
#    0.000    1.250    3.750    5.250    0.000    1.500 
#    0.000    1.250    0.000    1.500    0.000    0.000 
#    0.000    0.000    0.000    0.000    0.000    0.000 
#
# Total GULP energy -793540.135649 kJ/mol
# GULP energy per Si atom -12399.064620 kJ/mol
# Density = 1.839055 g / cm^3
# Si number density = 18.432499 Si / 1000 Ang^3
#
#
#
# Elastic Constant Matrix: (Units=GPa)
#
#
# Indices 1 2 3 4 5 6 
#
# 1 61.8273 30.8299 49.2834 0.0000 0.0000 0.0000
# 2 30.8299 158.2261 58.0337 0.0000 0.0000 0.0000
# 3 49.2834 58.0337 118.4309 0.0000 0.0000 0.0000
# 4 0.0000 0.0000 0.0000 5.5057 0.0000 0.0000
# 5 0.0000 0.0000 0.0000 0.0000 32.3980 0.0000
# 6 0.0000 0.0000 0.0000 0.0000 0.0000 20.4103
#
#
#
# Elastic Compliance Matrix: (Units=1/GPa)
#
#
# Indices 1 2 3 4 5 6 
#
# 1 0.024405 -0.001256 -0.009540 0.000000 0.000000 0.000000
# 2 -0.001256 0.007770 -0.003285 0.000000 0.000000 0.000000
# 3 -0.009540 -0.003285 0.014023 0.000000 0.000000 0.000000
# 4 0.000000 0.000000 0.000000 0.181631 0.000000 0.000000
# 5 0.000000 0.000000 0.000000 0.000000 0.030866 0.000000
# 6 0.000000 0.000000 0.000000 0.000000 0.000000 0.048995
#
#
# Mechanical properties :
#
#
# Convention : Reuss Voigt Hill
#
# Bulk Modulus (GPa) = 55.44450 68.30870 61.87660
# Shear Modulus (GPa) = 14.62571 25.01860 19.82216
#
# Velocity S-wave (km/s) = 2.81992 3.68816 3.28287
# Velocity P-wave (km/s) = 6.38339 7.43479 6.92906
#
# Compressibility (1/GPa) = 0.01803605
#
# Stress axis : x y z
#
# Youngs Moduli (GPa) = 40.97487 128.70830 71.30975
#
# Poissons Ratio (x) = 0.16167 0.68032
# Poissons Ratio (y) = 0.05147 0.23422
# Poissons Ratio (z) = 0.39092 0.42275
#
# Static dielectric constant tensor:
#      x y z
#    x 3.338230 0.000000 0.000000 
#    y 0.000000 3.822370 0.000000 
#    z 0.000000 0.000000 3.314630 
# 
# 
# High freq. dielectric constant tensor:
#      x y z
#    x 1.704280 0.000000 0.000000 
#    y 0.000000 1.741860 0.000000 
#    z 0.000000 0.000000 1.697190 
# 
# From -- ./inp_files/12245.got.cif
#   From: 2010.03.12/outbox.cif.g09.slc.cpg/sg59_7_cif.got.tgz:12245.got - 2010.04.16 16:29:54.
