data_PCOD8244955
_publ_section_title
;
Structure prediction by ZEFSAII (Michael W. Deem and Ramdas Pophale) SiO2 
 PCOD8244955
Probable space group: P M M N
;
_chemical_formula_sum "Si O2"
_cell_formula_units_Z 64
_cell_length_a 9.309566
_cell_length_b 14.903857
_cell_length_c 23.903739
_cell_angle_alpha 90.000000
_cell_angle_beta 90.000000
_cell_angle_gamma 90.000000
_cell_volume 3316.606506
_symmetry_space_group_name_H-M "P M M N"
_symmetry_group_IT_number 59
_space_group.IT_coordinate_system_code '2'
_symmetry_cell_setting 'orthorhombic'
loop_
_space_group_symop_operation_xyz
x,y,z
1/2-x,1/2-y,z
1/2+x,-y,-z
-x,1/2+y,-z
-x,-y,-z
1/2+x,1/2+y,-z
1/2-x,y,z
x,1/2-y,z
loop_
_atom_site_type_symbol
_atom_site_label
_atom_site_fract_x
_atom_site_fract_y
_atom_site_fract_z
Si Si1 0.919264 0.493160 0.263091
Si Si2 0.414475 0.856318 0.321672
Si Si3 0.417736 0.351270 0.933335
Si Si4 0.582403 0.146896 0.044428
Si Si5 0.917827 0.145990 0.359212
Si Si6 0.919123 0.484354 0.138650
Si Si7 0.083750 0.077296 0.467077
Si Si8 0.902784 0.650444 0.420667
O O1 0.750000 0.511635 0.263434
O O2 0.959735 0.411415 0.304427
O O3 0.976950 0.467286 0.201310
O O4 0.994963 0.587369 0.277265
O O5 0.250000 0.884710 0.317723
O O6 0.433923 0.750000 0.310980
O O7 0.469020 0.890683 0.383344
O O8 0.250000 0.359367 0.947035
O O9 0.460293 0.250000 0.915992
O O10 0.462386 0.416069 0.882343
O O11 0.501194 0.382662 0.988457
O O12 0.750000 0.127488 0.034672
O O13 0.552474 0.250000 0.058953
O O14 0.518318 0.089720 0.096044
O O15 0.750000 0.137022 0.373260
O O16 0.959447 0.250000 0.348559
O O17 0.006746 0.106357 0.410694
O O18 0.750000 0.472902 0.139706
O O19 0.250000 0.052440 0.454440
O O20 0.069908 0.156367 0.512895
O O21 0.000000 0.000000 0.500000
O O22 0.750000 0.598697 0.409185
O O23 0.885545 0.750000 0.397762
#
# Coordination Sequence:
#
# PCOD8244955 Si02
#       8
#     8   8   8   8   8   8   8   8
#     4  10  21  37  56  77 102 139 187 229 264 311
#     4  10  21  36  54  78 108 139 171 215 274 331
#     4   9  17  30  49  74 104 135 166 204 253 309
#     4   9  17  30  50  76 104 133 166 207 256 307
#     4  10  22  39  57  79 110 147 186 230 279 326
#     4   9  18  32  51  75 101 132 174 218 256 300
#     4  11  22  35  54  80 108 137 172 217 270 327
#     4   9  18  33  52  73  96 124 161 203 248 305
#
# _framework density 19.296832999999999
#
# number of rings (size 3 to 8) (size 9 to 14) (size 15 to 20)
#    0.000    2.375    0.000    2.250    0.000    7.000 
#    0.000    6.250    0.000    1.500    0.000    1.750 
#    0.000    0.000    0.000    0.000    0.000    0.000 
#
# Total GULP energy -793105.483248 kJ/mol
# GULP energy per Si atom -12392.273176 kJ/mol
# Density = 1.925291 g / cm^3
# Si number density = 19.296833 Si / 1000 Ang^3
#
#
#
# Elastic Constant Matrix: (Units=GPa)
#
#
# Indices 1 2 3 4 5 6 
#
# 1 67.6505 43.2328 49.6901 0.0000 0.0000 0.0000
# 2 43.2328 97.2278 64.7442 0.0000 0.0000 0.0000
# 3 49.6901 64.7442 154.5013 0.0000 0.0000 0.0000
# 4 0.0000 0.0000 0.0000 27.8604 0.0000 0.0000
# 5 0.0000 0.0000 0.0000 0.0000 25.2899 0.0000
# 6 0.0000 0.0000 0.0000 0.0000 0.0000 22.4675
#
#
#
# Elastic Compliance Matrix: (Units=1/GPa)
#
#
# Indices 1 2 3 4 5 6 
#
# 1 0.022469 -0.007184 -0.004216 0.000000 0.000000 0.000000
# 2 -0.007184 0.016563 -0.004630 0.000000 0.000000 0.000000
# 3 -0.004216 -0.004630 0.009769 0.000000 0.000000 0.000000
# 4 0.000000 0.000000 0.000000 0.035893 0.000000 0.000000
# 5 0.000000 0.000000 0.000000 0.000000 0.039541 0.000000
# 6 0.000000 0.000000 0.000000 0.000000 0.000000 0.044509
#
#
# Mechanical properties :
#
#
# Convention : Reuss Voigt Hill
#
# Bulk Modulus (GPa) = 59.73452 70.52375 65.12914
# Shear Modulus (GPa) = 24.22659 25.90439 25.06549
#
# Velocity S-wave (km/s) = 3.54710 3.66788 3.60800
# Velocity P-wave (km/s) = 6.91366 7.38674 7.15411
#
# Compressibility (1/GPa) = 0.01674074
#
# Stress axis : x y z
#
# Youngs Moduli (GPa) = 44.50482 60.37683 102.36687
#
# Poissons Ratio (x) = 0.43372 0.43160
# Poissons Ratio (y) = 0.31970 0.47399
# Poissons Ratio (z) = 0.18764 0.27956
#
# Static dielectric constant tensor:
#      x y z
#    x 3.541150 0.000000 0.000000 
#    y 0.000000 3.447510 0.000000 
#    z 0.000000 0.000000 4.058260 
# 
# 
# High freq. dielectric constant tensor:
#      x y z
#    x 1.734670 0.000000 0.000000 
#    y 0.000000 1.755930 0.000000 
#    z 0.000000 0.000000 1.747670 
# 
# From -- ./inp_files/31511.got.cif
#   From: 2010.03.12/outbox.cif.g09.slc.cpg/sg59_16_cif.got.tgz:31511.got - 2010.04.16 16:29:54.
