data_PCOD8244829
_publ_section_title
;
Structure prediction by ZEFSAII (Michael W. Deem and Ramdas Pophale) SiO2 
 PCOD8244829
Probable space group: P M M N
;
_chemical_formula_sum "Si O2"
_cell_formula_units_Z 56
_cell_length_a 15.223534
_cell_length_b 8.976533
_cell_length_c 21.310571
_cell_angle_alpha 90.000000
_cell_angle_beta 90.000000
_cell_angle_gamma 90.000000
_cell_volume 2912.186604
_symmetry_space_group_name_H-M "P M M N"
_symmetry_group_IT_number 59
_space_group.IT_coordinate_system_code '2'
_symmetry_cell_setting 'orthorhombic'
loop_
_space_group_symop_operation_xyz
x,y,z
1/2-x,1/2-y,z
1/2+x,-y,-z
-x,1/2+y,-z
-x,-y,-z
1/2+x,1/2+y,-z
1/2-x,y,z
x,1/2-y,z
loop_
_atom_site_type_symbol
_atom_site_label
_atom_site_fract_x
_atom_site_fract_y
_atom_site_fract_z
Si Si1 0.349139 0.079099 0.872055
Si Si2 0.851508 0.921845 0.422885
Si Si3 0.592906 0.422396 0.006002
Si Si4 0.001074 0.574525 0.794946
Si Si5 0.349057 0.919732 0.132286
Si Si6 0.000447 0.926115 0.652086
Si Si7 0.847133 0.572644 0.563995
O O1 0.250000 0.067371 0.845955
O O2 0.378139 0.250000 0.881290
O O3 0.352390 0.997915 0.938763
O O4 0.413134 0.004238 0.822078
O O5 0.750000 0.945715 0.405570
O O6 0.878148 0.750000 0.416730
O O7 0.870364 0.980053 0.493483
O O8 0.907752 0.015575 0.374033
O O9 0.578524 0.250000 0.022598
O O10 0.500000 0.500000 0.000000
O O11 0.646579 0.444083 0.942199
O O12 0.014822 0.750000 0.800332
O O13 0.914193 0.530881 0.832819
O O14 0.988944 0.521636 0.723503
O O15 0.250000 0.955243 0.154289
O O16 0.375120 0.750000 0.148878
O O17 0.000892 0.750000 0.646829
O O18 0.919005 0.992972 0.612013
O O19 0.750000 0.513398 0.583083
O O20 0.845879 0.750000 0.565333
#
# Coordination Sequence:
#
# PCOD8244829 Si02
#       7
#     8   8   8   8   8   8   8
#     4  11  24  41  61  84 111 148 193 238 286 338
#     4   9  18  33  55  82 109 142 182 222 271 330
#     4  11  21  36  62  91 118 147 182 227 283 339
#     4  11  24  39  56  81 113 151 192 235 280 332
#     4  10  22  40  61  84 113 149 185 225 278 335
#     4  10  21  35  54  81 110 144 185 227 277 326
#     4   8  15  31  55  81 110 142 178 222 272 329
#
# _framework density 19.229536
#
# number of rings (size 3 to 8) (size 9 to 14) (size 15 to 20)
#    0.000    2.000    1.429    3.000    0.000    5.143 
#    0.000    4.286    0.000    1.286    0.000    0.000 
#    0.000    0.000    0.000    0.000    0.000    0.000 
#
# Total GULP energy -694505.331501 kJ/mol
# GULP energy per Si atom -12401.880920 kJ/mol
# Density = 1.918577 g / cm^3
# Si number density = 19.229536 Si / 1000 Ang^3
#
#
#
# Elastic Constant Matrix: (Units=GPa)
#
#
# Indices 1 2 3 4 5 6 
#
# 1 111.3222 39.8227 50.3893 0.0000 0.0000 0.0000
# 2 39.8227 69.1913 46.4957 0.0000 0.0000 0.0000
# 3 50.3893 46.4957 108.9736 0.0000 0.0000 0.0000
# 4 0.0000 0.0000 0.0000 21.2603 0.0000 0.0000
# 5 0.0000 0.0000 0.0000 0.0000 9.5362 0.0000
# 6 0.0000 0.0000 0.0000 0.0000 0.0000 26.6497
#
#
#
# Elastic Compliance Matrix: (Units=1/GPa)
#
#
# Indices 1 2 3 4 5 6 
#
# 1 0.012312 -0.004571 -0.003743 0.000000 0.000000 0.000000
# 2 -0.004571 0.021959 -0.007256 0.000000 0.000000 0.000000
# 3 -0.003743 -0.007256 0.014003 0.000000 0.000000 0.000000
# 4 0.000000 0.000000 0.000000 0.047036 0.000000 0.000000
# 5 0.000000 0.000000 0.000000 0.000000 0.104864 0.000000
# 6 0.000000 0.000000 0.000000 0.000000 0.000000 0.037524
#
#
# Mechanical properties :
#
#
# Convention : Reuss Voigt Hill
#
# Bulk Modulus (GPa) = 58.35907 62.54475 60.45191
# Shear Modulus (GPa) = 18.21166 21.67451 19.94308
#
# Velocity S-wave (km/s) = 3.08078 3.36094 3.22391
# Velocity P-wave (km/s) = 6.56274 6.90342 6.73523
#
# Compressibility (1/GPa) = 0.01713530
#
# Stress axis : x y z
#
# Youngs Moduli (GPa) = 81.21939 45.53875 71.41331
#
# Poissons Ratio (x) = 0.20817 0.26729
# Poissons Ratio (y) = 0.37127 0.51815
# Poissons Ratio (z) = 0.30399 0.33041
#
# Static dielectric constant tensor:
#      x y z
#    x 3.620340 0.000000 0.000000 
#    y 0.000000 3.453220 0.000000 
#    z 0.000000 0.000000 3.771690 
# 
# 
# High freq. dielectric constant tensor:
#      x y z
#    x 1.760560 0.000000 0.000000 
#    y 0.000000 1.735030 0.000000 
#    z 0.000000 0.000000 1.745650 
# 
# From -- ./inp_files/29035.got.cif
#   From: 2010.03.12/outbox.cif.g09.slc.cpg/sg59_15_cif.got.tgz:29035.got - 2010.04.16 16:29:54.
