data_PCOD8244467
_publ_section_title
;
Structure prediction by ZEFSAII (Michael W. Deem and Ramdas Pophale) SiO2 
 PCOD8244467
Probable space group: P M M N
;
_chemical_formula_sum "Si O2"
_cell_formula_units_Z 56
_cell_length_a 8.919480
_cell_length_b 14.360702
_cell_length_c 22.335461
_cell_angle_alpha 90.000000
_cell_angle_beta 90.000000
_cell_angle_gamma 90.000000
_cell_volume 2860.949072
_symmetry_space_group_name_H-M "P M M N"
_symmetry_group_IT_number 59
_space_group.IT_coordinate_system_code '2'
_symmetry_cell_setting 'orthorhombic'
loop_
_space_group_symop_operation_xyz
x,y,z
1/2-x,1/2-y,z
1/2+x,-y,-z
-x,1/2+y,-z
-x,-y,-z
1/2+x,1/2+y,-z
1/2-x,y,z
x,1/2-y,z
loop_
_atom_site_type_symbol
_atom_site_label
_atom_site_fract_x
_atom_site_fract_y
_atom_site_fract_z
Si Si1 0.077791 0.359298 0.108590
Si Si2 0.076160 0.551595 0.656901
Si Si3 0.428567 0.941319 0.446606
Si Si4 0.418828 0.860803 0.009545
Si Si5 0.571461 0.750000 0.477982
Si Si6 0.076144 0.145778 0.871846
Si Si7 0.923885 0.023474 0.207632
Si Si8 0.920578 0.250000 0.396660
O O1 0.250000 0.385408 0.103847
O O2 0.049092 0.250000 0.112769
O O3 0.000512 0.401534 0.049085
O O4 0.012423 0.402412 0.168644
O O5 0.250000 0.524131 0.646502
O O6 0.023189 0.530988 0.724129
O O7 0.049729 0.660343 0.644117
O O8 0.969620 0.489778 0.615550
O O9 0.250000 0.936588 0.455203
O O10 0.498880 0.838949 0.446142
O O11 0.500000 0.000000 0.500000
O O12 0.250000 0.896948 0.007738
O O13 0.430907 0.750000 0.009236
O O14 0.493559 0.897773 0.070515
O O15 0.750000 0.750000 0.469321
O O16 0.534665 0.750000 0.548280
O O17 0.250000 0.147497 0.888200
O O18 0.018660 0.250000 0.856397
O O19 0.042115 0.081294 0.814731
O O20 0.750000 0.048716 0.201751
O O21 0.750000 0.250000 0.421745
#
# Coordination Sequence:
#
# PCOD8244467 Si02
#       8
#     8   8   8   8   4   8   8   4
#     4  10  21  36  54  80 114 150 187 236 295 351
#     4  10  22  40  61  90 124 161 202 245 294 353
#     4  12  24  41  65  94 129 163 202 253 303 355
#     4   9  17  31  54  82 108 140 186 238 292 349
#     4  12  24  40  66  98 126 162 203 248 305 360
#     4   9  18  35  57  80 110 146 188 239 292 347
#     4  10  22  38  58  84 114 154 199 238 285 346
#     4  10  20  36  62  90 124 162 199 242 293 352
#
# _framework density 19.573924000000002
#
# number of rings (size 3 to 8) (size 9 to 14) (size 15 to 20)
#    0.000    1.857    1.429    2.786    1.000    4.286 
#    1.286    0.000    0.000    0.000    0.000    0.000 
#    0.000    0.000    0.000    0.000    0.000    0.000 
#
# Total GULP energy -694588.322227 kJ/mol
# GULP energy per Si atom -12403.362897 kJ/mol
# Density = 1.952937 g / cm^3
# Si number density = 19.573924 Si / 1000 Ang^3
#
#
#
# Elastic Constant Matrix: (Units=GPa)
#
#
# Indices 1 2 3 4 5 6 
#
# 1 114.6307 72.3457 62.9755 0.0000 0.0000 0.0000
# 2 72.3457 56.3507 81.7508 0.0000 0.0000 0.0000
# 3 62.9755 81.7508 154.5653 0.0000 0.0000 0.0000
# 4 0.0000 0.0000 0.0000 72.1945 0.0000 0.0000
# 5 0.0000 0.0000 0.0000 0.0000 34.0740 0.0000
# 6 0.0000 0.0000 0.0000 0.0000 0.0000 26.6082
#
#
#
# Elastic Compliance Matrix: (Units=1/GPa)
#
#
# Indices 1 2 3 4 5 6 
#
# 1 -0.036696 0.109253 -0.042833 0.000000 0.000000 0.000000
# 2 0.109253 -0.249004 0.087187 0.000000 0.000000 0.000000
# 3 -0.042833 0.087187 -0.022192 0.000000 0.000000 0.000000
# 4 0.000000 0.000000 0.000000 0.013851 0.000000 0.000000
# 5 0.000000 0.000000 0.000000 0.000000 0.029348 0.000000
# 6 0.000000 0.000000 0.000000 0.000000 0.000000 0.037582
#
#
# Mechanical properties :
#
#
# Convention : Reuss Voigt Hill
#
# Bulk Modulus (GPa) = -1470.57043 84.41007 -693.08018
# Shear Modulus (GPa) = -9.35366 33.80700 12.22667
#
# Velocity S-wave (km/s) = -2.18838 4.16040 2.50199
# Velocity P-wave (km/s) = 27.55552 8.14223 18.61466
#
# Compressibility (1/GPa) = -0.00068001
#
# Stress axis : x y z
#
# Youngs Moduli (GPa) = -27.25066 -4.01600 -45.06099
#
# Poissons Ratio (x) = 0.43876 -1.93011
# Poissons Ratio (y) = 2.97722 3.92872
# Poissons Ratio (z) = -1.16724 0.35014
#
# Static dielectric constant tensor:
#      x y z
#    x 3.647620 0.000000 0.000000 
#    y 0.000000 3.725160 0.000000 
#    z 0.000000 0.000000 3.631460 
# 
# 
# High freq. dielectric constant tensor:
#      x y z
#    x 1.762210 0.000000 0.000000 
#    y 0.000000 1.769780 0.000000 
#    z 0.000000 0.000000 1.757930 
# 
# From -- ./inp_files/29238.got.cif
#   From: 2010.03.12/outbox.cif.g09.slc.cpg/sg59_15_cif.got.tgz:29238.got - 2010.04.16 16:29:54.
