data_PCOD8244164
_publ_section_title
;
Structure prediction by ZEFSAII (Michael W. Deem and Ramdas Pophale) SiO2 
 PCOD8244164
Probable space group: P M M N
;
_chemical_formula_sum "Si O2"
_cell_formula_units_Z 48
_cell_length_a 18.711425
_cell_length_b 8.594415
_cell_length_c 14.690472
_cell_angle_alpha 90.000000
_cell_angle_beta 90.000000
_cell_angle_gamma 90.000000
_cell_volume 2362.429916
_symmetry_space_group_name_H-M "P M M N"
_symmetry_group_IT_number 59
_space_group.IT_coordinate_system_code '2'
_symmetry_cell_setting 'orthorhombic'
loop_
_space_group_symop_operation_xyz
x,y,z
1/2-x,1/2-y,z
1/2+x,-y,-z
-x,1/2+y,-z
-x,-y,-z
1/2+x,1/2+y,-z
1/2-x,y,z
x,1/2-y,z
loop_
_atom_site_type_symbol
_atom_site_label
_atom_site_fract_x
_atom_site_fract_y
_atom_site_fract_z
Si Si1 0.079744 0.069585 0.628624
Si Si2 0.668294 0.072824 0.214253
Si Si3 0.447474 0.929065 0.128852
Si Si4 0.396354 0.070275 0.952115
Si Si5 0.067073 0.431014 0.324504
Si Si6 0.167342 0.568686 0.465355
O O1 0.059433 0.250000 0.626646
O O2 0.120937 0.035856 0.721968
O O3 0.129237 0.028289 0.544099
O O4 0.006487 0.973428 0.624464
O O5 0.750000 0.061317 0.245997
O O6 0.640761 0.250000 0.221839
O O7 0.662309 0.013353 0.110716
O O8 0.431247 0.750000 0.150480
O O9 0.527798 0.954841 0.095869
O O10 0.435615 0.029676 0.218423
O O11 0.394124 0.989542 0.050731
O O12 0.376998 0.250000 0.964216
O O13 0.081912 0.250000 0.337807
O O14 0.131971 0.526677 0.369019
O O15 0.250000 0.520454 0.461755
O O16 0.158357 0.750000 0.487009
#
# Coordination Sequence:
#
# PCOD8244164 Si02
#       6
#     8   8   8   8   8   8
#     4  12  24  40  63  92 124 160 205 255 306 364
#     4  11  23  38  58  87 125 166 206 253 311 369
#     4  10  20  36  60  89 121 156 198 249 301 355
#     4  10  20  35  58  87 120 159 200 247 300 359
#     4  12  24  40  65  94 125 160 204 256 304 361
#     4  11  25  45  66  89 122 162 203 251 309 369
#
# _framework density 20.318062999999999
#
# number of rings (size 3 to 8) (size 9 to 14) (size 15 to 20)
#    0.000    1.000    1.667    6.000    0.000    6.000 
#    0.000    0.833    0.000    5.000    0.000    0.000 
#    0.000    0.000    0.000    0.000    0.000    0.000 
#
# Total GULP energy -595555.445655 kJ/mol
# GULP energy per Si atom -12407.405118 kJ/mol
# Density = 2.027182 g / cm^3
# Si number density = 20.318063 Si / 1000 Ang^3
#
#
#
# Elastic Constant Matrix: (Units=GPa)
#
#
# Indices 1 2 3 4 5 6 
#
# 1 65.8144 17.9080 36.0061 0.0000 0.0000 0.0000
# 2 17.9080 76.6472 24.7744 0.0000 0.0000 0.0000
# 3 36.0061 24.7744 91.8286 0.0000 0.0000 0.0000
# 4 0.0000 0.0000 0.0000 40.5034 0.0000 0.0000
# 5 0.0000 0.0000 0.0000 0.0000 25.2930 0.0000
# 6 0.0000 0.0000 0.0000 0.0000 0.0000 27.9172
#
#
#
# Elastic Compliance Matrix: (Units=1/GPa)
#
#
# Indices 1 2 3 4 5 6 
#
# 1 0.019710 -0.002308 -0.007105 0.000000 0.000000 0.000000
# 2 -0.002308 0.014564 -0.003024 0.000000 0.000000 0.000000
# 3 -0.007105 -0.003024 0.014492 0.000000 0.000000 0.000000
# 4 0.000000 0.000000 0.000000 0.024689 0.000000 0.000000
# 5 0.000000 0.000000 0.000000 0.000000 0.039537 0.000000
# 6 0.000000 0.000000 0.000000 0.000000 0.000000 0.035820
#
#
# Mechanical properties :
#
#
# Convention : Reuss Voigt Hill
#
# Bulk Modulus (GPa) = 41.85953 43.51858 42.68906
# Shear Modulus (GPa) = 27.52552 29.11616 28.32084
#
# Velocity S-wave (km/s) = 3.68466 3.78963 3.73751
# Velocity P-wave (km/s) = 6.22488 6.37288 6.29931
#
# Compressibility (1/GPa) = 0.02388942
#
# Stress axis : x y z
#
# Youngs Moduli (GPa) = 50.73667 68.66463 69.00483
#
# Poissons Ratio (x) = 0.15850 0.49031
# Poissons Ratio (y) = 0.11712 0.20867
# Poissons Ratio (z) = 0.36050 0.20764
#
# Static dielectric constant tensor:
#      x y z
#    x 3.596060 0.000000 0.000000 
#    y 0.000000 3.762380 0.000000 
#    z 0.000000 0.000000 3.807170 
# 
# 
# High freq. dielectric constant tensor:
#      x y z
#    x 1.776180 0.000000 0.000000 
#    y 0.000000 1.808620 0.000000 
#    z 0.000000 0.000000 1.804870 
# 
# From -- ./inp_files/23659.got.cif
#   From: 2010.03.12/outbox.cif.g09.slc.cpg/sg59_12_cif.got.tgz:23659.got - 2010.04.16 16:29:54.
