data_PCOD8244565
_publ_section_title
;
Structure prediction by ZEFSAII (Michael W. Deem and Ramdas Pophale) SiO2 
 PCOD8244565
Probable space group: P M M N
;
_chemical_formula_sum "Si O2"
_cell_formula_units_Z 56
_cell_length_a 14.852916
_cell_length_b 8.637464
_cell_length_c 21.943541
_cell_angle_alpha 90.000000
_cell_angle_beta 90.000000
_cell_angle_gamma 90.000000
_cell_volume 2815.170388
_symmetry_space_group_name_H-M "P M M N"
_symmetry_group_IT_number 59
_space_group.IT_coordinate_system_code '2'
_symmetry_cell_setting 'orthorhombic'
loop_
_space_group_symop_operation_xyz
x,y,z
1/2-x,1/2-y,z
1/2+x,-y,-z
-x,1/2+y,-z
-x,-y,-z
1/2+x,1/2+y,-z
1/2-x,y,z
x,1/2-y,z
loop_
_atom_site_type_symbol
_atom_site_label
_atom_site_fract_x
_atom_site_fract_y
_atom_site_fract_z
Si Si1 0.348930 0.925443 0.109118
Si Si2 0.565744 0.931674 0.665883
Si Si3 0.991619 0.431436 0.791750
Si Si4 0.443884 0.566789 0.555250
Si Si5 0.250000 0.933894 0.517796
Si Si6 0.097294 0.068737 0.989353
Si Si7 0.750000 0.432957 0.620442
Si Si8 0.147772 0.573458 0.863371
O O1 0.250000 0.931129 0.139372
O O2 0.374495 0.750000 0.089785
O O3 0.420049 0.988262 0.157866
O O4 0.345811 0.033265 0.049700
O O5 0.580742 0.750000 0.660348
O O6 0.491181 0.989909 0.617283
O O7 0.526574 0.973268 0.731235
O O8 0.661492 0.011716 0.655662
O O9 0.982388 0.250000 0.778160
O O10 0.090200 0.470222 0.816950
O O11 0.500000 0.500000 0.500000
O O12 0.444766 0.750000 0.549719
O O13 0.340157 0.505967 0.552262
O O14 0.250000 0.750000 0.516023
O O15 0.250000 0.998616 0.448559
O O16 0.092562 0.250000 0.976615
O O17 0.143248 0.988975 0.931848
O O18 0.000000 0.000000 0.000000
O O19 0.750000 0.250000 0.620419
O O20 0.250000 0.562992 0.840429
O O21 0.112791 0.750000 0.862149
#
# Coordination Sequence:
#
# PCOD8244565 Si02
#       8
#     8   8   8   8   4   8   4   8
#     4  10  22  40  61  88 120 155 197 247 305 366
#     4  11  24  40  60  91 129 164 204 255 311 369
#     4  11  24  42  65  89 121 165 209 253 302 364
#     4  10  20  37  61  88 121 158 201 250 304 361
#     4   9  18  35  61  91 119 157 202 249 304 365
#     4  12  23  37  61  91 123 159 201 252 312 368
#     4  11  21  37  65  93 123 163 208 247 300 371
#     4  11  24  43  67  92 121 160 206 258 316 372
#
# _framework density 19.892223000000001
#
# number of rings (size 3 to 8) (size 9 to 14) (size 15 to 20)
#    0.000    1.286    2.857    3.214    1.000    4.286 
#    1.286    0.357    0.000    0.000    0.000    0.000 
#    0.000    0.000    0.000    0.000    0.000    0.000 
#
# Total GULP energy -694572.103749 kJ/mol
# GULP energy per Si atom -12403.073281 kJ/mol
# Density = 1.984695 g / cm^3
# Si number density = 19.892223 Si / 1000 Ang^3
#
#
#
# Elastic Constant Matrix: (Units=GPa)
#
#
# Indices 1 2 3 4 5 6 
#
# 1 146.5476 22.7039 57.5757 0.0000 0.0000 0.0000
# 2 22.7039 49.9626 17.1278 0.0000 0.0000 0.0000
# 3 57.5757 17.1278 123.6100 0.0000 0.0000 0.0000
# 4 0.0000 0.0000 0.0000 31.1993 0.0000 0.0000
# 5 0.0000 0.0000 0.0000 0.0000 12.8270 0.0000
# 6 0.0000 0.0000 0.0000 0.0000 0.0000 28.5646
#
#
#
# Elastic Compliance Matrix: (Units=1/GPa)
#
#
# Indices 1 2 3 4 5 6 
#
# 1 0.008683 -0.002687 -0.003672 0.000000 0.000000 0.000000
# 2 -0.002687 0.021845 -0.001775 0.000000 0.000000 0.000000
# 3 -0.003672 -0.001775 0.010046 0.000000 0.000000 0.000000
# 4 0.000000 0.000000 0.000000 0.032052 0.000000 0.000000
# 5 0.000000 0.000000 0.000000 0.000000 0.077961 0.000000
# 6 0.000000 0.000000 0.000000 0.000000 0.000000 0.035008
#
#
# Mechanical properties :
#
#
# Convention : Reuss Voigt Hill
#
# Bulk Modulus (GPa) = 41.14341 57.21501 49.17921
# Shear Modulus (GPa) = 23.81356 29.36569 26.58962
#
# Velocity S-wave (km/s) = 3.46371 3.84635 3.66004
# Velocity P-wave (km/s) = 6.06007 6.96785 6.52975
#
# Compressibility (1/GPa) = 0.02430523
#
# Stress axis : x y z
#
# Youngs Moduli (GPa) = 115.17290 45.77808 99.53916
#
# Poissons Ratio (x) = 0.12299 0.36550
# Poissons Ratio (y) = 0.30944 0.17672
# Poissons Ratio (z) = 0.42291 0.08127
#
# Static dielectric constant tensor:
#      x y z
#    x 3.815690 0.000000 0.000000 
#    y 0.000000 3.668530 0.000000 
#    z 0.000000 0.000000 3.645270 
# 
# 
# High freq. dielectric constant tensor:
#      x y z
#    x 1.792570 0.000000 0.000000 
#    y 0.000000 1.772200 0.000000 
#    z 0.000000 0.000000 1.768450 
# 
# From -- ./inp_files/30475.got.cif
#   From: 2010.03.12/outbox.cif.g09.slc.cpg/sg59_16_cif.got.tgz:30475.got - 2010.04.16 16:29:54.
