data_PCOD8244290
_publ_section_title
;
Structure prediction by ZEFSAII (Michael W. Deem and Ramdas Pophale) SiO2 
 PCOD8244290
Probable space group: P M M N
;
_chemical_formula_sum "Si O2"
_cell_formula_units_Z 64
_cell_length_a 24.768984
_cell_length_b 14.983391
_cell_length_c 8.766480
_cell_angle_alpha 90.000000
_cell_angle_beta 90.000000
_cell_angle_gamma 90.000000
_cell_volume 3253.445618
_symmetry_space_group_name_H-M "P M M N"
_symmetry_group_IT_number 59
_space_group.IT_coordinate_system_code '2'
_symmetry_cell_setting 'orthorhombic'
loop_
_space_group_symop_operation_xyz
x,y,z
1/2-x,1/2-y,z
1/2+x,-y,-z
-x,1/2+y,-z
-x,-y,-z
1/2+x,1/2+y,-z
1/2-x,y,z
x,1/2-y,z
loop_
_atom_site_type_symbol
_atom_site_label
_atom_site_fract_x
_atom_site_fract_y
_atom_site_fract_z
Si Si1 0.502986 0.395671 0.503890
Si Si2 0.600895 0.849170 0.330500
Si Si3 0.938548 0.847916 0.996552
Si Si4 0.688760 0.986939 0.241490
Si Si5 0.953274 0.348465 0.173867
Si Si6 0.310358 0.648921 0.546102
Si Si7 0.383988 0.976429 0.013047
Si Si8 0.896348 0.147729 0.701794
O O1 0.500000 0.500000 0.500000
O O2 0.442239 0.360863 0.533180
O O3 0.523049 0.358374 0.342975
O O4 0.543395 0.366032 0.638708
O O5 0.625952 0.750000 0.341114
O O6 0.566650 0.862410 0.176740
O O7 0.650451 0.918662 0.335108
O O8 0.914313 0.750000 0.948564
O O9 0.000899 0.851501 0.954706
O O10 0.909732 0.932614 0.917789
O O11 0.750000 0.951334 0.253064
O O12 0.683213 0.086089 0.308574
O O13 0.673070 0.994544 0.062037
O O14 0.925374 0.250000 0.166301
O O15 0.914597 0.430724 0.131739
O O16 0.250000 0.641919 0.476775
O O17 0.323163 0.750000 0.599052
O O18 0.353007 0.616112 0.422049
O O19 0.381405 0.907095 0.148474
O O20 0.888024 0.250000 0.746988
#
# Coordination Sequence:
#
# PCOD8244290 Si02
#       8
#     8   8   8   8   8   8   8   8
#     4  12  22  34  54  82 116 153 188 224 268 325
#     4  10  20  36  57  81 111 146 185 229 279 335
#     4   9  19  35  53  74 104 141 177 217 264 316
#     4  10  22  39  58  80 105 138 184 237 287 333
#     4  11  21  33  52  80 115 148 178 214 261 323
#     4   9  19  37  58  78 105 144 186 227 275 332
#     4  11  21  35  54  79 108 142 181 223 271 328
#     4  11  22  35  54  82 117 151 183 223 274 332
#
# _framework density 19.671451999999999
#
# number of rings (size 3 to 8) (size 9 to 14) (size 15 to 20)
#    0.000    1.625    0.000    6.375    0.000    3.750 
#    0.000    0.000    0.000    0.000    0.000    0.000 
#    0.000    3.000    0.000    0.000    0.000    0.000 
#
# Total GULP energy -793363.705009 kJ/mol
# GULP energy per Si atom -12396.307891 kJ/mol
# Density = 1.962668 g / cm^3
# Si number density = 19.671452 Si / 1000 Ang^3
#
#
#
# Elastic Constant Matrix: (Units=GPa)
#
#
# Indices 1 2 3 4 5 6 
#
# 1 103.0725 31.9863 27.2537 0.0000 0.0000 0.0000
# 2 31.9863 115.9847 18.6903 0.0000 0.0000 0.0000
# 3 27.2537 18.6903 51.6881 0.0000 0.0000 0.0000
# 4 0.0000 0.0000 0.0000 31.6019 0.0000 0.0000
# 5 0.0000 0.0000 0.0000 0.0000 24.2838 0.0000
# 6 0.0000 0.0000 0.0000 0.0000 0.0000 26.4033
#
#
#
# Elastic Compliance Matrix: (Units=1/GPa)
#
#
# Indices 1 2 3 4 5 6 
#
# 1 0.011874 -0.002406 -0.005391 0.000000 0.000000 0.000000
# 2 -0.002406 0.009643 -0.002218 0.000000 0.000000 0.000000
# 3 -0.005391 -0.002218 0.022991 0.000000 0.000000 0.000000
# 4 0.000000 0.000000 0.000000 0.031644 0.000000 0.000000
# 5 0.000000 0.000000 0.000000 0.000000 0.041180 0.000000
# 6 0.000000 0.000000 0.000000 0.000000 0.000000 0.037874
#
#
# Mechanical properties :
#
#
# Convention : Reuss Voigt Hill
#
# Bulk Modulus (GPa) = 40.85278 47.40065 44.12671
# Shear Modulus (GPa) = 27.26357 29.31213 28.28785
#
# Velocity S-wave (km/s) = 3.72687 3.86435 3.79623
# Velocity P-wave (km/s) = 6.27153 6.63773 6.45722
#
# Compressibility (1/GPa) = 0.02447814
#
# Stress axis : x y z
#
# Youngs Moduli (GPa) = 84.21809 103.70449 43.49455
#
# Poissons Ratio (x) = 0.24950 0.23447
# Poissons Ratio (y) = 0.20262 0.09648
# Poissons Ratio (z) = 0.45401 0.23004
#
# Static dielectric constant tensor:
#      x y z
#    x 3.509240 0.000000 0.000000 
#    y 0.000000 3.953130 0.000000 
#    z 0.000000 0.000000 3.587890 
# 
# 
# High freq. dielectric constant tensor:
#      x y z
#    x 1.748630 0.000000 0.000000 
#    y 0.000000 1.789050 0.000000 
#    z 0.000000 0.000000 1.753360 
# 
# From -- ./inp_files/12208.got.cif
#   From: 2010.03.12/outbox.cif.g09.slc.cpg/sg59_7_cif.got.tgz:12208.got - 2010.04.16 16:29:54.
