data_PCOD8244605
_publ_section_title
;
Structure prediction by ZEFSAII (Michael W. Deem and Ramdas Pophale) SiO2 
 PCOD8244605
Probable space group: P M M N
;
_chemical_formula_sum "Si O2"
_cell_formula_units_Z 48
_cell_length_a 8.448489
_cell_length_b 15.080764
_cell_length_c 18.964219
_cell_angle_alpha 90.000000
_cell_angle_beta 90.000000
_cell_angle_gamma 90.000000
_cell_volume 2416.224861
_symmetry_space_group_name_H-M "P M M N"
_symmetry_group_IT_number 59
_space_group.IT_coordinate_system_code '2'
_symmetry_cell_setting 'orthorhombic'
loop_
_space_group_symop_operation_xyz
x,y,z
1/2-x,1/2-y,z
1/2+x,-y,-z
-x,1/2+y,-z
-x,-y,-z
1/2+x,1/2+y,-z
1/2-x,y,z
x,1/2-y,z
loop_
_atom_site_type_symbol
_atom_site_label
_atom_site_fract_x
_atom_site_fract_y
_atom_site_fract_z
Si Si1 0.934347 0.094447 0.824333
Si Si2 0.932544 0.350895 0.331973
Si Si3 0.561376 0.250000 0.920102
Si Si4 0.065454 0.994404 0.422052
Si Si5 0.562079 0.896647 0.818762
Si Si6 0.062003 0.750000 0.918646
Si Si7 0.568759 0.649481 0.321384
O O1 0.750000 0.089400 0.838422
O O2 0.009485 0.162775 0.880939
O O3 0.961545 0.128570 0.745635
O O4 0.003893 0.995625 0.833694
O O5 0.750000 0.378594 0.339796
O O6 0.959951 0.250000 0.356907
O O7 0.037234 0.414014 0.380843
O O8 0.981791 0.358777 0.250984
O O9 0.750000 0.250000 0.913824
O O10 0.506093 0.250000 0.000501
O O11 0.250000 0.973516 0.423204
O O12 0.000000 0.000000 0.500000
O O13 0.976349 0.913374 0.385542
O O14 0.750000 0.894571 0.808298
O O15 0.510863 0.837639 0.884528
O O16 0.250000 0.750000 0.910258
O O17 0.750000 0.633222 0.299763
O O18 0.539554 0.750000 0.346329
#
# Coordination Sequence:
#
# PCOD8244605 Si02
#       7
#     8   8   4   8   8   4   8
#     4  10  20  37  63  90 118 159 206 254 309 368
#     4  11  23  40  65  94 125 162 206 254 309 371
#     4   9  20  39  61  87 122 161 208 255 311 375
#     4  12  26  44  66  93 128 167 205 255 310 363
#     4  11  22  36  60  92 122 158 207 258 309 369
#     4  11  23  39  59  85 122 169 208 257 315 365
#     4  11  23  39  63  95 127 161 206 256 306 365
#
# _framework density 19.8657
#
# number of rings (size 3 to 8) (size 9 to 14) (size 15 to 20)
#    0.000    1.167    3.333    3.250    0.000    4.000 
#    0.000    1.667    0.000    0.000    0.000    0.000 
#    0.000    0.000    0.000    0.000    0.000    0.000 
#
# Total GULP energy -595387.849565 kJ/mol
# GULP energy per Si atom -12403.913533 kJ/mol
# Density = 1.982049 g / cm^3
# Si number density = 19.865700 Si / 1000 Ang^3
#
#
#
# Elastic Constant Matrix: (Units=GPa)
#
#
# Indices 1 2 3 4 5 6 
#
# 1 31.1082 23.8828 -8.5533 0.0000 0.0000 0.0000
# 2 23.8828 154.8940 56.7311 0.0000 0.0000 0.0000
# 3 -8.5533 56.7311 125.0772 0.0000 0.0000 0.0000
# 4 0.0000 0.0000 0.0000 38.8714 0.0000 0.0000
# 5 0.0000 0.0000 0.0000 0.0000 28.2292 0.0000
# 6 0.0000 0.0000 0.0000 0.0000 0.0000 28.8949
#
#
#
# Elastic Compliance Matrix: (Units=1/GPa)
#
#
# Indices 1 2 3 4 5 6 
#
# 1 0.040723 -0.008753 0.006755 0.000000 0.000000 0.000000
# 2 -0.008753 0.009624 -0.004964 0.000000 0.000000 0.000000
# 3 0.006755 -0.004964 0.010708 0.000000 0.000000 0.000000
# 4 0.000000 0.000000 0.000000 0.025726 0.000000 0.000000
# 5 0.000000 0.000000 0.000000 0.000000 0.035424 0.000000
# 6 0.000000 0.000000 0.000000 0.000000 0.000000 0.034608
#
#
# Mechanical properties :
#
#
# Convention : Reuss Voigt Hill
#
# Bulk Modulus (GPa) = 21.21713 50.57784 35.89748
# Shear Modulus (GPa) = 26.81725 35.13370 30.97547
#
# Velocity S-wave (km/s) = 3.67812 4.20999 3.95301
# Velocity P-wave (km/s) = 5.36112 7.01050 6.24054
#
# Compressibility (1/GPa) = 0.04713172
#
# Stress axis : x y z
#
# Youngs Moduli (GPa) = 24.55606 103.91144 93.38548
#
# Poissons Ratio (x) = 0.90954 -0.63081
# Poissons Ratio (y) = 0.21494 0.46352
# Poissons Ratio (z) = -0.16588 0.51577
#
# Static dielectric constant tensor:
#      x y z
#    x 3.601880 0.000000 0.000000 
#    y 0.000000 4.214800 0.000000 
#    z 0.000000 0.000000 3.583310 
# 
# 
# High freq. dielectric constant tensor:
#      x y z
#    x 1.772670 0.000000 0.000000 
#    y 0.000000 1.796500 0.000000 
#    z 0.000000 0.000000 1.769430 
# 
# From -- ./inp_files/25533.got.cif
#   From: 2010.03.12/outbox.cif.g09.slc.cpg/sg59_13_cif.got.tgz:25533.got - 2010.04.16 16:29:54.
