data_PCOD8244690
_publ_section_title
;
Structure prediction by ZEFSAII (Michael W. Deem and Ramdas Pophale) SiO2 
 PCOD8244690
Probable space group: P M M N
;
_chemical_formula_sum "Si O2"
_cell_formula_units_Z 48
_cell_length_a 15.669636
_cell_length_b 7.755442
_cell_length_c 18.770286
_cell_angle_alpha 90.000000
_cell_angle_beta 90.000000
_cell_angle_gamma 90.000000
_cell_volume 2281.058127
_symmetry_space_group_name_H-M "P M M N"
_symmetry_group_IT_number 59
_space_group.IT_coordinate_system_code '2'
_symmetry_cell_setting 'orthorhombic'
loop_
_space_group_symop_operation_xyz
x,y,z
1/2-x,1/2-y,z
1/2+x,-y,-z
-x,1/2+y,-z
-x,-y,-z
1/2+x,1/2+y,-z
1/2-x,y,z
x,1/2-y,z
loop_
_atom_site_type_symbol
_atom_site_label
_atom_site_fract_x
_atom_site_fract_y
_atom_site_fract_z
Si Si1 0.849757 0.548411 0.170958
Si Si2 0.750000 0.444452 0.421813
Si Si3 0.093286 0.944479 0.978418
Si Si4 0.148075 0.250000 0.219985
Si Si5 0.097399 0.952061 0.321585
Si Si6 0.342210 0.250000 0.065852
Si Si7 0.750000 0.453595 0.577356
Si Si8 0.096475 0.448883 0.676435
O O1 0.750000 0.507278 0.169839
O O2 0.868792 0.750000 0.162198
O O3 0.894948 0.450152 0.106315
O O4 0.888846 0.473637 0.244506
O O5 0.750000 0.250000 0.445314
O O6 0.750000 0.541948 0.498624
O O7 0.663395 0.475255 0.379007
O O8 0.111830 0.750000 0.004838
O O9 0.153326 0.079565 0.017870
O O10 0.000000 0.000000 0.000000
O O11 0.250000 0.250000 0.227046
O O12 0.112503 0.426451 0.253969
O O13 0.105377 0.250000 0.139957
O O14 0.109822 0.750000 0.300041
O O15 0.163763 0.012941 0.382246
O O16 0.000427 0.982692 0.349473
O O17 0.250000 0.250000 0.099896
O O18 0.750000 0.250000 0.575035
O O19 0.119266 0.250000 0.681424
#
# Coordination Sequence:
#
# PCOD8244690 Si02
#       8
#     8   4   8   4   8   4   4   8
#     4  10  20  39  65  89 127 170 212 273 325 381
#     4  11  23  39  61  95 137 172 211 272 323 391
#     4  12  25  42  66  94 128 173 222 268 337 392
#     4  11  24  42  70  97 125 171 226 264 332 395
#     4  10  22  42  68  96 131 170 218 274 328 390
#     4  11  26  46  62  94 138 166 211 284 318 390
#     4   9  20  42  66  92 133 172 211 271 336 382
#     4  10  22  40  63  94 129 172 220 265 327 390
#
# _framework density 21.042866
#
# number of rings (size 3 to 8) (size 9 to 14) (size 15 to 20)
#    0.000    1.500    3.333    0.750    3.500    3.333 
#    3.000    1.667    0.000    0.000    0.000    0.000 
#    0.000    0.000    0.000    0.000    0.000    0.000 
#
# Total GULP energy -594927.063618 kJ/mol
# GULP energy per Si atom -12394.313825 kJ/mol
# Density = 2.099497 g / cm^3
# Si number density = 21.042866 Si / 1000 Ang^3
#
#
#
# Elastic Constant Matrix: (Units=GPa)
#
#
# Indices 1 2 3 4 5 6 
#
# 1 130.7888 29.9744 57.1083 0.0000 0.0000 0.0000
# 2 29.9744 105.0715 48.4671 0.0000 0.0000 0.0000
# 3 57.1083 48.4671 167.6855 0.0000 0.0000 0.0000
# 4 0.0000 0.0000 0.0000 21.7833 0.0000 0.0000
# 5 0.0000 0.0000 0.0000 0.0000 22.7911 0.0000
# 6 0.0000 0.0000 0.0000 0.0000 0.0000 17.6320
#
#
#
# Elastic Compliance Matrix: (Units=1/GPa)
#
#
# Indices 1 2 3 4 5 6 
#
# 1 0.009145 -0.001353 -0.002724 0.000000 0.000000 0.000000
# 2 -0.001353 0.011181 -0.002771 0.000000 0.000000 0.000000
# 3 -0.002724 -0.002771 0.007692 0.000000 0.000000 0.000000
# 4 0.000000 0.000000 0.000000 0.045907 0.000000 0.000000
# 5 0.000000 0.000000 0.000000 0.000000 0.043877 0.000000
# 6 0.000000 0.000000 0.000000 0.000000 0.000000 0.056715
#
#
# Mechanical properties :
#
#
# Convention : Reuss Voigt Hill
#
# Bulk Modulus (GPa) = 69.81302 74.96061 72.38681
# Shear Modulus (GPa) = 25.90854 30.30769 28.10811
#
# Velocity S-wave (km/s) = 3.51269 3.79922 3.65876
# Velocity P-wave (km/s) = 7.04986 7.41253 7.23347
#
# Compressibility (1/GPa) = 0.01432398
#
# Stress axis : x y z
#
# Youngs Moduli (GPa) = 109.34760 89.43362 130.00361
#
# Poissons Ratio (x) = 0.12096 0.35408
# Poissons Ratio (y) = 0.14790 0.36027
# Poissons Ratio (z) = 0.29782 0.24784
#
# Static dielectric constant tensor:
#      x y z
#    x 3.756460 0.000000 0.000000 
#    y 0.000000 3.672750 0.000000 
#    z 0.000000 0.000000 4.133700 
# 
# 
# High freq. dielectric constant tensor:
#      x y z
#    x 1.832700 0.000000 0.000000 
#    y 0.000000 1.820110 0.000000 
#    z 0.000000 0.000000 1.825560 
# 
# From -- ./inp_files/27518.got.cif
#   From: 2010.03.12/outbox.cif.g09.slc.cpg/sg59_14_cif.got.tgz:27518.got - 2010.04.16 16:29:54.
