data_PCOD8244419
_publ_section_title
;
Structure prediction by ZEFSAII (Michael W. Deem and Ramdas Pophale) SiO2 
 PCOD8244419
Probable space group: P M M N
;
_chemical_formula_sum "Si O2"
_cell_formula_units_Z 48
_cell_length_a 16.616811
_cell_length_b 9.055395
_cell_length_c 16.480442
_cell_angle_alpha 90.000000
_cell_angle_beta 90.000000
_cell_angle_gamma 90.000000
_cell_volume 2479.841562
_symmetry_space_group_name_H-M "P M M N"
_symmetry_group_IT_number 59
_space_group.IT_coordinate_system_code '2'
_symmetry_cell_setting 'orthorhombic'
loop_
_space_group_symop_operation_xyz
x,y,z
1/2-x,1/2-y,z
1/2+x,-y,-z
-x,1/2+y,-z
-x,-y,-z
1/2+x,1/2+y,-z
1/2-x,y,z
x,1/2-y,z
loop_
_atom_site_type_symbol
_atom_site_label
_atom_site_fract_x
_atom_site_fract_y
_atom_site_fract_z
Si Si1 0.841813 0.917006 0.374230
Si Si2 0.441169 0.417776 0.772898
Si Si3 0.250000 0.422906 0.205778
Si Si4 0.076291 0.427082 0.953997
Si Si5 0.750000 0.574902 0.975165
Si Si6 0.884417 0.416558 0.701200
Si Si7 0.583513 0.076382 0.517487
O O1 0.750000 0.913041 0.348678
O O2 0.874580 0.750000 0.390827
O O3 0.888765 0.993044 0.298721
O O4 0.851091 0.014285 0.454889
O O5 0.411263 0.250000 0.778466
O O6 0.428128 0.487777 0.861510
O O7 0.532758 0.430496 0.747845
O O8 0.250000 0.250000 0.197405
O O9 0.250000 0.491283 0.115625
O O10 0.327666 0.470274 0.254414
O O11 0.066404 0.250000 0.960361
O O12 0.165226 0.479293 0.984818
O O13 0.000000 0.500000 0.000000
O O14 0.750000 0.750000 0.977443
O O15 0.850576 0.250000 0.707012
O O16 0.889813 0.465053 0.607930
O O17 0.574079 0.250000 0.506553
O O18 0.500000 0.000000 0.500000
#
# Coordination Sequence:
#
# PCOD8244419 Si02
#       7
#     8   8   4   8   4   8   8
#     4  10  21  37  58  85 116 148 191 238 278 333
#     4   9  18  35  59  85 110 145 190 232 277 336
#     4  11  23  37  55  82 115 146 188 235 279 333
#     4  10  20  36  60  86 115 151 191 235 289 345
#     4   9  20  37  57  86 119 148 182 235 295 347
#     4  10  21  38  57  80 113 149 188 231 278 333
#     4  11  22  38  59  81 112 149 189 235 285 336
#
# _framework density 19.356075000000001
#
# number of rings (size 3 to 8) (size 9 to 14) (size 15 to 20)
#    0.000    2.000    1.667    1.750    2.333    1.667 
#    0.000    2.083    0.000    0.000    0.000    0.000 
#    0.000    0.000    0.000    0.000    0.000    0.000 
#
# Total GULP energy -595018.309712 kJ/mol
# GULP energy per Si atom -12396.214786 kJ/mol
# Density = 1.931202 g / cm^3
# Si number density = 19.356075 Si / 1000 Ang^3
#
#
#
# Elastic Constant Matrix: (Units=GPa)
#
#
# Indices 1 2 3 4 5 6 
#
# 1 109.3509 25.0117 64.5392 0.0000 0.0000 0.0000
# 2 25.0117 42.2507 42.4305 0.0000 0.0000 0.0000
# 3 64.5392 42.4305 185.4216 0.0000 0.0000 0.0000
# 4 0.0000 0.0000 0.0000 24.3653 0.0000 0.0000
# 5 0.0000 0.0000 0.0000 0.0000 155.3528 0.0000
# 6 0.0000 0.0000 0.0000 0.0000 0.0000 24.0677
#
#
#
# Elastic Compliance Matrix: (Units=1/GPa)
#
#
# Indices 1 2 3 4 5 6 
#
# 1 0.011953 -0.003762 -0.003299 0.000000 0.000000 0.000000
# 2 -0.003762 0.031914 -0.005994 0.000000 0.000000 0.000000
# 3 -0.003299 -0.005994 0.007913 0.000000 0.000000 0.000000
# 4 0.000000 0.000000 0.000000 0.041042 0.000000 0.000000
# 5 0.000000 0.000000 0.000000 0.000000 0.006437 0.000000
# 6 0.000000 0.000000 0.000000 0.000000 0.000000 0.041550
#
#
# Mechanical properties :
#
#
# Convention : Reuss Voigt Hill
#
# Bulk Modulus (GPa) = 38.95645 66.77621 52.86633
# Shear Modulus (GPa) = 28.49395 54.42661 41.46028
#
# Velocity S-wave (km/s) = 3.84095 5.30845 4.63317
# Velocity P-wave (km/s) = 6.31193 8.49392 7.48288
#
# Compressibility (1/GPa) = 0.02566969
#
# Stress axis : x y z
#
# Youngs Moduli (GPa) = 83.66273 31.33373 126.37374
#
# Poissons Ratio (x) = 0.11789 0.41696
# Poissons Ratio (y) = 0.31477 0.75742
# Poissons Ratio (z) = 0.27604 0.18780
#
# Static dielectric constant tensor:
#      x y z
#    x 3.465130 0.000000 0.000000 
#    y 0.000000 3.456060 0.000000 
#    z 0.000000 0.000000 3.781320 
# 
# 
# High freq. dielectric constant tensor:
#      x y z
#    x 1.764930 0.000000 0.000000 
#    y 0.000000 1.718190 0.000000 
#    z 0.000000 0.000000 1.773200 
# 
# From -- ./inp_files/20576.got.cif
#   From: 2010.03.12/outbox.cif.g09.slc.cpg/sg59_11_cif.got.tgz:20576.got - 2010.04.16 16:29:54.
