data_PCOD8244406
_publ_section_title
;
Structure prediction by ZEFSAII (Michael W. Deem and Ramdas Pophale) SiO2 
 PCOD8244406
Probable space group: P M M N
;
_chemical_formula_sum "Si O2"
_cell_formula_units_Z 64
_cell_length_a 28.276166
_cell_length_b 8.819142
_cell_length_c 12.489218
_cell_angle_alpha 90.000000
_cell_angle_beta 90.000000
_cell_angle_gamma 90.000000
_cell_volume 3114.455316
_symmetry_space_group_name_H-M "P M M N"
_symmetry_group_IT_number 59
_space_group.IT_coordinate_system_code '2'
_symmetry_cell_setting 'orthorhombic'
loop_
_space_group_symop_operation_xyz
x,y,z
1/2-x,1/2-y,z
1/2+x,-y,-z
-x,1/2+y,-z
-x,-y,-z
1/2+x,1/2+y,-z
1/2-x,y,z
x,1/2-y,z
loop_
_atom_site_type_symbol
_atom_site_label
_atom_site_fract_x
_atom_site_fract_y
_atom_site_fract_z
Si Si1 0.303713 0.425618 0.991894
Si Si2 0.375436 0.571576 0.834025
Si Si3 0.834195 0.921719 0.775604
Si Si4 0.981431 0.070960 0.108605
Si Si5 0.050257 0.927656 0.487004
Si Si6 0.368965 0.071416 0.611993
Si Si7 0.438173 0.077123 0.269673
Si Si8 0.805283 0.078392 0.561055
O O1 0.250000 0.455901 0.953674
O O2 0.317828 0.250000 0.974423
O O3 0.307206 0.468910 0.116826
O O4 0.339557 0.532677 0.928851
O O5 0.375148 0.750000 0.812320
O O6 0.428403 0.515598 0.864221
O O7 0.355623 0.485238 0.730099
O O8 0.821279 0.750000 0.742235
O O9 0.890373 0.935449 0.799655
O O10 0.817532 0.030033 0.681093
O O11 0.983491 0.250000 0.095049
O O12 0.016896 0.017528 0.202806
O O13 0.000000 0.000000 0.000000
O O14 0.046827 0.750000 0.499991
O O15 0.082108 0.991559 0.581996
O O16 0.071307 0.972166 0.372223
O O17 0.000000 0.000000 0.500000
O O18 0.375678 0.250000 0.611725
O O19 0.328873 0.028864 0.526889
O O20 0.447021 0.250000 0.307760
O O21 0.750000 0.067448 0.541786
O O22 0.823822 0.250000 0.544622
#
# Coordination Sequence:
#
# PCOD8244406 Si02
#       8
#     8   8   8   8   8   8   8   8
#     4  10  22  41  65  93 124 164 214 266 322 384
#     4  11  24  42  64  92 128 169 212 264 322 383
#     4  10  20  37  64  94 126 164 210 264 321 384
#     4  10  22  39  61  90 125 166 212 259 311 372
#     4  12  24  39  61  90 125 165 209 257 310 374
#     4  12  25  43  66  92 124 165 213 265 322 385
#     4  10  20  36  59  89 124 163 206 257 315 375
#     4  11  24  41  63  93 129 168 211 264 324 385
#
# _framework density 20.549340999999998
#
# number of rings (size 3 to 8) (size 9 to 14) (size 15 to 20)
#    0.000    1.250    1.250    4.875    0.000    6.250 
#    0.000    0.000    0.000    0.000    0.000    0.000 
#    0.000    0.000    0.000    0.000    0.000    0.000 
#
# Total GULP energy -793930.537821 kJ/mol
# GULP energy per Si atom -12405.164653 kJ/mol
# Density = 2.050257 g / cm^3
# Si number density = 20.549341 Si / 1000 Ang^3
#
#
#
# Elastic Constant Matrix: (Units=GPa)
#
#
# Indices 1 2 3 4 5 6 
#
# 1 90.5314 36.4704 22.9552 0.0000 0.0000 0.0000
# 2 36.4704 114.8367 40.2575 0.0000 0.0000 0.0000
# 3 22.9552 40.2575 94.7981 0.0000 0.0000 0.0000
# 4 0.0000 0.0000 0.0000 40.0033 0.0000 0.0000
# 5 0.0000 0.0000 0.0000 0.0000 34.4469 0.0000
# 6 0.0000 0.0000 0.0000 0.0000 0.0000 31.3032
#
#
#
# Elastic Compliance Matrix: (Units=1/GPa)
#
#
# Indices 1 2 3 4 5 6 
#
# 1 0.012875 -0.003520 -0.001623 0.000000 0.000000 0.000000
# 2 -0.003520 0.011194 -0.003901 0.000000 0.000000 0.000000
# 3 -0.001623 -0.003901 0.012598 0.000000 0.000000 0.000000
# 4 0.000000 0.000000 0.000000 0.024998 0.000000 0.000000
# 5 0.000000 0.000000 0.000000 0.000000 0.029030 0.000000
# 6 0.000000 0.000000 0.000000 0.000000 0.000000 0.031946
#
#
# Mechanical properties :
#
#
# Convention : Reuss Voigt Hill
#
# Bulk Modulus (GPa) = 53.82387 55.50359 54.66373
# Shear Modulus (GPa) = 34.03156 34.51622 34.27389
#
# Velocity S-wave (km/s) = 4.07392 4.10283 4.08840
# Velocity P-wave (km/s) = 6.95547 7.03654 6.99612
#
# Compressibility (1/GPa) = 0.01857912
#
# Stress axis : x y z
#
# Youngs Moduli (GPa) = 77.66707 89.33719 79.37526
#
# Poissons Ratio (x) = 0.31448 0.12882
# Poissons Ratio (y) = 0.27340 0.30965
# Poissons Ratio (z) = 0.12605 0.34852
#
# Static dielectric constant tensor:
#      x y z
#    x 3.626140 0.000000 0.000000 
#    y 0.000000 5.243770 0.000000 
#    z 0.000000 0.000000 3.855060 
# 
# 
# High freq. dielectric constant tensor:
#      x y z
#    x 1.817960 0.000000 0.000000 
#    y 0.000000 1.801030 0.000000 
#    z 0.000000 0.000000 1.806250 
# 
# From -- ./inp_files/19253.got.cif
#   From: 2010.03.12/outbox.cif.g09.slc.cpg/sg59_10_cif.got.tgz:19253.got - 2010.04.16 16:29:54.
