data_PCOD8244531
_publ_section_title
;
Structure prediction by ZEFSAII (Michael W. Deem and Ramdas Pophale) SiO2 
 PCOD8244531
Probable space group: P M M N
;
_chemical_formula_sum "Si O2"
_cell_formula_units_Z 56
_cell_length_a 15.022241
_cell_length_b 8.872724
_cell_length_c 22.015823
_cell_angle_alpha 90.000000
_cell_angle_beta 90.000000
_cell_angle_gamma 90.000000
_cell_volume 2934.449381
_symmetry_space_group_name_H-M "P M M N"
_symmetry_group_IT_number 59
_space_group.IT_coordinate_system_code '2'
_symmetry_cell_setting 'orthorhombic'
loop_
_space_group_symop_operation_xyz
x,y,z
1/2-x,1/2-y,z
1/2+x,-y,-z
-x,1/2+y,-z
-x,-y,-z
1/2+x,1/2+y,-z
1/2-x,y,z
x,1/2-y,z
loop_
_atom_site_type_symbol
_atom_site_label
_atom_site_fract_x
_atom_site_fract_y
_atom_site_fract_z
Si Si1 0.932145 0.572437 0.664095
Si Si2 0.150253 0.079116 0.869071
Si Si3 0.056125 0.927560 0.553294
Si Si4 0.510436 0.428066 0.787778
Si Si5 0.750000 0.071682 0.480619
Si Si6 0.345705 0.572291 0.118708
Si Si7 0.594120 0.427454 0.009636
Si Si8 0.250000 0.929365 0.380139
O O1 0.914565 0.750000 0.663999
O O2 0.838442 0.490900 0.652259
O O3 0.007732 0.526419 0.615493
O O4 0.973269 0.520196 0.727212
O O5 0.250000 0.062744 0.843993
O O6 0.127055 0.250000 0.888242
O O7 0.086911 0.030646 0.813561
O O8 0.140407 0.978914 0.928721
O O9 0.055710 0.750000 0.542776
O O10 0.159225 0.987397 0.552210
O O11 0.000000 0.000000 0.500000
O O12 0.522294 0.250000 0.775340
O O13 0.578365 0.494334 0.838154
O O14 0.750000 0.250000 0.479287
O O15 0.750000 0.014937 0.550222
O O16 0.250000 0.522227 0.145108
O O17 0.357177 0.750000 0.119623
O O18 0.350001 0.518109 0.048917
O O19 0.584160 0.250000 0.012323
O O20 0.500000 0.500000 0.000000
O O21 0.250000 0.750000 0.374471
#
# Coordination Sequence:
#
# PCOD8244531 Si02
#       8
#     8   8   8   8   4   8   8   4
#     4  11  24  39  57  88 125 154 188 247 299 335
#     4  10  21  39  61  84 112 150 197 249 298 347
#     4  10  20  37  60  85 117 151 189 237 289 339
#     4  10  21  39  59  79 110 155 199 233 281 354
#     4   9  18  35  61  89 113 149 196 231 276 349
#     4   9  18  33  54  80 107 139 184 232 280 339
#     4  11  20  34  57  84 115 148 187 240 297 352
#     4  11  21  37  65  91 115 157 198 227 276 361
#
# _framework density 19.083648
#
# number of rings (size 3 to 8) (size 9 to 14) (size 15 to 20)
#    0.000    1.857    2.857    1.500    1.000    2.000 
#    1.286    0.357    0.000    1.714    0.000    0.000 
#    0.000    0.000    0.000    0.000    0.000    0.000 
#
# Total GULP energy -694233.170553 kJ/mol
# GULP energy per Si atom -12397.020903 kJ/mol
# Density = 1.904021 g / cm^3
# Si number density = 19.083648 Si / 1000 Ang^3
#
#
#
# Elastic Constant Matrix: (Units=GPa)
#
#
# Indices 1 2 3 4 5 6 
#
# 1 174.8784 34.7792 78.7297 0.0000 0.0000 0.0000
# 2 34.7792 51.2632 42.8078 0.0000 0.0000 0.0000
# 3 78.7297 42.8078 141.0391 0.0000 0.0000 0.0000
# 4 0.0000 0.0000 0.0000 30.7054 0.0000 0.0000
# 5 0.0000 0.0000 0.0000 0.0000 22.2871 0.0000
# 6 0.0000 0.0000 0.0000 0.0000 0.0000 19.0159
#
#
#
# Elastic Compliance Matrix: (Units=1/GPa)
#
#
# Indices 1 2 3 4 5 6 
#
# 1 0.007823 -0.002225 -0.003691 0.000000 0.000000 0.000000
# 2 -0.002225 0.026763 -0.006881 0.000000 0.000000 0.000000
# 3 -0.003691 -0.006881 0.011239 0.000000 0.000000 0.000000
# 4 0.000000 0.000000 0.000000 0.032568 0.000000 0.000000
# 5 0.000000 0.000000 0.000000 0.000000 0.044869 0.000000
# 6 0.000000 0.000000 0.000000 0.000000 0.000000 0.052588
#
#
# Mechanical properties :
#
#
# Convention : Reuss Voigt Hill
#
# Bulk Modulus (GPa) = 49.43101 75.53493 62.48297
# Shear Modulus (GPa) = 24.01693 28.45927 26.23810
#
# Velocity S-wave (km/s) = 3.55139 3.86591 3.71199
# Velocity P-wave (km/s) = 6.54026 7.71971 7.15433
#
# Compressibility (1/GPa) = 0.02023021
#
# Stress axis : x y z
#
# Youngs Moduli (GPa) = 127.83554 37.36559 88.97291
#
# Poissons Ratio (x) = 0.08312 0.32844
# Poissons Ratio (y) = 0.28438 0.61223
# Poissons Ratio (z) = 0.47190 0.25712
#
# Static dielectric constant tensor:
#      x y z
#    x 3.838670 0.000000 0.000000 
#    y 0.000000 2.714410 0.000000 
#    z 0.000000 0.000000 3.897680 
# 
# 
# High freq. dielectric constant tensor:
#      x y z
#    x 1.761960 0.000000 0.000000 
#    y 0.000000 1.719630 0.000000 
#    z 0.000000 0.000000 1.738050 
# 
# From -- ./inp_files/30424.got.cif
#   From: 2010.03.12/outbox.cif.g09.slc.cpg/sg59_16_cif.got.tgz:30424.got - 2010.04.16 16:29:54.
