data_PCOD8244835
_publ_section_title
;
Structure prediction by ZEFSAII (Michael W. Deem and Ramdas Pophale) SiO2 
 PCOD8244835
Probable space group: P M M N
;
_chemical_formula_sum "Si O2"
_cell_formula_units_Z 40
_cell_length_a 9.724998
_cell_length_b 7.524345
_cell_length_c 27.976881
_cell_angle_alpha 90.000000
_cell_angle_beta 90.000000
_cell_angle_gamma 90.000000
_cell_volume 2047.187007
_symmetry_space_group_name_H-M "P M M N"
_symmetry_group_IT_number 59
_space_group.IT_coordinate_system_code '2'
_symmetry_cell_setting 'orthorhombic'
loop_
_space_group_symop_operation_xyz
x,y,z
1/2-x,1/2-y,z
1/2+x,-y,-z
-x,1/2+y,-z
-x,-y,-z
1/2+x,1/2+y,-z
1/2-x,y,z
x,1/2-y,z
loop_
_atom_site_type_symbol
_atom_site_label
_atom_site_fract_x
_atom_site_fract_y
_atom_site_fract_z
Si Si1 0.409873 0.957113 0.866936
Si Si2 0.750000 0.037746 0.564702
Si Si3 0.023243 0.548850 0.614444
Si Si4 0.586871 0.750000 0.313559
Si Si5 0.750000 0.039991 0.457268
Si Si6 0.594417 0.957280 0.954989
Si Si7 0.589045 0.750000 0.207276
O O1 0.250000 0.992819 0.881220
O O2 0.432728 0.750000 0.855050
O O3 0.509335 0.026094 0.909206
O O4 0.454213 0.071535 0.820918
O O5 0.750000 0.250000 0.566557
O O6 0.750000 0.961201 0.510633
O O7 0.626306 0.953599 0.593148
O O8 0.065516 0.750000 0.628881
O O9 0.032704 0.427491 0.661133
O O10 0.118980 0.471457 0.572239
O O11 0.750000 0.750000 0.313711
O O12 0.522724 0.750000 0.260074
O O13 0.750000 0.250000 0.461759
O O14 0.750000 0.042185 0.958142
O O15 0.613157 0.750000 0.950510
O O16 0.500000 0.000000 0.000000
O O17 0.750000 0.750000 0.214577
#
# Coordination Sequence:
#
# PCOD8244835 Si02
#       7
#     8   4   8   4   4   8   4
#     4   9  18  35  57  82 116 150 192 245 294 346
#     4  11  21  37  59  84 119 157 196 237 289 357
#     4  11  22  39  58  85 119 154 194 243 293 356
#     4  11  22  39  63  89 117 153 199 253 304 347
#     4   9  20  36  58  88 116 154 196 234 290 353
#     4  10  21  35  54  83 120 160 197 236 288 345
#     4   9  20  36  60  90 112 146 198 250 301 350
#
# _framework density 19.539005
#
# number of rings (size 3 to 8) (size 9 to 14) (size 15 to 20)
#    0.000    2.000    2.000    1.500    1.400    2.000 
#    3.600    2.000    4.400    0.000    0.000    0.000 
#    0.000    0.000    0.000    0.000    0.000    0.000 
#
# Total GULP energy -495859.988434 kJ/mol
# GULP energy per Si atom -12396.499711 kJ/mol
# Density = 1.949453 g / cm^3
# Si number density = 19.539005 Si / 1000 Ang^3
#
#
#
# Elastic Constant Matrix: (Units=GPa)
#
#
# Indices 1 2 3 4 5 6 
#
# 1 129.4798 21.2482 69.3664 0.0000 0.0000 0.0000
# 2 21.2482 87.9678 58.3283 0.0000 0.0000 0.0000
# 3 69.3664 58.3283 186.9925 0.0000 0.0000 0.0000
# 4 0.0000 0.0000 0.0000 32.0508 0.0000 0.0000
# 5 0.0000 0.0000 0.0000 0.0000 21.3977 0.0000
# 6 0.0000 0.0000 0.0000 0.0000 0.0000 20.9052
#
#
#
# Elastic Compliance Matrix: (Units=1/GPa)
#
#
# Indices 1 2 3 4 5 6 
#
# 1 0.009639 0.000054 -0.003592 0.000000 0.000000 0.000000
# 2 0.000054 0.014332 -0.004491 0.000000 0.000000 0.000000
# 3 -0.003592 -0.004491 0.008081 0.000000 0.000000 0.000000
# 4 0.000000 0.000000 0.000000 0.031200 0.000000 0.000000
# 5 0.000000 0.000000 0.000000 0.000000 0.046734 0.000000
# 6 0.000000 0.000000 0.000000 0.000000 0.000000 0.047835
#
#
# Mechanical properties :
#
#
# Convention : Reuss Voigt Hill
#
# Bulk Modulus (GPa) = 62.52354 78.03622 70.27988
# Shear Modulus (GPa) = 27.89993 31.90389 29.90191
#
# Velocity S-wave (km/s) = 3.78287 4.04521 3.91624
# Velocity P-wave (km/s) = 7.15185 7.86408 7.51640
#
# Compressibility (1/GPa) = 0.01599398
#
# Stress axis : x y z
#
# Youngs Moduli (GPa) = 103.74566 69.77204 123.74409
#
# Poissons Ratio (x) = -0.00375 0.44454
# Poissons Ratio (y) = -0.00558 0.55569
# Poissons Ratio (z) = 0.37270 0.31332
#
# Static dielectric constant tensor:
#      x y z
#    x 3.715080 0.000000 0.000000 
#    y 0.000000 1.512580 0.000000 
#    z 0.000000 0.000000 3.690000 
# 
# 
# High freq. dielectric constant tensor:
#      x y z
#    x 1.756110 0.000000 0.000000 
#    y 0.000000 1.764620 0.000000 
#    z 0.000000 0.000000 1.752010 
# 
# From -- ./inp_files/32458.got.cif
#   From: 2010.03.12/outbox.cif.g09.slc.cpg/sg59_17_cif.got.tgz:32458.got - 2010.04.16 16:29:54.
