data_PCOD8244046
_publ_section_title
;
Structure prediction by ZEFSAII (Michael W. Deem and Ramdas Pophale) SiO2 
 PCOD8244046
Probable space group: P M M N
;
_chemical_formula_sum "Si O2"
_cell_formula_units_Z 48
_cell_length_a 9.283402
_cell_length_b 15.587544
_cell_length_c 16.822928
_cell_angle_alpha 90.000000
_cell_angle_beta 90.000000
_cell_angle_gamma 90.000000
_cell_volume 2434.369150
_symmetry_space_group_name_H-M "P M M N"
_symmetry_group_IT_number 59
_space_group.IT_coordinate_system_code '2'
_symmetry_cell_setting 'orthorhombic'
loop_
_space_group_symop_operation_xyz
x,y,z
1/2-x,1/2-y,z
1/2+x,-y,-z
-x,1/2+y,-z
-x,-y,-z
1/2+x,1/2+y,-z
1/2-x,y,z
x,1/2-y,z
loop_
_atom_site_type_symbol
_atom_site_label
_atom_site_fract_x
_atom_site_fract_y
_atom_site_fract_z
Si Si1 0.913267 0.108669 0.163600
Si Si2 0.577713 0.005725 0.583559
Si Si3 0.584456 0.348979 0.990637
Si Si4 0.417786 0.152193 0.677747
Si Si5 0.585557 0.655364 0.687811
Si Si6 0.588882 0.912073 0.154462
O O1 0.750000 0.143444 0.164954
O O2 0.981412 0.127935 0.076813
O O3 0.000206 0.159039 0.229958
O O4 0.920717 0.008984 0.184616
O O5 0.750000 0.011654 0.573516
O O6 0.520783 0.090244 0.627902
O O7 0.500000 0.000000 0.500000
O O8 0.529702 0.919163 0.629508
O O9 0.750000 0.376768 0.989947
O O10 0.561385 0.250000 0.971195
O O11 0.509921 0.402734 0.921947
O O12 0.250000 0.126020 0.665628
O O13 0.444223 0.250000 0.649824
O O14 0.459764 0.145894 0.770986
O O15 0.750000 0.635972 0.709527
O O16 0.568642 0.750000 0.647463
O O17 0.750000 0.887310 0.128115
#
# Coordination Sequence:
#
# PCOD8244046 Si02
#       6
#     8   8   8   8   8   8
#     4  10  20  36  58  83 114 153 198 246 294 346
#     4  11  24  42  65  92 123 156 195 243 296 361
#     4  10  21  34  49  77 116 155 197 245 295 344
#     4  10  21  39  63  90 122 159 200 248 301 354
#     4  10  22  40  62  89 120 155 194 239 294 352
#     4  10  20  35  57  83 113 154 202 246 293 348
#
# _framework density 19.717634
#
# number of rings (size 3 to 8) (size 9 to 14) (size 15 to 20)
#    0.000    1.833    1.667    2.000    0.000    5.667 
#    0.000    1.667    0.000    0.000    0.000    0.000 
#    0.000    0.000    0.000    0.000    0.000    0.000 
#
# Total GULP energy -595244.242832 kJ/mol
# GULP energy per Si atom -12400.921726 kJ/mol
# Density = 1.967276 g / cm^3
# Si number density = 19.717634 Si / 1000 Ang^3
#
#
#
# Elastic Constant Matrix: (Units=GPa)
#
#
# Indices 1 2 3 4 5 6 
#
# 1 70.0827 39.6180 57.0399 0.0000 0.0000 0.0000
# 2 39.6180 104.0910 51.4837 0.0000 0.0000 0.0000
# 3 57.0399 51.4837 127.6343 0.0000 0.0000 0.0000
# 4 0.0000 0.0000 0.0000 20.0142 0.0000 0.0000
# 5 0.0000 0.0000 0.0000 0.0000 38.3230 0.0000
# 6 0.0000 0.0000 0.0000 0.0000 0.0000 27.3497
#
#
#
# Elastic Compliance Matrix: (Units=1/GPa)
#
#
# Indices 1 2 3 4 5 6 
#
# 1 0.024225 -0.004829 -0.008878 0.000000 0.000000 0.000000
# 2 -0.004829 0.012964 -0.003071 0.000000 0.000000 0.000000
# 3 -0.008878 -0.003071 0.013041 0.000000 0.000000 0.000000
# 4 0.000000 0.000000 0.000000 0.049965 0.000000 0.000000
# 5 0.000000 0.000000 0.000000 0.000000 0.026094 0.000000
# 6 0.000000 0.000000 0.000000 0.000000 0.000000 0.036563
#
#
# Mechanical properties :
#
#
# Convention : Reuss Voigt Hill
#
# Bulk Modulus (GPa) = 59.97609 66.45460 63.21534
# Shear Modulus (GPa) = 24.75663 27.38180 26.06921
#
# Velocity S-wave (km/s) = 3.54723 3.73056 3.64005
# Velocity P-wave (km/s) = 6.87464 7.23412 7.05667
#
# Compressibility (1/GPa) = 0.01667331
#
# Stress axis : x y z
#
# Youngs Moduli (GPa) = 41.28046 77.13709 76.67917
#
# Poissons Ratio (x) = 0.37249 0.68077
# Poissons Ratio (y) = 0.19934 0.23550
# Poissons Ratio (z) = 0.36649 0.23690
#
# Static dielectric constant tensor:
#      x y z
#    x 3.562340 0.000000 0.000000 
#    y 0.000000 3.718210 0.000000 
#    z 0.000000 0.000000 3.497070 
# 
# 
# High freq. dielectric constant tensor:
#      x y z
#    x 1.757380 0.000000 0.000000 
#    y 0.000000 1.782260 0.000000 
#    z 0.000000 0.000000 1.765910 
# 
# From -- ./inp_files/23665.got.cif
#   From: 2010.03.12/outbox.cif.g09.slc.cpg/sg59_12_cif.got.tgz:23665.got - 2010.04.16 16:29:54.
