data_PCOD8244442
_publ_section_title
;
Structure prediction by ZEFSAII (Michael W. Deem and Ramdas Pophale) SiO2 
 PCOD8244442
Probable space group: P M M N
;
_chemical_formula_sum "Si O2"
_cell_formula_units_Z 40
_cell_length_a 15.239861
_cell_length_b 8.888179
_cell_length_c 15.462290
_cell_angle_alpha 90.000000
_cell_angle_beta 90.000000
_cell_angle_gamma 90.000000
_cell_volume 2094.438500
_symmetry_space_group_name_H-M "P M M N"
_symmetry_group_IT_number 59
_space_group.IT_coordinate_system_code '2'
_symmetry_cell_setting 'orthorhombic'
loop_
_space_group_symop_operation_xyz
x,y,z
1/2-x,1/2-y,z
1/2+x,-y,-z
-x,1/2+y,-z
-x,-y,-z
1/2+x,1/2+y,-z
1/2-x,y,z
x,1/2-y,z
loop_
_atom_site_type_symbol
_atom_site_label
_atom_site_fract_x
_atom_site_fract_y
_atom_site_fract_z
Si Si1 0.995508 0.579358 0.090983
Si Si2 0.750000 0.929332 0.657684
Si Si3 0.407013 0.580005 0.650900
Si Si4 0.750000 0.070284 0.470735
Si Si5 0.847246 0.086559 0.161902
Si Si6 0.573567 0.429458 0.729191
O O1 0.018609 0.750000 0.074646
O O2 0.054935 0.518406 0.171082
O O3 0.896076 0.554818 0.120812
O O4 0.000000 0.500000 0.000000
O O5 0.750000 0.750000 0.663006
O O6 0.750000 0.983103 0.559865
O O7 0.835790 0.993214 0.704624
O O8 0.438068 0.750000 0.630120
O O9 0.340773 0.520182 0.576641
O O10 0.346685 0.574275 0.735265
O O11 0.495055 0.480649 0.664339
O O12 0.750000 0.250000 0.483431
O O13 0.750000 0.077607 0.125550
O O14 0.888595 0.250000 0.135130
O O15 0.581256 0.250000 0.722197
#
# Coordination Sequence:
#
# PCOD8244442 Si02
#       6
#     8   4   8   4   8   8
#     4  10  21  37  58  84 112 145 185 230 281 337
#     4  12  26  42  60  83 112 155 202 243 288 343
#     4   9  17  33  59  89 117 150 190 233 283 337
#     4  10  20  36  60  89 122 155 192 239 286 341
#     4   9  16  30  54  83 114 146 179 221 277 333
#     4  10  22  41  62  84 115 154 193 239 293 343
#
# _framework density 19.098196999999999
#
# number of rings (size 3 to 8) (size 9 to 14) (size 15 to 20)
#    0.000    2.200    1.000    2.100    0.000    4.400 
#    1.800    0.000    0.000    0.000    0.000    0.000 
#    0.000    0.000    0.000    0.000    0.000    0.000 
#
# Total GULP energy -495572.598741 kJ/mol
# GULP energy per Si atom -12389.314969 kJ/mol
# Density = 1.905473 g / cm^3
# Si number density = 19.098197 Si / 1000 Ang^3
#
#
#
# Elastic Constant Matrix: (Units=GPa)
#
#
# Indices 1 2 3 4 5 6 
#
# 1 145.1335 59.6053 71.6926 0.0000 0.0000 0.0000
# 2 59.6053 82.0112 56.2814 0.0000 0.0000 0.0000
# 3 71.6926 56.2814 131.1952 0.0000 0.0000 0.0000
# 4 0.0000 0.0000 0.0000 32.3845 0.0000 0.0000
# 5 0.0000 0.0000 0.0000 0.0000 15.4356 0.0000
# 6 0.0000 0.0000 0.0000 0.0000 0.0000 27.6924
#
#
#
# Elastic Compliance Matrix: (Units=1/GPa)
#
#
# Indices 1 2 3 4 5 6 
#
# 1 0.010920 -0.005444 -0.003632 0.000000 0.000000 0.000000
# 2 -0.005444 0.019995 -0.005603 0.000000 0.000000 0.000000
# 3 -0.003632 -0.005603 0.012010 0.000000 0.000000 0.000000
# 4 0.000000 0.000000 0.000000 0.030879 0.000000 0.000000
# 5 0.000000 0.000000 0.000000 0.000000 0.064785 0.000000
# 6 0.000000 0.000000 0.000000 0.000000 0.000000 0.036111
#
#
# Mechanical properties :
#
#
# Convention : Reuss Voigt Hill
#
# Bulk Modulus (GPa) = 73.70212 81.49984 77.60098
# Shear Modulus (GPa) = 23.97143 26.48654 25.22898
#
# Velocity S-wave (km/s) = 3.54668 3.72810 3.63852
# Velocity P-wave (km/s) = 7.44626 7.82933 7.64020
#
# Compressibility (1/GPa) = 0.01356813
#
# Stress axis : x y z
#
# Youngs Moduli (GPa) = 91.57324 50.01175 83.26130
#
# Poissons Ratio (x) = 0.27228 0.30239
# Poissons Ratio (y) = 0.49856 0.46649
# Poissons Ratio (z) = 0.33258 0.28020
#
# Static dielectric constant tensor:
#      x y z
#    x -0.418920 0.000000 0.000000 
#    y 0.000000 3.499220 0.000000 
#    z 0.000000 0.000000 3.681250 
# 
# 
# High freq. dielectric constant tensor:
#      x y z
#    x 1.742100 0.000000 0.000000 
#    y 0.000000 1.739020 0.000000 
#    z 0.000000 0.000000 1.738600 
# 
# From -- ./inp_files/22988.got.cif
#   From: 2010.03.12/outbox.cif.g09.slc.cpg/sg59_12_cif.got.tgz:22988.got - 2010.04.16 16:29:54.
