data_PCOD8244656
_publ_section_title
;
Structure prediction by ZEFSAII (Michael W. Deem and Ramdas Pophale) SiO2 
 PCOD8244656
Probable space group: P M M N
;
_chemical_formula_sum "Si O2"
_cell_formula_units_Z 40
_cell_length_a 8.896932
_cell_length_b 25.668108
_cell_length_c 9.270139
_cell_angle_alpha 90.000000
_cell_angle_beta 90.000000
_cell_angle_gamma 90.000000
_cell_volume 2116.997647
_symmetry_space_group_name_H-M "P M M N"
_symmetry_group_IT_number 59
_space_group.IT_coordinate_system_code '2'
_symmetry_cell_setting 'orthorhombic'
loop_
_space_group_symop_operation_xyz
x,y,z
1/2-x,1/2-y,z
1/2+x,-y,-z
-x,1/2+y,-z
-x,-y,-z
1/2+x,1/2+y,-z
1/2-x,y,z
x,1/2-y,z
loop_
_atom_site_type_symbol
_atom_site_label
_atom_site_fract_x
_atom_site_fract_y
_atom_site_fract_z
Si Si1 0.928028 0.250000 0.587047
Si Si2 0.427357 0.344580 0.418988
Si Si3 0.926011 0.750000 0.105756
Si Si4 0.077505 0.953545 0.917562
Si Si5 0.424516 0.151997 0.087989
Si Si6 0.424867 0.952373 0.580430
O O1 0.750000 0.250000 0.570945
O O2 0.994643 0.199088 0.513429
O O3 0.972751 0.250000 0.753601
O O4 0.250000 0.343190 0.446788
O O5 0.468283 0.334011 0.252166
O O6 0.491980 0.399967 0.470092
O O7 0.750000 0.750000 0.146419
O O8 0.969902 0.800100 0.012109
O O9 0.250000 0.953978 0.960198
O O10 0.050023 0.961549 0.748945
O O11 0.011688 0.898430 0.969157
O O12 0.000000 0.000000 0.000000
O O13 0.250000 0.138728 0.078130
O O14 0.250000 0.948265 0.540057
O O15 0.500000 0.000000 0.500000
#
# Coordination Sequence:
#
# PCOD8244656 Si02
#       6
#     4   8   4   8   8   8
#     4  12  25  38  54  82 116 148 183 226 274 328
#     4  10  20  38  62  84 108 144 186 229 277 330
#     4  10  21  38  58  82 112 144 179 224 274 326
#     4  10  21  36  56  82 112 145 183 225 272 324
#     4   9  19  37  61  84 107 140 184 227 272 327
#     4  10  21  37  57  84 114 147 186 228 274 326
#
# _framework density 18.894682
#
# number of rings (size 3 to 8) (size 9 to 14) (size 15 to 20)
#    0.000    2.000    0.000    3.300    0.000    7.200 
#    0.000    3.000    0.000    0.000    0.000    0.000 
#    0.000    0.000    0.000    0.000    0.000    0.000 
#
# Total GULP energy -496177.507044 kJ/mol
# GULP energy per Si atom -12404.437676 kJ/mol
# Density = 1.885168 g / cm^3
# Si number density = 18.894682 Si / 1000 Ang^3
#
#
#
# Elastic Constant Matrix: (Units=GPa)
#
#
# Indices 1 2 3 4 5 6 
#
# 1 121.7894 95.5758 61.2962 0.0000 0.0000 0.0000
# 2 95.5758 194.3224 85.5534 0.0000 0.0000 0.0000
# 3 61.2962 85.5534 83.2269 0.0000 0.0000 0.0000
# 4 0.0000 0.0000 0.0000 39.6832 0.0000 0.0000
# 5 0.0000 0.0000 0.0000 0.0000 29.4561 0.0000
# 6 0.0000 0.0000 0.0000 0.0000 0.0000 41.0856
#
#
#
# Elastic Compliance Matrix: (Units=1/GPa)
#
#
# Indices 1 2 3 4 5 6 
#
# 1 0.014998 -0.004591 -0.006326 0.000000 0.000000 0.000000
# 2 -0.004591 0.010806 -0.007727 0.000000 0.000000 0.000000
# 3 -0.006326 -0.007727 0.024617 0.000000 0.000000 0.000000
# 4 0.000000 0.000000 0.000000 0.025200 0.000000 0.000000
# 5 0.000000 0.000000 0.000000 0.000000 0.033949 0.000000
# 6 0.000000 0.000000 0.000000 0.000000 0.000000 0.024339
#
#
# Mechanical properties :
#
#
# Convention : Reuss Voigt Hill
#
# Bulk Modulus (GPa) = 76.14513 98.24328 87.19420
# Shear Modulus (GPa) = 28.47782 32.50585 30.49184
#
# Velocity S-wave (km/s) = 3.88646 4.15223 4.02154
# Velocity P-wave (km/s) = 7.77989 8.66580 8.23477
#
# Compressibility (1/GPa) = 0.01313282
#
# Stress axis : x y z
#
# Youngs Moduli (GPa) = 66.67530 92.54029 40.62213
#
# Poissons Ratio (x) = 0.42490 0.25698
# Poissons Ratio (y) = 0.30614 0.31387
# Poissons Ratio (z) = 0.42180 0.71502
#
# Static dielectric constant tensor:
#      x y z
#    x 3.586850 0.000000 0.000000 
#    y 0.000000 3.672680 0.000000 
#    z 0.000000 0.000000 3.436070 
# 
# 
# High freq. dielectric constant tensor:
#      x y z
#    x 1.744010 0.000000 0.000000 
#    y 0.000000 1.750960 0.000000 
#    z 0.000000 0.000000 1.728820 
# 
# From -- ./inp_files/5917.got.cif
#   From: 2010.03.12/outbox.cif.g09.slc.cpg/sg59_3_cif.got.tgz:5917.got - 2010.04.16 16:29:54.
