data_PCOD8244856
_publ_section_title
;
Structure prediction by ZEFSAII (Michael W. Deem and Ramdas Pophale) SiO2 
 PCOD8244856
Probable space group: P M M N
;
_chemical_formula_sum "Si O2"
_cell_formula_units_Z 40
_cell_length_a 21.354171
_cell_length_b 17.255103
_cell_length_c 5.387196
_cell_angle_alpha 90.000000
_cell_angle_beta 90.000000
_cell_angle_gamma 90.000000
_cell_volume 1985.011599
_symmetry_space_group_name_H-M "P M M N"
_symmetry_group_IT_number 59
_space_group.IT_coordinate_system_code '2'
_symmetry_cell_setting 'orthorhombic'
loop_
_space_group_symop_operation_xyz
x,y,z
1/2-x,1/2-y,z
1/2+x,-y,-z
-x,1/2+y,-z
-x,-y,-z
1/2+x,1/2+y,-z
1/2-x,y,z
x,1/2-y,z
loop_
_atom_site_type_symbol
_atom_site_label
_atom_site_fract_x
_atom_site_fract_y
_atom_site_fract_z
Si Si1 0.125284 0.465663 0.186618
Si Si2 0.822019 0.471923 0.292277
Si Si3 0.915072 0.337373 0.313070
Si Si4 0.979898 0.065457 0.691759
Si Si5 0.453703 0.162430 0.038947
O O1 0.154480 0.487880 0.452862
O O2 0.065466 0.520579 0.115546
O O3 0.099249 0.376880 0.213012
O O4 0.172015 0.472664 0.951223
O O5 0.750000 0.450796 0.331416
O O6 0.858553 0.392612 0.227548
O O7 0.889098 0.250000 0.330219
O O8 0.938370 0.365068 0.580704
O O9 0.975536 0.341061 0.136935
O O10 0.000000 0.000000 0.500000
O O11 0.042544 0.106137 0.798169
O O12 0.432965 0.250000 0.978234
#
# Coordination Sequence:
#
# PCOD8244856 Si02
#       5
#     8   8   8   8   8
#     4  11  22  39  63  88 120 158 203 257 304 362
#     4  11  24  42  63  84 116 165 219 252 291 354
#     4  10  21  35  56  89 128 159 194 250 313 373
#     4  11  19  34  56  89 126 166 197 242 307 383
#     4  11  21  35  58  94 127 153 192 255 329 386
#
# _framework density 20.151015000000001
#
# number of rings (size 3 to 8) (size 9 to 14) (size 15 to 20)
#    0.000    1.200    4.000    4.200    0.000    0.400 
#    0.000    0.000    0.000    6.000    0.000    0.000 
#    0.000    0.000    0.000    0.000    0.000    0.000 
#
# Total GULP energy -495607.011424 kJ/mol
# GULP energy per Si atom -12390.175286 kJ/mol
# Density = 2.010515 g / cm^3
# Si number density = 20.151015 Si / 1000 Ang^3
#
#
#
# Elastic Constant Matrix: (Units=GPa)
#
#
# Indices 1 2 3 4 5 6 
#
# 1 91.7572 53.5602 25.0712 0.0000 0.0000 0.0000
# 2 53.5602 155.7536 56.1891 0.0000 0.0000 0.0000
# 3 25.0712 56.1891 92.0338 0.0000 0.0000 0.0000
# 4 0.0000 0.0000 0.0000 24.9352 0.0000 0.0000
# 5 0.0000 0.0000 0.0000 0.0000 25.0663 0.0000
# 6 0.0000 0.0000 0.0000 0.0000 0.0000 17.3691
#
#
#
# Elastic Compliance Matrix: (Units=1/GPa)
#
#
# Indices 1 2 3 4 5 6 
#
# 1 0.013721 -0.004322 -0.001099 0.000000 0.000000 0.000000
# 2 -0.004322 0.009595 -0.004681 0.000000 0.000000 0.000000
# 3 -0.001099 -0.004681 0.014023 0.000000 0.000000 0.000000
# 4 0.000000 0.000000 0.000000 0.040104 0.000000 0.000000
# 5 0.000000 0.000000 0.000000 0.000000 0.039894 0.000000
# 6 0.000000 0.000000 0.000000 0.000000 0.000000 0.057574
#
#
# Mechanical properties :
#
#
# Convention : Reuss Voigt Hill
#
# Bulk Modulus (GPa) = 58.35831 67.68728 63.02280
# Shear Modulus (GPa) = 24.89704 27.12239 26.00972
#
# Velocity S-wave (km/s) = 3.51881 3.67271 3.59658
# Velocity P-wave (km/s) = 6.74780 7.18665 6.97068
#
# Compressibility (1/GPa) = 0.01713552
#
# Stress axis : x y z
#
# Youngs Moduli (GPa) = 72.87844 104.21816 71.31253
#
# Poissons Ratio (x) = 0.45043 0.07839
# Poissons Ratio (y) = 0.31498 0.33380
# Poissons Ratio (z) = 0.08011 0.48783
#
# Static dielectric constant tensor:
#      x y z
#    x 3.634120 0.000000 0.000000 
#    y 0.000000 3.840870 0.000000 
#    z 0.000000 0.000000 3.690590 
# 
# 
# High freq. dielectric constant tensor:
#      x y z
#    x 1.754770 0.000000 0.000000 
#    y 0.000000 1.785800 0.000000 
#    z 0.000000 0.000000 1.791830 
# 
# From -- ./inp_files/2737.got.cif
#   From: 2010.03.12/outbox.cif.g09.slc.cpg/sg59_2_cif.got.tgz:2737.got - 2010.04.16 16:29:54.
