data_PCOD8244190
_publ_section_title
;
Structure prediction by ZEFSAII (Michael W. Deem and Ramdas Pophale) SiO2 
 PCOD8244190
Probable space group: P M M N
;
_chemical_formula_sum "Si O2"
_cell_formula_units_Z 56
_cell_length_a 22.033482
_cell_length_b 13.723188
_cell_length_c 9.745705
_cell_angle_alpha 90.000000
_cell_angle_beta 90.000000
_cell_angle_gamma 90.000000
_cell_volume 2946.805076
_symmetry_space_group_name_H-M "P M M N"
_symmetry_group_IT_number 59
_space_group.IT_coordinate_system_code '2'
_symmetry_cell_setting 'orthorhombic'
loop_
_space_group_symop_operation_xyz
x,y,z
1/2-x,1/2-y,z
1/2+x,-y,-z
-x,1/2+y,-z
-x,-y,-z
1/2+x,1/2+y,-z
1/2-x,y,z
x,1/2-y,z
loop_
_atom_site_type_symbol
_atom_site_label
_atom_site_fract_x
_atom_site_fract_y
_atom_site_fract_z
Si Si1 0.442749 0.861691 0.351062
Si Si2 0.377283 0.550980 0.109698
Si Si3 0.430159 0.139960 0.208017
Si Si4 0.873318 0.050353 0.409590
Si Si5 0.933009 0.362448 0.150547
Si Si6 0.426930 0.360121 0.531198
Si Si7 0.250000 0.864554 0.528691
Si Si8 0.750000 0.134537 0.793308
O O1 0.427389 0.750000 0.378013
O O2 0.428440 0.889771 0.194587
O O3 0.395992 0.923471 0.439208
O O4 0.511528 0.885966 0.388341
O O5 0.382060 0.435570 0.143184
O O6 0.309275 0.587140 0.138475
O O7 0.394552 0.570271 0.952286
O O8 0.406669 0.250000 0.180367
O O9 0.494870 0.123345 0.134546
O O10 0.437658 0.122349 0.370268
O O11 0.916018 0.104714 0.302735
O O12 0.805337 0.086271 0.391770
O O13 0.876838 0.932368 0.403591
O O14 0.915016 0.250000 0.128514
O O15 0.405697 0.250000 0.560985
O O16 0.250000 0.750000 0.554912
O O17 0.250000 0.889104 0.367874
O O18 0.750000 0.250000 0.820328
#
# Coordination Sequence:
#
# PCOD8244190 Si02
#       8
#     8   8   8   8   8   8   4   4
#     4  11  19  32  58  83 108 143 188 232 279 338
#     4  12  23  38  56  84 118 156 190 230 284 339
#     4  10  20  37  59  86 115 148 190 240 287 334
#     4  12  21  37  57  82 114 150 189 232 285 335
#     4  11  23  37  57  86 120 150 183 234 295 345
#     4  10  20  35  59  88 113 145 191 241 288 335
#     4  11  22  35  58  86 109 144 197 242 277 333
#     4  11  22  37  58  82 115 150 191 238 279 333
#
# _framework density 19.003632
#
# number of rings (size 3 to 8) (size 9 to 14) (size 15 to 20)
#    0.000    1.000    4.286    4.286    0.000    0.571 
#    0.000    4.286    0.000    2.571    0.000    2.000 
#    0.000    0.000    0.000    0.000    0.000    0.000 
#
# Total GULP energy -694526.496784 kJ/mol
# GULP energy per Si atom -12402.258871 kJ/mol
# Density = 1.896038 g / cm^3
# Si number density = 19.003632 Si / 1000 Ang^3
#
#
#
# Elastic Constant Matrix: (Units=GPa)
#
#
# Indices 1 2 3 4 5 6 
#
# 1 82.9851 71.3581 19.8191 0.0000 0.0000 0.0000
# 2 71.3581 133.1023 21.1288 0.0000 0.0000 0.0000
# 3 19.8191 21.1288 44.1677 0.0000 0.0000 0.0000
# 4 0.0000 0.0000 0.0000 27.0634 0.0000 0.0000
# 5 0.0000 0.0000 0.0000 0.0000 18.1918 0.0000
# 6 0.0000 0.0000 0.0000 0.0000 0.0000 32.0027
#
#
#
# Elastic Compliance Matrix: (Units=1/GPa)
#
#
# Indices 1 2 3 4 5 6 
#
# 1 0.023276 -0.011710 -0.004843 0.000000 0.000000 0.000000
# 2 -0.011710 0.014022 -0.001453 0.000000 0.000000 0.000000
# 3 -0.004843 -0.001453 0.025509 0.000000 0.000000 0.000000
# 4 0.000000 0.000000 0.000000 0.036950 0.000000 0.000000
# 5 0.000000 0.000000 0.000000 0.000000 0.054970 0.000000
# 6 0.000000 0.000000 0.000000 0.000000 0.000000 0.031247
#
#
# Mechanical properties :
#
#
# Convention : Reuss Voigt Hill
#
# Bulk Modulus (GPa) = 37.31999 53.87410 45.59705
# Shear Modulus (GPa) = 21.65271 25.31485 23.48378
#
# Velocity S-wave (km/s) = 3.37916 3.65376 3.51914
# Velocity P-wave (km/s) = 5.90812 6.79786 6.36855
#
# Compressibility (1/GPa) = 0.02679529
#
# Stress axis : x y z
#
# Youngs Moduli (GPa) = 42.96221 71.31870 39.20156
#
# Poissons Ratio (x) = 0.83514 0.18985
# Poissons Ratio (y) = 0.50309 0.05696
# Poissons Ratio (z) = 0.20806 0.10363
#
# Static dielectric constant tensor:
#      x y z
#    x 3.373590 0.000000 0.000000 
#    y 0.000000 3.737710 0.000000 
#    z 0.000000 0.000000 3.328010 
# 
# 
# High freq. dielectric constant tensor:
#      x y z
#    x 1.715460 0.000000 0.000000 
#    y 0.000000 1.752470 0.000000 
#    z 0.000000 0.000000 1.728620 
# 
# From -- ./inp_files/9396.got.cif
#   From: 2010.03.12/outbox.cif.g09.slc.cpg/sg59_5_cif.got.tgz:9396.got - 2010.04.16 16:29:54.
