data_PCOD8244447
_publ_section_title
;
Structure prediction by ZEFSAII (Michael W. Deem and Ramdas Pophale) SiO2 
 PCOD8244447
Probable space group: P M M N
;
_chemical_formula_sum "Si O2"
_cell_formula_units_Z 56
_cell_length_a 15.759085
_cell_length_b 13.828594
_cell_length_c 11.986452
_cell_angle_alpha 90.000000
_cell_angle_beta 90.000000
_cell_angle_gamma 90.000000
_cell_volume 2612.159398
_symmetry_space_group_name_H-M "P M M N"
_symmetry_group_IT_number 59
_space_group.IT_coordinate_system_code '2'
_symmetry_cell_setting 'orthorhombic'
loop_
_space_group_symop_operation_xyz
x,y,z
1/2-x,1/2-y,z
1/2+x,-y,-z
-x,1/2+y,-z
-x,-y,-z
1/2+x,1/2+y,-z
1/2-x,y,z
x,1/2-y,z
loop_
_atom_site_type_symbol
_atom_site_label
_atom_site_fract_x
_atom_site_fract_y
_atom_site_fract_z
Si Si1 0.841243 0.138966 0.228503
Si Si2 0.510317 0.448019 0.828331
Si Si3 0.418655 0.636466 0.546851
Si Si4 0.520909 0.358796 0.061467
Si Si5 0.153795 0.138609 0.720020
Si Si6 0.889823 0.639410 0.530325
Si Si7 0.343689 0.963125 0.343043
O O1 0.750000 0.085575 0.225480
O O2 0.827414 0.250000 0.258699
O O3 0.898365 0.095291 0.328933
O O4 0.883555 0.129075 0.107323
O O5 0.530042 0.556874 0.873226
O O6 0.414392 0.432367 0.780407
O O7 0.583262 0.424424 0.739391
O O8 0.520648 0.373066 0.929547
O O9 0.408783 0.750000 0.538633
O O10 0.513435 0.604519 0.516531
O O11 0.353216 0.590632 0.460698
O O12 0.486209 0.250000 0.089427
O O13 0.250000 0.118791 0.764121
O O14 0.127347 0.250000 0.744445
O O15 0.155102 0.121069 0.587503
O O16 0.882732 0.750000 0.569152
O O17 0.848548 0.577427 0.629896
O O18 0.250000 0.940431 0.293434
#
# Coordination Sequence:
#
# PCOD8244447 Si02
#       7
#     8   8   8   8   8   8   8
#     4   9  18  33  55  85 118 156 206 255 302 365
#     4  11  24  42  65  91 125 165 211 268 322 384
#     4  10  20  36  60  90 127 167 207 257 314 372
#     4  10  23  43  65  87 117 163 216 270 328 378
#     4  10  21  39  65  95 126 163 210 263 316 372
#     4  10  21  39  61  87 126 170 213 259 309 369
#     4  12  25  38  59  94 134 172 207 247 311 389
#
# _framework density 21.438202
#
# number of rings (size 3 to 8) (size 9 to 14) (size 15 to 20)
#    0.000    1.714    1.429    2.571    2.000    5.143 
#    0.000    2.143    0.000    0.857    0.000    0.000 
#    0.000    0.000    0.000    0.000    0.000    0.000 
#
# Total GULP energy -694128.835105 kJ/mol
# GULP energy per Si atom -12395.157770 kJ/mol
# Density = 2.138941 g / cm^3
# Si number density = 21.438202 Si / 1000 Ang^3
#
#
#
# Elastic Constant Matrix: (Units=GPa)
#
#
# Indices 1 2 3 4 5 6 
#
# 1 137.9899 17.6467 47.8205 0.0000 0.0000 0.0000
# 2 17.6467 71.9708 14.5303 0.0000 0.0000 0.0000
# 3 47.8205 14.5303 94.8260 0.0000 0.0000 0.0000
# 4 0.0000 0.0000 0.0000 26.3289 0.0000 0.0000
# 5 0.0000 0.0000 0.0000 0.0000 20.8365 0.0000
# 6 0.0000 0.0000 0.0000 0.0000 0.0000 16.6852
#
#
#
# Elastic Compliance Matrix: (Units=1/GPa)
#
#
# Indices 1 2 3 4 5 6 
#
# 1 0.008901 -0.001317 -0.004287 0.000000 0.000000 0.000000
# 2 -0.001317 0.014533 -0.001563 0.000000 0.000000 0.000000
# 3 -0.004287 -0.001563 0.012947 0.000000 0.000000 0.000000
# 4 0.000000 0.000000 0.000000 0.037981 0.000000 0.000000
# 5 0.000000 0.000000 0.000000 0.000000 0.047993 0.000000
# 6 0.000000 0.000000 0.000000 0.000000 0.000000 0.059933
#
#
# Mechanical properties :
#
#
# Convention : Reuss Voigt Hill
#
# Bulk Modulus (GPa) = 45.35645 51.64243 48.49944
# Shear Modulus (GPa) = 24.51336 27.75607 26.13472
#
# Velocity S-wave (km/s) = 3.38515 3.60210 3.49531
# Velocity P-wave (km/s) = 6.04001 6.43750 6.24192
#
# Compressibility (1/GPa) = 0.02204758
#
# Stress axis : x y z
#
# Youngs Moduli (GPa) = 112.34740 68.80914 77.23806
#
# Poissons Ratio (x) = 0.09062 0.33111
# Poissons Ratio (y) = 0.14796 0.12071
# Poissons Ratio (z) = 0.48163 0.10753
#
# Static dielectric constant tensor:
#      x y z
#    x 4.009820 0.000000 0.000000 
#    y 0.000000 4.079820 0.000000 
#    z 0.000000 0.000000 3.672550 
# 
# 
# High freq. dielectric constant tensor:
#      x y z
#    x 1.829610 0.000000 0.000000 
#    y 0.000000 1.857880 0.000000 
#    z 0.000000 0.000000 1.821050 
# 
# From -- ./inp_files/16961.got.cif
#   From: 2010.03.12/outbox.cif.g09.slc.cpg/sg59_9_cif.got.tgz:16961.got - 2010.04.16 16:29:54.
