data_PCOD8244600
_publ_section_title
;
Structure prediction by ZEFSAII (Michael W. Deem and Ramdas Pophale) SiO2 
 PCOD8244600
Probable space group: P M M N
;
_chemical_formula_sum "Si O2"
_cell_formula_units_Z 40
_cell_length_a 18.896968
_cell_length_b 11.181601
_cell_length_c 9.674520
_cell_angle_alpha 90.000000
_cell_angle_beta 90.000000
_cell_angle_gamma 90.000000
_cell_volume 2044.210174
_symmetry_space_group_name_H-M "P M M N"
_symmetry_group_IT_number 59
_space_group.IT_coordinate_system_code '2'
_symmetry_cell_setting 'orthorhombic'
loop_
_space_group_symop_operation_xyz
x,y,z
1/2-x,1/2-y,z
1/2+x,-y,-z
-x,1/2+y,-z
-x,-y,-z
1/2+x,1/2+y,-z
1/2-x,y,z
x,1/2-y,z
loop_
_atom_site_type_symbol
_atom_site_label
_atom_site_fract_x
_atom_site_fract_y
_atom_site_fract_z
Si Si1 0.583962 0.974551 0.851484
Si Si2 0.329516 0.887615 0.366465
Si Si3 0.166106 0.250000 0.507071
Si Si4 0.928712 0.390520 0.131030
Si Si5 0.831384 0.507201 0.353388
Si Si6 0.166450 0.250000 0.189228
O O1 0.507169 0.921258 0.817963
O O2 0.636004 0.865575 0.890033
O O3 0.612311 0.037865 0.714475
O O4 0.581902 0.071510 0.972755
O O5 0.250000 0.931451 0.325454
O O6 0.339440 0.750000 0.330391
O O7 0.340615 0.906747 0.529252
O O8 0.250000 0.250000 0.500373
O O9 0.138619 0.366949 0.587903
O O10 0.139054 0.250000 0.348636
O O11 0.913316 0.250000 0.145340
O O12 0.874433 0.467191 0.220511
O O13 0.750000 0.520907 0.308139
O O14 0.250000 0.250000 0.176092
#
# Coordination Sequence:
#
# PCOD8244600 Si02
#       6
#     8   8   4   8   8   4
#     4  11  23  41  62  88 121 164 206 250 307 361
#     4  10  20  37  62  92 122 156 203 253 303 364
#     4   9  18  37  63  93 127 152 193 259 308 346
#     4  11  25  43  60  85 128 165 202 254 305 362
#     4  10  21  39  63  91 123 161 200 251 309 362
#     4  11  20  39  69  93 118 156 207 259 299 358
#
# _framework density 19.567458999999999
#
# number of rings (size 3 to 8) (size 9 to 14) (size 15 to 20)
#    0.000    1.600    3.000    1.800    0.000    4.400 
#    3.600    1.000    0.000    0.000    0.000    0.000 
#    0.000    0.000    0.000    0.000    0.000    0.000 
#
# Total GULP energy -496118.738016 kJ/mol
# GULP energy per Si atom -12402.968450 kJ/mol
# Density = 1.952292 g / cm^3
# Si number density = 19.567459 Si / 1000 Ang^3
#
#
#
# Elastic Constant Matrix: (Units=GPa)
#
#
# Indices 1 2 3 4 5 6 
#
# 1 91.9886 35.1595 30.2592 0.0000 0.0000 0.0000
# 2 35.1595 101.9490 17.8535 0.0000 0.0000 0.0000
# 3 30.2592 17.8535 44.8793 0.0000 0.0000 0.0000
# 4 0.0000 0.0000 0.0000 35.1035 0.0000 0.0000
# 5 0.0000 0.0000 0.0000 0.0000 33.3185 0.0000
# 6 0.0000 0.0000 0.0000 0.0000 0.0000 30.3812
#
#
#
# Elastic Compliance Matrix: (Units=1/GPa)
#
#
# Indices 1 2 3 4 5 6 
#
# 1 0.015163 -0.003696 -0.008753 0.000000 0.000000 0.000000
# 2 -0.003696 0.011444 -0.002060 0.000000 0.000000 0.000000
# 3 -0.008753 -0.002060 0.029003 0.000000 0.000000 0.000000
# 4 0.000000 0.000000 0.000000 0.028487 0.000000 0.000000
# 5 0.000000 0.000000 0.000000 0.000000 0.030013 0.000000
# 6 0.000000 0.000000 0.000000 0.000000 0.000000 0.032915
#
#
# Mechanical properties :
#
#
# Convention : Reuss Voigt Hill
#
# Bulk Modulus (GPa) = 37.60677 45.04013 41.32345
# Shear Modulus (GPa) = 27.04024 30.13029 28.58526
#
# Velocity S-wave (km/s) = 3.72142 3.92831 3.82626
# Velocity P-wave (km/s) = 6.14215 6.60631 6.37845
#
# Compressibility (1/GPa) = 0.02659096
#
# Stress axis : x y z
#
# Youngs Moduli (GPa) = 65.95000 87.37844 34.47897
#
# Poissons Ratio (x) = 0.32299 0.30179
# Poissons Ratio (y) = 0.24378 0.07104
# Poissons Ratio (z) = 0.57726 0.18004
#
# Static dielectric constant tensor:
#      x y z
#    x 3.520540 0.000000 0.000000 
#    y 0.000000 3.817390 0.000000 
#    z 0.000000 0.000000 3.348070 
# 
# 
# High freq. dielectric constant tensor:
#      x y z
#    x 1.754760 0.000000 0.000000 
#    y 0.000000 1.781570 0.000000 
#    z 0.000000 0.000000 1.750210 
# 
# From -- ./inp_files/11170.got.cif
#   From: 2010.03.12/outbox.cif.g09.slc.cpg/sg59_6_cif.got.tgz:11170.got - 2010.04.16 16:29:54.
