data_PCOD8244453
_publ_section_title
;
Structure prediction by ZEFSAII (Michael W. Deem and Ramdas Pophale) SiO2 
 PCOD8244453
Probable space group: P M M N
;
_chemical_formula_sum "Si O2"
_cell_formula_units_Z 56
_cell_length_a 22.416350
_cell_length_b 8.768912
_cell_length_c 14.673319
_cell_angle_alpha 90.000000
_cell_angle_beta 90.000000
_cell_angle_gamma 90.000000
_cell_volume 2884.290303
_symmetry_space_group_name_H-M "P M M N"
_symmetry_group_IT_number 59
_space_group.IT_coordinate_system_code '2'
_symmetry_cell_setting 'orthorhombic'
loop_
_space_group_symop_operation_xyz
x,y,z
1/2-x,1/2-y,z
1/2+x,-y,-z
-x,1/2+y,-z
-x,-y,-z
1/2+x,1/2+y,-z
1/2-x,y,z
x,1/2-y,z
loop_
_atom_site_type_symbol
_atom_site_label
_atom_site_fract_x
_atom_site_fract_y
_atom_site_fract_z
Si Si1 0.316537 0.425715 0.292371
Si Si2 0.819403 0.075327 0.081360
Si Si3 0.943876 0.073770 0.385273
Si Si4 0.984818 0.571418 0.903854
Si Si5 0.912056 0.927680 0.206727
Si Si6 0.578299 0.927504 0.574276
Si Si7 0.639109 0.429263 0.882371
O O1 0.250000 0.446923 0.334701
O O2 0.329226 0.250000 0.268828
O O3 0.367182 0.484320 0.362260
O O4 0.317476 0.520514 0.198728
O O5 0.750000 0.058524 0.099624
O O6 0.840674 0.250000 0.093706
O O7 0.851188 0.968070 0.154844
O O8 0.834174 0.018551 0.979335
O O9 0.929049 0.250000 0.368105
O O10 0.014969 0.043294 0.376182
O O11 0.907902 0.971095 0.312884
O O12 0.919078 0.027613 0.483612
O O13 0.980593 0.750000 0.916707
O O14 0.923470 0.509762 0.864184
O O15 0.035530 0.530822 0.832760
O O16 0.000000 0.500000 0.000000
O O17 0.926001 0.750000 0.194305
O O18 0.585184 0.750000 0.548575
O O19 0.630165 0.250000 0.880204
#
# Coordination Sequence:
#
# PCOD8244453 Si02
#       7
#     8   8   8   8   8   8   8
#     4  10  21  37  58  85 119 159 199 242 294 354
#     4  10  22  40  59  79 111 155 199 244 289 337
#     4  10  20  36  61  88 115 149 189 241 299 352
#     4  12  23  37  57  85 118 153 192 239 292 344
#     4  12  24  38  59  87 118 155 195 239 287 345
#     4   9  19  37  59  85 115 148 189 240 295 352
#     4  11  22  37  59  86 117 156 197 241 292 347
#
# _framework density 19.415520999999998
#
# number of rings (size 3 to 8) (size 9 to 14) (size 15 to 20)
#    0.000    1.429    1.429    4.714    0.000    4.000 
#    0.000    0.714    0.000    2.571    0.000    0.000 
#    0.000    0.000    0.000    0.000    0.000    0.000 
#
# Total GULP energy -694655.537662 kJ/mol
# GULP energy per Si atom -12404.563173 kJ/mol
# Density = 1.937133 g / cm^3
# Si number density = 19.415521 Si / 1000 Ang^3
#
#
#
# Elastic Constant Matrix: (Units=GPa)
#
#
# Indices 1 2 3 4 5 6 
#
# 1 100.8112 33.7082 50.1486 0.0000 0.0000 0.0000
# 2 33.7082 71.6430 37.4377 0.0000 0.0000 0.0000
# 3 50.1486 37.4377 108.1255 0.0000 0.0000 0.0000
# 4 0.0000 0.0000 0.0000 35.8867 0.0000 0.0000
# 5 0.0000 0.0000 0.0000 0.0000 26.9332 0.0000
# 6 0.0000 0.0000 0.0000 0.0000 0.0000 26.7915
#
#
#
# Elastic Compliance Matrix: (Units=1/GPa)
#
#
# Indices 1 2 3 4 5 6 
#
# 1 0.013699 -0.003816 -0.005032 0.000000 0.000000 0.000000
# 2 -0.003816 0.018104 -0.004499 0.000000 0.000000 0.000000
# 3 -0.005032 -0.004499 0.013140 0.000000 0.000000 0.000000
# 4 0.000000 0.000000 0.000000 0.027865 0.000000 0.000000
# 5 0.000000 0.000000 0.000000 0.000000 0.037129 0.000000
# 6 0.000000 0.000000 0.000000 0.000000 0.000000 0.037325
#
#
# Mechanical properties :
#
#
# Convention : Reuss Voigt Hill
#
# Bulk Modulus (GPa) = 54.79548 58.12986 56.46267
# Shear Modulus (GPa) = 27.77170 28.54129 28.15650
#
# Velocity S-wave (km/s) = 3.78615 3.83825 3.81229
# Velocity P-wave (km/s) = 6.88455 7.04612 6.96580
#
# Compressibility (1/GPa) = 0.01824968
#
# Stress axis : x y z
#
# Youngs Moduli (GPa) = 72.99972 55.23574 76.10247
#
# Poissons Ratio (x) = 0.21076 0.38297
# Poissons Ratio (y) = 0.27854 0.34237
# Poissons Ratio (z) = 0.36736 0.24849
#
# Static dielectric constant tensor:
#      x y z
#    x 3.567820 0.000000 0.000000 
#    y 0.000000 3.513900 0.000000 
#    z 0.000000 0.000000 4.322820 
# 
# 
# High freq. dielectric constant tensor:
#      x y z
#    x 1.752350 0.000000 0.000000 
#    y 0.000000 1.759050 0.000000 
#    z 0.000000 0.000000 1.755390 
# 
# From -- ./inp_files/20962.got.cif
#   From: 2010.03.12/outbox.cif.g09.slc.cpg/sg59_11_cif.got.tgz:20962.got - 2010.04.16 16:29:54.
