data_PCOD8244324
_publ_section_title
;
Structure prediction by ZEFSAII (Michael W. Deem and Ramdas Pophale) SiO2 
 PCOD8244324
Probable space group: P M M N
;
_chemical_formula_sum "Si O2"
_cell_formula_units_Z 40
_cell_length_a 14.136978
_cell_length_b 14.551551
_cell_length_c 9.519174
_cell_angle_alpha 90.000000
_cell_angle_beta 90.000000
_cell_angle_gamma 90.000000
_cell_volume 1958.236464
_symmetry_space_group_name_H-M "P M M N"
_symmetry_group_IT_number 59
_space_group.IT_coordinate_system_code '2'
_symmetry_cell_setting 'orthorhombic'
loop_
_space_group_symop_operation_xyz
x,y,z
1/2-x,1/2-y,z
1/2+x,-y,-z
-x,1/2+y,-z
-x,-y,-z
1/2+x,1/2+y,-z
1/2-x,y,z
x,1/2-y,z
loop_
_atom_site_type_symbol
_atom_site_label
_atom_site_fract_x
_atom_site_fract_y
_atom_site_fract_z
Si Si1 0.141467 0.954046 0.766513
Si Si2 0.442675 0.350233 0.731717
Si Si3 0.854775 0.642150 0.796744
Si Si4 0.471919 0.855335 0.983933
Si Si5 0.492352 0.400623 0.440720
O O1 0.250000 0.929065 0.748664
O O2 0.106343 0.925185 0.922332
O O3 0.083200 0.886908 0.660338
O O4 0.128788 0.063319 0.736223
O O5 0.394161 0.250000 0.767176
O O6 0.489788 0.336028 0.577867
O O7 0.524558 0.368598 0.847650
O O8 0.750000 0.598702 0.821410
O O9 0.845079 0.750000 0.785409
O O10 0.924421 0.615669 0.924414
O O11 0.896381 0.607742 0.648592
O O12 0.447280 0.750000 0.942943
O O13 0.500000 0.500000 0.500000
#
# Coordination Sequence:
#
# PCOD8244324 Si02
#       5
#     8   8   8   8   8
#     4  10  21  37  57  82 113 150 188 223 269 335
#     4  10  20  36  58  82 111 144 181 234 289 325
#     4   9  17  31  52  76 102 135 175 217 265 323
#     4   9  19  36  57  82 113 148 186 227 271 324
#     4   9  19  34  50  73 106 141 179 222 269 324
#
# _framework density 20.426542000000001
#
# number of rings (size 3 to 8) (size 9 to 14) (size 15 to 20)
#    0.000    2.600    0.000    1.200    0.000    5.600 
#    0.000    3.000    0.000    1.200    0.000    0.000 
#    0.000    0.000    0.000    0.000    0.000    0.000 
#
# Total GULP energy -495546.680494 kJ/mol
# GULP energy per Si atom -12388.667012 kJ/mol
# Density = 2.038005 g / cm^3
# Si number density = 20.426542 Si / 1000 Ang^3
#
#
#
# Elastic Constant Matrix: (Units=GPa)
#
#
# Indices 1 2 3 4 5 6 
#
# 1 114.8291 23.2255 7.8050 0.0000 0.0000 0.0000
# 2 23.2255 59.3370 14.5136 0.0000 0.0000 0.0000
# 3 7.8050 14.5136 76.6219 0.0000 0.0000 0.0000
# 4 0.0000 0.0000 0.0000 27.8117 0.0000 0.0000
# 5 0.0000 0.0000 0.0000 0.0000 8.6465 0.0000
# 6 0.0000 0.0000 0.0000 0.0000 0.0000 20.2107
#
#
#
# Elastic Compliance Matrix: (Units=1/GPa)
#
#
# Indices 1 2 3 4 5 6 
#
# 1 0.009463 -0.003637 -0.000275 0.000000 0.000000 0.000000
# 2 -0.003637 0.019069 -0.003242 0.000000 0.000000 0.000000
# 3 -0.000275 -0.003242 0.013693 0.000000 0.000000 0.000000
# 4 0.000000 0.000000 0.000000 0.035956 0.000000 0.000000
# 5 0.000000 0.000000 0.000000 0.000000 0.115653 0.000000
# 6 0.000000 0.000000 0.000000 0.000000 0.000000 0.049479
#
#
# Mechanical properties :
#
#
# Convention : Reuss Voigt Hill
#
# Bulk Modulus (GPa) = 35.81848 37.98623 36.90235
# Shear Modulus (GPa) = 18.73177 25.01672 21.87424
#
# Velocity S-wave (km/s) = 3.03154 3.50339 3.27597
# Velocity P-wave (km/s) = 5.46141 5.91624 5.69337
#
# Compressibility (1/GPa) = 0.02791855
#
# Stress axis : x y z
#
# Youngs Moduli (GPa) = 105.67645 52.44057 73.02925
#
# Poissons Ratio (x) = 0.19071 0.02009
# Poissons Ratio (y) = 0.38431 0.23673
# Poissons Ratio (z) = 0.02907 0.16999
#
# Static dielectric constant tensor:
#      x y z
#    x 3.658700 0.000000 0.000000 
#    y 0.000000 4.029260 0.000000 
#    z 0.000000 0.000000 5.004340 
# 
# 
# High freq. dielectric constant tensor:
#      x y z
#    x 1.753580 0.000000 0.000000 
#    y 0.000000 1.801370 0.000000 
#    z 0.000000 0.000000 1.814010 
# 
# From -- ./inp_files/8589.got.cif
#   From: 2010.03.12/outbox.cif.g09.slc.cpg/sg59_5_cif.got.tgz:8589.got - 2010.04.16 16:29:54.
