data_PCOD8244968
_publ_section_title
;
Structure prediction by ZEFSAII (Michael W. Deem and Ramdas Pophale) SiO2 
 PCOD8244968
Probable space group: P M M N
;
_chemical_formula_sum "Si O2"
_cell_formula_units_Z 40
_cell_length_a 9.012016
_cell_length_b 14.368602
_cell_length_c 16.396637
_cell_angle_alpha 90.000000
_cell_angle_beta 90.000000
_cell_angle_gamma 90.000000
_cell_volume 2123.201691
_symmetry_space_group_name_H-M "P M M N"
_symmetry_group_IT_number 59
_space_group.IT_coordinate_system_code '2'
_symmetry_cell_setting 'orthorhombic'
loop_
_space_group_symop_operation_xyz
x,y,z
1/2-x,1/2-y,z
1/2+x,-y,-z
-x,1/2+y,-z
-x,-y,-z
1/2+x,1/2+y,-z
1/2-x,y,z
x,1/2-y,z
loop_
_atom_site_type_symbol
_atom_site_label
_atom_site_fract_x
_atom_site_fract_y
_atom_site_fract_z
Si Si1 0.423202 0.491801 0.124983
Si Si2 0.574533 0.491991 0.293090
Si Si3 0.073527 0.647056 0.568965
Si Si4 0.077154 0.142538 0.977633
Si Si5 0.581341 0.359149 0.612205
O O1 0.250000 0.505371 0.140195
O O2 0.502383 0.462800 0.208138
O O3 0.486829 0.589990 0.092876
O O4 0.457210 0.407390 0.063326
O O5 0.750000 0.487945 0.283763
O O6 0.512612 0.421950 0.362201
O O7 0.523571 0.594408 0.320199
O O8 0.250000 0.649819 0.569142
O O9 0.011002 0.750000 0.588312
O O10 0.021850 0.615302 0.478605
O O11 0.250000 0.135086 0.955735
O O12 0.025691 0.250000 0.982810
O O13 0.750000 0.394149 0.624001
O O14 0.571821 0.250000 0.626620
#
# Coordination Sequence:
#
# PCOD8244968 Si02
#       5
#     8   8   8   8   8
#     4  10  21  36  54  79 108 135 167 205 249 307
#     4  11  21  32  51  78 107 137 169 211 257 298
#     4   8  16  32  52  74 101 135 175 215 256 303
#     4   9  19  38  61  80 101 131 166 208 256 301
#     4   9  18  34  54  73  98 136 178 217 258 303
#
# _framework density 18.839473999999999
#
# number of rings (size 3 to 8) (size 9 to 14) (size 15 to 20)
#    0.000    2.600    0.000    3.000    0.000    3.200 
#    0.000    1.000    0.000    4.200    0.000    0.000 
#    0.000    0.000    0.000    0.000    0.000    0.000 
#
# Total GULP energy -496010.173573 kJ/mol
# GULP energy per Si atom -12400.254339 kJ/mol
# Density = 1.879659 g / cm^3
# Si number density = 18.839474 Si / 1000 Ang^3
#
#
#
# Elastic Constant Matrix: (Units=GPa)
#
#
# Indices 1 2 3 4 5 6 
#
# 1 54.4732 22.3871 25.9076 0.0000 0.0000 0.0000
# 2 22.3871 79.3016 16.7253 0.0000 0.0000 0.0000
# 3 25.9076 16.7253 74.0194 0.0000 0.0000 0.0000
# 4 0.0000 0.0000 0.0000 17.9202 0.0000 0.0000
# 5 0.0000 0.0000 0.0000 0.0000 30.3983 0.0000
# 6 0.0000 0.0000 0.0000 0.0000 0.0000 24.7514
#
#
#
# Elastic Compliance Matrix: (Units=1/GPa)
#
#
# Indices 1 2 3 4 5 6 
#
# 1 0.023932 -0.005239 -0.007193 0.000000 0.000000 0.000000
# 2 -0.005239 0.014388 -0.001417 0.000000 0.000000 0.000000
# 3 -0.007193 -0.001417 0.016348 0.000000 0.000000 0.000000
# 4 0.000000 0.000000 0.000000 0.055803 0.000000 0.000000
# 5 0.000000 0.000000 0.000000 0.000000 0.032897 0.000000
# 6 0.000000 0.000000 0.000000 0.000000 0.000000 0.040402
#
#
# Mechanical properties :
#
#
# Convention : Reuss Voigt Hill
#
# Bulk Modulus (GPa) = 37.07898 37.53714 37.30806
# Shear Modulus (GPa) = 22.68024 24.13225 23.40625
#
# Velocity S-wave (km/s) = 3.47344 3.58291 3.52860
# Velocity P-wave (km/s) = 5.98420 6.08969 6.03717
#
# Compressibility (1/GPa) = 0.02696946
#
# Stress axis : x y z
#
# Youngs Moduli (GPa) = 41.78585 69.50225 61.17074
#
# Poissons Ratio (x) = 0.36412 0.43997
# Poissons Ratio (y) = 0.21892 0.08670
# Poissons Ratio (z) = 0.30054 0.09851
#
# Static dielectric constant tensor:
#      x y z
#    x 3.257730 0.000000 0.000000 
#    y 0.000000 3.533260 0.000000 
#    z 0.000000 0.000000 3.520420 
# 
# 
# High freq. dielectric constant tensor:
#      x y z
#    x 1.715230 0.000000 0.000000 
#    y 0.000000 1.732800 0.000000 
#    z 0.000000 0.000000 1.734840 
# 
# From -- ./inp_files/19852.got.cif
#   From: 2010.03.12/outbox.cif.g09.slc.cpg/sg59_10_cif.got.tgz:19852.got - 2010.04.16 16:29:54.
