data_PCOD8244473
_publ_section_title
;
Structure prediction by ZEFSAII (Michael W. Deem and Ramdas Pophale) SiO2 
 PCOD8244473
Probable space group: P M M N
;
_chemical_formula_sum "Si O2"
_cell_formula_units_Z 64
_cell_length_a 19.651101
_cell_length_b 14.287168
_cell_length_c 11.452777
_cell_angle_alpha 90.000000
_cell_angle_beta 90.000000
_cell_angle_gamma 90.000000
_cell_volume 3215.465423
_symmetry_space_group_name_H-M "P M M N"
_symmetry_group_IT_number 59
_space_group.IT_coordinate_system_code '2'
_symmetry_cell_setting 'orthorhombic'
loop_
_space_group_symop_operation_xyz
x,y,z
1/2-x,1/2-y,z
1/2+x,-y,-z
-x,1/2+y,-z
-x,-y,-z
1/2+x,1/2+y,-z
1/2-x,y,z
x,1/2-y,z
loop_
_atom_site_type_symbol
_atom_site_label
_atom_site_fract_x
_atom_site_fract_y
_atom_site_fract_z
Si Si1 0.069098 0.357114 0.439819
Si Si2 0.825615 0.356286 0.997436
Si Si3 0.434321 0.144337 0.945361
Si Si4 0.170245 0.001622 0.555709
Si Si5 0.991982 0.642534 0.803649
Si Si6 0.572829 0.143470 0.810804
Si Si7 0.573120 0.360848 0.551348
Si Si8 0.624101 0.018937 0.189023
O O1 0.082817 0.250000 0.475068
O O2 0.132927 0.415440 0.486087
O O3 0.062423 0.368649 0.300221
O O4 0.998912 0.392844 0.497911
O O5 0.750000 0.360396 0.946218
O O6 0.849591 0.250000 0.020546
O O7 0.875227 0.404935 0.902055
O O8 0.828414 0.408199 0.121017
O O9 0.404706 0.250000 0.943303
O O10 0.497724 0.135995 0.859319
O O11 0.380156 0.071918 0.894577
O O12 0.454909 0.115738 0.076249
O O13 0.250000 0.002165 0.523631
O O14 0.136319 0.903226 0.519615
O O15 0.160735 0.014740 0.693801
O O16 0.019527 0.750000 0.807987
O O17 0.052644 0.569502 0.783812
O O18 0.596455 0.250000 0.795368
O O19 0.575748 0.097238 0.682821
O O20 0.580450 0.250000 0.544216
#
# Coordination Sequence:
#
# PCOD8244473 Si02
#       8
#     8   8   8   8   8   8   8   8
#     4  10  22  42  66  88 115 158 207 256 303 347
#     4  10  21  36  54  80 118 158 194 238 295 365
#     4  10  21  36  58  93 123 145 186 245 303 352
#     4  12  27  41  58  87 124 164 206 251 299 365
#     4  10  20  36  62  94 120 148 194 253 308 355
#     4   9  18  33  55  83 116 150 189 233 289 354
#     4  10  21  38  62  90 121 159 201 252 308 357
#     4  12  22  36  61  86 119 158 197 241 300 362
#
# _framework density 19.903804999999998
#
# number of rings (size 3 to 8) (size 9 to 14) (size 15 to 20)
#    0.000    1.625    2.500    2.250    1.750    3.000 
#    0.000    1.250    0.000    1.875    0.000    3.500 
#    0.000    0.000    0.000    0.000    0.000    0.000 
#
# Total GULP energy -793599.198244 kJ/mol
# GULP energy per Si atom -12399.987473 kJ/mol
# Density = 1.985850 g / cm^3
# Si number density = 19.903805 Si / 1000 Ang^3
#
#
#
# Elastic Constant Matrix: (Units=GPa)
#
#
# Indices 1 2 3 4 5 6 
#
# 1 96.6941 38.4967 36.8985 0.0000 0.0000 0.0000
# 2 38.4967 75.6864 20.6689 0.0000 0.0000 0.0000
# 3 36.8985 20.6689 118.3065 0.0000 0.0000 0.0000
# 4 0.0000 0.0000 0.0000 30.5856 0.0000 0.0000
# 5 0.0000 0.0000 0.0000 0.0000 22.7628 0.0000
# 6 0.0000 0.0000 0.0000 0.0000 0.0000 21.9661
#
#
#
# Elastic Compliance Matrix: (Units=1/GPa)
#
#
# Indices 1 2 3 4 5 6 
#
# 1 0.014098 -0.006269 -0.003302 0.000000 0.000000 0.000000
# 2 -0.006269 0.016662 -0.000956 0.000000 0.000000 0.000000
# 3 -0.003302 -0.000956 0.009649 0.000000 0.000000 0.000000
# 4 0.000000 0.000000 0.000000 0.032695 0.000000 0.000000
# 5 0.000000 0.000000 0.000000 0.000000 0.043931 0.000000
# 6 0.000000 0.000000 0.000000 0.000000 0.000000 0.045525
#
#
# Mechanical properties :
#
#
# Convention : Reuss Voigt Hill
#
# Bulk Modulus (GPa) = 51.66271 53.64613 52.65442
# Shear Modulus (GPa) = 26.30681 28.03776 27.17229
#
# Velocity S-wave (km/s) = 3.63946 3.75729 3.69884
# Velocity P-wave (km/s) = 6.60859 6.77009 6.68983
#
# Compressibility (1/GPa) = 0.01935632
#
# Stress axis : x y z
#
# Youngs Moduli (GPa) = 70.93382 60.01679 103.63381
#
# Poissons Ratio (x) = 0.37624 0.34217
# Poissons Ratio (y) = 0.44468 0.09905
# Poissons Ratio (z) = 0.23420 0.05736
#
# Static dielectric constant tensor:
#      x y z
#    x 3.295200 0.000000 0.000000 
#    y 0.000000 3.696450 0.000000 
#    z 0.000000 0.000000 3.890840 
# 
# 
# High freq. dielectric constant tensor:
#      x y z
#    x 1.739290 0.000000 0.000000 
#    y 0.000000 1.779050 0.000000 
#    z 0.000000 0.000000 1.793960 
# 
# From -- ./inp_files/17837.got.cif
#   From: 2010.03.12/outbox.cif.g09.slc.cpg/sg59_9_cif.got.tgz:17837.got - 2010.04.16 16:29:54.
