data_PCOD8244382
_publ_section_title
;
Structure prediction by ZEFSAII (Michael W. Deem and Ramdas Pophale) SiO2 
 PCOD8244382
Probable space group: P M M N
;
_chemical_formula_sum "Si O2"
_cell_formula_units_Z 32
_cell_length_a 10.238630
_cell_length_b 8.727927
_cell_length_c 19.100929
_cell_angle_alpha 90.000000
_cell_angle_beta 90.000000
_cell_angle_gamma 90.000000
_cell_volume 1706.897508
_symmetry_space_group_name_H-M "P M M N"
_symmetry_group_IT_number 59
_space_group.IT_coordinate_system_code '2'
_symmetry_cell_setting 'orthorhombic'
loop_
_space_group_symop_operation_xyz
x,y,z
1/2-x,1/2-y,z
1/2+x,-y,-z
-x,1/2+y,-z
-x,-y,-z
1/2+x,1/2+y,-z
1/2-x,y,z
x,1/2-y,z
loop_
_atom_site_type_symbol
_atom_site_label
_atom_site_fract_x
_atom_site_fract_y
_atom_site_fract_z
Si Si1 0.598180 0.427436 0.203275
Si Si2 0.750000 0.068706 0.583645
Si Si3 0.100589 0.069161 0.945281
Si Si4 0.750000 0.068020 0.425478
Si Si5 0.488837 0.068369 0.657915
O O1 0.750000 0.450470 0.221322
O O2 0.559944 0.250000 0.200290
O O3 0.561692 0.503372 0.129904
O O4 0.514221 0.511542 0.262344
O O5 0.750000 0.250000 0.580697
O O6 0.750000 0.004229 0.504695
O O7 0.623699 0.009457 0.624846
O O8 0.250000 0.022468 0.964463
O O9 0.084731 0.250000 0.943700
O O10 0.000000 0.000000 0.000000
O O11 0.750000 0.250000 0.422083
O O12 0.876678 0.007204 0.387291
O O13 0.473622 0.250000 0.655929
#
# Coordination Sequence:
#
# PCOD8244382 Si02
#       5
#     8   4   8   4   8
#     4  10  20  36  59  85 115 150 190 235 282 335
#     4   9  22  39  55  81 116 149 186 237 291 341
#     4  10  21  38  61  89 119 152 192 234 280 337
#     4  11  21  37  59  83 112 147 190 237 285 343
#     4  11  21  37  59  83 112 149 192 236 285 341
#
# _framework density 18.747464000000001
#
# number of rings (size 3 to 8) (size 9 to 14) (size 15 to 20)
#    0.000    1.750    1.250    3.375    0.000    2.500 
#    2.250    6.250    0.000    0.000    0.000    0.000 
#    0.000    0.000    0.000    0.000    0.000    0.000 
#
# Total GULP energy -396916.311377 kJ/mol
# GULP energy per Si atom -12403.634731 kJ/mol
# Density = 1.870479 g / cm^3
# Si number density = 18.747464 Si / 1000 Ang^3
#
#
#
# Elastic Constant Matrix: (Units=GPa)
#
#
# Indices 1 2 3 4 5 6 
#
# 1 141.5824 51.8928 96.7623 0.0000 0.0000 0.0000
# 2 51.8928 94.1381 64.4421 0.0000 0.0000 0.0000
# 3 96.7623 64.4421 178.8533 0.0000 0.0000 0.0000
# 4 0.0000 0.0000 0.0000 36.6645 0.0000 0.0000
# 5 0.0000 0.0000 0.0000 0.0000 40.2591 0.0000
# 6 0.0000 0.0000 0.0000 0.0000 0.0000 92.3660
#
#
#
# Elastic Compliance Matrix: (Units=1/GPa)
#
#
# Indices 1 2 3 4 5 6 
#
# 1 0.011745 -0.002820 -0.005338 0.000000 0.000000 0.000000
# 2 -0.002820 0.014778 -0.003799 0.000000 0.000000 0.000000
# 3 -0.005338 -0.003799 0.009848 0.000000 0.000000 0.000000
# 4 0.000000 0.000000 0.000000 0.027274 0.000000 0.000000
# 5 0.000000 0.000000 0.000000 0.000000 0.024839 0.000000
# 6 0.000000 0.000000 0.000000 0.000000 0.000000 0.010826
#
#
# Mechanical properties :
#
#
# Convention : Reuss Voigt Hill
#
# Bulk Modulus (GPa) = 80.27899 93.41866 86.84883
# Shear Modulus (GPa) = 39.25375 47.28969 43.27172
#
# Velocity S-wave (km/s) = 4.58079 5.02786 4.80952
# Velocity P-wave (km/s) = 8.41976 9.14571 8.79023
#
# Compressibility (1/GPa) = 0.01245656
#
# Stress axis : x y z
#
# Youngs Moduli (GPa) = 85.14382 67.66954 101.54490
#
# Poissons Ratio (x) = 0.19083 0.54205
# Poissons Ratio (y) = 0.24011 0.38575
# Poissons Ratio (z) = 0.45450 0.25706
#
# Static dielectric constant tensor:
#      x y z
#    x 3.371030 0.000000 0.000000 
#    y 0.000000 3.478520 0.000000 
#    z 0.000000 0.000000 3.651660 
# 
# 
# High freq. dielectric constant tensor:
#      x y z
#    x 1.722010 0.000000 0.000000 
#    y 0.000000 1.734690 0.000000 
#    z 0.000000 0.000000 1.743720 
# 
# From -- ./inp_files/26722.got.cif
#   From: 2010.03.12/outbox.cif.g09.slc.cpg/sg59_14_cif.got.tgz:26722.got - 2010.04.16 16:29:54.
