data_PCOD8244017
_publ_section_title
;
Structure prediction by ZEFSAII (Michael W. Deem and Ramdas Pophale) SiO2 
 PCOD8244017
Probable space group: P M M N
;
_chemical_formula_sum "Si O2"
_cell_formula_units_Z 64
_cell_length_a 15.165962
_cell_length_b 22.044195
_cell_length_c 9.774909
_cell_angle_alpha 90.000000
_cell_angle_beta 90.000000
_cell_angle_gamma 90.000000
_cell_volume 3267.961493
_symmetry_space_group_name_H-M "P M M N"
_symmetry_group_IT_number 59
_space_group.IT_coordinate_system_code '2'
_symmetry_cell_setting 'orthorhombic'
loop_
_space_group_symop_operation_xyz
x,y,z
1/2-x,1/2-y,z
1/2+x,-y,-z
-x,1/2+y,-z
-x,-y,-z
1/2+x,1/2+y,-z
1/2-x,y,z
x,1/2-y,z
loop_
_atom_site_type_symbol
_atom_site_label
_atom_site_fract_x
_atom_site_fract_y
_atom_site_fract_z
Si Si1 0.153558 0.385423 0.600352
Si Si2 0.652586 0.924634 0.948110
Si Si3 0.846985 0.178023 0.651486
Si Si4 0.929863 0.318169 0.925507
Si Si5 0.523646 0.393050 0.185710
Si Si6 0.627895 0.816453 0.135025
Si Si7 0.999905 0.678059 0.550057
Si Si8 0.352382 0.002247 0.781223
O O1 0.250000 0.393750 0.530787
O O2 0.166612 0.337464 0.721613
O O3 0.086382 0.360143 0.489038
O O4 0.120566 0.448771 0.666021
O O5 0.750000 0.940042 0.884043
O O6 0.572968 0.923467 0.838679
O O7 0.660806 0.857898 0.011770
O O8 0.628057 0.972116 0.067290
O O9 0.750000 0.153958 0.608115
O O10 0.849913 0.250000 0.649889
O O11 0.864624 0.156509 0.807839
O O12 0.919216 0.154390 0.543662
O O13 0.903282 0.250000 0.975353
O O14 0.023074 0.316028 0.850043
O O15 0.932041 0.365217 0.049980
O O16 0.518656 0.338011 0.292786
O O17 0.587876 0.443934 0.245354
O O18 0.664491 0.750000 0.101744
O O19 0.983537 0.750000 0.535754
O O20 0.250000 0.984743 0.767111
#
# Coordination Sequence:
#
# PCOD8244017 Si02
#       8
#     8   8   8   8   8   8   8   8
#     4  10  20  35  57  81 111 152 197 241 284 337
#     4   9  19  35  53  79 116 153 187 231 286 344
#     4   9  18  35  57  78 109 152 193 236 283 337
#     4   9  17  32  54  82 112 144 187 237 288 349
#     4  11  22  35  59  85 118 155 187 234 299 352
#     4   9  15  27  51  81 107 138 186 237 281 334
#     4  11  23  38  56  87 125 156 189 234 294 359
#     4   9  20  39  61  83 107 145 203 254 289 334
#
# _framework density 19.584074000000001
#
# number of rings (size 3 to 8) (size 9 to 14) (size 15 to 20)
#    0.000    2.375    1.250    2.250    0.000    4.250 
#    0.000    0.000    0.000    3.750    0.000    0.000 
#    0.000    0.000    0.000    0.000    0.000    0.000 
#
# Total GULP energy -793314.628021 kJ/mol
# GULP energy per Si atom -12395.541063 kJ/mol
# Density = 1.953950 g / cm^3
# Si number density = 19.584074 Si / 1000 Ang^3
#
#
#
# Elastic Constant Matrix: (Units=GPa)
#
#
# Indices 1 2 3 4 5 6 
#
# 1 101.5987 27.0668 36.0805 0.0000 0.0000 0.0000
# 2 27.0668 66.8626 14.2622 0.0000 0.0000 0.0000
# 3 36.0805 14.2622 69.9797 0.0000 0.0000 0.0000
# 4 0.0000 0.0000 0.0000 21.0186 0.0000 0.0000
# 5 0.0000 0.0000 0.0000 0.0000 20.7233 0.0000
# 6 0.0000 0.0000 0.0000 0.0000 0.0000 23.1283
#
#
#
# Elastic Compliance Matrix: (Units=1/GPa)
#
#
# Indices 1 2 3 4 5 6 
#
# 1 0.013001 -0.004007 -0.005886 0.000000 0.000000 0.000000
# 2 -0.004007 0.016871 -0.001372 0.000000 0.000000 0.000000
# 3 -0.005886 -0.001372 0.017604 0.000000 0.000000 0.000000
# 4 0.000000 0.000000 0.000000 0.047577 0.000000 0.000000
# 5 0.000000 0.000000 0.000000 0.000000 0.048255 0.000000
# 6 0.000000 0.000000 0.000000 0.000000 0.000000 0.043237
#
#
# Mechanical properties :
#
#
# Convention : Reuss Voigt Hill
#
# Bulk Modulus (GPa) = 40.08916 43.69555 41.89235
# Shear Modulus (GPa) = 23.00003 23.70947 23.35475
#
# Velocity S-wave (km/s) = 3.43071 3.48322 3.45706
# Velocity P-wave (km/s) = 6.01729 6.20784 6.11330
#
# Compressibility (1/GPa) = 0.02494440
#
# Stress axis : x y z
#
# Youngs Moduli (GPa) = 76.91971 59.27352 56.80399
#
# Poissons Ratio (x) = 0.23752 0.33436
# Poissons Ratio (y) = 0.30823 0.07795
# Poissons Ratio (z) = 0.45277 0.08134
#
# Static dielectric constant tensor:
#      x y z
#    x 3.773270 0.000000 0.000000 
#    y 0.000000 3.378580 0.000000 
#    z 0.000000 0.000000 3.270370 
# 
# 
# High freq. dielectric constant tensor:
#      x y z
#    x 1.772250 0.000000 0.000000 
#    y 0.000000 1.746030 0.000000 
#    z 0.000000 0.000000 1.735330 
# 
# From -- ./inp_files/9571.got.cif
#   From: 2010.03.12/outbox.cif.g09.slc.cpg/sg59_5_cif.got.tgz:9571.got - 2010.04.16 16:29:54.
