data_PCOD8244077
_publ_section_title
;
Structure prediction by ZEFSAII (Michael W. Deem and Ramdas Pophale) SiO2 
 PCOD8244077
Probable space group: P M M N
;
_chemical_formula_sum "Si O2"
_cell_formula_units_Z 64
_cell_length_a 24.890116
_cell_length_b 8.932833
_cell_length_c 14.476690
_cell_angle_alpha 90.000000
_cell_angle_beta 90.000000
_cell_angle_gamma 90.000000
_cell_volume 3218.736391
_symmetry_space_group_name_H-M "P M M N"
_symmetry_group_IT_number 59
_space_group.IT_coordinate_system_code '2'
_symmetry_cell_setting 'orthorhombic'
loop_
_space_group_symop_operation_xyz
x,y,z
1/2-x,1/2-y,z
1/2+x,-y,-z
-x,1/2+y,-z
-x,-y,-z
1/2+x,1/2+y,-z
1/2-x,y,z
x,1/2-y,z
loop_
_atom_site_type_symbol
_atom_site_label
_atom_site_fract_x
_atom_site_fract_y
_atom_site_fract_z
Si Si1 0.556447 0.423945 0.522678
Si Si2 0.838994 0.072543 0.012910
Si Si3 0.690597 0.578460 0.831332
Si Si4 0.980299 0.583966 0.232085
Si Si5 0.893712 0.422090 0.335541
Si Si6 0.903676 0.424153 0.721915
Si Si7 0.947137 0.581712 0.029266
Si Si8 0.811222 0.578700 0.204472
O O1 0.500000 0.500000 0.500000
O O2 0.543106 0.250000 0.529623
O O3 0.602217 0.453910 0.444970
O O4 0.582066 0.480816 0.618733
O O5 0.836354 0.250000 0.014580
O O6 0.898951 0.017764 0.991768
O O7 0.817982 0.013183 0.110476
O O8 0.804747 0.010588 0.927861
O O9 0.750000 0.566153 0.785549
O O10 0.675788 0.750000 0.853002
O O11 0.646745 0.514112 0.760967
O O12 0.978186 0.750000 0.278074
O O13 0.952887 0.463014 0.297930
O O14 0.945428 0.585932 0.139579
O O15 0.043084 0.543312 0.215689
O O16 0.881264 0.250000 0.313071
O O17 0.847604 0.520454 0.288475
O O18 0.887832 0.250000 0.723984
O O19 0.944411 0.750000 0.988537
O O20 0.000000 0.500000 0.000000
O O21 0.750000 0.564203 0.238169
O O22 0.826990 0.750000 0.183416
#
# Coordination Sequence:
#
# PCOD8244077 Si02
#       8
#     8   8   8   8   8   8   8   8
#     4  10  21  37  61  94 126 158 198 246 301 362
#     4  12  24  39  62  91 121 157 204 252 303 363
#     4  11  25  44  64  88 120 159 206 258 306 357
#     4  10  20  35  57  84 120 160 195 240 299 359
#     4  11  22  36  59  91 124 157 198 247 301 359
#     4  10  21  39  63  92 124 159 202 249 302 364
#     4  11  22  35  54  84 123 162 203 249 300 357
#     4  11  24  42  63  87 119 162 209 255 305 360
#
# _framework density 19.883579999999998
#
# number of rings (size 3 to 8) (size 9 to 14) (size 15 to 20)
#    0.000    1.250    2.500    3.750    0.000    6.500 
#    0.000    0.625    0.000    3.750    0.000    0.000 
#    0.000    0.000    0.000    0.000    0.000    0.000 
#
# Total GULP energy -793600.253907 kJ/mol
# GULP energy per Si atom -12400.003967 kJ/mol
# Density = 1.983832 g / cm^3
# Si number density = 19.883580 Si / 1000 Ang^3
#
#
#
# Elastic Constant Matrix: (Units=GPa)
#
#
# Indices 1 2 3 4 5 6 
#
# 1 121.3181 55.4510 39.4707 0.0000 0.0000 0.0000
# 2 55.4510 135.3609 44.1576 0.0000 0.0000 0.0000
# 3 39.4707 44.1576 87.9196 0.0000 0.0000 0.0000
# 4 0.0000 0.0000 0.0000 25.9115 0.0000 0.0000
# 5 0.0000 0.0000 0.0000 0.0000 21.1169 0.0000
# 6 0.0000 0.0000 0.0000 0.0000 0.0000 34.5416
#
#
#
# Elastic Compliance Matrix: (Units=1/GPa)
#
#
# Indices 1 2 3 4 5 6 
#
# 1 0.010824 -0.003407 -0.003148 0.000000 0.000000 0.000000
# 2 -0.003407 0.009908 -0.003447 0.000000 0.000000 0.000000
# 3 -0.003148 -0.003447 0.014518 0.000000 0.000000 0.000000
# 4 0.000000 0.000000 0.000000 0.038593 0.000000 0.000000
# 5 0.000000 0.000000 0.000000 0.000000 0.047355 0.000000
# 6 0.000000 0.000000 0.000000 0.000000 0.000000 0.028951
#
#
# Mechanical properties :
#
#
# Convention : Reuss Voigt Hill
#
# Bulk Modulus (GPa) = 65.58837 69.19524 67.39181
# Shear Modulus (GPa) = 28.53298 30.01527 29.27413
#
# Velocity S-wave (km/s) = 3.79225 3.88951 3.84119
# Velocity P-wave (km/s) = 7.22722 7.41935 7.32392
#
# Compressibility (1/GPa) = 0.01524660
#
# Stress axis : x y z
#
# Youngs Moduli (GPa) = 92.38376 100.93082 68.87801
#
# Poissons Ratio (x) = 0.34390 0.21684
# Poissons Ratio (y) = 0.31477 0.23739
# Poissons Ratio (z) = 0.29085 0.34786
#
# Static dielectric constant tensor:
#      x y z
#    x 3.655840 0.000000 0.000000 
#    y 0.000000 3.714190 0.000000 
#    z 0.000000 0.000000 3.844290 
# 
# 
# High freq. dielectric constant tensor:
#      x y z
#    x 1.778950 0.000000 0.000000 
#    y 0.000000 1.781600 0.000000 
#    z 0.000000 0.000000 1.769140 
# 
# From -- ./inp_files/24654.got.cif
#   From: 2010.03.12/outbox.cif.g09.slc.cpg/sg59_13_cif.got.tgz:24654.got - 2010.04.16 16:29:54.
