data_PCOD8244734
_publ_section_title
;
Structure prediction by ZEFSAII (Michael W. Deem and Ramdas Pophale) SiO2 
 PCOD8244734
Probable space group: P M M N
;
_chemical_formula_sum "Si O2"
_cell_formula_units_Z 48
_cell_length_a 29.538952
_cell_length_b 9.254964
_cell_length_c 10.101005
_cell_angle_alpha 90.000000
_cell_angle_beta 90.000000
_cell_angle_gamma 90.000000
_cell_volume 2761.432316
_symmetry_space_group_name_H-M "P M M N"
_symmetry_group_IT_number 59
_space_group.IT_coordinate_system_code '2'
_symmetry_cell_setting 'orthorhombic'
loop_
_space_group_symop_operation_xyz
x,y,z
1/2-x,1/2-y,z
1/2+x,-y,-z
-x,1/2+y,-z
-x,-y,-z
1/2+x,1/2+y,-z
1/2-x,y,z
x,1/2-y,z
loop_
_atom_site_type_symbol
_atom_site_label
_atom_site_fract_x
_atom_site_fract_y
_atom_site_fract_z
Si Si1 0.636795 0.580816 0.901157
Si Si2 0.197479 0.581159 0.890466
Si Si3 0.197799 0.081716 0.625978
Si Si4 0.866297 0.921153 0.604975
Si Si5 0.967764 0.917272 0.900980
Si Si6 0.967350 0.579654 0.599599
O O1 0.647883 0.750000 0.920445
O O2 0.668405 0.485724 0.992875
O O3 0.647529 0.527676 0.751852
O O4 0.584458 0.549031 0.934586
O O5 0.250000 0.549797 0.920206
O O6 0.187290 0.750000 0.878907
O O7 0.182504 0.506595 0.754117
O O8 0.250000 0.054850 0.591413
O O9 0.187747 0.250000 0.652600
O O10 0.169285 0.020178 0.502310
O O11 0.866784 0.750000 0.607624
O O12 0.916542 0.974677 0.567604
O O13 0.977715 0.750000 0.920498
O O14 0.979269 0.962894 0.750515
O O15 0.000000 0.000000 0.000000
O O16 0.971973 0.750000 0.578382
O O17 0.000000 0.500000 0.500000
#
# Coordination Sequence:
#
# PCOD8244734 Si02
#       6
#     8   8   8   8   8   8
#     4   9  18  34  54  74  97 128 166 205 244 287
#     4  10  21  35  49  70 102 134 162 197 243 292
#     4   9  17  31  52  75  96 122 159 198 237 287
#     4   8  16  32  52  73  97 123 156 202 246 282
#     4   9  19  34  51  73 101 131 164 202 243 289
#     4   9  18  33  50  70  98 128 159 197 240 286
#
# _framework density 17.382283000000001
#
# number of rings (size 3 to 8) (size 9 to 14) (size 15 to 20)
#    0.000    3.000    0.000    2.500    0.000    4.333 
#    0.000   10.833    0.000    2.000    0.000    0.000 
#    0.000    0.000    0.000    0.000    0.000    0.000 
#
# Total GULP energy -595112.173549 kJ/mol
# GULP energy per Si atom -12398.170282 kJ/mol
# Density = 1.734272 g / cm^3
# Si number density = 17.382283 Si / 1000 Ang^3
#
#
#
# Elastic Constant Matrix: (Units=GPa)
#
#
# Indices 1 2 3 4 5 6 
#
# 1 104.0447 51.8371 102.5078 0.0000 0.0000 0.0000
# 2 51.8371 60.6057 64.8088 0.0000 0.0000 0.0000
# 3 102.5078 64.8088 161.7473 0.0000 0.0000 0.0000
# 4 0.0000 0.0000 0.0000 23.9821 0.0000 0.0000
# 5 0.0000 0.0000 0.0000 0.0000 42.4193 0.0000
# 6 0.0000 0.0000 0.0000 0.0000 0.0000 29.7855
#
#
#
# Elastic Compliance Matrix: (Units=1/GPa)
#
#
# Indices 1 2 3 4 5 6 
#
# 1 0.027984 -0.008696 -0.014250 0.000000 0.000000 0.000000
# 2 -0.008696 0.031572 -0.007139 0.000000 0.000000 0.000000
# 3 -0.014250 -0.007139 0.018074 0.000000 0.000000 0.000000
# 4 0.000000 0.000000 0.000000 0.041698 0.000000 0.000000
# 5 0.000000 0.000000 0.000000 0.000000 0.023574 0.000000
# 6 0.000000 0.000000 0.000000 0.000000 0.000000 0.033573
#
#
# Mechanical properties :
#
#
# Convention : Reuss Voigt Hill
#
# Bulk Modulus (GPa) = 57.27769 84.96723 71.12246
# Shear Modulus (GPa) = 20.62136 26.38698 23.50417
#
# Velocity S-wave (km/s) = 3.44807 3.90043 3.68120
# Velocity P-wave (km/s) = 6.99110 8.32299 7.68595
#
# Compressibility (1/GPa) = 0.01745881
#
# Stress axis : x y z
#
# Youngs Moduli (GPa) = 35.73490 31.67320 55.32747
#
# Poissons Ratio (x) = 0.27544 0.78844
# Poissons Ratio (y) = 0.31076 0.39499
# Poissons Ratio (z) = 0.50924 0.22612
#
# Static dielectric constant tensor:
#      x y z
#    x 3.299010 0.000000 0.000000 
#    y 0.000000 3.019040 0.000000 
#    z 0.000000 0.000000 3.451650 
# 
# 
# High freq. dielectric constant tensor:
#      x y z
#    x 1.673490 0.000000 0.000000 
#    y 0.000000 1.651490 0.000000 
#    z 0.000000 0.000000 1.679980 
# 
# From -- ./inp_files/12973.got.cif
#   From: 2010.03.12/outbox.cif.g09.slc.cpg/sg59_7_cif.got.tgz:12973.got - 2010.04.16 16:29:54.
