data_PCOD8244379
_publ_section_title
;
Structure prediction by ZEFSAII (Michael W. Deem and Ramdas Pophale) SiO2 
 PCOD8244379
Probable space group: P M M N
;
_chemical_formula_sum "Si O2"
_cell_formula_units_Z 40
_cell_length_a 9.008935
_cell_length_b 22.809929
_cell_length_c 10.009795
_cell_angle_alpha 90.000000
_cell_angle_beta 90.000000
_cell_angle_gamma 90.000000
_cell_volume 2056.944483
_symmetry_space_group_name_H-M "P M M N"
_symmetry_group_IT_number 59
_space_group.IT_coordinate_system_code '2'
_symmetry_cell_setting 'orthorhombic'
loop_
_space_group_symop_operation_xyz
x,y,z
1/2-x,1/2-y,z
1/2+x,-y,-z
-x,1/2+y,-z
-x,-y,-z
1/2+x,1/2+y,-z
1/2-x,y,z
x,1/2-y,z
loop_
_atom_site_type_symbol
_atom_site_label
_atom_site_fract_x
_atom_site_fract_y
_atom_site_fract_z
Si Si1 0.576253 0.558160 0.786185
Si Si2 0.077489 0.927569 0.286721
Si Si3 0.922681 0.371871 0.991226
Si Si4 0.925049 0.867815 0.529447
Si Si5 0.926260 0.250000 0.406894
Si Si6 0.426098 0.750000 0.898540
O O1 0.750000 0.560700 0.811126
O O2 0.525679 0.492441 0.753445
O O3 0.498657 0.577776 0.921998
O O4 0.527330 0.600729 0.666352
O O5 0.250000 0.926752 0.329748
O O6 0.974927 0.908626 0.408366
O O7 0.047887 0.883556 0.164184
O O8 0.750000 0.374524 0.026045
O O9 0.988930 0.307798 0.027555
O O10 0.750000 0.857345 0.522160
O O11 0.009864 0.806432 0.518046
O O12 0.750000 0.250000 0.419001
O O13 0.981844 0.250000 0.253924
O O14 0.250000 0.750000 0.904882
#
# Coordination Sequence:
#
# PCOD8244379 Si02
#       6
#     8   8   8   8   4   4
#     4  10  21  37  57  84 117 153 194 239 288 343
#     4  10  22  38  57  85 119 154 193 237 289 345
#     4  10  20  36  59  85 113 148 194 242 287 345
#     4  11  23  38  58  85 118 152 191 238 285 340
#     4  11  21  38  63  84 110 148 191 237 286 343
#     4   9  18  34  57  84 108 138 185 235 282 337
#
# _framework density 19.446318999999999
#
# number of rings (size 3 to 8) (size 9 to 14) (size 15 to 20)
#    0.000    1.800    2.000    2.100    0.000    3.200 
#    0.000    2.500    0.000    0.000    0.000    0.000 
#    0.000    0.000    0.000    0.000    0.000    0.000 
#
# Total GULP energy -496208.876013 kJ/mol
# GULP energy per Si atom -12405.221900 kJ/mol
# Density = 1.940206 g / cm^3
# Si number density = 19.446319 Si / 1000 Ang^3
#
#
#
# Elastic Constant Matrix: (Units=GPa)
#
#
# Indices 1 2 3 4 5 6 
#
# 1 49.4908 25.4363 26.5337 0.0000 0.0000 0.0000
# 2 25.4363 104.2065 5.4244 0.0000 0.0000 0.0000
# 3 26.5337 5.4244 47.7545 0.0000 0.0000 0.0000
# 4 0.0000 0.0000 0.0000 24.8774 0.0000 0.0000
# 5 0.0000 0.0000 0.0000 0.0000 27.8224 0.0000
# 6 0.0000 0.0000 0.0000 0.0000 0.0000 28.5102
#
#
#
# Elastic Compliance Matrix: (Units=1/GPa)
#
#
# Indices 1 2 3 4 5 6 
#
# 1 0.033451 -0.007241 -0.017764 0.000000 0.000000 0.000000
# 2 -0.007241 0.011221 0.002748 0.000000 0.000000 0.000000
# 3 -0.017764 0.002748 0.030498 0.000000 0.000000 0.000000
# 4 0.000000 0.000000 0.000000 0.040197 0.000000 0.000000
# 5 0.000000 0.000000 0.000000 0.000000 0.035942 0.000000
# 6 0.000000 0.000000 0.000000 0.000000 0.000000 0.035075
#
#
# Mechanical properties :
#
#
# Convention : Reuss Voigt Hill
#
# Bulk Modulus (GPa) = 32.61775 35.13787 33.87781
# Shear Modulus (GPa) = 20.73696 25.84583 23.29140
#
# Velocity S-wave (km/s) = 3.26907 3.64962 3.46457
# Velocity P-wave (km/s) = 5.57304 5.98899 5.78475
#
# Compressibility (1/GPa) = 0.03065816
#
# Stress axis : x y z
#
# Youngs Moduli (GPa) = 29.89457 89.12152 32.78874
#
# Poissons Ratio (x) = 0.64529 0.58245
# Poissons Ratio (y) = 0.21645 -0.09012
# Poissons Ratio (z) = 0.53104 -0.24495
#
# Static dielectric constant tensor:
#      x y z
#    x 3.329350 0.000000 0.000000 
#    y 0.000000 3.833130 0.000000 
#    z 0.000000 0.000000 3.475510 
# 
# 
# High freq. dielectric constant tensor:
#      x y z
#    x 1.741840 0.000000 0.000000 
#    y 0.000000 1.774160 0.000000 
#    z 0.000000 0.000000 1.757830 
# 
# From -- ./inp_files/5961.got.cif
#   From: 2010.03.12/outbox.cif.g09.slc.cpg/sg59_3_cif.got.tgz:5961.got - 2010.04.16 16:29:54.
