data_PCOD8244115
_publ_section_title
;
Structure prediction by ZEFSAII (Michael W. Deem and Ramdas Pophale) SiO2 
 PCOD8244115
Probable space group: P M M N
;
_chemical_formula_sum "Si O2"
_cell_formula_units_Z 64
_cell_length_a 8.792228
_cell_length_b 23.506279
_cell_length_c 14.823022
_cell_angle_alpha 90.000000
_cell_angle_beta 90.000000
_cell_angle_gamma 90.000000
_cell_volume 3063.511969
_symmetry_space_group_name_H-M "P M M N"
_symmetry_group_IT_number 59
_space_group.IT_coordinate_system_code '2'
_symmetry_cell_setting 'orthorhombic'
loop_
_space_group_symop_operation_xyz
x,y,z
1/2-x,1/2-y,z
1/2+x,-y,-z
-x,1/2+y,-z
-x,-y,-z
1/2+x,1/2+y,-z
1/2-x,y,z
x,1/2-y,z
loop_
_atom_site_type_symbol
_atom_site_label
_atom_site_fract_x
_atom_site_fract_y
_atom_site_fract_z
Si Si1 0.071305 0.122954 0.190236
Si Si2 0.569169 0.003255 0.214166
Si Si3 0.571536 0.315429 0.026419
Si Si4 0.426787 0.683755 0.645250
Si Si5 0.078898 0.688113 0.294875
Si Si6 0.578286 0.974708 0.412899
Si Si7 0.430396 0.893298 0.139744
Si Si8 0.921824 0.846063 0.463200
O O1 0.250000 0.112756 0.184527
O O2 0.018626 0.168283 0.116220
O O3 0.029633 0.148129 0.287117
O O4 0.987624 0.063008 0.175231
O O5 0.750000 0.000728 0.212822
O O6 0.506032 0.994439 0.316913
O O7 0.507358 0.955004 0.145992
O O8 0.750000 0.321972 0.045401
O O9 0.532804 0.250000 0.000673
O O10 0.517042 0.358796 0.948697
O O11 0.250000 0.672240 0.665485
O O12 0.466882 0.750000 0.653451
O O13 0.465397 0.660960 0.546468
O O14 0.250000 0.670387 0.323275
O O15 0.080574 0.750000 0.247164
O O16 0.011266 0.642799 0.225155
O O17 0.975691 0.694830 0.383402
O O18 0.750000 0.996618 0.415380
O O19 0.565179 0.907651 0.419287
O O20 0.500000 0.000000 0.500000
O O21 0.250000 0.900131 0.140256
O O22 0.750000 0.831165 0.493125
#
# Coordination Sequence:
#
# PCOD8244115 Si02
#       8
#     8   8   8   8   8   8   8   8
#     4  12  26  43  65  94 125 161 209 263 321 379
#     4  11  23  42  64  90 127 169 212 257 313 378
#     4  10  22  43  70  98 128 165 209 257 315 380
#     4  11  24  42  63  89 123 165 212 260 315 378
#     4  10  20  35  57  87 123 163 204 247 299 361
#     4  10  22  37  56  83 117 159 207 255 304 361
#     4  10  21  39  65  95 127 164 208 258 307 363
#     4  11  22  37  56  86 123 161 207 257 308 364
#
# _framework density 20.891055000000001
#
# number of rings (size 3 to 8) (size 9 to 14) (size 15 to 20)
#    0.000    1.375    1.250    4.125    0.000   11.000 
#    0.000    0.000    0.000    2.250    0.000    0.000 
#    0.000    0.000    0.000    0.000    0.000    0.000 
#
# Total GULP energy -793754.615789 kJ/mol
# GULP energy per Si atom -12402.415872 kJ/mol
# Density = 2.084351 g / cm^3
# Si number density = 20.891055 Si / 1000 Ang^3
#
#
#
# Elastic Constant Matrix: (Units=GPa)
#
#
# Indices 1 2 3 4 5 6 
#
# 1 57.3016 35.1277 21.1635 0.0000 0.0000 0.0000
# 2 35.1277 85.0394 48.7865 0.0000 0.0000 0.0000
# 3 21.1635 48.7865 76.3794 0.0000 0.0000 0.0000
# 4 0.0000 0.0000 0.0000 37.7410 0.0000 0.0000
# 5 0.0000 0.0000 0.0000 0.0000 9.7809 0.0000
# 6 0.0000 0.0000 0.0000 0.0000 0.0000 30.8648
#
#
#
# Elastic Compliance Matrix: (Units=1/GPa)
#
#
# Indices 1 2 3 4 5 6 
#
# 1 0.023381 -0.009378 -0.000488 0.000000 0.000000 0.000000
# 2 -0.009378 0.022322 -0.011659 0.000000 0.000000 0.000000
# 3 -0.000488 -0.011659 0.020675 0.000000 0.000000 0.000000
# 4 0.000000 0.000000 0.000000 0.026496 0.000000 0.000000
# 5 0.000000 0.000000 0.000000 0.000000 0.102240 0.000000
# 6 0.000000 0.000000 0.000000 0.000000 0.000000 0.032399
#
#
# Mechanical properties :
#
#
# Convention : Reuss Voigt Hill
#
# Bulk Modulus (GPa) = 42.86965 47.65286 45.26126
# Shear Modulus (GPa) = 17.96362 23.25353 20.60857
#
# Velocity S-wave (km/s) = 2.93554 3.33991 3.14423
# Velocity P-wave (km/s) = 5.66171 6.14272 5.90712
#
# Compressibility (1/GPa) = 0.02332653
#
# Stress axis : x y z
#
# Youngs Moduli (GPa) = 42.77007 44.79899 48.36705
#
# Poissons Ratio (x) = 0.42012 0.02363
# Poissons Ratio (y) = 0.40109 0.56393
# Poissons Ratio (z) = 0.02089 0.52233
#
# Static dielectric constant tensor:
#      x y z
#    x 2.512840 0.000000 0.000000 
#    y 0.000000 28.746510 0.000000 
#    z 0.000000 0.000000 3.764610 
# 
# 
# High freq. dielectric constant tensor:
#      x y z
#    x 1.809010 0.000000 0.000000 
#    y 0.000000 1.833090 0.000000 
#    z 0.000000 0.000000 1.818760 
# 
# From -- ./inp_files/21471.got.cif
#   From: 2010.03.12/outbox.cif.g09.slc.cpg/sg59_11_cif.got.tgz:21471.got - 2010.04.16 16:29:54.
