data_PCOD8244646
_publ_section_title
;
Structure prediction by ZEFSAII (Michael W. Deem and Ramdas Pophale) SiO2 
 PCOD8244646
Probable space group: P M M N
;
_chemical_formula_sum "Si O2"
_cell_formula_units_Z 64
_cell_length_a 18.013230
_cell_length_b 13.451533
_cell_length_c 12.945570
_cell_angle_alpha 90.000000
_cell_angle_beta 90.000000
_cell_angle_gamma 90.000000
_cell_volume 3136.783560
_symmetry_space_group_name_H-M "P M M N"
_symmetry_group_IT_number 59
_space_group.IT_coordinate_system_code '2'
_symmetry_cell_setting 'orthorhombic'
loop_
_space_group_symop_operation_xyz
x,y,z
1/2-x,1/2-y,z
1/2+x,-y,-z
-x,1/2+y,-z
-x,-y,-z
1/2+x,1/2+y,-z
1/2-x,y,z
x,1/2-y,z
loop_
_atom_site_type_symbol
_atom_site_label
_atom_site_fract_x
_atom_site_fract_y
_atom_site_fract_z
Si Si1 0.074742 0.445297 0.766571
Si Si2 0.333934 0.868033 0.458795
Si Si3 0.167412 0.132547 0.578094
Si Si4 0.428832 0.637321 0.651433
Si Si5 0.090045 0.866484 0.247314
Si Si6 0.402309 0.362659 0.371518
Si Si7 0.336439 0.365522 0.954712
Si Si8 0.336058 0.041900 0.171924
O O1 0.115060 0.392607 0.672360
O O2 0.074389 0.564430 0.750004
O O3 0.116641 0.427245 0.873060
O O4 0.993854 0.398082 0.772289
O O5 0.250000 0.910578 0.449485
O O6 0.332053 0.750000 0.461244
O O7 0.371354 0.904564 0.565654
O O8 0.384173 0.901103 0.361767
O O9 0.250000 0.093044 0.601260
O O10 0.165868 0.250000 0.564420
O O11 0.139270 0.085291 0.469069
O O12 0.409090 0.750000 0.686723
O O13 0.510594 0.633756 0.602381
O O14 0.101057 0.750000 0.228360
O O15 0.142917 0.924763 0.165464
O O16 0.374470 0.250000 0.358583
O O17 0.385476 0.416274 0.264642
O O18 0.250000 0.385318 0.933570
O O19 0.356062 0.250000 0.944738
O O20 0.359565 0.402795 0.067696
O O21 0.250000 0.058446 0.195863
#
# Coordination Sequence:
#
# PCOD8244646 Si02
#       8
#     8   8   8   8   8   8   8   8
#     4  12  23  39  62  89 121 164 207 249 305 367
#     4   9  19  36  57  83 123 172 211 245 292 358
#     4  10  21  35  57  91 126 159 199 253 310 364
#     4  10  22  39  58  86 124 165 208 252 303 361
#     4  11  23  39  60  91 125 162 204 252 303 359
#     4  10  20  38  60  89 125 157 194 253 316 365
#     4  10  23  44  68  93 122 158 202 252 304 365
#     4  11  23  40  64  91 118 157 205 250 305 368
#
# _framework density 20.403065000000002
#
# number of rings (size 3 to 8) (size 9 to 14) (size 15 to 20)
#    0.000    1.625    1.250    3.375    1.750    7.500 
#    0.000    0.625    0.000    0.750    0.000    0.000 
#    0.000    0.000    0.000    0.000    0.000    0.000 
#
# Total GULP energy -793747.648436 kJ/mol
# GULP energy per Si atom -12402.307007 kJ/mol
# Density = 2.035663 g / cm^3
# Si number density = 20.403065 Si / 1000 Ang^3
#
#
#
# Elastic Constant Matrix: (Units=GPa)
#
#
# Indices 1 2 3 4 5 6 
#
# 1 82.5291 23.6253 47.5769 0.0000 0.0000 0.0000
# 2 23.6253 63.3100 23.0158 0.0000 0.0000 0.0000
# 3 47.5769 23.0158 93.2652 0.0000 0.0000 0.0000
# 4 0.0000 0.0000 0.0000 35.9285 0.0000 0.0000
# 5 0.0000 0.0000 0.0000 0.0000 44.6867 0.0000
# 6 0.0000 0.0000 0.0000 0.0000 0.0000 26.2525
#
#
#
# Elastic Compliance Matrix: (Units=1/GPa)
#
#
# Indices 1 2 3 4 5 6 
#
# 1 0.017919 -0.003695 -0.008229 0.000000 0.000000 0.000000
# 2 -0.003695 0.018114 -0.002585 0.000000 0.000000 0.000000
# 3 -0.008229 -0.002585 0.015558 0.000000 0.000000 0.000000
# 4 0.000000 0.000000 0.000000 0.027833 0.000000 0.000000
# 5 0.000000 0.000000 0.000000 0.000000 0.022378 0.000000
# 6 0.000000 0.000000 0.000000 0.000000 0.000000 0.038092
#
#
# Mechanical properties :
#
#
# Convention : Reuss Voigt Hill
#
# Bulk Modulus (GPa) = 44.30238 47.50445 45.90342
# Shear Modulus (GPa) = 28.33901 31.03263 29.68582
#
# Velocity S-wave (km/s) = 3.73092 3.90420 3.81854
# Velocity P-wave (km/s) = 6.34983 6.60737 6.47988
#
# Compressibility (1/GPa) = 0.02257215
#
# Stress axis : x y z
#
# Youngs Moduli (GPa) = 55.80824 55.20591 64.27648
#
# Poissons Ratio (x) = 0.20399 0.52892
# Poissons Ratio (y) = 0.20622 0.16617
# Poissons Ratio (z) = 0.45923 0.14272
#
# Static dielectric constant tensor:
#      x y z
#    x 14.424080 0.000000 0.000000 
#    y 0.000000 3.976030 0.000000 
#    z 0.000000 0.000000 3.537490 
# 
# 
# High freq. dielectric constant tensor:
#      x y z
#    x 1.805640 0.000000 0.000000 
#    y 0.000000 1.816070 0.000000 
#    z 0.000000 0.000000 1.775080 
# 
# From -- ./inp_files/17869.got.cif
#   From: 2010.03.12/outbox.cif.g09.slc.cpg/sg59_9_cif.got.tgz:17869.got - 2010.04.16 16:29:54.
