data_PCOD8244841
_publ_section_title
;
Structure prediction by ZEFSAII (Michael W. Deem and Ramdas Pophale) SiO2 
 PCOD8244841
Probable space group: P M M N
;
_chemical_formula_sum "Si O2"
_cell_formula_units_Z 56
_cell_length_a 14.754464
_cell_length_b 30.525928
_cell_length_c 6.754391
_cell_angle_alpha 90.000000
_cell_angle_beta 90.000000
_cell_angle_gamma 90.000000
_cell_volume 3042.135193
_symmetry_space_group_name_H-M "P M M N"
_symmetry_group_IT_number 59
_space_group.IT_coordinate_system_code '2'
_symmetry_cell_setting 'orthorhombic'
loop_
_space_group_symop_operation_xyz
x,y,z
1/2-x,1/2-y,z
1/2+x,-y,-z
-x,1/2+y,-z
-x,-y,-z
1/2+x,1/2+y,-z
1/2-x,y,z
x,1/2-y,z
loop_
_atom_site_type_symbol
_atom_site_label
_atom_site_fract_x
_atom_site_fract_y
_atom_site_fract_z
Si Si1 0.932370 0.535723 0.910872
Si Si2 0.149908 0.636800 0.914308
Si Si3 0.645321 0.198809 0.436382
Si Si4 0.927271 0.429231 0.358063
Si Si5 0.465292 0.864250 0.302051
Si Si6 0.146326 0.092599 0.741587
Si Si7 0.350290 0.013033 0.474009
O O1 0.865660 0.510175 0.761408
O O2 0.984087 0.572429 0.780018
O O3 0.874306 0.561370 0.072590
O O4 0.000000 0.500000 0.000000
O O5 0.250000 0.641537 0.007495
O O6 0.077275 0.631572 0.086070
O O7 0.125669 0.679230 0.781031
O O8 0.150766 0.594738 0.768347
O O9 0.750000 0.188741 0.499818
O O10 0.626808 0.250000 0.425727
O O11 0.572851 0.179515 0.593777
O O12 0.936685 0.406050 0.569478
O O13 0.912741 0.480403 0.400234
O O14 0.575319 0.866566 0.275743
O O15 0.250000 0.110505 0.757730
O O16 0.134014 0.062704 0.546860
O O17 0.250000 0.996580 0.519426
#
# Coordination Sequence:
#
# PCOD8244841 Si02
#       7
#     8   8   8   8   8   8   8
#     4  12  21  36  53  72 103 151 198 248 292 327
#     4  10  21  35  55  83 115 148 181 222 276 337
#     4   9  20  39  62  91 120 141 172 216 268 341
#     4  11  21  35  52  76 110 145 191 241 286 329
#     4  11  21  37  59  83 114 151 184 225 282 336
#     4  11  23  38  55  80 111 150 200 247 288 330
#     4  11  23  36  51  74 106 149 199 246 290 330
#
# _framework density 18.408124000000001
#
# number of rings (size 3 to 8) (size 9 to 14) (size 15 to 20)
#    0.000    1.286    4.286    2.571    0.000    2.286 
#    0.000    1.429    0.000    0.429    0.000    0.000 
#    0.000    0.000    0.000    0.000    0.000    0.000 
#
# Total GULP energy -694111.890407 kJ/mol
# GULP energy per Si atom -12394.855186 kJ/mol
# Density = 1.836623 g / cm^3
# Si number density = 18.408124 Si / 1000 Ang^3
#
#
#
# Elastic Constant Matrix: (Units=GPa)
#
#
# Indices 1 2 3 4 5 6 
#
# 1 116.0465 48.0637 56.6639 0.0000 0.0000 0.0000
# 2 48.0637 78.9018 32.9131 0.0000 0.0000 0.0000
# 3 56.6639 32.9131 105.5668 0.0000 0.0000 0.0000
# 4 0.0000 0.0000 0.0000 20.4102 0.0000 0.0000
# 5 0.0000 0.0000 0.0000 0.0000 31.1023 0.0000
# 6 0.0000 0.0000 0.0000 0.0000 0.0000 24.1476
#
#
#
# Elastic Compliance Matrix: (Units=1/GPa)
#
#
# Indices 1 2 3 4 5 6 
#
# 1 0.013856 -0.006136 -0.005524 0.000000 0.000000 0.000000
# 2 -0.006136 0.017286 -0.002096 0.000000 0.000000 0.000000
# 3 -0.005524 -0.002096 0.013091 0.000000 0.000000 0.000000
# 4 0.000000 0.000000 0.000000 0.048995 0.000000 0.000000
# 5 0.000000 0.000000 0.000000 0.000000 0.032152 0.000000
# 6 0.000000 0.000000 0.000000 0.000000 0.000000 0.041412
#
#
# Mechanical properties :
#
#
# Convention : Reuss Voigt Hill
#
# Bulk Modulus (GPa) = 59.80461 63.97738 61.89099
# Shear Modulus (GPa) = 25.01518 25.99032 25.50275
#
# Velocity S-wave (km/s) = 3.69035 3.76159 3.72614
# Velocity P-wave (km/s) = 7.12158 7.32779 7.22542
#
# Compressibility (1/GPa) = 0.01672112
#
# Stress axis : x y z
#
# Youngs Moduli (GPa) = 72.17031 57.85000 76.38679
#
# Poissons Ratio (x) = 0.35498 0.42198
# Poissons Ratio (y) = 0.44285 0.16009
# Poissons Ratio (z) = 0.39869 0.12124
#
# Static dielectric constant tensor:
#      x y z
#    x 3.514400 0.000000 0.000000 
#    y 0.000000 3.142200 0.000000 
#    z 0.000000 0.000000 3.501220 
# 
# 
# High freq. dielectric constant tensor:
#      x y z
#    x 1.712710 0.000000 0.000000 
#    y 0.000000 1.673750 0.000000 
#    z 0.000000 0.000000 1.732010 
# 
# From -- ./inp_files/2291.got.cif
#   From: 2010.03.12/outbox.cif.g09.slc.cpg/sg59_2_cif.got.tgz:2291.got - 2010.04.16 16:29:54.
