data_PCOD8244915
_publ_section_title
;
Structure prediction by ZEFSAII (Michael W. Deem and Ramdas Pophale) SiO2 
 PCOD8244915
Probable space group: P M M N
;
_chemical_formula_sum "Si O2"
_cell_formula_units_Z 48
_cell_length_a 9.385020
_cell_length_b 15.637679
_cell_length_c 16.780837
_cell_angle_alpha 90.000000
_cell_angle_beta 90.000000
_cell_angle_gamma 90.000000
_cell_volume 2462.754466
_symmetry_space_group_name_H-M "P M M N"
_symmetry_group_IT_number 59
_space_group.IT_coordinate_system_code '2'
_symmetry_cell_setting 'orthorhombic'
loop_
_space_group_symop_operation_xyz
x,y,z
1/2-x,1/2-y,z
1/2+x,-y,-z
-x,1/2+y,-z
-x,-y,-z
1/2+x,1/2+y,-z
1/2-x,y,z
x,1/2-y,z
loop_
_atom_site_type_symbol
_atom_site_label
_atom_site_fract_x
_atom_site_fract_y
_atom_site_fract_z
Si Si1 0.413231 0.153921 0.196227
Si Si2 0.912677 0.344701 0.809929
Si Si3 0.587004 0.850008 0.511704
Si Si4 0.088335 0.105517 0.663685
Si Si5 0.086990 0.908039 0.658542
Si Si6 0.582088 0.500397 0.917928
O O1 0.250000 0.135539 0.220976
O O2 0.430327 0.250000 0.161358
O O3 0.507802 0.147830 0.275216
O O4 0.462385 0.085891 0.129891
O O5 0.750000 0.366492 0.789050
O O6 0.927496 0.250000 0.848792
O O7 0.970788 0.416345 0.870404
O O8 0.997198 0.343373 0.727559
O O9 0.750000 0.881728 0.521693
O O10 0.575024 0.750000 0.527842
O O11 0.529260 0.873493 0.424115
O O12 0.487253 0.898821 0.573403
O O13 0.250000 0.138679 0.669513
O O14 0.077293 0.006038 0.684206
O O15 0.250000 0.876950 0.652085
O O16 0.750000 0.497718 0.934819
O O17 0.500000 0.500000 0.000000
#
# Coordination Sequence:
#
# PCOD8244915 Si02
#       6
#     8   8   8   8   8   8
#     4  10  21  39  62  85 113 154 196 231 278 340
#     4  10  21  38  61  88 117 151 189 232 287 342
#     4  10  21  36  53  76 110 153 197 238 284 338
#     4  10  21  37  57  82 113 152 196 238 283 337
#     4  11  22  35  55  84 115 149 193 242 289 334
#     4  10  22  40  61  87 118 149 185 232 281 341
#
# _framework density 19.490372000000001
#
# number of rings (size 3 to 8) (size 9 to 14) (size 15 to 20)
#    0.000    1.833    1.667    2.000    0.000    7.000 
#    0.000    0.000    0.000    0.000    0.000    0.000 
#    0.000    0.000    0.000    0.000    0.000    0.000 
#
# Total GULP energy -595376.425174 kJ/mol
# GULP energy per Si atom -12403.675524 kJ/mol
# Density = 1.944601 g / cm^3
# Si number density = 19.490372 Si / 1000 Ang^3
#
#
#
# Elastic Constant Matrix: (Units=GPa)
#
#
# Indices 1 2 3 4 5 6 
#
# 1 75.6235 33.5459 60.2037 0.0000 0.0000 0.0000
# 2 33.5459 109.6038 50.3176 0.0000 0.0000 0.0000
# 3 60.2037 50.3176 140.5661 0.0000 0.0000 0.0000
# 4 0.0000 0.0000 0.0000 21.4020 0.0000 0.0000
# 5 0.0000 0.0000 0.0000 0.0000 40.2593 0.0000
# 6 0.0000 0.0000 0.0000 0.0000 0.0000 15.8233
#
#
#
# Elastic Compliance Matrix: (Units=1/GPa)
#
#
# Indices 1 2 3 4 5 6 
#
# 1 0.020718 -0.002713 -0.007902 0.000000 0.000000 0.000000
# 2 -0.002713 0.011273 -0.002873 0.000000 0.000000 0.000000
# 3 -0.007902 -0.002873 0.011527 0.000000 0.000000 0.000000
# 4 0.000000 0.000000 0.000000 0.046725 0.000000 0.000000
# 5 0.000000 0.000000 0.000000 0.000000 0.024839 0.000000
# 6 0.000000 0.000000 0.000000 0.000000 0.000000 0.063198
#
#
# Mechanical properties :
#
#
# Convention : Reuss Voigt Hill
#
# Bulk Modulus (GPa) = 60.45657 68.21418 64.33538
# Shear Modulus (GPa) = 23.72244 27.61199 25.66721
#
# Velocity S-wave (km/s) = 3.49253 3.76799 3.63287
# Velocity P-wave (km/s) = 6.88111 7.34882 7.11881
#
# Compressibility (1/GPa) = 0.01654080
#
# Stress axis : x y z
#
# Youngs Moduli (GPa) = 48.26764 88.70497 86.75226
#
# Poissons Ratio (x) = 0.24068 0.68552
# Poissons Ratio (y) = 0.13096 0.24927
# Poissons Ratio (z) = 0.38141 0.25488
#
# Static dielectric constant tensor:
#      x y z
#    x 3.524990 0.000000 0.000000 
#    y 0.000000 3.719490 0.000000 
#    z 0.000000 0.000000 3.359110 
# 
# 
# High freq. dielectric constant tensor:
#      x y z
#    x 1.752610 0.000000 0.000000 
#    y 0.000000 1.774410 0.000000 
#    z 0.000000 0.000000 1.748980 
# 
# From -- ./inp_files/25430.got.cif
#   From: 2010.03.12/outbox.cif.g09.slc.cpg/sg59_13_cif.got.tgz:25430.got - 2010.04.16 16:29:54.
