data_PCOD8244320
_publ_section_title
;
Structure prediction by ZEFSAII (Michael W. Deem and Ramdas Pophale) SiO2 
 PCOD8244320
Probable space group: P M M N
;
_chemical_formula_sum "Si O2"
_cell_formula_units_Z 56
_cell_length_a 21.938393
_cell_length_b 8.957154
_cell_length_c 14.840564
_cell_angle_alpha 90.000000
_cell_angle_beta 90.000000
_cell_angle_gamma 90.000000
_cell_volume 2916.253408
_symmetry_space_group_name_H-M "P M M N"
_symmetry_group_IT_number 59
_space_group.IT_coordinate_system_code '2'
_symmetry_cell_setting 'orthorhombic'
loop_
_space_group_symop_operation_xyz
x,y,z
1/2-x,1/2-y,z
1/2+x,-y,-z
-x,1/2+y,-z
-x,-y,-z
1/2+x,1/2+y,-z
1/2-x,y,z
x,1/2-y,z
loop_
_atom_site_type_symbol
_atom_site_label
_atom_site_fract_x
_atom_site_fract_y
_atom_site_fract_z
Si Si1 0.127585 0.926948 0.638207
Si Si2 0.681596 0.574529 0.730238
Si Si3 0.180124 0.075059 0.474780
Si Si4 0.750000 0.074746 0.069817
Si Si5 0.750000 0.072831 0.268345
Si Si6 0.054083 0.073034 0.789620
Si Si7 0.579204 0.424819 0.847691
Si Si8 0.382713 0.925359 0.958529
O O1 0.119011 0.750000 0.639643
O O2 0.189954 0.985462 0.682436
O O3 0.131262 0.985187 0.535563
O O4 0.072712 0.001190 0.694146
O O5 0.750000 0.516987 0.751855
O O6 0.678645 0.750000 0.743709
O O7 0.664264 0.532797 0.627849
O O8 0.634731 0.500833 0.797627
O O9 0.250000 0.027216 0.496013
O O10 0.171816 0.250000 0.492035
O O11 0.750000 0.250000 0.083166
O O12 0.750000 0.002318 0.169114
O O13 0.812313 0.027602 0.019577
O O14 0.750000 0.250000 0.267938
O O15 0.060849 0.250000 0.785016
O O16 0.984539 0.023003 0.805901
O O17 0.094897 0.013502 0.871389
O O18 0.589281 0.250000 0.838321
O O19 0.578846 0.470276 0.953358
O O20 0.387935 0.750000 0.936061
#
# Coordination Sequence:
#
# PCOD8244320 Si02
#       8
#     8   8   8   4   4   8   8   8
#     4  11  20  33  55  83 113 148 187 226 273 331
#     4   9  20  39  61  85 115 146 180 227 282 337
#     4   9  18  34  56  84 116 147 177 220 282 339
#     4   9  16  30  52  79 110 137 173 228 274 320
#     4   9  16  28  48  77 110 139 175 224 268 320
#     4  11  23  38  53  79 116 152 189 232 275 328
#     4  10  23  39  58  82 110 147 194 237 275 323
#     4  10  20  36  58  82 109 147 189 230 279 330
#
# _framework density 19.202721
#
# number of rings (size 3 to 8) (size 9 to 14) (size 15 to 20)
#    0.000    2.143    2.143    2.143    1.000    2.571 
#    0.000    3.214    0.000    0.000    0.000    0.000 
#    0.000    0.000    0.000    0.000    0.000    0.000 
#
# Total GULP energy -694295.908739 kJ/mol
# GULP energy per Si atom -12398.141227 kJ/mol
# Density = 1.915901 g / cm^3
# Si number density = 19.202721 Si / 1000 Ang^3
#
#
#
# Elastic Constant Matrix: (Units=GPa)
#
#
# Indices 1 2 3 4 5 6 
#
# 1 92.5852 28.9908 31.7247 0.0000 0.0000 0.0000
# 2 28.9908 49.8042 28.4679 0.0000 0.0000 0.0000
# 3 31.7247 28.4679 77.7860 0.0000 0.0000 0.0000
# 4 0.0000 0.0000 0.0000 33.5935 0.0000 0.0000
# 5 0.0000 0.0000 0.0000 0.0000 26.1714 0.0000
# 6 0.0000 0.0000 0.0000 0.0000 0.0000 27.6101
#
#
#
# Elastic Compliance Matrix: (Units=1/GPa)
#
#
# Indices 1 2 3 4 5 6 
#
# 1 0.013893 -0.006131 -0.003423 0.000000 0.000000 0.000000
# 2 -0.006131 0.028095 -0.007782 0.000000 0.000000 0.000000
# 3 -0.003423 -0.007782 0.017100 0.000000 0.000000 0.000000
# 4 0.000000 0.000000 0.000000 0.029768 0.000000 0.000000
# 5 0.000000 0.000000 0.000000 0.000000 0.038210 0.000000
# 6 0.000000 0.000000 0.000000 0.000000 0.000000 0.036219
#
#
# Mechanical properties :
#
#
# Convention : Reuss Voigt Hill
#
# Bulk Modulus (GPa) = 40.95370 44.28247 42.61809
# Shear Modulus (GPa) = 24.26074 26.20780 25.23427
#
# Velocity S-wave (km/s) = 3.55829 3.69832 3.62898
# Velocity P-wave (km/s) = 6.18508 6.43019 6.30883
#
# Compressibility (1/GPa) = 0.02441782
#
# Stress axis : x y z
#
# Youngs Moduli (GPa) = 71.97678 35.59294 58.48079
#
# Poissons Ratio (x) = 0.21822 0.20016
# Poissons Ratio (y) = 0.44128 0.45509
# Poissons Ratio (z) = 0.24635 0.27698
#
# Static dielectric constant tensor:
#      x y z
#    x 3.658840 0.000000 0.000000 
#    y 0.000000 3.265380 0.000000 
#    z 0.000000 0.000000 3.581840 
# 
# 
# High freq. dielectric constant tensor:
#      x y z
#    x 1.742050 0.000000 0.000000 
#    y 0.000000 1.728730 0.000000 
#    z 0.000000 0.000000 1.751580 
# 
# From -- ./inp_files/24362.got.cif
#   From: 2010.03.12/outbox.cif.g09.slc.cpg/sg59_13_cif.got.tgz:24362.got - 2010.04.16 16:29:54.
