data_PCOD8244627
_publ_section_title
;
Structure prediction by ZEFSAII (Michael W. Deem and Ramdas Pophale) SiO2 
 PCOD8244627
Probable space group: P M M N
;
_chemical_formula_sum "Si O2"
_cell_formula_units_Z 48
_cell_length_a 9.899807
_cell_length_b 9.238207
_cell_length_c 28.955822
_cell_angle_alpha 90.000000
_cell_angle_beta 90.000000
_cell_angle_gamma 90.000000
_cell_volume 2648.197160
_symmetry_space_group_name_H-M "P M M N"
_symmetry_group_IT_number 59
_space_group.IT_coordinate_system_code '2'
_symmetry_cell_setting 'orthorhombic'
loop_
_space_group_symop_operation_xyz
x,y,z
1/2-x,1/2-y,z
1/2+x,-y,-z
-x,1/2+y,-z
-x,-y,-z
1/2+x,1/2+y,-z
1/2-x,y,z
x,1/2-y,z
loop_
_atom_site_type_symbol
_atom_site_label
_atom_site_fract_x
_atom_site_fract_y
_atom_site_fract_z
Si Si1 0.406819 0.080405 0.773635
Si Si2 0.410087 0.909803 0.862022
Si Si3 0.095800 0.920962 0.964436
Si Si4 0.034991 0.419853 0.400355
Si Si5 0.250000 0.922957 0.460273
Si Si6 0.596190 0.583167 0.704282
Si Si7 0.250000 0.919795 0.564450
O O1 0.250000 0.039858 0.765573
O O2 0.429766 0.250000 0.774661
O O3 0.460718 0.018657 0.822489
O O4 0.493892 0.014760 0.732632
O O5 0.250000 0.899960 0.862376
O O6 0.470077 0.750000 0.851560
O O7 0.455215 0.963455 0.912837
O O8 0.250000 0.972392 0.972308
O O9 0.084711 0.750000 0.971433
O O10 0.000000 0.000000 0.000000
O O11 0.057839 0.250000 0.410731
O O12 0.117619 0.514404 0.436339
O O13 0.082250 0.458920 0.349115
O O14 0.880148 0.468907 0.406490
O O15 0.250000 0.750000 0.456813
O O16 0.250000 0.982830 0.512663
O O17 0.750000 0.553690 0.720067
O O18 0.556263 0.750000 0.712072
O O19 0.250000 0.750000 0.558903
#
# Coordination Sequence:
#
# PCOD8244627 Si02
#       7
#     8   8   8   8   4   8   4
#     4  10  21  35  54  82 110 135 168 215 270 323
#     4   8  15  31  53  75 102 139 181 222 261 306
#     4   9  18  32  51  77 108 141 180 223 265 312
#     4  10  20  38  59  79 105 140 180 219 256 307
#     4  11  21  35  55  83 113 143 173 209 264 319
#     4  10  21  37  57  79 101 135 181 218 256 311
#     4   9  20  35  57  85 109 135 177 223 260 303
#
# _framework density 18.125539
#
# number of rings (size 3 to 8) (size 9 to 14) (size 15 to 20)
#    0.000    2.500    0.833    2.250    1.167    3.000 
#    0.000    3.750    0.000    1.000    0.000    0.000 
#    0.000    0.000    0.000    0.000    0.000    0.000 
#
# Total GULP energy -595135.602367 kJ/mol
# GULP energy per Si atom -12398.658383 kJ/mol
# Density = 1.808428 g / cm^3
# Si number density = 18.125539 Si / 1000 Ang^3
#
#
#
# Elastic Constant Matrix: (Units=GPa)
#
#
# Indices 1 2 3 4 5 6 
#
# 1 88.2382 38.9507 40.8723 0.0000 0.0000 0.0000
# 2 38.9507 68.1532 50.1071 0.0000 0.0000 0.0000
# 3 40.8723 50.1071 101.3188 0.0000 0.0000 0.0000
# 4 0.0000 0.0000 0.0000 33.0673 0.0000 0.0000
# 5 0.0000 0.0000 0.0000 0.0000 31.8026 0.0000
# 6 0.0000 0.0000 0.0000 0.0000 0.0000 30.1112
#
#
#
# Elastic Compliance Matrix: (Units=1/GPa)
#
#
# Indices 1 2 3 4 5 6 
#
# 1 0.015710 -0.006787 -0.002981 0.000000 0.000000 0.000000
# 2 -0.006787 0.025988 -0.010115 0.000000 0.000000 0.000000
# 3 -0.002981 -0.010115 0.016074 0.000000 0.000000 0.000000
# 4 0.000000 0.000000 0.000000 0.030241 0.000000 0.000000
# 5 0.000000 0.000000 0.000000 0.000000 0.031444 0.000000
# 6 0.000000 0.000000 0.000000 0.000000 0.000000 0.033210
#
#
# Mechanical properties :
#
#
# Convention : Reuss Voigt Hill
#
# Bulk Modulus (GPa) = 55.53191 57.50783 56.51987
# Shear Modulus (GPa) = 25.19726 27.51488 26.35607
#
# Velocity S-wave (km/s) = 3.73252 3.90040 3.81738
# Velocity P-wave (km/s) = 7.01994 7.21669 7.11899
#
# Compressibility (1/GPa) = 0.01800766
#
# Stress axis : x y z
#
# Youngs Moduli (GPa) = 63.65556 38.47953 62.21035
#
# Poissons Ratio (x) = 0.26115 0.18545
# Poissons Ratio (y) = 0.43201 0.62923
# Poissons Ratio (z) = 0.18975 0.38920
#
# Static dielectric constant tensor:
#      x y z
#    x 3.667940 0.000000 0.000000 
#    y 0.000000 3.294670 0.000000 
#    z 0.000000 0.000000 3.565910 
# 
# 
# High freq. dielectric constant tensor:
#      x y z
#    x 1.691350 0.000000 0.000000 
#    y 0.000000 1.690040 0.000000 
#    z 0.000000 0.000000 1.711820 
# 
# From -- ./inp_files/32979.got.cif
#   From: 2010.03.12/outbox.cif.g09.slc.cpg/sg59_17_cif.got.tgz:32979.got - 2010.04.16 16:29:54.
