data_PCOD8244288
_publ_section_title
;
Structure prediction by ZEFSAII (Michael W. Deem and Ramdas Pophale) SiO2 
 PCOD8244288
Probable space group: P M M N
;
_chemical_formula_sum "Si O2"
_cell_formula_units_Z 56
_cell_length_a 8.839650
_cell_length_b 18.354295
_cell_length_c 17.634576
_cell_angle_alpha 90.000000
_cell_angle_beta 90.000000
_cell_angle_gamma 90.000000
_cell_volume 2861.131373
_symmetry_space_group_name_H-M "P M M N"
_symmetry_group_IT_number 59
_space_group.IT_coordinate_system_code '2'
_symmetry_cell_setting 'orthorhombic'
loop_
_space_group_symop_operation_xyz
x,y,z
1/2-x,1/2-y,z
1/2+x,-y,-z
-x,1/2+y,-z
-x,-y,-z
1/2+x,1/2+y,-z
1/2-x,y,z
x,1/2-y,z
loop_
_atom_site_type_symbol
_atom_site_label
_atom_site_fract_x
_atom_site_fract_y
_atom_site_fract_z
Si Si1 0.070989 0.922922 0.522059
Si Si2 0.070360 0.580398 0.237375
Si Si3 0.427209 0.929954 0.961601
Si Si4 0.426307 0.078820 0.199063
Si Si5 0.429665 0.831347 0.379236
Si Si6 0.072710 0.333587 0.344827
Si Si7 0.071288 0.830265 0.096178
O O1 0.250000 0.932702 0.525788
O O2 0.019443 0.865492 0.458529
O O3 0.013285 0.890232 0.601207
O O4 0.000000 0.000000 0.500000
O O5 0.250000 0.586223 0.238843
O O6 0.019249 0.496528 0.237673
O O7 0.002019 0.619982 0.311284
O O8 0.003186 0.618856 0.162334
O O9 0.250000 0.944143 0.957953
O O10 0.485697 0.909285 0.878731
O O11 0.470188 0.861621 0.014128
O O12 0.500000 0.000000 0.000000
O O13 0.250000 0.074792 0.178743
O O14 0.462160 0.143755 0.257872
O O15 0.250000 0.829000 0.373300
O O16 0.497024 0.750000 0.373565
O O17 0.250000 0.341065 0.361705
O O18 0.017783 0.250000 0.356561
O O19 0.250000 0.826308 0.106814
O O20 0.999470 0.750000 0.103093
#
# Coordination Sequence:
#
# PCOD8244288 Si02
#       7
#     8   8   8   8   8   8   8
#     4  11  22  37  58  85 118 154 197 246 293 348
#     4   9  15  27  49  76 105 137 175 221 271 326
#     4  11  21  35  55  81 111 145 186 234 284 341
#     4  10  20  36  57  81 110 147 191 234 281 344
#     4   9  17  29  49  79 110 140 177 224 277 332
#     4  10  22  40  61  86 119 158 198 244 301 361
#     4   9  17  29  48  76 106 136 176 227 276 325
#
# _framework density 19.572678
#
# number of rings (size 3 to 8) (size 9 to 14) (size 15 to 20)
#    0.000    2.143    1.429    2.571    0.000    6.000 
#    0.000    0.000    0.000    1.286    0.000    0.000 
#    0.000    0.000    0.000    0.000    0.000    0.000 
#
# Total GULP energy -694336.879167 kJ/mol
# GULP energy per Si atom -12398.872842 kJ/mol
# Density = 1.952813 g / cm^3
# Si number density = 19.572678 Si / 1000 Ang^3
#
#
#
# Elastic Constant Matrix: (Units=GPa)
#
#
# Indices 1 2 3 4 5 6 
#
# 1 46.5127 27.8436 36.1182 0.0000 0.0000 0.0000
# 2 27.8436 118.8551 40.2945 0.0000 0.0000 0.0000
# 3 36.1182 40.2945 128.3780 0.0000 0.0000 0.0000
# 4 0.0000 0.0000 0.0000 37.5543 0.0000 0.0000
# 5 0.0000 0.0000 0.0000 0.0000 29.6213 0.0000
# 6 0.0000 0.0000 0.0000 0.0000 0.0000 20.0865
#
#
#
# Elastic Compliance Matrix: (Units=1/GPa)
#
#
# Indices 1 2 3 4 5 6 
#
# 1 0.029598 -0.004600 -0.006883 0.000000 0.000000 0.000000
# 2 -0.004600 0.010130 -0.001885 0.000000 0.000000 0.000000
# 3 -0.006883 -0.001885 0.010318 0.000000 0.000000 0.000000
# 4 0.000000 0.000000 0.000000 0.026628 0.000000 0.000000
# 5 0.000000 0.000000 0.000000 0.000000 0.033760 0.000000
# 6 0.000000 0.000000 0.000000 0.000000 0.000000 0.049785
#
#
# Mechanical properties :
#
#
# Convention : Reuss Voigt Hill
#
# Bulk Modulus (GPa) = 42.90259 55.80649 49.35454
# Shear Modulus (GPa) = 25.67700 30.08506 27.88103
#
# Velocity S-wave (km/s) = 3.62592 3.92483 3.77833
# Velocity P-wave (km/s) = 6.28466 7.00810 6.65621
#
# Compressibility (1/GPa) = 0.02330862
#
# Stress axis : x y z
#
# Youngs Moduli (GPa) = 33.78555 98.71193 96.91904
#
# Poissons Ratio (x) = 0.45410 0.66713
# Poissons Ratio (y) = 0.15542 0.18274
# Poissons Ratio (z) = 0.23256 0.18612
#
# Static dielectric constant tensor:
#      x y z
#    x 3.145410 0.000000 0.000000 
#    y 0.000000 3.864190 0.000000 
#    z 0.000000 0.000000 3.745860 
# 
# 
# High freq. dielectric constant tensor:
#      x y z
#    x 1.714300 0.000000 0.000000 
#    y 0.000000 1.774700 0.000000 
#    z 0.000000 0.000000 1.777670 
# 
# From -- ./inp_files/21016.got.cif
#   From: 2010.03.12/outbox.cif.g09.slc.cpg/sg59_11_cif.got.tgz:21016.got - 2010.04.16 16:29:54.
