data_PCOD8244651
_publ_section_title
;
Structure prediction by ZEFSAII (Michael W. Deem and Ramdas Pophale) SiO2 
 PCOD8244651
Probable space group: P M M N
;
_chemical_formula_sum "Si O2"
_cell_formula_units_Z 48
_cell_length_a 8.787197
_cell_length_b 9.922459
_cell_length_c 27.536191
_cell_angle_alpha 90.000000
_cell_angle_beta 90.000000
_cell_angle_gamma 90.000000
_cell_volume 2400.897069
_symmetry_space_group_name_H-M "P M M N"
_symmetry_group_IT_number 59
_space_group.IT_coordinate_system_code '2'
_symmetry_cell_setting 'orthorhombic'
loop_
_space_group_symop_operation_xyz
x,y,z
1/2-x,1/2-y,z
1/2+x,-y,-z
-x,1/2+y,-z
-x,-y,-z
1/2+x,1/2+y,-z
1/2-x,y,z
x,1/2-y,z
loop_
_atom_site_type_symbol
_atom_site_label
_atom_site_fract_x
_atom_site_fract_y
_atom_site_fract_z
Si Si1 0.922737 0.750000 0.098111
Si Si2 0.073235 0.494037 0.729580
Si Si3 0.071624 0.250000 0.227134
Si Si4 0.568989 0.750000 0.882920
Si Si5 0.926614 0.905138 0.379666
Si Si6 0.079062 0.250000 0.787936
Si Si7 0.570493 0.996630 0.947108
Si Si8 0.069883 0.091891 0.457835
O O1 0.750000 0.750000 0.077303
O O2 0.922103 0.750000 0.155196
O O3 0.019541 0.873778 0.081035
O O4 0.250000 0.526887 0.738744
O O5 0.044351 0.436970 0.676264
O O6 0.003229 0.384856 0.767107
O O7 0.978118 0.625800 0.740207
O O8 0.250000 0.250000 0.221293
O O9 0.000969 0.250000 0.172117
O O10 0.750000 0.750000 0.880382
O O11 0.507786 0.624092 0.913852
O O12 0.750000 0.921255 0.393666
O O13 0.977949 0.750000 0.390880
O O14 0.022118 0.017752 0.408296
O O15 0.250000 0.250000 0.766301
O O16 0.750000 0.989116 0.952974
O O17 0.500000 0.000000 0.000000
O O18 0.250000 0.090023 0.463102
O O19 0.013894 0.250000 0.459292
O O20 0.000000 0.000000 0.500000
#
# Coordination Sequence:
#
# PCOD8244651 Si02
#       8
#     4   8   4   4   8   4   8   8
#     4  11  22  36  57  88 120 153 193 242 297 358
#     4  10  20  38  61  87 117 156 201 247 298 351
#     4  11  23  38  56  83 119 157 196 242 295 359
#     4   9  21  40  59  80 114 155 193 240 301 358
#     4  10  21  39  64  91 121 159 204 251 301 357
#     4   9  18  36  62  87 115 151 200 252 293 345
#     4  11  22  39  61  85 114 151 195 246 302 362
#     4  11  25  43  64  93 128 164 205 253 303 357
#
# _framework density 19.992528
#
# number of rings (size 3 to 8) (size 9 to 14) (size 15 to 20)
#    0.000    1.667    0.833    3.500    1.167    5.000 
#    0.000    5.000    0.000    0.000    0.000    0.000 
#    0.000    0.000    0.000    0.000    0.000    0.000 
#
# Total GULP energy -595048.210531 kJ/mol
# GULP energy per Si atom -12396.837719 kJ/mol
# Density = 1.994702 g / cm^3
# Si number density = 19.992528 Si / 1000 Ang^3
#
#
#
# Elastic Constant Matrix: (Units=GPa)
#
#
# Indices 1 2 3 4 5 6 
#
# 1 57.5153 40.5339 29.8794 0.0000 0.0000 0.0000
# 2 40.5339 184.4427 49.8520 0.0000 0.0000 0.0000
# 3 29.8794 49.8520 86.8913 0.0000 0.0000 0.0000
# 4 0.0000 0.0000 0.0000 55.3242 0.0000 0.0000
# 5 0.0000 0.0000 0.0000 0.0000 31.5614 0.0000
# 6 0.0000 0.0000 0.0000 0.0000 0.0000 19.0145
#
#
#
# Elastic Compliance Matrix: (Units=1/GPa)
#
#
# Indices 1 2 3 4 5 6 
#
# 1 0.022868 -0.003432 -0.005894 0.000000 0.000000 0.000000
# 2 -0.003432 0.006932 -0.002797 0.000000 0.000000 0.000000
# 3 -0.005894 -0.002797 0.015140 0.000000 0.000000 0.000000
# 4 0.000000 0.000000 0.000000 0.018075 0.000000 0.000000
# 5 0.000000 0.000000 0.000000 0.000000 0.031684 0.000000
# 6 0.000000 0.000000 0.000000 0.000000 0.000000 0.052591
#
#
# Mechanical properties :
#
#
# Convention : Reuss Voigt Hill
#
# Bulk Modulus (GPa) = 48.32573 63.26444 55.79509
# Shear Modulus (GPa) = 28.02136 35.08563 31.55349
#
# Velocity S-wave (km/s) = 3.74784 4.19374 3.97705
# Velocity P-wave (km/s) = 6.55384 7.42716 7.00412
#
# Compressibility (1/GPa) = 0.02069291
#
# Stress axis : x y z
#
# Youngs Moduli (GPa) = 43.72970 144.25907 66.04975
#
# Poissons Ratio (x) = 0.49515 0.38932
# Poissons Ratio (y) = 0.15010 0.18473
# Poissons Ratio (z) = 0.25776 0.40346
#
# Static dielectric constant tensor:
#      x y z
#    x 3.626720 0.000000 0.000000 
#    y 0.000000 4.074920 0.000000 
#    z 0.000000 0.000000 3.662810 
# 
# 
# High freq. dielectric constant tensor:
#      x y z
#    x 1.759830 0.000000 0.000000 
#    y 0.000000 1.801550 0.000000 
#    z 0.000000 0.000000 1.796750 
# 
# From -- ./inp_files/33110.got.cif
#   From: 2010.03.12/outbox.cif.g09.slc.cpg/sg59_17_cif.got.tgz:33110.got - 2010.04.16 16:29:54.
