data_PCOD8244200
_publ_section_title
;
Structure prediction by ZEFSAII (Michael W. Deem and Ramdas Pophale) SiO2 
 PCOD8244200
Probable space group: P M M N
;
_chemical_formula_sum "Si O2"
_cell_formula_units_Z 56
_cell_length_a 20.565336
_cell_length_b 8.482480
_cell_length_c 16.009708
_cell_angle_alpha 90.000000
_cell_angle_beta 90.000000
_cell_angle_gamma 90.000000
_cell_volume 2792.814334
_symmetry_space_group_name_H-M "P M M N"
_symmetry_group_IT_number 59
_space_group.IT_coordinate_system_code '2'
_symmetry_cell_setting 'orthorhombic'
loop_
_space_group_symop_operation_xyz
x,y,z
1/2-x,1/2-y,z
1/2+x,-y,-z
-x,1/2+y,-z
-x,-y,-z
1/2+x,1/2+y,-z
1/2-x,y,z
x,1/2-y,z
loop_
_atom_site_type_symbol
_atom_site_label
_atom_site_fract_x
_atom_site_fract_y
_atom_site_fract_z
Si Si1 0.250000 0.935537 0.462100
Si Si2 0.131068 0.062457 0.357274
Si Si3 0.494928 0.064802 0.592360
Si Si4 0.415850 0.926374 0.064945
Si Si5 0.383334 0.564123 0.710456
Si Si6 0.250000 0.434908 0.645484
Si Si7 0.680433 0.567795 0.817708
Si Si8 0.952905 0.069285 0.119425
O O1 0.250000 0.750000 0.444409
O O2 0.184768 0.012943 0.425063
O O3 0.250000 0.965876 0.560534
O O4 0.120545 0.250000 0.362673
O O5 0.152489 0.996831 0.267468
O O6 0.063083 0.974655 0.365964
O O7 0.481538 0.250000 0.591770
O O8 0.500000 0.000000 0.500000
O O9 0.435208 0.982757 0.639949
O O10 0.396590 0.750000 0.089573
O O11 0.363738 0.044305 0.102086
O O12 0.484713 0.959957 0.108200
O O13 0.412175 0.949423 0.965554
O O14 0.371314 0.750000 0.706285
O O15 0.314582 0.477479 0.697902
O O16 0.410559 0.513041 0.801605
O O17 0.250000 0.250000 0.625141
O O18 0.750000 0.488066 0.835751
O O19 0.689273 0.750000 0.800836
O O20 0.975855 0.250000 0.131709
#
# Coordination Sequence:
#
# PCOD8244200 Si02
#       8
#     4   8   8   8   8   4   8   8
#     4  12  24  40  62  89 120 159 204 249 302 363
#     4  11  22  40  62  87 121 162 203 247 298 358
#     4  12  25  41  61  91 124 157 200 252 305 358
#     4  10  20  35  59  91 121 153 195 244 292 345
#     4  11  23  43  66  89 119 160 205 250 303 362
#     4  12  26  44  64  87 118 155 198 251 306 359
#     4  10  21  38  57  82 119 162 199 234 290 355
#     4   9  20  39  62  87 118 157 196 239 297 357
#
# _framework density 20.051458
#
# number of rings (size 3 to 8) (size 9 to 14) (size 15 to 20)
#    0.000    1.286    0.714    5.571    0.000    6.571 
#    1.286    0.000    0.000    0.000    0.000    0.000 
#    0.000    0.000    0.000    0.000    0.000    0.000 
#
# Total GULP energy -694429.029784 kJ/mol
# GULP energy per Si atom -12400.518389 kJ/mol
# Density = 2.000582 g / cm^3
# Si number density = 20.051458 Si / 1000 Ang^3
#
#
#
# Elastic Constant Matrix: (Units=GPa)
#
#
# Indices 1 2 3 4 5 6 
#
# 1 120.6507 10.9711 56.6183 0.0000 0.0000 0.0000
# 2 10.9711 54.0932 22.6696 0.0000 0.0000 0.0000
# 3 56.6183 22.6696 131.6888 0.0000 0.0000 0.0000
# 4 0.0000 0.0000 0.0000 29.4614 0.0000 0.0000
# 5 0.0000 0.0000 0.0000 0.0000 33.8927 0.0000
# 6 0.0000 0.0000 0.0000 0.0000 0.0000 34.1154
#
#
#
# Elastic Compliance Matrix: (Units=1/GPa)
#
#
# Indices 1 2 3 4 5 6 
#
# 1 0.010387 -0.000253 -0.004422 0.000000 0.000000 0.000000
# 2 -0.000253 0.019930 -0.003322 0.000000 0.000000 0.000000
# 3 -0.004422 -0.003322 0.010067 0.000000 0.000000 0.000000
# 4 0.000000 0.000000 0.000000 0.033943 0.000000 0.000000
# 5 0.000000 0.000000 0.000000 0.000000 0.029505 0.000000
# 6 0.000000 0.000000 0.000000 0.000000 0.000000 0.029312
#
#
# Mechanical properties :
#
#
# Convention : Reuss Voigt Hill
#
# Bulk Modulus (GPa) = 41.00244 54.10564 47.55404
# Shear Modulus (GPa) = 31.79296 33.90548 32.84922
#
# Velocity S-wave (km/s) = 3.98624 4.11654 4.05192
# Velocity P-wave (km/s) = 6.45599 7.04532 6.75708
#
# Compressibility (1/GPa) = 0.02438879
#
# Stress axis : x y z
#
# Youngs Moduli (GPa) = 96.27833 50.17520 99.33751
#
# Poissons Ratio (x) = 0.01272 0.43927
# Poissons Ratio (y) = 0.02440 0.32999
# Poissons Ratio (z) = 0.42574 0.16668
#
# Static dielectric constant tensor:
#      x y z
#    x 3.782110 0.000000 0.000000 
#    y 0.000000 3.650630 0.000000 
#    z 0.000000 0.000000 4.378620 
# 
# 
# High freq. dielectric constant tensor:
#      x y z
#    x 1.789280 0.000000 0.000000 
#    y 0.000000 1.786530 0.000000 
#    z 0.000000 0.000000 1.791730 
# 
# From -- ./inp_files/24423.got.cif
#   From: 2010.03.12/outbox.cif.g09.slc.cpg/sg59_13_cif.got.tgz:24423.got - 2010.04.16 16:29:54.
