data_PCOD8244614
_publ_section_title
;
Structure prediction by ZEFSAII (Michael W. Deem and Ramdas Pophale) SiO2 
 PCOD8244614
Probable space group: P M M N
;
_chemical_formula_sum "Si O2"
_cell_formula_units_Z 24
_cell_length_a 12.453700
_cell_length_b 8.923921
_cell_length_c 11.028233
_cell_angle_alpha 90.000000
_cell_angle_beta 90.000000
_cell_angle_gamma 90.000000
_cell_volume 1225.631883
_symmetry_space_group_name_H-M "P M M N"
_symmetry_group_IT_number 59
_space_group.IT_coordinate_system_code '2'
_symmetry_cell_setting 'orthorhombic'
loop_
_space_group_symop_operation_xyz
x,y,z
1/2-x,1/2-y,z
1/2+x,-y,-z
-x,1/2+y,-z
-x,-y,-z
1/2+x,1/2+y,-z
1/2-x,y,z
x,1/2-y,z
loop_
_atom_site_type_symbol
_atom_site_label
_atom_site_fract_x
_atom_site_fract_y
_atom_site_fract_z
Si Si1 0.750000 0.926542 0.991628
Si Si2 0.131396 0.919710 0.813048
Si Si3 0.476345 0.923530 0.373575
Si Si4 0.750000 0.079998 0.739988
O O1 0.750000 0.750000 0.009073
O O2 0.750000 0.965685 0.850965
O O3 0.643542 0.996785 0.056394
O O4 0.250000 0.919778 0.749775
O O5 0.090942 0.750000 0.834226
O O6 0.047313 0.005762 0.731614
O O7 0.505672 0.750000 0.383802
O O8 0.352214 0.950307 0.343841
O O9 0.500000 0.000000 0.500000
O O10 0.750000 0.250000 0.790758
#
# Coordination Sequence:
#
# PCOD8244614 Si02
#       4
#     4   8   8   4
#     4  10  20  37  64  95 122 155 203 251 299 364
#     4   9  20  39  63  89 122 160 198 244 303 360
#     4  11  24  41  63  89 123 163 206 253 303 362
#     4  10  24  43  60  87 124 161 199 249 307 358
#
# _framework density 19.581734999999998
#
# number of rings (size 3 to 8) (size 9 to 14) (size 15 to 20)
#    1.000    1.000    0.000    3.000    2.333    4.000 
#    0.000    0.000    0.000    0.000    0.000    0.000 
#    0.000    0.000    0.000    0.000    0.000    0.000 
#
# Total GULP energy -297536.536455 kJ/mol
# GULP energy per Si atom -12397.355686 kJ/mol
# Density = 1.953717 g / cm^3
# Si number density = 19.581735 Si / 1000 Ang^3
#
#
#
# Elastic Constant Matrix: (Units=GPa)
#
#
# Indices 1 2 3 4 5 6 
#
# 1 97.5886 59.8650 41.7838 0.0000 0.0000 0.0000
# 2 59.8650 183.9178 77.9724 0.0000 0.0000 0.0000
# 3 41.7838 77.9724 116.9656 0.0000 0.0000 0.0000
# 4 0.0000 0.0000 0.0000 40.9790 0.0000 0.0000
# 5 0.0000 0.0000 0.0000 0.0000 -24.4892 0.0000
# 6 0.0000 0.0000 0.0000 0.0000 0.0000 30.6442
#
#
#
# Elastic Compliance Matrix: (Units=1/GPa)
#
#
# Indices 1 2 3 4 5 6 
#
# 1 0.013352 -0.003239 -0.002610 0.000000 0.000000 0.000000
# 2 -0.003239 0.008365 -0.004419 0.000000 0.000000 0.000000
# 3 -0.002610 -0.004419 0.012428 0.000000 0.000000 0.000000
# 4 0.000000 0.000000 0.000000 0.024403 0.000000 0.000000
# 5 0.000000 0.000000 0.000000 0.000000 -0.040834 0.000000
# 6 0.000000 0.000000 0.000000 0.000000 0.000000 0.032633
#
#
# Mechanical properties :
#
#
# Convention : Reuss Voigt Hill
#
# Bulk Modulus (GPa) = 73.49012 84.19048 78.84030
# Shear Modulus (GPa) = 66.29580 24.01687 45.15634
#
# Velocity S-wave (km/s) = 5.82490 3.50593 4.80734
# Velocity P-wave (km/s) = 9.10223 7.71210 8.43585
#
# Compressibility (1/GPa) = 0.01360727
#
# Stress axis : x y z
#
# Youngs Moduli (GPa) = 74.89575 119.54323 80.46377
#
# Poissons Ratio (x) = 0.38725 0.21003
# Poissons Ratio (y) = 0.24262 0.35559
# Poissons Ratio (z) = 0.19550 0.52829
#
# Static dielectric constant tensor:
#      x y z
#    x 3.543430 0.000000 0.000000 
#    y 0.000000 3.558310 0.000000 
#    z 0.000000 0.000000 3.420980 
# 
# 
# High freq. dielectric constant tensor:
#      x y z
#    x 1.759460 0.000000 0.000000 
#    y 0.000000 1.779880 0.000000 
#    z 0.000000 0.000000 1.754890 
# 
# From -- ./inp_files/8123.got.cif
#   From: 2010.03.12/outbox.cif.g09.slc.cpg/sg59_5_cif.got.tgz:8123.got - 2010.04.16 16:29:54.
