data_PCOD8244028
_publ_section_title
;
Structure prediction by ZEFSAII (Michael W. Deem and Ramdas Pophale) SiO2 
 PCOD8244028
Probable space group: P M M N
;
_chemical_formula_sum "Si O2"
_cell_formula_units_Z 64
_cell_length_a 9.252785
_cell_length_b 31.383110
_cell_length_c 11.484792
_cell_angle_alpha 90.000000
_cell_angle_beta 90.000000
_cell_angle_gamma 90.000000
_cell_volume 3334.967332
_symmetry_space_group_name_H-M "P M M N"
_symmetry_group_IT_number 59
_space_group.IT_coordinate_system_code '2'
_symmetry_cell_setting 'orthorhombic'
loop_
_space_group_symop_operation_xyz
x,y,z
1/2-x,1/2-y,z
1/2+x,-y,-z
-x,1/2+y,-z
-x,-y,-z
1/2+x,1/2+y,-z
1/2-x,y,z
x,1/2-y,z
loop_
_atom_site_type_symbol
_atom_site_label
_atom_site_fract_x
_atom_site_fract_y
_atom_site_fract_z
Si Si1 0.082493 0.941128 0.566012
Si Si2 0.584230 0.016940 0.672279
Si Si3 0.411360 0.699394 0.328340
Si Si4 0.417384 0.298503 0.897524
Si Si5 0.914086 0.702511 0.546145
Si Si6 0.085784 0.373976 0.304417
Si Si7 0.078956 0.961045 0.064672
Si Si8 0.419268 0.380969 0.040529
O O1 0.250000 0.939955 0.594115
O O2 0.051437 0.948811 0.429257
O O3 0.012196 0.896740 0.600008
O O4 0.015000 0.976363 0.650850
O O5 0.750000 0.001732 0.666061
O O6 0.548149 0.036585 0.797505
O O7 0.250000 0.680317 0.324345
O O8 0.410288 0.750000 0.333275
O O9 0.494764 0.684671 0.213469
O O10 0.490051 0.681867 0.443397
O O11 0.250000 0.298906 0.863243
O O12 0.462676 0.250000 0.935292
O O13 0.451077 0.332726 0.998224
O O14 0.750000 0.702574 0.500023
O O15 0.966528 0.750000 0.577246
O O16 0.928178 0.675942 0.665188
O O17 0.250000 0.389938 0.317871
O O18 0.031367 0.382332 0.174378
O O19 0.250000 0.963001 0.037642
O O20 0.014307 0.915887 0.025646
O O21 0.000000 0.000000 0.000000
O O22 0.250000 0.392145 0.025579
#
# Coordination Sequence:
#
# PCOD8244028 Si02
#       8
#     8   8   8   8   8   8   8   8
#     4  10  20  35  57  83 108 136 172 212 258 315
#     4   9  20  38  57  79 108 139 171 212 260 309
#     4   9  17  30  50  76 105 136 171 216 271 323
#     4   9  18  34  56  80 108 144 184 225 268 318
#     4   9  18  33  53  76 102 136 179 221 262 314
#     4  10  21  36  53  75 106 141 174 217 270 314
#     4  11  23  39  59  82 111 146 182 222 269 320
#     4  10  22  38  55  79 110 143 183 227 271 322
#
# _framework density 19.190591999999999
#
# number of rings (size 3 to 8) (size 9 to 14) (size 15 to 20)
#    0.000    2.375    0.000    1.875    0.000    9.000 
#    0.000    5.000    0.000    0.000    0.000    5.250 
#    0.000    0.000    0.000    0.000    0.000    0.000 
#
# Total GULP energy -793508.186254 kJ/mol
# GULP energy per Si atom -12398.565410 kJ/mol
# Density = 1.914691 g / cm^3
# Si number density = 19.190592 Si / 1000 Ang^3
#
#
#
# Elastic Constant Matrix: (Units=GPa)
#
#
# Indices 1 2 3 4 5 6 
#
# 1 88.3418 49.1047 57.7121 0.0000 0.0000 0.0000
# 2 49.1047 104.1754 61.0503 0.0000 0.0000 0.0000
# 3 57.7121 61.0503 127.5050 0.0000 0.0000 0.0000
# 4 0.0000 0.0000 0.0000 29.8789 0.0000 0.0000
# 5 0.0000 0.0000 0.0000 0.0000 26.7115 0.0000
# 6 0.0000 0.0000 0.0000 0.0000 0.0000 28.1499
#
#
#
# Elastic Compliance Matrix: (Units=1/GPa)
#
#
# Indices 1 2 3 4 5 6 
#
# 1 0.017835 -0.005110 -0.005626 0.000000 0.000000 0.000000
# 2 -0.005110 0.014807 -0.004777 0.000000 0.000000 0.000000
# 3 -0.005626 -0.004777 0.012677 0.000000 0.000000 0.000000
# 4 0.000000 0.000000 0.000000 0.033468 0.000000 0.000000
# 5 0.000000 0.000000 0.000000 0.000000 0.037437 0.000000
# 6 0.000000 0.000000 0.000000 0.000000 0.000000 0.035524
#
#
# Mechanical properties :
#
#
# Convention : Reuss Voigt Hill
#
# Bulk Modulus (GPa) = 69.96261 72.86182 71.41222
# Shear Modulus (GPa) = 26.66109 27.09176 26.87642
#
# Velocity S-wave (km/s) = 3.73135 3.76136 3.74639
# Velocity P-wave (km/s) = 7.42292 7.54412 7.48377
#
# Compressibility (1/GPa) = 0.01429335
#
# Stress axis : x y z
#
# Youngs Moduli (GPa) = 56.06808 67.53438 78.88545
#
# Poissons Ratio (x) = 0.34509 0.44382
# Poissons Ratio (y) = 0.28650 0.37683
# Poissons Ratio (z) = 0.31545 0.32261
#
# Static dielectric constant tensor:
#      x y z
#    x 3.604320 0.000000 0.000000 
#    y 0.000000 3.440650 0.000000 
#    z 0.000000 0.000000 3.540580 
# 
# 
# High freq. dielectric constant tensor:
#      x y z
#    x 1.745870 0.000000 0.000000 
#    y 0.000000 1.740070 0.000000 
#    z 0.000000 0.000000 1.747300 
# 
# From -- ./inp_files/14999.got.cif
#   From: 2010.03.12/outbox.cif.g09.slc.cpg/sg59_8_cif.got.tgz:14999.got - 2010.04.16 16:29:54.
