data_PCOD8244055
_publ_section_title
;
Structure prediction by ZEFSAII (Michael W. Deem and Ramdas Pophale) SiO2 
 PCOD8244055
Probable space group: P M M N
;
_chemical_formula_sum "Si O2"
_cell_formula_units_Z 64
_cell_length_a 8.915883
_cell_length_b 13.873882
_cell_length_c 26.839957
_cell_angle_alpha 90.000000
_cell_angle_beta 90.000000
_cell_angle_gamma 90.000000
_cell_volume 3320.046550
_symmetry_space_group_name_H-M "P M M N"
_symmetry_group_IT_number 59
_space_group.IT_coordinate_system_code '2'
_symmetry_cell_setting 'orthorhombic'
loop_
_space_group_symop_operation_xyz
x,y,z
1/2-x,1/2-y,z
1/2+x,-y,-z
-x,1/2+y,-z
-x,-y,-z
1/2+x,1/2+y,-z
1/2-x,y,z
x,1/2-y,z
loop_
_atom_site_type_symbol
_atom_site_label
_atom_site_fract_x
_atom_site_fract_y
_atom_site_fract_z
Si Si1 0.425647 0.498746 0.053440
Si Si2 0.073724 0.142634 0.227406
Si Si3 0.578350 0.360154 0.673138
Si Si4 0.424778 0.860653 0.141349
Si Si5 0.416711 0.858732 0.875759
Si Si6 0.573296 0.548360 0.237082
Si Si7 0.074206 0.357513 0.481590
Si Si8 0.926638 0.454300 0.572894
O O1 0.250000 0.479507 0.047804
O O2 0.455792 0.594670 0.086638
O O3 0.505909 0.409550 0.078585
O O4 0.500000 0.500000 0.000000
O O5 0.250000 0.127166 0.233106
O O6 0.027878 0.250000 0.247258
O O7 0.027932 0.131569 0.170349
O O8 0.988320 0.056347 0.255725
O O9 0.750000 0.385656 0.686435
O O10 0.563146 0.250000 0.655781
O O11 0.478887 0.374551 0.722164
O O12 0.517719 0.427580 0.628271
O O13 0.250000 0.866894 0.155023
O O14 0.480444 0.750000 0.141026
O O15 0.512997 0.922109 0.182678
O O16 0.250000 0.901015 0.862998
O O17 0.397897 0.750000 0.892874
O O18 0.750000 0.545210 0.234781
O O19 0.250000 0.364349 0.490939
O O20 0.027576 0.250000 0.463740
O O21 0.025059 0.435429 0.439632
O O22 0.997097 0.380424 0.533838
O O23 0.750000 0.439917 0.569553
#
# Coordination Sequence:
#
# PCOD8244055 Si02
#       8
#     8   8   8   8   8   8   8   8
#     4  11  23  38  58  83 114 150 185 228 280 332
#     4  10  20  36  60  86 110 140 179 220 266 324
#     4  10  21  37  56  78 109 150 194 239 285 335
#     4  10  22  41  62  82 109 148 190 230 276 333
#     4  10  20  35  57  84 112 141 175 219 270 322
#     4  12  24  37  58  86 116 147 184 232 285 337
#     4   9  17  30  51  80 113 147 184 233 291 345
#     4   9  18  33  53  78 109 148 194 239 282 334
#
# _framework density 19.276838000000001
#
# number of rings (size 3 to 8) (size 9 to 14) (size 15 to 20)
#    0.000    1.875    1.250    3.000    0.000    5.750 
#    0.000    1.875    0.000    2.250    0.000    0.000 
#    0.000    0.000    0.000    0.000    0.000    0.000 
#
# Total GULP energy -793471.351542 kJ/mol
# GULP energy per Si atom -12397.989868 kJ/mol
# Density = 1.923296 g / cm^3
# Si number density = 19.276838 Si / 1000 Ang^3
#
#
#
# Elastic Constant Matrix: (Units=GPa)
#
#
# Indices 1 2 3 4 5 6 
#
# 1 77.3172 40.8596 29.1449 0.0000 0.0000 0.0000
# 2 40.8596 114.9777 37.4517 0.0000 0.0000 0.0000
# 3 29.1449 37.4517 82.9460 0.0000 0.0000 0.0000
# 4 0.0000 0.0000 0.0000 27.7851 0.0000 0.0000
# 5 0.0000 0.0000 0.0000 0.0000 29.0640 0.0000
# 6 0.0000 0.0000 0.0000 0.0000 0.0000 25.7405
#
#
#
# Elastic Compliance Matrix: (Units=1/GPa)
#
#
# Indices 1 2 3 4 5 6 
#
# 1 0.016877 -0.004767 -0.003778 0.000000 0.000000 0.000000
# 2 -0.004767 0.011544 -0.003537 0.000000 0.000000 0.000000
# 3 -0.003778 -0.003537 0.014980 0.000000 0.000000 0.000000
# 4 0.000000 0.000000 0.000000 0.035990 0.000000 0.000000
# 5 0.000000 0.000000 0.000000 0.000000 0.034407 0.000000
# 6 0.000000 0.000000 0.000000 0.000000 0.000000 0.038849
#
#
# Mechanical properties :
#
#
# Convention : Reuss Voigt Hill
#
# Bulk Modulus (GPa) = 51.98236 54.46146 53.22191
# Shear Modulus (GPa) = 27.28906 27.70359 27.49633
#
# Velocity S-wave (km/s) = 3.76658 3.79508 3.78086
# Velocity P-wave (km/s) = 6.77797 6.89327 6.83586
#
# Compressibility (1/GPa) = 0.01923729
#
# Stress axis : x y z
#
# Youngs Moduli (GPa) = 59.25231 86.62848 66.75351
#
# Poissons Ratio (x) = 0.41296 0.25217
# Poissons Ratio (y) = 0.28246 0.23612
# Poissons Ratio (z) = 0.22384 0.30642
#
# Static dielectric constant tensor:
#      x y z
#    x 3.550810 0.000000 0.000000 
#    y 0.000000 3.978460 0.000000 
#    z 0.000000 0.000000 3.346850 
# 
# 
# High freq. dielectric constant tensor:
#      x y z
#    x 1.749910 0.000000 0.000000 
#    y 0.000000 1.764870 0.000000 
#    z 0.000000 0.000000 1.729960 
# 
# From -- ./inp_files/31479.got.cif
#   From: 2010.03.12/outbox.cif.g09.slc.cpg/sg59_16_cif.got.tgz:31479.got - 2010.04.16 16:29:54.
