data_PCOD8244205
_publ_section_title
;
Structure prediction by ZEFSAII (Michael W. Deem and Ramdas Pophale) SiO2 
 PCOD8244205
Probable space group: P M M N
;
_chemical_formula_sum "Si O2"
_cell_formula_units_Z 48
_cell_length_a 28.108727
_cell_length_b 8.363330
_cell_length_c 10.100971
_cell_angle_alpha 90.000000
_cell_angle_beta 90.000000
_cell_angle_gamma 90.000000
_cell_volume 2374.562119
_symmetry_space_group_name_H-M "P M M N"
_symmetry_group_IT_number 59
_space_group.IT_coordinate_system_code '2'
_symmetry_cell_setting 'orthorhombic'
loop_
_space_group_symop_operation_xyz
x,y,z
1/2-x,1/2-y,z
1/2+x,-y,-z
-x,1/2+y,-z
-x,-y,-z
1/2+x,1/2+y,-z
1/2-x,y,z
x,1/2-y,z
loop_
_atom_site_type_symbol
_atom_site_label
_atom_site_fract_x
_atom_site_fract_y
_atom_site_fract_z
Si Si1 0.552850 0.434514 0.986303
Si Si2 0.696644 0.435208 0.649245
Si Si3 0.052510 0.565005 0.514276
Si Si4 0.102895 0.432941 0.266110
Si Si5 0.803059 0.565654 0.366089
Si Si6 0.897216 0.933418 0.233910
O O1 0.551013 0.250000 0.945360
O O2 0.580541 0.533731 0.876052
O O3 0.500000 0.500000 0.000000
O O4 0.580653 0.451860 0.124101
O O5 0.750000 0.497330 0.681007
O O6 0.691626 0.250000 0.683853
O O7 0.659464 0.532684 0.739279
O O8 0.685377 0.459058 0.494037
O O9 0.052062 0.750000 0.555698
O O10 0.079430 0.546623 0.375374
O O11 0.077906 0.461147 0.625930
O O12 0.000000 0.500000 0.500000
O O13 0.093328 0.250000 0.304339
O O14 0.750000 0.528894 0.311496
O O15 0.808007 0.750000 0.410333
O O16 0.841019 0.526357 0.250801
O O17 0.905015 0.750000 0.190884
#
# Coordination Sequence:
#
# PCOD8244205 Si02
#       6
#     8   8   8   8   8   8
#     4  12  26  45  65  87 120 163 207 255 311 373
#     4  10  20  35  59  92 127 161 201 251 307 363
#     4  12  24  39  60  88 121 156 201 255 308 362
#     4  12  24  41  63  90 122 161 207 255 307 366
#     4   9  18  34  59  90 124 161 200 244 296 357
#     4  11  22  39  62  91 124 160 203 250 301 363
#
# _framework density 20.214251999999998
#
# number of rings (size 3 to 8) (size 9 to 14) (size 15 to 20)
#    0.000    1.000    1.667    6.500    0.000    1.667 
#    0.000    0.833    0.000    3.000    0.000    0.000 
#    0.000    0.000    0.000    0.000    0.000    0.000 
#
# Total GULP energy -595461.243732 kJ/mol
# GULP energy per Si atom -12405.442578 kJ/mol
# Density = 2.016824 g / cm^3
# Si number density = 20.214252 Si / 1000 Ang^3
#
#
#
# Elastic Constant Matrix: (Units=GPa)
#
#
# Indices 1 2 3 4 5 6 
#
# 1 155.9238 29.6539 52.5086 0.0000 0.0000 0.0000
# 2 29.6539 82.0133 5.2602 0.0000 0.0000 0.0000
# 3 52.5086 5.2602 87.2211 0.0000 0.0000 0.0000
# 4 0.0000 0.0000 0.0000 31.7708 0.0000 0.0000
# 5 0.0000 0.0000 0.0000 0.0000 35.5268 0.0000
# 6 0.0000 0.0000 0.0000 0.0000 0.0000 27.5184
#
#
#
# Elastic Compliance Matrix: (Units=1/GPa)
#
#
# Indices 1 2 3 4 5 6 
#
# 1 0.008641 -0.002802 -0.005033 0.000000 0.000000 0.000000
# 2 -0.002802 0.013149 0.000894 0.000000 0.000000 0.000000
# 3 -0.005033 0.000894 0.014441 0.000000 0.000000 0.000000
# 4 0.000000 0.000000 0.000000 0.031475 0.000000 0.000000
# 5 0.000000 0.000000 0.000000 0.000000 0.028148 0.000000
# 6 0.000000 0.000000 0.000000 0.000000 0.000000 0.036339
#
#
# Mechanical properties :
#
#
# Convention : Reuss Voigt Hill
#
# Bulk Modulus (GPa) = 44.74479 55.55594 50.15037
# Shear Modulus (GPa) = 32.56784 34.81225 33.69005
#
# Velocity S-wave (km/s) = 4.01825 4.15440 4.08689
# Velocity P-wave (km/s) = 6.61148 7.11022 6.86538
#
# Compressibility (1/GPa) = 0.02234897
#
# Stress axis : x y z
#
# Youngs Moduli (GPa) = 115.72519 76.05246 69.24599
#
# Poissons Ratio (x) = 0.21307 0.34853
# Poissons Ratio (y) = 0.32422 -0.06188
# Poissons Ratio (z) = 0.58246 -0.06796
#
# Static dielectric constant tensor:
#      x y z
#    x 4.432350 0.000000 0.000000 
#    y 0.000000 3.687420 0.000000 
#    z 0.000000 0.000000 3.362820 
# 
# 
# High freq. dielectric constant tensor:
#      x y z
#    x 1.811620 0.000000 0.000000 
#    y 0.000000 1.797910 0.000000 
#    z 0.000000 0.000000 1.761810 
# 
# From -- ./inp_files/12931.got.cif
#   From: 2010.03.12/outbox.cif.g09.slc.cpg/sg59_7_cif.got.tgz:12931.got - 2010.04.16 16:29:54.
