data_PCOD8244712
_publ_section_title
;
Structure prediction by ZEFSAII (Michael W. Deem and Ramdas Pophale) SiO2 
 PCOD8244712
Probable space group: P M M N
;
_chemical_formula_sum "Si O2"
_cell_formula_units_Z 64
_cell_length_a 18.752711
_cell_length_b 8.982736
_cell_length_c 20.097452
_cell_angle_alpha 90.000000
_cell_angle_beta 90.000000
_cell_angle_gamma 90.000000
_cell_volume 3385.428897
_symmetry_space_group_name_H-M "P M M N"
_symmetry_group_IT_number 59
_space_group.IT_coordinate_system_code '2'
_symmetry_cell_setting 'orthorhombic'
loop_
_space_group_symop_operation_xyz
x,y,z
1/2-x,1/2-y,z
1/2+x,-y,-z
-x,1/2+y,-z
-x,-y,-z
1/2+x,1/2+y,-z
1/2-x,y,z
x,1/2-y,z
loop_
_atom_site_type_symbol
_atom_site_label
_atom_site_fract_x
_atom_site_fract_y
_atom_site_fract_z
Si Si1 0.922136 0.579066 0.451173
Si Si2 0.062660 0.420360 0.407463
Si Si3 0.569646 0.071420 0.869256
Si Si4 0.071702 0.570631 0.918855
Si Si5 0.833419 0.926439 0.966821
Si Si6 0.458795 0.923683 0.280405
Si Si7 0.672061 0.080759 0.195648
Si Si8 0.880673 0.580940 0.313265
O O1 0.951182 0.750000 0.446315
O O2 0.888879 0.551724 0.525415
O O3 0.864060 0.556439 0.391960
O O4 0.985088 0.465550 0.434340
O O5 0.062731 0.250000 0.385935
O O6 0.088321 0.508251 0.341365
O O7 0.569472 0.250000 0.875899
O O8 0.563598 0.018175 0.792489
O O9 0.505908 0.004014 0.914658
O O10 0.642869 0.998587 0.896281
O O11 0.066300 0.750000 0.924208
O O12 0.113236 0.512603 0.853285
O O13 0.117069 0.508632 0.979838
O O14 0.750000 0.961571 0.978921
O O15 0.847525 0.750000 0.967622
O O16 0.447047 0.750000 0.283746
O O17 0.539483 0.972672 0.295095
O O18 0.750000 0.059609 0.162930
O O19 0.652714 0.250000 0.206905
O O20 0.674077 0.008904 0.268481
O O21 0.871324 0.750000 0.291833
#
# Coordination Sequence:
#
# PCOD8244712 Si02
#       8
#     8   8   8   8   8   8   8   8
#     4   8  15  26  38  59  93 130 166 208 257 306
#     4   9  15  23  40  65  94 129 168 208 253 306
#     4  11  22  38  60  84 112 145 180 219 268 323
#     4  11  22  38  60  83 110 142 179 222 268 321
#     4  11  25  43  61  83 111 141 177 221 267 320
#     4   9  18  31  47  71 105 136 166 210 260 311
#     4  10  21  34  48  71 103 137 176 222 268 315
#     4   9  16  29  46  65  95 133 173 214 258 309
#
# _framework density 18.904547000000001
#
# number of rings (size 3 to 8) (size 9 to 14) (size 15 to 20)
#    0.000    2.250    1.250    3.000    0.000    5.750 
#    0.000    0.000    0.000    0.000    0.000    0.875 
#    0.000    1.000    0.000    0.000    0.000    0.000 
#
# Total GULP energy -792916.742992 kJ/mol
# GULP energy per Si atom -12389.324109 kJ/mol
# Density = 1.886152 g / cm^3
# Si number density = 18.904547 Si / 1000 Ang^3
#
#
#
# Elastic Constant Matrix: (Units=GPa)
#
#
# Indices 1 2 3 4 5 6 
#
# 1 47.5485 26.5456 33.5843 0.0000 0.0000 0.0000
# 2 26.5456 57.6605 37.0190 0.0000 0.0000 0.0000
# 3 33.5843 37.0190 131.8326 0.0000 0.0000 0.0000
# 4 0.0000 0.0000 0.0000 34.4550 0.0000 0.0000
# 5 0.0000 0.0000 0.0000 0.0000 9.9901 0.0000
# 6 0.0000 0.0000 0.0000 0.0000 0.0000 20.2330
#
#
#
# Elastic Compliance Matrix: (Units=1/GPa)
#
#
# Indices 1 2 3 4 5 6 
#
# 1 0.030492 -0.011041 -0.004667 0.000000 0.000000 0.000000
# 2 -0.011041 0.025155 -0.004251 0.000000 0.000000 0.000000
# 3 -0.004667 -0.004251 0.009968 0.000000 0.000000 0.000000
# 4 0.000000 0.000000 0.000000 0.029023 0.000000 0.000000
# 5 0.000000 0.000000 0.000000 0.000000 0.100099 0.000000
# 6 0.000000 0.000000 0.000000 0.000000 0.000000 0.049424
#
#
# Mechanical properties :
#
#
# Convention : Reuss Voigt Hill
#
# Bulk Modulus (GPa) = 38.91640 47.92659 43.42149
# Shear Modulus (GPa) = 17.08546 22.26180 19.67363
#
# Velocity S-wave (km/s) = 3.00955 3.43533 3.22946
# Velocity P-wave (km/s) = 5.71900 6.41422 6.07656
#
# Compressibility (1/GPa) = 0.02569611
#
# Stress axis : x y z
#
# Youngs Moduli (GPa) = 32.79542 39.75316 100.32049
#
# Poissons Ratio (x) = 0.43893 0.46824
# Poissons Ratio (y) = 0.36211 0.42645
# Poissons Ratio (z) = 0.15307 0.16899
#
# Static dielectric constant tensor:
#      x y z
#    x 3.120510 0.000000 0.000000 
#    y 0.000000 3.433690 0.000000 
#    z 0.000000 0.000000 4.146200 
# 
# 
# High freq. dielectric constant tensor:
#      x y z
#    x 1.676130 0.000000 0.000000 
#    y 0.000000 1.737590 0.000000 
#    z 0.000000 0.000000 1.759210 
# 
# From -- ./inp_files/30798.got.cif
#   From: 2010.03.12/outbox.cif.g09.slc.cpg/sg59_16_cif.got.tgz:30798.got - 2010.04.16 16:29:54.
