data_PCOD8244509
_publ_section_title
;
Structure prediction by ZEFSAII (Michael W. Deem and Ramdas Pophale) SiO2 
 PCOD8244509
Probable space group: P M M N
;
_chemical_formula_sum "Si O2"
_cell_formula_units_Z 48
_cell_length_a 18.707219
_cell_length_b 9.081296
_cell_length_c 15.024449
_cell_angle_alpha 90.000000
_cell_angle_beta 90.000000
_cell_angle_gamma 90.000000
_cell_volume 2552.440434
_symmetry_space_group_name_H-M "P M M N"
_symmetry_group_IT_number 59
_space_group.IT_coordinate_system_code '2'
_symmetry_cell_setting 'orthorhombic'
loop_
_space_group_symop_operation_xyz
x,y,z
1/2-x,1/2-y,z
1/2+x,-y,-z
-x,1/2+y,-z
-x,-y,-z
1/2+x,1/2+y,-z
1/2-x,y,z
x,1/2-y,z
loop_
_atom_site_type_symbol
_atom_site_label
_atom_site_fract_x
_atom_site_fract_y
_atom_site_fract_z
Si Si1 0.832331 0.419523 0.117027
Si Si2 0.667216 0.422309 0.436222
Si Si3 0.667165 0.921133 0.616286
Si Si4 0.426745 0.580440 0.241520
Si Si5 0.592078 0.919674 0.275377
Si Si6 0.066706 0.919298 0.041717
O O1 0.750000 0.466795 0.115657
O O2 0.841258 0.250000 0.147420
O O3 0.874704 0.523121 0.183919
O O4 0.863113 0.443287 0.018133
O O5 0.750000 0.457533 0.416868
O O6 0.652685 0.250000 0.443490
O O7 0.641479 0.495488 0.527752
O O8 0.621087 0.486825 0.356905
O O9 0.750000 0.953059 0.635009
O O10 0.651506 0.750000 0.602258
O O11 0.623647 0.979162 0.699807
O O12 0.402526 0.750000 0.250488
O O13 0.507585 0.559602 0.273037
O O14 0.417289 0.522085 0.140684
O O15 0.613893 0.750000 0.287586
O O16 0.044117 0.750000 0.048401
O O17 0.000000 0.000000 0.000000
#
# Coordination Sequence:
#
# PCOD8244509 Si02
#       6
#     8   8   8   8   8   8
#     4  10  21  36  56  84 115 150 193 238 286 341
#     4  10  21  38  60  84 113 152 193 233 284 343
#     4  10  22  40  61  86 114 146 189 239 288 338
#     4  10  22  38  58  85 115 152 193 232 283 345
#     4  11  22  36  56  85 118 151 190 235 284 339
#     4  10  20  37  59  82 112 151 193 236 282 337
#
# _framework density 18.805530999999998
#
# number of rings (size 3 to 8) (size 9 to 14) (size 15 to 20)
#    0.000    1.833    1.667    2.000    0.000    7.667 
#    0.000    1.667    0.000    0.000    0.000    0.000 
#    0.000    0.000    0.000    0.000    0.000    0.000 
#
# Total GULP energy -595435.878023 kJ/mol
# GULP energy per Si atom -12404.914125 kJ/mol
# Density = 1.876273 g / cm^3
# Si number density = 18.805531 Si / 1000 Ang^3
#
#
#
# Elastic Constant Matrix: (Units=GPa)
#
#
# Indices 1 2 3 4 5 6 
#
# 1 63.2996 41.2891 44.4976 0.0000 0.0000 0.0000
# 2 41.2891 88.2436 61.6065 0.0000 0.0000 0.0000
# 3 44.4976 61.6065 151.8201 0.0000 0.0000 0.0000
# 4 0.0000 0.0000 0.0000 34.9082 0.0000 0.0000
# 5 0.0000 0.0000 0.0000 0.0000 34.1007 0.0000
# 6 0.0000 0.0000 0.0000 0.0000 0.0000 28.9585
#
#
#
# Elastic Compliance Matrix: (Units=1/GPa)
#
#
# Indices 1 2 3 4 5 6 
#
# 1 0.023967 -0.008804 -0.003452 0.000000 0.000000 0.000000
# 2 -0.008804 0.019046 -0.005148 0.000000 0.000000 0.000000
# 3 -0.003452 -0.005148 0.009688 0.000000 0.000000 0.000000
# 4 0.000000 0.000000 0.000000 0.028647 0.000000 0.000000
# 5 0.000000 0.000000 0.000000 0.000000 0.029325 0.000000
# 6 0.000000 0.000000 0.000000 0.000000 0.000000 0.034532
#
#
# Mechanical properties :
#
#
# Convention : Reuss Voigt Hill
#
# Bulk Modulus (GPa) = 55.89092 66.46108 61.17600
# Shear Modulus (GPa) = 26.88499 29.99149 28.43824
#
# Velocity S-wave (km/s) = 3.78515 3.99786 3.89296
# Velocity P-wave (km/s) = 6.99200 7.53183 7.26693
#
# Compressibility (1/GPa) = 0.01789199
#
# Stress axis : x y z
#
# Youngs Moduli (GPa) = 41.72324 52.50482 103.22553
#
# Poissons Ratio (x) = 0.46227 0.35634
# Poissons Ratio (y) = 0.36735 0.53141
# Poissons Ratio (z) = 0.14403 0.27030
#
# Static dielectric constant tensor:
#      x y z
#    x 3.451650 0.000000 0.000000 
#    y 0.000000 3.531150 0.000000 
#    z 0.000000 0.000000 3.653310 
# 
# 
# High freq. dielectric constant tensor:
#      x y z
#    x 1.728850 0.000000 0.000000 
#    y 0.000000 1.735610 0.000000 
#    z 0.000000 0.000000 1.743950 
# 
# From -- ./inp_files/20313.got.cif
#   From: 2010.03.12/outbox.cif.g09.slc.cpg/sg59_11_cif.got.tgz:20313.got - 2010.04.16 16:29:54.
