data_PCOD8244128
_publ_section_title
;
Structure prediction by ZEFSAII (Michael W. Deem and Ramdas Pophale) SiO2 
 PCOD8244128
Probable space group: P M M N
;
_chemical_formula_sum "Si O2"
_cell_formula_units_Z 64
_cell_length_a 8.765471
_cell_length_b 30.826040
_cell_length_c 11.976611
_cell_angle_alpha 90.000000
_cell_angle_beta 90.000000
_cell_angle_gamma 90.000000
_cell_volume 3236.137297
_symmetry_space_group_name_H-M "P M M N"
_symmetry_group_IT_number 59
_space_group.IT_coordinate_system_code '2'
_symmetry_cell_setting 'orthorhombic'
loop_
_space_group_symop_operation_xyz
x,y,z
1/2-x,1/2-y,z
1/2+x,-y,-z
-x,1/2+y,-z
-x,-y,-z
1/2+x,1/2+y,-z
1/2-x,y,z
x,1/2-y,z
loop_
_atom_site_type_symbol
_atom_site_label
_atom_site_fract_x
_atom_site_fract_y
_atom_site_fract_z
Si Si1 0.928507 0.798077 0.277715
Si Si2 0.930764 0.872830 0.881699
Si Si3 0.069659 0.453080 0.266815
Si Si4 0.427187 0.828742 0.497854
Si Si5 0.428273 0.929234 0.501072
Si Si6 0.428881 0.799889 0.738282
Si Si7 0.568678 0.876970 0.132534
Si Si8 0.930761 0.541293 0.276357
O O1 0.750000 0.805789 0.287051
O O2 0.966548 0.750000 0.230652
O O3 0.998751 0.834391 0.195080
O O4 0.993286 0.801468 0.401760
O O5 0.750000 0.871344 0.881493
O O6 0.989858 0.913164 0.808227
O O7 0.990634 0.827732 0.833395
O O8 0.995819 0.878120 0.006931
O O9 0.250000 0.459316 0.256366
O O10 0.024612 0.444659 0.393892
O O11 0.984814 0.496120 0.221426
O O12 0.250000 0.817780 0.492665
O O13 0.462008 0.879038 0.478557
O O14 0.493719 0.813705 0.617171
O O15 0.250000 0.938296 0.522606
O O16 0.486042 0.955944 0.395241
O O17 0.250000 0.809340 0.743115
O O18 0.468045 0.750000 0.761791
O O19 0.750000 0.875161 0.130063
O O20 0.512750 0.919890 0.196750
O O21 0.750000 0.542351 0.293603
#
# Coordination Sequence:
#
# PCOD8244128 Si02
#       8
#     8   8   8   8   8   8   8   8
#     4  10  20  35  58  86 115 148 187 231 278 333
#     4  10  22  40  61  83 111 150 195 240 280 328
#     4  11  23  38  58  86 118 148 187 236 285 336
#     4  10  20  35  58  84 116 151 183 226 283 341
#     4  11  21  36  60  87 115 149 189 229 282 341
#     4  10  21  38  59  85 118 152 186 230 285 340
#     4   9  20  39  59  82 112 149 192 236 283 330
#     4  11  22  38  61  85 115 151 187 231 285 341
#
# _framework density 19.776664
#
# number of rings (size 3 to 8) (size 9 to 14) (size 15 to 20)
#    0.000    1.750    2.500    1.875    0.000    3.500 
#    0.000    3.125    0.000    0.000    0.000    0.000 
#    0.000    0.000    0.000    0.000    0.000    0.000 
#
# Total GULP energy -793819.684762 kJ/mol
# GULP energy per Si atom -12403.432574 kJ/mol
# Density = 1.973165 g / cm^3
# Si number density = 19.776664 Si / 1000 Ang^3
#
#
#
# Elastic Constant Matrix: (Units=GPa)
#
#
# Indices 1 2 3 4 5 6 
#
# 1 27.7503 32.7753 14.4828 0.0000 0.0000 0.0000
# 2 32.7753 126.1174 59.4838 0.0000 0.0000 0.0000
# 3 14.4828 59.4838 136.1625 0.0000 0.0000 0.0000
# 4 0.0000 0.0000 0.0000 14.9294 0.0000 0.0000
# 5 0.0000 0.0000 0.0000 0.0000 15.1780 0.0000
# 6 0.0000 0.0000 0.0000 0.0000 0.0000 30.6225
#
#
#
# Elastic Compliance Matrix: (Units=1/GPa)
#
#
# Indices 1 2 3 4 5 6 
#
# 1 0.052019 -0.013740 0.000470 0.000000 0.000000 0.000000
# 2 -0.013740 0.013616 -0.004487 0.000000 0.000000 0.000000
# 3 0.000470 -0.004487 0.009254 0.000000 0.000000 0.000000
# 4 0.000000 0.000000 0.000000 0.066982 0.000000 0.000000
# 5 0.000000 0.000000 0.000000 0.000000 0.065885 0.000000
# 6 0.000000 0.000000 0.000000 0.000000 0.000000 0.032656
#
#
# Mechanical properties :
#
#
# Convention : Reuss Voigt Hill
#
# Bulk Modulus (GPa) = 25.39718 55.94599 40.67159
# Shear Modulus (GPa) = 17.29796 24.36520 20.83158
#
# Velocity S-wave (km/s) = 2.96068 3.51382 3.24904
# Velocity P-wave (km/s) = 4.95554 6.69424 5.88941
#
# Compressibility (1/GPa) = 0.03937445
#
# Stress axis : x y z
#
# Youngs Moduli (GPa) = 19.22384 73.44230 108.05724
#
# Poissons Ratio (x) = 1.00910 -0.05074
# Poissons Ratio (y) = 0.26414 0.48484
# Poissons Ratio (z) = -0.00903 0.32953
#
# Static dielectric constant tensor:
#      x y z
#    x 3.350640 0.000000 0.000000 
#    y 0.000000 3.892350 0.000000 
#    z 0.000000 0.000000 3.668650 
# 
# 
# High freq. dielectric constant tensor:
#      x y z
#    x 1.751390 0.000000 0.000000 
#    y 0.000000 1.790660 0.000000 
#    z 0.000000 0.000000 1.767210 
# 
# From -- ./inp_files/14907.got.cif
#   From: 2010.03.12/outbox.cif.g09.slc.cpg/sg59_8_cif.got.tgz:14907.got - 2010.04.16 16:29:54.
