data_PCOD8244042
_publ_section_title
;
Structure prediction by ZEFSAII (Michael W. Deem and Ramdas Pophale) SiO2 
 PCOD8244042
Probable space group: P M M N
;
_chemical_formula_sum "Si O2"
_cell_formula_units_Z 48
_cell_length_a 9.170314
_cell_length_b 7.702089
_cell_length_c 34.264666
_cell_angle_alpha 90.000000
_cell_angle_beta 90.000000
_cell_angle_gamma 90.000000
_cell_volume 2420.133048
_symmetry_space_group_name_H-M "P M M N"
_symmetry_group_IT_number 59
_space_group.IT_coordinate_system_code '2'
_symmetry_cell_setting 'orthorhombic'
loop_
_space_group_symop_operation_xyz
x,y,z
1/2-x,1/2-y,z
1/2+x,-y,-z
-x,1/2+y,-z
-x,-y,-z
1/2+x,1/2+y,-z
1/2-x,y,z
x,1/2-y,z
loop_
_atom_site_type_symbol
_atom_site_label
_atom_site_fract_x
_atom_site_fract_y
_atom_site_fract_z
Si Si1 0.421260 0.250000 0.245566
Si Si2 0.583595 0.055514 0.810541
Si Si3 0.420072 0.050134 0.614270
Si Si4 0.088368 0.546509 0.461785
Si Si5 0.920138 0.250000 0.327138
Si Si6 0.918000 0.044952 0.113766
Si Si7 0.912733 0.546024 0.961529
O O1 0.250000 0.250000 0.252702
O O2 0.472104 0.420974 0.222028
O O3 0.496573 0.250000 0.286901
O O4 0.750000 0.010095 0.822435
O O5 0.572175 0.250000 0.793166
O O6 0.483831 0.045862 0.848483
O O7 0.250000 0.032905 0.604506
O O8 0.460461 0.250000 0.624889
O O9 0.504911 0.978677 0.576446
O O10 0.464778 0.924808 0.649758
O O11 0.250000 0.462151 0.463709
O O12 0.102196 0.750000 0.458488
O O13 0.000000 0.500000 0.500000
O O14 0.750000 0.250000 0.318081
O O15 0.750000 0.991587 0.109577
O O16 0.937552 0.250000 0.118060
O O17 0.001929 0.971029 0.075888
O O18 0.750000 0.464594 0.963409
O O19 0.901635 0.750000 0.957249
O O20 0.000000 0.500000 0.000000
#
# Coordination Sequence:
#
# PCOD8244042 Si02
#       7
#     4   8   8   8   4   8   8
#     4  10  22  40  60  86 120 150 186 240 292 346
#     4  10  21  38  61  87 115 151 192 234 286 344
#     4   9  19  37  57  79 112 150 190 239 289 339
#     4  10  21  35  53  80 113 149 190 238 289 340
#     4  10  22  38  60  86 112 150 194 234 288 352
#     4  10  20  35  57  83 112 148 189 236 290 344
#     4  10  21  36  55  79 110 150 193 237 284 334
#
# _framework density 19.83362
#
# number of rings (size 3 to 8) (size 9 to 14) (size 15 to 20)
#    0.000    2.167    0.833    1.500    1.167    5.667 
#    0.000    0.000    0.000    0.000    0.000    0.000 
#    0.000    0.000    0.000    0.000    0.000    0.000 
#
# Total GULP energy -595250.036191 kJ/mol
# GULP energy per Si atom -12401.042421 kJ/mol
# Density = 1.978848 g / cm^3
# Si number density = 19.833620 Si / 1000 Ang^3
#
#
#
# Elastic Constant Matrix: (Units=GPa)
#
#
# Indices 1 2 3 4 5 6 
#
# 1 122.0411 40.4562 83.3162 0.0000 0.0000 0.0000
# 2 40.4562 85.6825 61.0212 0.0000 0.0000 0.0000
# 3 83.3162 61.0212 183.1172 0.0000 0.0000 0.0000
# 4 0.0000 0.0000 0.0000 27.2845 0.0000 0.0000
# 5 0.0000 0.0000 0.0000 0.0000 45.0531 0.0000
# 6 0.0000 0.0000 0.0000 0.0000 0.0000 19.7774
#
#
#
# Elastic Compliance Matrix: (Units=1/GPa)
#
#
# Indices 1 2 3 4 5 6 
#
# 1 0.012245 -0.002378 -0.004779 0.000000 0.000000 0.000000
# 2 -0.002378 0.015765 -0.004171 0.000000 0.000000 0.000000
# 3 -0.004779 -0.004171 0.009025 0.000000 0.000000 0.000000
# 4 0.000000 0.000000 0.000000 0.036651 0.000000 0.000000
# 5 0.000000 0.000000 0.000000 0.000000 0.022196 0.000000
# 6 0.000000 0.000000 0.000000 0.000000 0.000000 0.050563
#
#
# Mechanical properties :
#
#
# Convention : Reuss Voigt Hill
#
# Bulk Modulus (GPa) = 69.54982 84.49199 77.02091
# Shear Modulus (GPa) = 28.75325 32.15947 30.45636
#
# Velocity S-wave (km/s) = 3.81165 4.03111 3.92292
# Velocity P-wave (km/s) = 7.38338 8.02242 7.70953
#
# Compressibility (1/GPa) = 0.01437818
#
# Stress axis : x y z
#
# Youngs Moduli (GPa) = 81.66803 63.43331 110.80037
#
# Poissons Ratio (x) = 0.15086 0.52948
# Poissons Ratio (y) = 0.19423 0.46218
# Poissons Ratio (z) = 0.39027 0.26460
#
# Static dielectric constant tensor:
#      x y z
#    x 3.852980 0.000000 0.000000 
#    y 0.000000 4.341640 0.000000 
#    z 0.000000 0.000000 3.221470 
# 
# 
# High freq. dielectric constant tensor:
#      x y z
#    x 1.778100 0.000000 0.000000 
#    y 0.000000 1.774260 0.000000 
#    z 0.000000 0.000000 1.768020 
# 
# From -- ./inp_files/33050.got.cif
#   From: 2010.03.12/outbox.cif.g09.slc.cpg/sg59_17_cif.got.tgz:33050.got - 2010.04.16 16:29:54.
