data_PCOD8244096
_publ_section_title
;
Structure prediction by ZEFSAII (Michael W. Deem and Ramdas Pophale) SiO2 
 PCOD8244096
Probable space group: P M M N
;
_chemical_formula_sum "Si O2"
_cell_formula_units_Z 64
_cell_length_a 9.049905
_cell_length_b 18.096839
_cell_length_c 21.242786
_cell_angle_alpha 90.000000
_cell_angle_beta 90.000000
_cell_angle_gamma 90.000000
_cell_volume 3479.030347
_symmetry_space_group_name_H-M "P M M N"
_symmetry_group_IT_number 59
_space_group.IT_coordinate_system_code '2'
_symmetry_cell_setting 'orthorhombic'
loop_
_space_group_symop_operation_xyz
x,y,z
1/2-x,1/2-y,z
1/2+x,-y,-z
-x,1/2+y,-z
-x,-y,-z
1/2+x,1/2+y,-z
1/2-x,y,z
x,1/2-y,z
loop_
_atom_site_type_symbol
_atom_site_label
_atom_site_fract_x
_atom_site_fract_y
_atom_site_fract_z
Si Si1 0.419899 0.335784 0.617582
Si Si2 0.582239 0.956565 0.188095
Si Si3 0.076500 0.610368 0.753936
Si Si4 0.075674 0.421832 0.495618
Si Si5 0.920604 0.834397 0.874750
Si Si6 0.423717 0.833779 0.256709
Si Si7 0.078343 0.163672 0.370329
Si Si8 0.577770 0.036559 0.058957
O O1 0.250000 0.354831 0.630896
O O2 0.445038 0.250000 0.605310
O O3 0.479792 0.376233 0.555842
O O4 0.511271 0.363553 0.677630
O O5 0.750000 0.930945 0.197805
O O6 0.478700 0.886505 0.200966
O O7 0.543700 0.023798 0.235120
O O8 0.553533 0.981578 0.117030
O O9 0.250000 0.627003 0.760796
O O10 0.991755 0.658591 0.805775
O O11 0.021011 0.632538 0.685533
O O12 0.250000 0.432111 0.496847
O O13 0.026969 0.378485 0.433075
O O14 0.000000 0.500000 0.500000
O O15 0.750000 0.858959 0.870852
O O16 0.935235 0.750000 0.897348
O O17 0.004385 0.884519 0.925887
O O18 0.250000 0.837905 0.260906
O O19 0.477635 0.750000 0.243244
O O20 0.250000 0.149006 0.354984
O O21 0.047871 0.250000 0.380359
O O22 0.750000 0.049638 0.045132
O O23 0.500000 0.000000 0.000000
#
# Coordination Sequence:
#
# PCOD8244096 Si02
#       8
#     8   8   8   8   8   8   8   8
#     4   9  18  35  57  75  97 136 179 219 268 326
#     4   9  20  37  56  80 110 145 181 218 263 320
#     4  10  21  35  54  82 113 143 180 226 275 327
#     4  10  22  37  53  75 102 136 178 224 271 324
#     4  10  20  35  57  85 116 150 189 230 273 325
#     4  10  21  35  54  82 110 136 175 228 278 322
#     4  10  21  37  55  76 105 141 180 221 270 330
#     4  10  21  38  60  86 116 151 190 230 273 322
#
# _framework density 18.39593
#
# number of rings (size 3 to 8) (size 9 to 14) (size 15 to 20)
#    0.000    2.250    0.000    3.000    1.750    9.000 
#    0.000    0.625    0.000    3.000    0.000    0.000 
#    0.000    0.000    0.000    0.000    0.000    0.000 
#
# Total GULP energy -793797.525260 kJ/mol
# GULP energy per Si atom -12403.086332 kJ/mol
# Density = 1.835406 g / cm^3
# Si number density = 18.395930 Si / 1000 Ang^3
#
#
#
# Elastic Constant Matrix: (Units=GPa)
#
#
# Indices 1 2 3 4 5 6 
#
# 1 94.6136 58.6195 55.0254 0.0000 0.0000 0.0000
# 2 58.6195 107.8207 67.7777 0.0000 0.0000 0.0000
# 3 55.0254 67.7777 105.2729 0.0000 0.0000 0.0000
# 4 0.0000 0.0000 0.0000 28.2575 0.0000 0.0000
# 5 0.0000 0.0000 0.0000 0.0000 31.7438 0.0000
# 6 0.0000 0.0000 0.0000 0.0000 0.0000 34.7109
#
#
#
# Elastic Compliance Matrix: (Units=1/GPa)
#
#
# Indices 1 2 3 4 5 6 
#
# 1 0.017400 -0.006287 -0.005047 0.000000 0.000000 0.000000
# 2 -0.006287 0.017852 -0.008207 0.000000 0.000000 0.000000
# 3 -0.005047 -0.008207 0.017421 0.000000 0.000000 0.000000
# 4 0.000000 0.000000 0.000000 0.035389 0.000000 0.000000
# 5 0.000000 0.000000 0.000000 0.000000 0.031502 0.000000
# 6 0.000000 0.000000 0.000000 0.000000 0.000000 0.028809
#
#
# Mechanical properties :
#
#
# Convention : Reuss Voigt Hill
#
# Bulk Modulus (GPa) = 73.58275 74.50583 74.04429
# Shear Modulus (GPa) = 26.04341 27.36141 26.70241
#
# Velocity S-wave (km/s) = 3.76668 3.86082 3.81404
# Velocity P-wave (km/s) = 7.68137 7.77584 7.72875
#
# Compressibility (1/GPa) = 0.01359014
#
# Stress axis : x y z
#
# Youngs Moduli (GPa) = 57.47163 56.01523 57.40121
#
# Poissons Ratio (x) = 0.35219 0.28969
# Poissons Ratio (y) = 0.36135 0.47112
# Poissons Ratio (z) = 0.29005 0.45974
#
# Static dielectric constant tensor:
#      x y z
#    x 3.415790 0.000000 0.000000 
#    y 0.000000 3.398630 0.000000 
#    z 0.000000 0.000000 3.363460 
# 
# 
# High freq. dielectric constant tensor:
#      x y z
#    x 1.717530 0.000000 0.000000 
#    y 0.000000 1.717560 0.000000 
#    z 0.000000 0.000000 1.709350 
# 
# From -- ./inp_files/29444.got.cif
#   From: 2010.03.12/outbox.cif.g09.slc.cpg/sg59_15_cif.got.tgz:29444.got - 2010.04.16 16:29:54.
