data_PCOD8244678
_publ_section_title
;
Structure prediction by ZEFSAII (Michael W. Deem and Ramdas Pophale) SiO2 
 PCOD8244678
Probable space group: P M M N
;
_chemical_formula_sum "Si O2"
_cell_formula_units_Z 56
_cell_length_a 14.066003
_cell_length_b 21.662756
_cell_length_c 9.220754
_cell_angle_alpha 90.000000
_cell_angle_beta 90.000000
_cell_angle_gamma 90.000000
_cell_volume 2809.641114
_symmetry_space_group_name_H-M "P M M N"
_symmetry_group_IT_number 59
_space_group.IT_coordinate_system_code '2'
_symmetry_cell_setting 'orthorhombic'
loop_
_space_group_symop_operation_xyz
x,y,z
1/2-x,1/2-y,z
1/2+x,-y,-z
-x,1/2+y,-z
-x,-y,-z
1/2+x,1/2+y,-z
1/2-x,y,z
x,1/2-y,z
loop_
_atom_site_type_symbol
_atom_site_label
_atom_site_fract_x
_atom_site_fract_y
_atom_site_fract_z
Si Si1 0.003194 0.931161 0.941323
Si Si2 0.640487 0.553055 0.425727
Si Si3 0.638685 0.618229 0.722055
Si Si4 0.360130 0.821202 0.446984
Si Si5 0.862959 0.750000 0.285743
Si Si6 0.016658 0.136866 0.771392
Si Si7 0.362745 0.250000 0.381201
Si Si8 0.858283 0.419230 0.321793
O O1 0.087552 0.922977 0.828501
O O2 0.904840 0.913237 0.863563
O O3 0.020420 0.884676 0.073126
O O4 0.000000 0.000000 0.000000
O O5 0.750000 0.572762 0.392876
O O6 0.609657 0.577299 0.583248
O O7 0.569736 0.580677 0.307299
O O8 0.627782 0.479573 0.422063
O O9 0.750000 0.618547 0.746942
O O10 0.600230 0.688305 0.698894
O O11 0.250000 0.835640 0.408965
O O12 0.375072 0.750000 0.488149
O O13 0.423272 0.839185 0.309800
O O14 0.394228 0.860944 0.585229
O O15 0.750000 0.750000 0.269766
O O16 0.905528 0.690340 0.207539
O O17 0.898552 0.750000 0.452822
O O18 0.250000 0.250000 0.386054
O O19 0.750000 0.410816 0.276266
#
# Coordination Sequence:
#
# PCOD8244678 Si02
#       8
#     8   8   8   8   4   8   4   8
#     4  12  27  41  57  89 132 171 204 249 317 382
#     4  10  20  38  67  97 123 158 209 261 314 371
#     4  10  22  39  63  93 125 165 208 255 308 371
#     4  10  23  45  70  94 119 158 219 277 318 360
#     4  11  22  39  66 102 131 163 203 250 316 382
#     4  12  23  39  64  94 130 168 203 251 315 377
#     4   9  18  37  63  92 123 157 202 252 303 360
#     4  10  23  44  68  91 120 164 215 271 319 367
#
# _framework density 19.931372
#
# number of rings (size 3 to 8) (size 9 to 14) (size 15 to 20)
#    0.000    1.429    3.571    1.286    2.000    4.000 
#    1.286    0.714    0.000    0.000    0.000    0.000 
#    0.000    0.000    0.000    0.000    0.000    0.000 
#
# Total GULP energy -694611.693040 kJ/mol
# GULP energy per Si atom -12403.780233 kJ/mol
# Density = 1.988601 g / cm^3
# Si number density = 19.931372 Si / 1000 Ang^3
#
#
#
# Elastic Constant Matrix: (Units=GPa)
#
#
# Indices 1 2 3 4 5 6 
#
# 1 77.7811 56.9063 51.1737 0.0000 0.0000 0.0000
# 2 56.9063 148.6239 85.1803 0.0000 0.0000 0.0000
# 3 51.1737 85.1803 132.3670 0.0000 0.0000 0.0000
# 4 0.0000 0.0000 0.0000 37.5835 0.0000 0.0000
# 5 0.0000 0.0000 0.0000 0.0000 32.3413 0.0000
# 6 0.0000 0.0000 0.0000 0.0000 0.0000 27.2239
#
#
#
# Elastic Compliance Matrix: (Units=1/GPa)
#
#
# Indices 1 2 3 4 5 6 
#
# 1 0.019279 -0.004927 -0.004283 0.000000 0.000000 0.000000
# 2 -0.004927 0.011919 -0.005765 0.000000 0.000000 0.000000
# 3 -0.004283 -0.005765 0.012921 0.000000 0.000000 0.000000
# 4 0.000000 0.000000 0.000000 0.026607 0.000000 0.000000
# 5 0.000000 0.000000 0.000000 0.000000 0.030920 0.000000
# 6 0.000000 0.000000 0.000000 0.000000 0.000000 0.036732
#
#
# Mechanical properties :
#
#
# Convention : Reuss Voigt Hill
#
# Bulk Modulus (GPa) = 70.57933 82.81028 76.69481
# Shear Modulus (GPa) = 28.89304 30.46386 29.67845
#
# Velocity S-wave (km/s) = 3.81153 3.91377 3.86298
# Velocity P-wave (km/s) = 7.40664 7.87790 7.64590
#
# Compressibility (1/GPa) = 0.01416845
#
# Stress axis : x y z
#
# Youngs Moduli (GPa) = 51.86965 83.89805 77.39629
#
# Poissons Ratio (x) = 0.41339 0.33146
# Poissons Ratio (y) = 0.25557 0.44621
# Poissons Ratio (z) = 0.22214 0.48370
#
# Static dielectric constant tensor:
#      x y z
#    x 3.689660 0.000000 0.000000 
#    y 0.000000 3.936940 0.000000 
#    z 0.000000 0.000000 3.510930 
# 
# 
# High freq. dielectric constant tensor:
#      x y z
#    x 1.787140 0.000000 0.000000 
#    y 0.000000 1.793770 0.000000 
#    z 0.000000 0.000000 1.759750 
# 
# From -- ./inp_files/9407.got.cif
#   From: 2010.03.12/outbox.cif.g09.slc.cpg/sg59_5_cif.got.tgz:9407.got - 2010.04.16 16:29:54.
