data_PCOD8244607
_publ_section_title
;
Structure prediction by ZEFSAII (Michael W. Deem and Ramdas Pophale) SiO2 
 PCOD8244607
Probable space group: P M M N
;
_chemical_formula_sum "Si O2"
_cell_formula_units_Z 56
_cell_length_a 14.005708
_cell_length_b 20.008650
_cell_length_c 10.123480
_cell_angle_alpha 90.000000
_cell_angle_beta 90.000000
_cell_angle_gamma 90.000000
_cell_volume 2836.956550
_symmetry_space_group_name_H-M "P M M N"
_symmetry_group_IT_number 59
_space_group.IT_coordinate_system_code '2'
_symmetry_cell_setting 'orthorhombic'
loop_
_space_group_symop_operation_xyz
x,y,z
1/2-x,1/2-y,z
1/2+x,-y,-z
-x,1/2+y,-z
-x,-y,-z
1/2+x,1/2+y,-z
1/2-x,y,z
x,1/2-y,z
loop_
_atom_site_type_symbol
_atom_site_label
_atom_site_fract_x
_atom_site_fract_y
_atom_site_fract_z
Si Si1 0.364085 0.750000 0.204898
Si Si2 0.637758 0.250000 0.095932
Si Si3 0.006209 0.140317 0.725870
Si Si4 0.997214 0.006342 0.156836
Si Si5 0.862846 0.612408 0.783464
Si Si6 0.010632 0.171826 0.435294
Si Si7 0.636570 0.381267 0.253097
Si Si8 0.354282 0.175575 0.947733
O O1 0.250000 0.750000 0.222882
O O2 0.406529 0.818050 0.268508
O O3 0.398513 0.750000 0.053259
O O4 0.750000 0.250000 0.101800
O O5 0.601742 0.318099 0.164431
O O6 0.043245 0.141932 0.575729
O O7 0.082388 0.176706 0.817718
O O8 0.001291 0.065102 0.775160
O O9 0.090917 0.039181 0.222944
O O10 0.902563 0.049666 0.191526
O O11 0.000000 0.000000 0.000000
O O12 0.750000 0.609505 0.767538
O O13 0.904472 0.659544 0.669062
O O14 0.897711 0.636213 0.928190
O O15 0.989115 0.250000 0.447763
O O16 0.913467 0.132805 0.393792
O O17 0.750000 0.386591 0.269190
O O18 0.250000 0.145582 0.911452
O O19 0.343012 0.250000 0.001052
#
# Coordination Sequence:
#
# PCOD8244607 Si02
#       8
#     4   4   8   8   8   8   8   8
#     4  11  24  39  62  94 125 165 215 272 328 374
#     4   9  18  35  61  92 121 157 214 270 309 362
#     4  12  24  41  63  93 132 171 211 265 326 389
#     4  11  23  40  65  94 130 174 210 267 324 381
#     4  10  23  41  64  92 125 169 218 264 317 382
#     4  11  23  40  63  94 126 169 211 267 329 377
#     4  10  22  39  64  95 128 170 217 262 317 389
#     4  10  20  37  63  91 119 162 215 268 320 371
#
# _framework density 19.739464999999999
#
# number of rings (size 3 to 8) (size 9 to 14) (size 15 to 20)
#    0.000    1.429    3.571    1.286    2.000    6.000 
#    0.000    1.429    0.000    0.000    0.000    0.000 
#    0.000    0.000    0.000    0.000    0.000    0.000 
#
# Total GULP energy -694222.147246 kJ/mol
# GULP energy per Si atom -12396.824058 kJ/mol
# Density = 1.969454 g / cm^3
# Si number density = 19.739465 Si / 1000 Ang^3
#
#
#
# Elastic Constant Matrix: (Units=GPa)
#
#
# Indices 1 2 3 4 5 6 
#
# 1 124.2497 38.2538 50.8401 0.0000 0.0000 0.0000
# 2 38.2538 132.6538 36.5056 0.0000 0.0000 0.0000
# 3 50.8401 36.5056 126.2409 0.0000 0.0000 0.0000
# 4 0.0000 0.0000 0.0000 34.5465 0.0000 0.0000
# 5 0.0000 0.0000 0.0000 0.0000 17.6504 0.0000
# 6 0.0000 0.0000 0.0000 0.0000 0.0000 19.6374
#
#
#
# Elastic Compliance Matrix: (Units=1/GPa)
#
#
# Indices 1 2 3 4 5 6 
#
# 1 0.010077 -0.001944 -0.003496 0.000000 0.000000 0.000000
# 2 -0.001944 0.008565 -0.001694 0.000000 0.000000 0.000000
# 3 -0.003496 -0.001694 0.009819 0.000000 0.000000 0.000000
# 4 0.000000 0.000000 0.000000 0.028947 0.000000 0.000000
# 5 0.000000 0.000000 0.000000 0.000000 0.056656 0.000000
# 6 0.000000 0.000000 0.000000 0.000000 0.000000 0.050923
#
#
# Mechanical properties :
#
#
# Convention : Reuss Voigt Hill
#
# Bulk Modulus (GPa) = 70.45469 70.48259 70.46864
# Shear Modulus (GPa) = 27.17587 31.53653 29.35620
#
# Velocity S-wave (km/s) = 3.71445 4.00138 3.86059
# Velocity P-wave (km/s) = 7.35976 7.55857 7.45983
#
# Compressibility (1/GPa) = 0.01419352
#
# Stress axis : x y z
#
# Youngs Moduli (GPa) = 99.23209 116.75214 101.84087
#
# Poissons Ratio (x) = 0.22695 0.35606
# Poissons Ratio (y) = 0.19290 0.17252
# Poissons Ratio (z) = 0.34694 0.19777
#
# Static dielectric constant tensor:
#      x y z
#    x 3.590330 0.000000 0.000000 
#    y 0.000000 3.905360 0.000000 
#    z 0.000000 0.000000 3.793910 
# 
# 
# High freq. dielectric constant tensor:
#      x y z
#    x 1.769210 0.000000 0.000000 
#    y 0.000000 1.775300 0.000000 
#    z 0.000000 0.000000 1.770230 
# 
# From -- ./inp_files/9402.got.cif
#   From: 2010.03.12/outbox.cif.g09.slc.cpg/sg59_5_cif.got.tgz:9402.got - 2010.04.16 16:29:54.
