data_PCOD8244943
_publ_section_title
;
Structure prediction by ZEFSAII (Michael W. Deem and Ramdas Pophale) SiO2 
 PCOD8244943
Probable space group: P M M N
;
_chemical_formula_sum "Si O2"
_cell_formula_units_Z 48
_cell_length_a 8.894734
_cell_length_b 9.120767
_cell_length_c 30.818621
_cell_angle_alpha 90.000000
_cell_angle_beta 90.000000
_cell_angle_gamma 90.000000
_cell_volume 2500.215989
_symmetry_space_group_name_H-M "P M M N"
_symmetry_group_IT_number 59
_space_group.IT_coordinate_system_code '2'
_symmetry_cell_setting 'orthorhombic'
loop_
_space_group_symop_operation_xyz
x,y,z
1/2-x,1/2-y,z
1/2+x,-y,-z
-x,1/2+y,-z
-x,-y,-z
1/2+x,1/2+y,-z
1/2-x,y,z
x,1/2-y,z
loop_
_atom_site_type_symbol
_atom_site_label
_atom_site_fract_x
_atom_site_fract_y
_atom_site_fract_z
Si Si1 0.424333 0.579477 0.372938
Si Si2 0.927557 0.419196 0.040375
Si Si3 0.424526 0.420810 0.539901
Si Si4 0.425114 0.920650 0.801290
Si Si5 0.574173 0.078626 0.879544
Si Si6 0.578689 0.579178 0.712625
O O1 0.250000 0.543828 0.379818
O O2 0.456437 0.750000 0.366872
O O3 0.510573 0.517127 0.414874
O O4 0.485777 0.501244 0.329790
O O5 0.750000 0.434816 0.037052
O O6 0.977406 0.250000 0.039944
O O7 0.982066 0.492301 0.084418
O O8 0.000000 0.500000 0.000000
O O9 0.500000 0.500000 0.500000
O O10 0.250000 0.455172 0.538809
O O11 0.461784 0.250000 0.535954
O O12 0.250000 0.955397 0.807626
O O13 0.460017 0.750000 0.810550
O O14 0.473863 0.964453 0.752877
O O15 0.522930 0.019955 0.833075
O O16 0.750000 0.048513 0.886039
O O17 0.536970 0.250000 0.883185
O O18 0.750000 0.529938 0.722661
O O19 0.570555 0.750000 0.702979
#
# Coordination Sequence:
#
# PCOD8244943 Si02
#       6
#     8   8   8   8   8   8
#     4   9  18  33  52  74 103 138 175 217 265 317
#     4  11  24  41  62  89 119 151 189 231 276 328
#     4  10  21  36  54  77 105 138 177 220 267 321
#     4  10  21  37  57  82 112 146 185 228 274 325
#     4  11  24  40  59  85 115 148 189 233 277 329
#     4   9  18  33  53  77 106 141 180 221 266 318
#
# _framework density 19.198342
#
# number of rings (size 3 to 8) (size 9 to 14) (size 15 to 20)
#    0.000    2.000    0.000    3.000    0.000   10.667 
#    0.000    3.333    0.000    0.000    0.000    0.000 
#    0.000    0.000    0.000    0.000    0.000    0.000 
#
# Total GULP energy -595404.298626 kJ/mol
# GULP energy per Si atom -12404.256221 kJ/mol
# Density = 1.915465 g / cm^3
# Si number density = 19.198342 Si / 1000 Ang^3
#
#
#
# Elastic Constant Matrix: (Units=GPa)
#
#
# Indices 1 2 3 4 5 6 
#
# 1 63.4757 51.7083 45.4905 0.0000 0.0000 0.0000
# 2 51.7083 88.6168 68.7891 0.0000 0.0000 0.0000
# 3 45.4905 68.7891 148.2952 0.0000 0.0000 0.0000
# 4 0.0000 0.0000 0.0000 42.7606 0.0000 0.0000
# 5 0.0000 0.0000 0.0000 0.0000 42.1366 0.0000
# 6 0.0000 0.0000 0.0000 0.0000 0.0000 27.2115
#
#
#
# Elastic Compliance Matrix: (Units=1/GPa)
#
#
# Indices 1 2 3 4 5 6 
#
# 1 0.030301 -0.016355 -0.001709 0.000000 0.000000 0.000000
# 2 -0.016355 0.026461 -0.007258 0.000000 0.000000 0.000000
# 3 -0.001709 -0.007258 0.010634 0.000000 0.000000 0.000000
# 4 0.000000 0.000000 0.000000 0.023386 0.000000 0.000000
# 5 0.000000 0.000000 0.000000 0.000000 0.023732 0.000000
# 6 0.000000 0.000000 0.000000 0.000000 0.000000 0.036749
#
#
# Mechanical properties :
#
#
# Convention : Reuss Voigt Hill
#
# Bulk Modulus (GPa) = 59.68459 70.26262 64.97361
# Shear Modulus (GPa) = 24.09743 31.38173 27.73958
#
# Velocity S-wave (km/s) = 3.54670 4.04741 3.80530
# Velocity P-wave (km/s) = 6.92301 7.64982 7.29547
#
# Compressibility (1/GPa) = 0.01675474
#
# Stress axis : x y z
#
# Youngs Moduli (GPa) = 33.00178 37.79117 94.03747
#
# Poissons Ratio (x) = 0.61806 0.16070
# Poissons Ratio (y) = 0.53973 0.68249
# Poissons Ratio (z) = 0.05640 0.27427
#
# Static dielectric constant tensor:
#      x y z
#    x 3.567270 0.000000 0.000000 
#    y 0.000000 3.551010 0.000000 
#    z 0.000000 0.000000 3.784540 
# 
# 
# High freq. dielectric constant tensor:
#      x y z
#    x 1.751120 0.000000 0.000000 
#    y 0.000000 1.743580 0.000000 
#    z 0.000000 0.000000 1.763770 
# 
# From -- ./inp_files/32891.got.cif
#   From: 2010.03.12/outbox.cif.g09.slc.cpg/sg59_17_cif.got.tgz:32891.got - 2010.04.16 16:29:54.
