data_PCOD8244223
_publ_section_title
;
Structure prediction by ZEFSAII (Michael W. Deem and Ramdas Pophale) SiO2 
 PCOD8244223
Probable space group: P M M N
;
_chemical_formula_sum "Si O2"
_cell_formula_units_Z 48
_cell_length_a 14.988333
_cell_length_b 8.958289
_cell_length_c 19.019833
_cell_angle_alpha 90.000000
_cell_angle_beta 90.000000
_cell_angle_gamma 90.000000
_cell_volume 2553.789528
_symmetry_space_group_name_H-M "P M M N"
_symmetry_group_IT_number 59
_space_group.IT_coordinate_system_code '2'
_symmetry_cell_setting 'orthorhombic'
loop_
_space_group_symop_operation_xyz
x,y,z
1/2-x,1/2-y,z
1/2+x,-y,-z
-x,1/2+y,-z
-x,-y,-z
1/2+x,1/2+y,-z
1/2-x,y,z
x,1/2-y,z
loop_
_atom_site_type_symbol
_atom_site_label
_atom_site_fract_x
_atom_site_fract_y
_atom_site_fract_z
Si Si1 0.094959 0.073526 0.001162
Si Si2 0.996312 0.073057 0.753468
Si Si3 0.854079 0.425647 0.501415
Si Si4 0.153260 0.426348 0.850384
Si Si5 0.489604 0.074399 0.396752
Si Si6 0.849446 0.082639 0.862268
O O1 0.086562 0.250000 0.003426
O O2 0.148312 0.021055 0.069439
O O3 0.143092 0.016730 0.930332
O O4 0.000000 0.000000 0.000000
O O5 0.000281 0.250000 0.739499
O O6 0.080518 0.009379 0.796995
O O7 0.910865 0.024914 0.799085
O O8 0.994658 0.987194 0.681069
O O9 0.750000 0.479054 0.491601
O O10 0.855323 0.250000 0.515447
O O11 0.901667 0.504159 0.567365
O O12 0.915999 0.467452 0.434209
O O13 0.250000 0.477172 0.822554
O O14 0.142885 0.250000 0.851385
O O15 0.475316 0.250000 0.396234
O O16 0.750000 0.081679 0.831834
O O17 0.879978 0.250000 0.884091
#
# Coordination Sequence:
#
# PCOD8244223 Si02
#       6
#     8   8   8   8   8   8
#     4  11  20  34  56  79 106 140 184 234 285 332
#     4  10  20  36  54  76 110 150 185 218 267 331
#     4   9  19  38  62  84 110 147 183 214 262 326
#     4   9  18  33  53  76 103 138 182 228 272 323
#     4  10  21  36  56  86 117 142 177 227 270 312
#     4  10  21  37  55  77 106 143 188 233 277 328
#
# _framework density 18.795597999999998
#
# number of rings (size 3 to 8) (size 9 to 14) (size 15 to 20)
#    0.000    2.167    1.667    1.500    0.000    4.000 
#    0.000    1.667    0.000    2.000    0.000    0.000 
#    0.000    0.000    0.000    0.000    0.000    0.000 
#
# Total GULP energy -595022.462409 kJ/mol
# GULP energy per Si atom -12396.301300 kJ/mol
# Density = 1.875282 g / cm^3
# Si number density = 18.795598 Si / 1000 Ang^3
#
#
#
# Elastic Constant Matrix: (Units=GPa)
#
#
# Indices 1 2 3 4 5 6 
#
# 1 159.7374 30.6164 72.7389 0.0000 0.0000 0.0000
# 2 30.6164 39.7329 36.3081 0.0000 0.0000 0.0000
# 3 72.7389 36.3081 153.2915 0.0000 0.0000 0.0000
# 4 0.0000 0.0000 0.0000 31.3458 0.0000 0.0000
# 5 0.0000 0.0000 0.0000 0.0000 -5.9419 0.0000
# 6 0.0000 0.0000 0.0000 0.0000 0.0000 19.7486
#
#
#
# Elastic Compliance Matrix: (Units=1/GPa)
#
#
# Indices 1 2 3 4 5 6 
#
# 1 0.008371 -0.003600 -0.003119 0.000000 0.000000 0.000000
# 2 -0.003600 0.033668 -0.006266 0.000000 0.000000 0.000000
# 3 -0.003119 -0.006266 0.009488 0.000000 0.000000 0.000000
# 4 0.000000 0.000000 0.000000 0.031902 0.000000 0.000000
# 5 0.000000 0.000000 0.000000 0.000000 -0.168297 0.000000
# 6 0.000000 0.000000 0.000000 0.000000 0.000000 0.050637
#
#
# Mechanical properties :
#
#
# Convention : Reuss Voigt Hill
#
# Bulk Modulus (GPa) = 39.12999 70.23207 54.68103
# Shear Modulus (GPa) = 19373.92788 23.23707 9698.58248
#
# Velocity S-wave (km/s) = 101.63696 3.51993 71.91127
# Velocity P-wave (km/s) = 117.44910 7.34624 83.21136
#
# Compressibility (1/GPa) = 0.02555584
#
# Stress axis : x y z
#
# Youngs Moduli (GPa) = 119.46491 29.70177 105.39652
#
# Poissons Ratio (x) = 0.10691 0.32878
# Poissons Ratio (y) = 0.43002 0.66046
# Poissons Ratio (z) = 0.37266 0.18613
#
# Static dielectric constant tensor:
#      x y z
#    x 3.650060 0.000000 0.000000 
#    y 0.000000 3.517810 0.000000 
#    z 0.000000 0.000000 3.693150 
# 
# 
# High freq. dielectric constant tensor:
#      x y z
#    x 1.745590 0.000000 0.000000 
#    y 0.000000 1.710000 0.000000 
#    z 0.000000 0.000000 1.727410 
# 
# From -- ./inp_files/25453.got.cif
#   From: 2010.03.12/outbox.cif.g09.slc.cpg/sg59_13_cif.got.tgz:25453.got - 2010.04.16 16:29:54.
