data_PCOD8244606
_publ_section_title
;
Structure prediction by ZEFSAII (Michael W. Deem and Ramdas Pophale) SiO2 
 PCOD8244606
Probable space group: P M M N
;
_chemical_formula_sum "Si O2"
_cell_formula_units_Z 48
_cell_length_a 17.222828
_cell_length_b 14.208275
_cell_length_c 9.733428
_cell_angle_alpha 90.000000
_cell_angle_beta 90.000000
_cell_angle_gamma 90.000000
_cell_volume 2381.834817
_symmetry_space_group_name_H-M "P M M N"
_symmetry_group_IT_number 59
_space_group.IT_coordinate_system_code '2'
_symmetry_cell_setting 'orthorhombic'
loop_
_space_group_symop_operation_xyz
x,y,z
1/2-x,1/2-y,z
1/2+x,-y,-z
-x,1/2+y,-z
-x,-y,-z
1/2+x,1/2+y,-z
1/2-x,y,z
x,1/2-y,z
loop_
_atom_site_type_symbol
_atom_site_label
_atom_site_fract_x
_atom_site_fract_y
_atom_site_fract_z
Si Si1 0.661600 0.954746 0.162266
Si Si2 0.442066 0.428544 0.070470
Si Si3 0.158928 0.483328 0.324296
Si Si4 0.106534 0.139608 0.567123
Si Si5 0.581851 0.146178 0.210765
Si Si6 0.069591 0.857193 0.468790
O O1 0.750000 0.948447 0.117781
O O2 0.652075 0.914636 0.314290
O O3 0.636492 0.064646 0.150253
O O4 0.612969 0.891132 0.053229
O O5 0.387270 0.477821 0.182330
O O6 0.496228 0.349904 0.140721
O O7 0.500000 0.500000 0.000000
O O8 0.250000 0.485614 0.292698
O O9 0.138409 0.394872 0.420738
O O10 0.134764 0.579687 0.398688
O O11 0.122803 0.250000 0.576658
O O12 0.015752 0.115496 0.585846
O O13 0.619558 0.250000 0.188791
O O14 0.569543 0.124288 0.369885
O O15 0.089848 0.750000 0.432557
#
# Coordination Sequence:
#
# PCOD8244606 Si02
#       6
#     8   8   8   8   8   8
#     4  11  23  40  60  90 128 163 199 251 315 371
#     4  10  22  40  62  85 119 166 210 248 291 363
#     4  12  23  38  62  93 128 159 198 258 320 368
#     4  11  23  40  63  89 121 163 212 258 305 365
#     4  10  20  37  63  91 119 157 208 254 299 364
#     4  10  20  37  63  91 119 156 203 252 301 363
#
# _framework density 20.152529999999999
#
# number of rings (size 3 to 8) (size 9 to 14) (size 15 to 20)
#    0.000    1.333    3.333    3.500    0.000    2.667 
#    0.000    6.667    0.000    7.000    0.000    0.000 
#    0.000    0.000    0.000    0.000    0.000    0.000 
#
# Total GULP energy -595130.724186 kJ/mol
# GULP energy per Si atom -12398.556754 kJ/mol
# Density = 2.010666 g / cm^3
# Si number density = 20.152530 Si / 1000 Ang^3
#
#
#
# Elastic Constant Matrix: (Units=GPa)
#
#
# Indices 1 2 3 4 5 6 
#
# 1 114.7565 31.7629 35.6716 0.0000 0.0000 0.0000
# 2 31.7629 74.7719 21.0264 0.0000 0.0000 0.0000
# 3 35.6716 21.0264 103.0118 0.0000 0.0000 0.0000
# 4 0.0000 0.0000 0.0000 6.6498 0.0000 0.0000
# 5 0.0000 0.0000 0.0000 0.0000 26.5624 0.0000
# 6 0.0000 0.0000 0.0000 0.0000 0.0000 18.4063
#
#
#
# Elastic Compliance Matrix: (Units=1/GPa)
#
#
# Indices 1 2 3 4 5 6 
#
# 1 0.010650 -0.003699 -0.002933 0.000000 0.000000 0.000000
# 2 -0.003699 0.015473 -0.001877 0.000000 0.000000 0.000000
# 3 -0.002933 -0.001877 0.011106 0.000000 0.000000 0.000000
# 4 0.000000 0.000000 0.000000 0.150381 0.000000 0.000000
# 5 0.000000 0.000000 0.000000 0.000000 0.037647 0.000000
# 6 0.000000 0.000000 0.000000 0.000000 0.000000 0.054329
#
#
# Mechanical properties :
#
#
# Convention : Reuss Voigt Hill
#
# Bulk Modulus (GPa) = 49.47878 52.16246 50.82062
# Shear Modulus (GPa) = 16.48301 23.92897 20.20599
#
# Velocity S-wave (km/s) = 2.86302 3.44959 3.16990
# Velocity P-wave (km/s) = 5.96109 6.46578 6.21856
#
# Compressibility (1/GPa) = 0.02021069
#
# Stress axis : x y z
#
# Youngs Moduli (GPa) = 93.90003 64.62715 90.03823
#
# Poissons Ratio (x) = 0.23907 0.26406
# Poissons Ratio (y) = 0.34736 0.16904
# Poissons Ratio (z) = 0.27538 0.12133
#
# Static dielectric constant tensor:
#      x y z
#    x 3.842230 0.000000 0.000000 
#    y 0.000000 3.615570 0.000000 
#    z 0.000000 0.000000 3.869710 
# 
# 
# High freq. dielectric constant tensor:
#      x y z
#    x 1.787190 0.000000 0.000000 
#    y 0.000000 1.776400 0.000000 
#    z 0.000000 0.000000 1.794700 
# 
# From -- ./inp_files/8999.got.cif
#   From: 2010.03.12/outbox.cif.g09.slc.cpg/sg59_5_cif.got.tgz:8999.got - 2010.04.16 16:29:54.
