data_PCOD8244730
_publ_section_title
;
Structure prediction by ZEFSAII (Michael W. Deem and Ramdas Pophale) SiO2 
 PCOD8244730
Probable space group: P M M N
;
_chemical_formula_sum "Si O2"
_cell_formula_units_Z 56
_cell_length_a 14.956082
_cell_length_b 9.271970
_cell_length_c 21.514734
_cell_angle_alpha 90.000000
_cell_angle_beta 90.000000
_cell_angle_gamma 90.000000
_cell_volume 2983.498586
_symmetry_space_group_name_H-M "P M M N"
_symmetry_group_IT_number 59
_space_group.IT_coordinate_system_code '2'
_symmetry_cell_setting 'orthorhombic'
loop_
_space_group_symop_operation_xyz
x,y,z
1/2-x,1/2-y,z
1/2+x,-y,-z
-x,1/2+y,-z
-x,-y,-z
1/2+x,1/2+y,-z
1/2-x,y,z
x,1/2-y,z
loop_
_atom_site_type_symbol
_atom_site_label
_atom_site_fract_x
_atom_site_fract_y
_atom_site_fract_z
Si Si1 0.349654 0.421700 0.617662
Si Si2 0.502447 0.077988 0.152340
Si Si3 0.850831 0.082746 0.635335
Si Si4 0.143651 0.090191 0.482154
Si Si5 0.145893 0.915825 0.083284
Si Si6 0.848648 0.078937 0.056511
Si Si7 0.988769 0.580827 0.279144
O O1 0.250000 0.481388 0.632431
O O2 0.347092 0.250000 0.614719
O O3 0.384042 0.475433 0.549620
O O4 0.416661 0.474758 0.670790
O O5 0.498248 0.250000 0.155729
O O6 0.578202 0.020999 0.104697
O O7 0.407319 0.016792 0.130681
O O8 0.527732 0.014199 0.218752
O O9 0.750000 0.030264 0.650964
O O10 0.852858 0.250000 0.619435
O O11 0.912150 0.048482 0.694757
O O12 0.891804 0.007349 0.574226
O O13 0.250000 0.096285 0.480487
O O14 0.103482 0.250000 0.472944
O O15 0.250000 0.932066 0.099071
O O16 0.115664 0.750000 0.092129
O O17 0.126029 0.970483 0.013225
O O18 0.750000 0.018493 0.074503
O O19 0.844989 0.250000 0.057378
O O20 0.976719 0.750000 0.263840
#
# Coordination Sequence:
#
# PCOD8244730 Si02
#       7
#     8   8   8   8   8   8   8
#     4   8  15  30  51  72  94 122 160 207 253 296
#     4  11  22  34  51  77 108 137 167 210 256 293
#     4   9  18  32  48  67  93 124 159 200 243 290
#     4   8  14  27  49  73  93 117 153 200 255 303
#     4   9  18  35  59  81 101 132 171 205 245 303
#     4   8  16  33  56  80 105 134 167 203 249 304
#     4  10  21  35  49  67  95 135 176 203 234 292
#
# _framework density 18.769911
#
# number of rings (size 3 to 8) (size 9 to 14) (size 15 to 20)
#    0.000    3.000    0.000    2.571    0.000    2.571 
#    0.000    2.857    0.000    3.857    0.000    0.000 
#    0.000    0.000    0.000    0.000    0.000    0.000 
#
# Total GULP energy -694192.200396 kJ/mol
# GULP energy per Si atom -12396.289293 kJ/mol
# Density = 1.872719 g / cm^3
# Si number density = 18.769911 Si / 1000 Ang^3
#
#
#
# Elastic Constant Matrix: (Units=GPa)
#
#
# Indices 1 2 3 4 5 6 
#
# 1 56.6660 16.3935 16.5107 0.0000 0.0000 0.0000
# 2 16.3935 42.1126 24.6649 0.0000 0.0000 0.0000
# 3 16.5107 24.6649 75.9195 0.0000 0.0000 0.0000
# 4 0.0000 0.0000 0.0000 29.2157 0.0000 0.0000
# 5 0.0000 0.0000 0.0000 0.0000 25.9365 0.0000
# 6 0.0000 0.0000 0.0000 0.0000 0.0000 16.4180
#
#
#
# Elastic Compliance Matrix: (Units=1/GPa)
#
#
# Indices 1 2 3 4 5 6 
#
# 1 0.020199 -0.006533 -0.002270 0.000000 0.000000 0.000000
# 2 -0.006533 0.031439 -0.008793 0.000000 0.000000 0.000000
# 3 -0.002270 -0.008793 0.016522 0.000000 0.000000 0.000000
# 4 0.000000 0.000000 0.000000 0.034228 0.000000 0.000000
# 5 0.000000 0.000000 0.000000 0.000000 0.038556 0.000000
# 6 0.000000 0.000000 0.000000 0.000000 0.000000 0.060909
#
#
# Mechanical properties :
#
#
# Convention : Reuss Voigt Hill
#
# Bulk Modulus (GPa) = 30.33345 32.20403 31.26874
# Shear Modulus (GPa) = 20.15841 22.12264 21.14053
#
# Velocity S-wave (km/s) = 3.28071 3.43683 3.35968
# Velocity P-wave (km/s) = 5.52689 5.73965 5.63427
#
# Compressibility (1/GPa) = 0.03296690
#
# Stress axis : x y z
#
# Youngs Moduli (GPa) = 49.50778 31.80743 60.52430
#
# Poissons Ratio (x) = 0.20781 0.13740
# Poissons Ratio (y) = 0.32345 0.53220
# Poissons Ratio (z) = 0.11239 0.27969
#
# Static dielectric constant tensor:
#      x y z
#    x 3.659560 0.000000 0.000000 
#    y 0.000000 3.161930 0.000000 
#    z 0.000000 0.000000 3.548380 
# 
# 
# High freq. dielectric constant tensor:
#      x y z
#    x 1.729410 0.000000 0.000000 
#    y 0.000000 1.693180 0.000000 
#    z 0.000000 0.000000 1.730680 
# 
# From -- ./inp_files/30337.got.cif
#   From: 2010.03.12/outbox.cif.g09.slc.cpg/sg59_16_cif.got.tgz:30337.got - 2010.04.16 16:29:54.
