data_PCOD8244814
_publ_section_title
;
Structure prediction by ZEFSAII (Michael W. Deem and Ramdas Pophale) SiO2 
 PCOD8244814
Probable space group: P M M N
;
_chemical_formula_sum "Si O2"
_cell_formula_units_Z 64
_cell_length_a 9.211600
_cell_length_b 23.459678
_cell_length_c 15.113916
_cell_angle_alpha 90.000000
_cell_angle_beta 90.000000
_cell_angle_gamma 90.000000
_cell_volume 3266.134929
_symmetry_space_group_name_H-M "P M M N"
_symmetry_group_IT_number 59
_space_group.IT_coordinate_system_code '2'
_symmetry_cell_setting 'orthorhombic'
loop_
_space_group_symop_operation_xyz
x,y,z
1/2-x,1/2-y,z
1/2+x,-y,-z
-x,1/2+y,-z
-x,-y,-z
1/2+x,1/2+y,-z
1/2-x,y,z
x,1/2-y,z
loop_
_atom_site_type_symbol
_atom_site_label
_atom_site_fract_x
_atom_site_fract_y
_atom_site_fract_z
Si Si1 0.906603 0.815405 0.992373
Si Si2 0.083056 0.879615 0.652005
Si Si3 0.078780 0.377120 0.685620
Si Si4 0.579391 0.183198 0.524909
Si Si5 0.087067 0.859381 0.143677
Si Si6 0.417564 0.503603 0.733904
Si Si7 0.080459 0.186040 0.199270
Si Si8 0.415943 0.510464 0.091533
O O1 0.750000 0.841354 0.024451
O O2 0.881079 0.750000 0.970067
O O3 0.031969 0.820811 0.063752
O O4 0.951691 0.841995 0.897525
O O5 0.250000 0.863370 0.663880
O O6 0.027281 0.853038 0.560115
O O7 0.058348 0.947952 0.658922
O O8 0.997380 0.853262 0.731725
O O9 0.250000 0.368109 0.680870
O O10 0.034755 0.444063 0.688049
O O11 0.006868 0.344642 0.604783
O O12 0.017383 0.347777 0.773829
O O13 0.750000 0.175832 0.542299
O O14 0.538958 0.250000 0.513310
O O15 0.250000 0.841232 0.169569
O O16 0.080127 0.922902 0.108655
O O17 0.250000 0.499951 0.763446
O O18 0.508077 0.518432 0.822952
O O19 0.250000 0.185652 0.219640
O O20 0.017489 0.250000 0.207798
O O21 0.250000 0.488109 0.083626
O O22 0.500000 0.500000 0.000000
#
# Coordination Sequence:
#
# PCOD8244814 Si02
#       8
#     8   8   8   8   8   8   8   8
#     4   9  19  35  53  76 109 148 187 228 280 338
#     4  10  21  37  59  85 115 149 188 234 284 343
#     4  10  21  39  61  83 112 149 188 234 288 342
#     4  10  22  40  61  86 115 148 187 234 290 346
#     4  10  21  36  55  80 109 143 185 233 279 328
#     4   9  20  38  57  83 117 150 189 235 285 338
#     4   9  19  35  53  77 112 150 188 234 284 336
#     4  10  21  35  53  79 112 150 191 232 275 327
#
# _framework density 19.595025
#
# number of rings (size 3 to 8) (size 9 to 14) (size 15 to 20)
#    0.000    2.375    0.000    2.250    1.750    5.750 
#    0.000    1.250    0.000    0.000    0.000    0.000 
#    0.000    0.000    0.000    0.000    0.000    0.000 
#
# Total GULP energy -793381.410787 kJ/mol
# GULP energy per Si atom -12396.584544 kJ/mol
# Density = 1.955043 g / cm^3
# Si number density = 19.595025 Si / 1000 Ang^3
#
#
#
# Elastic Constant Matrix: (Units=GPa)
#
#
# Indices 1 2 3 4 5 6 
#
# 1 82.3752 39.8942 64.9058 0.0000 0.0000 0.0000
# 2 39.8942 62.1428 54.5728 0.0000 0.0000 0.0000
# 3 64.9058 54.5728 146.4847 0.0000 0.0000 0.0000
# 4 0.0000 0.0000 0.0000 34.8123 0.0000 0.0000
# 5 0.0000 0.0000 0.0000 0.0000 39.0701 0.0000
# 6 0.0000 0.0000 0.0000 0.0000 0.0000 27.1499
#
#
#
# Elastic Compliance Matrix: (Units=1/GPa)
#
#
# Indices 1 2 3 4 5 6 
#
# 1 0.020960 -0.007877 -0.006352 0.000000 0.000000 0.000000
# 2 -0.007877 0.026877 -0.006523 0.000000 0.000000 0.000000
# 3 -0.006352 -0.006523 0.012071 0.000000 0.000000 0.000000
# 4 0.000000 0.000000 0.000000 0.028725 0.000000 0.000000
# 5 0.000000 0.000000 0.000000 0.000000 0.025595 0.000000
# 6 0.000000 0.000000 0.000000 0.000000 0.000000 0.036832
#
#
# Mechanical properties :
#
#
# Convention : Reuss Voigt Hill
#
# Bulk Modulus (GPa) = 54.33711 67.74981 61.04346
# Shear Modulus (GPa) = 25.16354 28.98180 27.07267
#
# Velocity S-wave (km/s) = 3.58743 3.85000 3.72103
# Velocity P-wave (km/s) = 6.70446 7.37654 7.04852
#
# Compressibility (1/GPa) = 0.01840363
#
# Stress axis : x y z
#
# Youngs Moduli (GPa) = 47.71071 37.20645 82.84037
#
# Poissons Ratio (x) = 0.29308 0.52624
# Poissons Ratio (y) = 0.37582 0.54035
# Poissons Ratio (z) = 0.30308 0.24269
#
# Static dielectric constant tensor:
#      x y z
#    x 3.630420 0.000000 0.000000 
#    y 0.000000 4.009560 0.000000 
#    z 0.000000 0.000000 3.616550 
# 
# 
# High freq. dielectric constant tensor:
#      x y z
#    x 1.762910 0.000000 0.000000 
#    y 0.000000 1.761270 0.000000 
#    z 0.000000 0.000000 1.763740 
# 
# From -- ./inp_files/21464.got.cif
#   From: 2010.03.12/outbox.cif.g09.slc.cpg/sg59_11_cif.got.tgz:21464.got - 2010.04.16 16:29:54.
