data_PCOD8244422
_publ_section_title
;
Structure prediction by ZEFSAII (Michael W. Deem and Ramdas Pophale) SiO2 
 PCOD8244422
Probable space group: P M M N
;
_chemical_formula_sum "Si O2"
_cell_formula_units_Z 64
_cell_length_a 9.069727
_cell_length_b 22.810168
_cell_length_c 16.135821
_cell_angle_alpha 90.000000
_cell_angle_beta 90.000000
_cell_angle_gamma 90.000000
_cell_volume 3338.210865
_symmetry_space_group_name_H-M "P M M N"
_symmetry_group_IT_number 59
_space_group.IT_coordinate_system_code '2'
_symmetry_cell_setting 'orthorhombic'
loop_
_space_group_symop_operation_xyz
x,y,z
1/2-x,1/2-y,z
1/2+x,-y,-z
-x,1/2+y,-z
-x,-y,-z
1/2+x,1/2+y,-z
1/2-x,y,z
x,1/2-y,z
loop_
_atom_site_type_symbol
_atom_site_label
_atom_site_fract_x
_atom_site_fract_y
_atom_site_fract_z
Si Si1 0.422353 0.535650 0.604914
Si Si2 0.424290 0.818747 0.337857
Si Si3 0.078124 0.314520 0.150193
Si Si4 0.082630 0.585226 0.777100
Si Si5 0.424222 0.408576 0.542993
Si Si6 0.912046 0.818745 0.032250
Si Si7 0.920785 0.508845 0.087566
Si Si8 0.922585 0.118117 0.832824
O O1 0.250000 0.544711 0.586501
O O2 0.468860 0.546962 0.699211
O O3 0.467792 0.468098 0.591254
O O4 0.511861 0.582220 0.549147
O O5 0.250000 0.822823 0.350732
O O6 0.473158 0.750000 0.334119
O O7 0.503442 0.851716 0.413939
O O8 0.472172 0.852619 0.253906
O O9 0.250000 0.310820 0.165754
O O10 0.007285 0.250000 0.159197
O O11 0.010090 0.355503 0.220306
O O12 0.044569 0.341734 0.059144
O O13 0.250000 0.604121 0.765062
O O14 0.058603 0.550300 0.861663
O O15 0.250000 0.398321 0.539192
O O16 0.750000 0.844034 0.058403
O O17 0.898986 0.750000 0.026050
O O18 0.039630 0.835391 0.095812
O O19 0.750000 0.523287 0.071099
O O20 0.988783 0.559571 0.145200
O O21 0.000000 0.500000 0.000000
O O22 0.750000 0.104200 0.833382
#
# Coordination Sequence:
#
# PCOD8244422 Si02
#       8
#     8   8   8   8   8   8   8   8
#     4   9  19  37  59  83 112 142 173 218 277 333
#     4  10  22  39  57  80 115 156 192 230 282 343
#     4   9  19  35  53  74 102 135 171 215 264 310
#     4  10  21  36  55  79 106 138 177 218 261 316
#     4  10  20  36  60  87 110 137 179 227 273 327
#     4   9  18  33  52  73 100 139 184 227 273 319
#     4  11  23  38  55  80 115 151 189 234 283 332
#     4  11  22  35  53  79 110 146 189 232 276 329
#
# _framework density 19.171946999999999
#
# number of rings (size 3 to 8) (size 9 to 14) (size 15 to 20)
#    0.000    2.125    0.000    3.750    0.000    7.750 
#    0.000    1.875    0.000    0.750    0.000    0.000 
#    0.000    0.000    0.000    0.000    0.000    0.000 
#
# Total GULP energy -793429.564255 kJ/mol
# GULP energy per Si atom -12397.336941 kJ/mol
# Density = 1.912831 g / cm^3
# Si number density = 19.171947 Si / 1000 Ang^3
#
#
#
# Elastic Constant Matrix: (Units=GPa)
#
#
# Indices 1 2 3 4 5 6 
#
# 1 67.1779 43.4817 39.8164 0.0000 0.0000 0.0000
# 2 43.4817 93.0224 39.6866 0.0000 0.0000 0.0000
# 3 39.8164 39.6866 76.1844 0.0000 0.0000 0.0000
# 4 0.0000 0.0000 0.0000 32.7899 0.0000 0.0000
# 5 0.0000 0.0000 0.0000 0.0000 31.9181 0.0000
# 6 0.0000 0.0000 0.0000 0.0000 0.0000 33.6390
#
#
#
# Elastic Compliance Matrix: (Units=1/GPa)
#
#
# Indices 1 2 3 4 5 6 
#
# 1 0.025497 -0.008014 -0.009151 0.000000 0.000000 0.000000
# 2 -0.008014 0.016341 -0.004324 0.000000 0.000000 0.000000
# 3 -0.009151 -0.004324 0.020161 0.000000 0.000000 0.000000
# 4 0.000000 0.000000 0.000000 0.030497 0.000000 0.000000
# 5 0.000000 0.000000 0.000000 0.000000 0.031330 0.000000
# 6 0.000000 0.000000 0.000000 0.000000 0.000000 0.029727
#
#
# Mechanical properties :
#
#
# Convention : Reuss Voigt Hill
#
# Bulk Modulus (GPa) = 52.57313 53.59491 53.08402
# Shear Modulus (GPa) = 24.64622 27.22942 25.93782
#
# Velocity S-wave (km/s) = 3.58933 3.77274 3.68218
# Velocity P-wave (km/s) = 6.68275 6.85519 6.76952
#
# Compressibility (1/GPa) = 0.01902112
#
# Stress axis : x y z
#
# Youngs Moduli (GPa) = 39.22099 61.19612 49.60070
#
# Poissons Ratio (x) = 0.49042 0.45388
# Poissons Ratio (y) = 0.31432 0.21448
# Poissons Ratio (z) = 0.35890 0.26462
#
# Static dielectric constant tensor:
#      x y z
#    x 3.575760 0.000000 0.000000 
#    y 0.000000 3.560760 0.000000 
#    z 0.000000 0.000000 3.636140 
# 
# 
# High freq. dielectric constant tensor:
#      x y z
#    x 1.742950 0.000000 0.000000 
#    y 0.000000 1.748030 0.000000 
#    z 0.000000 0.000000 1.741300 
# 
# From -- ./inp_files/21574.got.cif
#   From: 2010.03.12/outbox.cif.g09.slc.cpg/sg59_11_cif.got.tgz:21574.got - 2010.04.16 16:29:54.
