data_PCOD8244166
_publ_section_title
;
Structure prediction by ZEFSAII (Michael W. Deem and Ramdas Pophale) SiO2 
 PCOD8244166
Probable space group: P M M N
;
_chemical_formula_sum "Si O2"
_cell_formula_units_Z 56
_cell_length_a 27.653369
_cell_length_b 13.519196
_cell_length_c 7.411670
_cell_angle_alpha 90.000000
_cell_angle_beta 90.000000
_cell_angle_gamma 90.000000
_cell_volume 2770.862580
_symmetry_space_group_name_H-M "P M M N"
_symmetry_group_IT_number 59
_space_group.IT_coordinate_system_code '2'
_symmetry_cell_setting 'orthorhombic'
loop_
_space_group_symop_operation_xyz
x,y,z
1/2-x,1/2-y,z
1/2+x,-y,-z
-x,1/2+y,-z
-x,-y,-z
1/2+x,1/2+y,-z
1/2-x,y,z
x,1/2-y,z
loop_
_atom_site_type_symbol
_atom_site_label
_atom_site_fract_x
_atom_site_fract_y
_atom_site_fract_z
Si Si1 0.604738 0.866705 0.776306
Si Si2 0.950155 0.526500 0.094041
Si Si3 0.193771 0.858794 0.940172
Si Si4 0.934344 0.362595 0.350611
Si Si5 0.330078 0.862057 0.538311
Si Si6 0.031009 0.133324 0.535306
Si Si7 0.695175 0.993021 0.764890
O O1 0.603344 0.750000 0.808494
O O2 0.573587 0.898090 0.601744
O O3 0.660095 0.899316 0.740082
O O4 0.584812 0.919280 0.954782
O O5 0.925972 0.424754 0.166657
O O6 0.958202 0.596775 0.265200
O O7 0.000000 0.500000 0.000000
O O8 0.250000 0.850429 0.982838
O O9 0.169584 0.750000 0.970789
O O10 0.184936 0.894102 0.738009
O O11 0.172389 0.940781 0.074284
O O12 0.944092 0.250000 0.289912
O O13 0.888077 0.369832 0.481178
O O14 0.979915 0.409036 0.458780
O O15 0.312665 0.750000 0.495802
O O16 0.303288 0.938141 0.410404
O O17 0.025973 0.250000 0.545491
O O18 0.750000 0.955372 0.802829
#
# Coordination Sequence:
#
# PCOD8244166 Si02
#       7
#     8   8   8   8   8   8   8
#     4  11  25  44  63  86 119 161 209 256 307 359
#     4  12  23  36  66  90 119 163 204 244 301 367
#     4   9  18  34  56  85 121 157 194 243 303 366
#     4  10  21  37  57  89 130 161 196 244 298 365
#     4  10  20  35  58  87 123 160 191 235 296 367
#     4  10  22  41  61  88 126 162 198 247 299 355
#     4  11  23  38  61  88 116 157 208 257 302 354
#
# _framework density 20.210314
#
# number of rings (size 3 to 8) (size 9 to 14) (size 15 to 20)
#    0.000    1.571    1.429    3.429    2.000    2.286 
#    0.000    0.714    0.000    0.000    0.000    4.000 
#    0.000    0.000    0.000    0.000    0.000    0.000 
#
# Total GULP energy -694466.709017 kJ/mol
# GULP energy per Si atom -12401.191232 kJ/mol
# Density = 2.016431 g / cm^3
# Si number density = 20.210314 Si / 1000 Ang^3
#
#
#
# Elastic Constant Matrix: (Units=GPa)
#
#
# Indices 1 2 3 4 5 6 
#
# 1 94.1053 28.5789 31.3088 0.0000 0.0000 0.0000
# 2 28.5789 56.8551 34.3429 0.0000 0.0000 0.0000
# 3 31.3088 34.3429 113.7955 0.0000 0.0000 0.0000
# 4 0.0000 0.0000 0.0000 29.8954 0.0000 0.0000
# 5 0.0000 0.0000 0.0000 0.0000 27.7710 0.0000
# 6 0.0000 0.0000 0.0000 0.0000 0.0000 1.6622
#
#
#
# Elastic Compliance Matrix: (Units=1/GPa)
#
#
# Indices 1 2 3 4 5 6 
#
# 1 0.012883 -0.005301 -0.001945 0.000000 0.000000 0.000000
# 2 -0.005301 0.023691 -0.005691 0.000000 0.000000 0.000000
# 3 -0.001945 -0.005691 0.011040 0.000000 0.000000 0.000000
# 4 0.000000 0.000000 0.000000 0.033450 0.000000 0.000000
# 5 0.000000 0.000000 0.000000 0.000000 0.036009 0.000000
# 6 0.000000 0.000000 0.000000 0.000000 0.000000 0.601612
#
#
# Mechanical properties :
#
#
# Convention : Reuss Voigt Hill
#
# Bulk Modulus (GPa) = 45.99772 50.35746 48.17759
# Shear Modulus (GPa) = 6.65064 23.23407 14.94235
#
# Velocity S-wave (km/s) = 1.81600 3.39427 2.72204
# Velocity P-wave (km/s) = 5.21595 6.35077 5.81113
#
# Compressibility (1/GPa) = 0.02174021
#
# Stress axis : x y z
#
# Youngs Moduli (GPa) = 77.61956 42.20989 90.57671
#
# Poissons Ratio (x) = 0.22377 0.17615
# Poissons Ratio (y) = 0.41148 0.51550
# Poissons Ratio (z) = 0.15095 0.24023
#
# Static dielectric constant tensor:
#      x y z
#    x 3.746330 0.000000 0.000000 
#    y 0.000000 2.886270 0.000000 
#    z 0.000000 0.000000 3.653610 
# 
# 
# High freq. dielectric constant tensor:
#      x y z
#    x 1.791630 0.000000 0.000000 
#    y 0.000000 1.786930 0.000000 
#    z 0.000000 0.000000 1.789840 
# 
# From -- ./inp_files/4559.got.cif
#   From: 2010.03.12/outbox.cif.g09.slc.cpg/sg59_3_cif.got.tgz:4559.got - 2010.04.16 16:29:54.
