data_PCOD8244136
_publ_section_title
;
Structure prediction by ZEFSAII (Michael W. Deem and Ramdas Pophale) SiO2 
 PCOD8244136
Probable space group: P M M N
;
_chemical_formula_sum "Si O2"
_cell_formula_units_Z 56
_cell_length_a 16.065548
_cell_length_b 9.027901
_cell_length_c 19.434115
_cell_angle_alpha 90.000000
_cell_angle_beta 90.000000
_cell_angle_gamma 90.000000
_cell_volume 2818.688608
_symmetry_space_group_name_H-M "P M M N"
_symmetry_group_IT_number 59
_space_group.IT_coordinate_system_code '2'
_symmetry_cell_setting 'orthorhombic'
loop_
_space_group_symop_operation_xyz
x,y,z
1/2-x,1/2-y,z
1/2+x,-y,-z
-x,1/2+y,-z
-x,-y,-z
1/2+x,1/2+y,-z
1/2-x,y,z
x,1/2-y,z
loop_
_atom_site_type_symbol
_atom_site_label
_atom_site_fract_x
_atom_site_fract_y
_atom_site_fract_z
Si Si1 0.655096 0.419905 0.149162
Si Si2 0.750000 0.574697 0.942128
Si Si3 0.750000 0.424129 0.794983
Si Si4 0.845591 0.422892 0.426258
Si Si5 0.401634 0.924019 0.300795
Si Si6 0.415159 0.074930 0.975539
Si Si7 0.347115 0.077599 0.436532
Si Si8 0.934742 0.420511 0.287449
O O1 0.750000 0.467065 0.138291
O O2 0.639834 0.250000 0.127072
O O3 0.597968 0.525907 0.103099
O O4 0.634164 0.442941 0.229013
O O5 0.750000 0.750000 0.936321
O O6 0.750000 0.507702 0.866620
O O7 0.665821 0.521200 0.980914
O O8 0.750000 0.250000 0.809699
O O9 0.670209 0.474555 0.751288
O O10 0.750000 0.464735 0.412727
O O11 0.856113 0.250000 0.441123
O O12 0.880797 0.510992 0.491942
O O13 0.896634 0.473483 0.359652
O O14 0.398827 0.750000 0.312828
O O15 0.394940 0.002550 0.374162
O O16 0.487852 0.976126 0.267446
O O17 0.426260 0.250000 0.979983
O O18 0.500000 0.000000 0.000000
O O19 0.250000 0.042328 0.428185
O O20 0.367331 0.250000 0.435771
O O21 0.963752 0.250000 0.291331
#
# Coordination Sequence:
#
# PCOD8244136 Si02
#       8
#     8   4   4   8   8   8   8   8
#     4  10  21  40  66  93 123 162 203 246 297 358
#     4  10  24  44  66  92 125 162 203 250 305 362
#     4  10  24  42  62  86 115 152 197 242 293 356
#     4   9  18  35  59  84 114 154 194 239 291 346
#     4  11  23  40  59  84 116 153 196 243 296 354
#     4  11  24  43  65  95 129 165 207 253 304 365
#     4  10  20  35  58  85 113 150 196 244 294 351
#     4  10  22  38  58  88 121 153 196 244 294 350
#
# _framework density 19.867394999999998
#
# number of rings (size 3 to 8) (size 9 to 14) (size 15 to 20)
#    0.000    1.857    1.429    1.714    2.000    6.286 
#    0.000    0.000    0.000    2.571    0.000    0.000 
#    0.000    0.000    0.000    0.000    0.000    0.000 
#
# Total GULP energy -694621.052292 kJ/mol
# GULP energy per Si atom -12403.947362 kJ/mol
# Density = 1.982218 g / cm^3
# Si number density = 19.867395 Si / 1000 Ang^3
#
#
#
# Elastic Constant Matrix: (Units=GPa)
#
#
# Indices 1 2 3 4 5 6 
#
# 1 112.7413 40.8320 45.6612 0.0000 0.0000 0.0000
# 2 40.8320 59.7084 40.0445 0.0000 0.0000 0.0000
# 3 45.6612 40.0445 121.8888 0.0000 0.0000 0.0000
# 4 0.0000 0.0000 0.0000 36.9465 0.0000 0.0000
# 5 0.0000 0.0000 0.0000 0.0000 28.7746 0.0000
# 6 0.0000 0.0000 0.0000 0.0000 0.0000 31.2890
#
#
#
# Elastic Compliance Matrix: (Units=1/GPa)
#
#
# Indices 1 2 3 4 5 6 
#
# 1 0.012300 -0.006825 -0.002365 0.000000 0.000000 0.000000
# 2 -0.006825 0.025268 -0.005745 0.000000 0.000000 0.000000
# 3 -0.002365 -0.005745 0.010978 0.000000 0.000000 0.000000
# 4 0.000000 0.000000 0.000000 0.027066 0.000000 0.000000
# 5 0.000000 0.000000 0.000000 0.000000 0.034753 0.000000
# 6 0.000000 0.000000 0.000000 0.000000 0.000000 0.031960
#
#
# Mechanical properties :
#
#
# Convention : Reuss Voigt Hill
#
# Bulk Modulus (GPa) = 53.54626 60.82376 57.18501
# Shear Modulus (GPa) = 28.02383 30.58874 29.30629
#
# Velocity S-wave (km/s) = 3.75980 3.92809 3.84486
# Velocity P-wave (km/s) = 6.77188 7.15922 6.96825
#
# Compressibility (1/GPa) = 0.01867544
#
# Stress axis : x y z
#
# Youngs Moduli (GPa) = 81.30308 39.57567 91.09404
#
# Poissons Ratio (x) = 0.27010 0.21548
# Poissons Ratio (y) = 0.55488 0.52331
# Poissons Ratio (z) = 0.19232 0.22735
#
# Static dielectric constant tensor:
#      x y z
#    x 3.706700 0.000000 0.000000 
#    y 0.000000 3.551860 0.000000 
#    z 0.000000 0.000000 3.638620 
# 
# 
# High freq. dielectric constant tensor:
#      x y z
#    x 1.779450 0.000000 0.000000 
#    y 0.000000 1.769390 0.000000 
#    z 0.000000 0.000000 1.783770 
# 
# From -- ./inp_files/30515.got.cif
#   From: 2010.03.12/outbox.cif.g09.slc.cpg/sg59_16_cif.got.tgz:30515.got - 2010.04.16 16:29:54.
