data_PCOD8244310
_publ_section_title
;
Structure prediction by ZEFSAII (Michael W. Deem and Ramdas Pophale) SiO2 
 PCOD8244310
Probable space group: P M M N
;
_chemical_formula_sum "Si O2"
_cell_formula_units_Z 48
_cell_length_a 8.799953
_cell_length_b 9.677195
_cell_length_c 28.388431
_cell_angle_alpha 90.000000
_cell_angle_beta 90.000000
_cell_angle_gamma 90.000000
_cell_volume 2417.526454
_symmetry_space_group_name_H-M "P M M N"
_symmetry_group_IT_number 59
_space_group.IT_coordinate_system_code '2'
_symmetry_cell_setting 'orthorhombic'
loop_
_space_group_symop_operation_xyz
x,y,z
1/2-x,1/2-y,z
1/2+x,-y,-z
-x,1/2+y,-z
-x,-y,-z
1/2+x,1/2+y,-z
1/2-x,y,z
x,1/2-y,z
loop_
_atom_site_type_symbol
_atom_site_label
_atom_site_fract_x
_atom_site_fract_y
_atom_site_fract_z
Si Si1 0.572071 0.408736 0.121003
Si Si2 0.071192 0.250000 0.430904
Si Si3 0.929846 0.089558 0.958293
Si Si4 0.422169 0.406006 0.705930
Si Si5 0.423436 0.407891 0.218872
Si Si6 0.423947 0.750000 0.468760
Si Si7 0.071984 0.966523 0.390608
O O1 0.750000 0.431528 0.112850
O O2 0.526502 0.250000 0.108200
O O3 0.480474 0.518521 0.090101
O O4 0.531489 0.441421 0.174864
O O5 0.250000 0.250000 0.433150
O O6 0.013023 0.119852 0.401280
O O7 0.020812 0.250000 0.484499
O O8 0.750000 0.083822 0.962791
O O9 0.985084 0.250000 0.960257
O O10 0.000000 0.000000 0.000000
O O11 0.250000 0.461516 0.709056
O O12 0.431732 0.250000 0.725066
O O13 0.531401 0.499885 0.737032
O O14 0.476499 0.406759 0.652269
O O15 0.250000 0.439431 0.204372
O O16 0.442836 0.250000 0.234833
O O17 0.250000 0.750000 0.484378
O O18 0.464320 0.616780 0.437897
O O19 0.250000 0.957286 0.377735
#
# Coordination Sequence:
#
# PCOD8244310 Si02
#       7
#     8   4   8   8   8   4   8
#     4  10  21  39  63  91 123 158 199 248 300 355
#     4  10  22  36  56  84 112 144 184 232 283 340
#     4  11  24  40  60  89 124 164 210 256 304 358
#     4  11  24  40  59  85 116 152 193 240 293 347
#     4  10  22  40  64  91 119 155 196 241 295 354
#     4  10  20  36  58  80 110 150 188 228 281 338
#     4  10  21  38  57  81 113 148 187 233 284 342
#
# _framework density 19.855005999999999
#
# number of rings (size 3 to 8) (size 9 to 14) (size 15 to 20)
#    0.000    1.667    0.833    3.000    1.167    8.333 
#    0.000    0.000    0.000    0.000    0.000    0.000 
#    0.000    0.000    0.000    0.000    0.000    0.000 
#
# Total GULP energy -595343.494481 kJ/mol
# GULP energy per Si atom -12402.989468 kJ/mol
# Density = 1.980981 g / cm^3
# Si number density = 19.855006 Si / 1000 Ang^3
#
#
#
# Elastic Constant Matrix: (Units=GPa)
#
#
# Indices 1 2 3 4 5 6 
#
# 1 60.1096 40.1868 23.0259 0.0000 0.0000 0.0000
# 2 40.1868 122.7978 39.6679 0.0000 0.0000 0.0000
# 3 23.0259 39.6679 78.6968 0.0000 0.0000 0.0000
# 4 0.0000 0.0000 0.0000 -15.1481 0.0000 0.0000
# 5 0.0000 0.0000 0.0000 0.0000 40.2839 0.0000
# 6 0.0000 0.0000 0.0000 0.0000 0.0000 23.7516
#
#
#
# Elastic Compliance Matrix: (Units=1/GPa)
#
#
# Indices 1 2 3 4 5 6 
#
# 1 0.022013 -0.006120 -0.003356 0.000000 0.000000 0.000000
# 2 -0.006120 0.011429 -0.003970 0.000000 0.000000 0.000000
# 3 -0.003356 -0.003970 0.015690 0.000000 0.000000 0.000000
# 4 0.000000 0.000000 0.000000 -0.066015 0.000000 0.000000
# 5 0.000000 0.000000 0.000000 0.000000 0.024824 0.000000
# 6 0.000000 0.000000 0.000000 0.000000 0.000000 0.042102
#
#
# Mechanical properties :
#
#
# Convention : Reuss Voigt Hill
#
# Bulk Modulus (GPa) = 44.96414 51.92950 48.44682
# Shear Modulus (GPa) = 59.27710 20.35906 39.81808
#
# Velocity S-wave (km/s) = 5.46990 3.20564 4.48308
# Velocity P-wave (km/s) = 7.91129 6.31765 7.15895
#
# Compressibility (1/GPa) = 0.02223995
#
# Stress axis : x y z
#
# Youngs Moduli (GPa) = 45.42678 87.49834 63.73433
#
# Poissons Ratio (x) = 0.53549 0.21390
# Poissons Ratio (y) = 0.27801 0.25303
# Poissons Ratio (z) = 0.15246 0.34738
#
# Static dielectric constant tensor:
#      x y z
#    x 3.776980 0.000000 0.000000 
#    y 0.000000 4.035360 0.000000 
#    z 0.000000 0.000000 3.493930 
# 
# 
# High freq. dielectric constant tensor:
#      x y z
#    x 1.776590 0.000000 0.000000 
#    y 0.000000 1.785840 0.000000 
#    z 0.000000 0.000000 1.777010 
# 
# From -- ./inp_files/33060.got.cif
#   From: 2010.03.12/outbox.cif.g09.slc.cpg/sg59_17_cif.got.tgz:33060.got - 2010.04.16 16:29:54.
