data_PCOD8244759
_publ_section_title
;
Structure prediction by ZEFSAII (Michael W. Deem and Ramdas Pophale) SiO2 
 PCOD8244759
Probable space group: P M M N
;
_chemical_formula_sum "Si O2"
_cell_formula_units_Z 56
_cell_length_a 14.003274
_cell_length_b 9.608476
_cell_length_c 21.733995
_cell_angle_alpha 90.000000
_cell_angle_beta 90.000000
_cell_angle_gamma 90.000000
_cell_volume 2924.311682
_symmetry_space_group_name_H-M "P M M N"
_symmetry_group_IT_number 59
_space_group.IT_coordinate_system_code '2'
_symmetry_cell_setting 'orthorhombic'
loop_
_space_group_symop_operation_xyz
x,y,z
1/2-x,1/2-y,z
1/2+x,-y,-z
-x,1/2+y,-z
-x,-y,-z
1/2+x,1/2+y,-z
1/2-x,y,z
x,1/2-y,z
loop_
_atom_site_type_symbol
_atom_site_label
_atom_site_fract_x
_atom_site_fract_y
_atom_site_fract_z
Si Si1 0.636631 0.906757 0.444302
Si Si2 0.492163 0.411452 0.229681
Si Si3 0.863579 0.905694 0.580306
Si Si4 0.641431 0.910516 0.000901
Si Si5 0.025037 0.588919 0.910052
Si Si6 0.858825 0.089713 0.333876
Si Si7 0.363183 0.591173 0.308106
O O1 0.750000 0.919164 0.444004
O O2 0.604319 0.750000 0.429146
O O3 0.599220 0.949970 0.512402
O O4 0.594748 0.007733 0.391726
O O5 0.460718 0.250000 0.233546
O O6 0.519550 0.454006 0.160858
O O7 0.583251 0.443512 0.272222
O O8 0.404327 0.508462 0.249750
O O9 0.750000 0.904364 0.580172
O O10 0.900461 0.750000 0.597381
O O11 0.901864 0.015796 0.630090
O O12 0.750000 0.948026 0.983326
O O13 0.630971 0.750000 0.019836
O O14 0.609391 0.000742 0.059298
O O15 0.576471 0.945874 0.941781
O O16 0.051762 0.750000 0.917820
O O17 0.750000 0.042929 0.321133
O O18 0.864401 0.250000 0.352125
O O19 0.250000 0.584587 0.303488
O O20 0.399644 0.750000 0.308596
#
# Coordination Sequence:
#
# PCOD8244759 Si02
#       7
#     8   8   8   8   8   8   8
#     4   8  14  26  46  71  96 125 165 212 262 314
#     4  10  21  36  54  76 104 140 177 210 248 299
#     4   8  14  27  48  71  95 126 166 213 263 313
#     4   9  18  34  56  82 111 139 169 209 256 303
#     4   9  19  35  55  80 108 139 176 214 250 295
#     4   9  18  32  49  71 100 132 168 213 261 306
#     4  10  21  35  51  74 103 134 171 216 263 309
#
# _framework density 19.149806999999999
#
# number of rings (size 3 to 8) (size 9 to 14) (size 15 to 20)
#    0.000    3.000    0.000    1.286    0.000    4.000 
#    0.000    6.429    0.000    1.714    0.000    0.000 
#    0.000    0.000    0.000    0.000    0.000    0.000 
#
# Total GULP energy -694353.364922 kJ/mol
# GULP energy per Si atom -12399.167231 kJ/mol
# Density = 1.910622 g / cm^3
# Si number density = 19.149807 Si / 1000 Ang^3
#
#
#
# Elastic Constant Matrix: (Units=GPa)
#
#
# Indices 1 2 3 4 5 6 
#
# 1 44.2632 19.3932 13.7696 0.0000 0.0000 0.0000
# 2 19.3932 77.2592 48.5295 0.0000 0.0000 0.0000
# 3 13.7696 48.5295 122.2551 0.0000 0.0000 0.0000
# 4 0.0000 0.0000 0.0000 31.1693 0.0000 0.0000
# 5 0.0000 0.0000 0.0000 0.0000 15.1523 0.0000
# 6 0.0000 0.0000 0.0000 0.0000 0.0000 23.9698
#
#
#
# Elastic Compliance Matrix: (Units=1/GPa)
#
#
# Indices 1 2 3 4 5 6 
#
# 1 0.025401 -0.006100 -0.000440 0.000000 0.000000 0.000000
# 2 -0.006100 0.018708 -0.006739 0.000000 0.000000 0.000000
# 3 -0.000440 -0.006739 0.010904 0.000000 0.000000 0.000000
# 4 0.000000 0.000000 0.000000 0.032083 0.000000 0.000000
# 5 0.000000 0.000000 0.000000 0.000000 0.065997 0.000000
# 6 0.000000 0.000000 0.000000 0.000000 0.000000 0.041719
#
#
# Mechanical properties :
#
#
# Convention : Reuss Voigt Hill
#
# Bulk Modulus (GPa) = 35.14181 45.24024 40.19103
# Shear Modulus (GPa) = 21.65866 24.86396 23.26131
#
# Velocity S-wave (km/s) = 3.36670 3.60723 3.48904
# Velocity P-wave (km/s) = 5.78824 6.40509 6.10446
#
# Compressibility (1/GPa) = 0.02845613
#
# Stress axis : x y z
#
# Youngs Moduli (GPa) = 39.36777 53.45389 91.70773
#
# Poissons Ratio (x) = 0.32607 0.04031
# Poissons Ratio (y) = 0.24015 0.61802
# Poissons Ratio (z) = 0.01730 0.36023
#
# Static dielectric constant tensor:
#      x y z
#    x 3.352330 0.000000 0.000000 
#    y 0.000000 3.570610 0.000000 
#    z 0.000000 0.000000 3.598260 
# 
# 
# High freq. dielectric constant tensor:
#      x y z
#    x 1.736890 0.000000 0.000000 
#    y 0.000000 1.741050 0.000000 
#    z 0.000000 0.000000 1.739560 
# 
# From -- ./inp_files/30333.got.cif
#   From: 2010.03.12/outbox.cif.g09.slc.cpg/sg59_16_cif.got.tgz:30333.got - 2010.04.16 16:29:54.
