data_PCOD8244579
_publ_section_title
;
Structure prediction by ZEFSAII (Michael W. Deem and Ramdas Pophale) SiO2 
 PCOD8244579
Probable space group: P M M N
;
_chemical_formula_sum "Si O2"
_cell_formula_units_Z 64
_cell_length_a 9.044886
_cell_length_b 22.413949
_cell_length_c 16.488117
_cell_angle_alpha 90.000000
_cell_angle_beta 90.000000
_cell_angle_gamma 90.000000
_cell_volume 3342.662563
_symmetry_space_group_name_H-M "P M M N"
_symmetry_group_IT_number 59
_space_group.IT_coordinate_system_code '2'
_symmetry_cell_setting 'orthorhombic'
loop_
_space_group_symop_operation_xyz
x,y,z
1/2-x,1/2-y,z
1/2+x,-y,-z
-x,1/2+y,-z
-x,-y,-z
1/2+x,1/2+y,-z
1/2-x,y,z
x,1/2-y,z
loop_
_atom_site_type_symbol
_atom_site_label
_atom_site_fract_x
_atom_site_fract_y
_atom_site_fract_z
Si Si1 0.578272 0.026515 0.379032
Si Si2 0.574627 0.421644 0.206082
Si Si3 0.417555 0.857014 0.050137
Si Si4 0.919135 0.490773 0.916454
Si Si5 0.074823 0.180434 0.111109
Si Si6 0.577587 0.418286 0.548984
Si Si7 0.911016 0.316860 0.782962
Si Si8 0.917225 0.679692 0.367836
O O1 0.750000 0.010074 0.377460
O O2 0.534121 0.063947 0.299158
O O3 0.536258 0.066218 0.456714
O O4 0.490254 0.964639 0.386020
O O5 0.750000 0.418366 0.191234
O O6 0.507533 0.474900 0.152963
O O7 0.503308 0.357724 0.182153
O O8 0.250000 0.844354 0.019301
O O9 0.426421 0.920255 0.096137
O O10 0.467218 0.814304 0.123792
O O11 0.526494 0.847992 0.974839
O O12 0.750000 0.514235 0.919129
O O13 0.000000 0.500000 0.000000
O O14 0.250000 0.173907 0.119204
O O15 0.026746 0.250000 0.117217
O O16 0.750000 0.417350 0.564289
O O17 0.512729 0.352532 0.563155
O O18 0.750000 0.349584 0.778517
O O19 0.890077 0.250000 0.752621
O O20 0.027589 0.344750 0.720141
O O21 0.750000 0.658636 0.376231
O O22 0.933332 0.750000 0.380374
#
# Coordination Sequence:
#
# PCOD8244579 Si02
#       8
#     8   8   8   8   8   8   8   8
#     4   9  21  40  61  88 117 145 183 231 282 340
#     4  11  23  40  61  85 115 151 189 231 282 336
#     4  10  21  36  56  81 110 148 191 232 279 334
#     4  11  22  36  55  83 117 149 185 229 278 329
#     4  11  24  40  59  83 112 148 192 241 288 334
#     4  10  20  37  62  88 115 147 184 228 281 340
#     4   9  18  33  52  77 109 144 187 233 273 324
#     4  10  21  36  54  80 116 154 190 231 280 335
#
# _framework density 19.146414
#
# number of rings (size 3 to 8) (size 9 to 14) (size 15 to 20)
#    0.000    1.875    1.250    2.250    1.750    4.750 
#    0.000    1.875    0.000    3.750    0.000    0.000 
#    0.000    0.000    0.000    0.000    0.000    0.000 
#
# Total GULP energy -793348.198661 kJ/mol
# GULP energy per Si atom -12396.065604 kJ/mol
# Density = 1.910284 g / cm^3
# Si number density = 19.146414 Si / 1000 Ang^3
#
#
#
# Elastic Constant Matrix: (Units=GPa)
#
#
# Indices 1 2 3 4 5 6 
#
# 1 94.3676 48.5562 56.1616 0.0000 0.0000 0.0000
# 2 48.5562 88.4247 52.2168 0.0000 0.0000 0.0000
# 3 56.1616 52.2168 117.9551 0.0000 0.0000 0.0000
# 4 0.0000 0.0000 0.0000 29.2625 0.0000 0.0000
# 5 0.0000 0.0000 0.0000 0.0000 29.1050 0.0000
# 6 0.0000 0.0000 0.0000 0.0000 0.0000 32.4579
#
#
#
# Elastic Compliance Matrix: (Units=1/GPa)
#
#
# Indices 1 2 3 4 5 6 
#
# 1 0.016940 -0.006146 -0.005345 0.000000 0.000000 0.000000
# 2 -0.006146 0.017542 -0.004839 0.000000 0.000000 0.000000
# 3 -0.005345 -0.004839 0.013165 0.000000 0.000000 0.000000
# 4 0.000000 0.000000 0.000000 0.034173 0.000000 0.000000
# 5 0.000000 0.000000 0.000000 0.000000 0.034358 0.000000
# 6 0.000000 0.000000 0.000000 0.000000 0.000000 0.030809
#
#
# Mechanical properties :
#
#
# Convention : Reuss Voigt Hill
#
# Bulk Modulus (GPa) = 66.72642 68.29074 67.50858
# Shear Modulus (GPa) = 27.07924 27.75258 27.41591
#
# Velocity S-wave (km/s) = 3.76483 3.81135 3.78816
# Velocity P-wave (km/s) = 7.33654 7.42385 7.38033
#
# Compressibility (1/GPa) = 0.01498657
#
# Stress axis : x y z
#
# Youngs Moduli (GPa) = 59.03120 57.00738 75.95970
#
# Poissons Ratio (x) = 0.35037 0.40600
# Poissons Ratio (y) = 0.36280 0.36758
# Poissons Ratio (z) = 0.31552 0.27587
#
# Static dielectric constant tensor:
#      x y z
#    x 3.612910 0.000000 0.000000 
#    y 0.000000 3.747320 0.000000 
#    z 0.000000 0.000000 3.383440 
# 
# 
# High freq. dielectric constant tensor:
#      x y z
#    x 1.752330 0.000000 0.000000 
#    y 0.000000 1.743960 0.000000 
#    z 0.000000 0.000000 1.737700 
# 
# From -- ./inp_files/21453.got.cif
#   From: 2010.03.12/outbox.cif.g09.slc.cpg/sg59_11_cif.got.tgz:21453.got - 2010.04.16 16:29:54.
