data_PCOD8244069
_publ_section_title
;
Structure prediction by ZEFSAII (Michael W. Deem and Ramdas Pophale) SiO2 
 PCOD8244069
Probable space group: P M M N
;
_chemical_formula_sum "Si O2"
_cell_formula_units_Z 48
_cell_length_a 9.178641
_cell_length_b 7.666763
_cell_length_c 34.318347
_cell_angle_alpha 90.000000
_cell_angle_beta 90.000000
_cell_angle_gamma 90.000000
_cell_volume 2414.998044
_symmetry_space_group_name_H-M "P M M N"
_symmetry_group_IT_number 59
_space_group.IT_coordinate_system_code '2'
_symmetry_cell_setting 'orthorhombic'
loop_
_space_group_symop_operation_xyz
x,y,z
1/2-x,1/2-y,z
1/2+x,-y,-z
-x,1/2+y,-z
-x,-y,-z
1/2+x,1/2+y,-z
1/2-x,y,z
x,1/2-y,z
loop_
_atom_site_type_symbol
_atom_site_label
_atom_site_fract_x
_atom_site_fract_y
_atom_site_fract_z
Si Si1 0.089349 0.550131 0.389470
Si Si2 0.420184 0.551679 0.960811
Si Si3 0.581060 0.550072 0.763155
Si Si4 0.921375 0.750000 0.096563
Si Si5 0.915187 0.044820 0.314454
Si Si6 0.580641 0.250000 0.822173
Si Si7 0.412405 0.455185 0.538441
O O1 0.250000 0.461167 0.386410
O O2 0.111420 0.750000 0.400481
O O3 0.005645 0.540379 0.348907
O O4 0.995982 0.461463 0.424253
O O5 0.250000 0.527391 0.968783
O O6 0.458177 0.750000 0.948624
O O7 0.472501 0.423070 0.926520
O O8 0.500000 0.500000 0.000000
O O9 0.750000 0.527220 0.751928
O O10 0.546470 0.750000 0.775185
O O11 0.487012 0.489933 0.726263
O O12 0.537601 0.424325 0.798596
O O13 0.750000 0.750000 0.102784
O O14 0.993474 0.750000 0.138266
O O15 0.750000 0.974260 0.315374
O O16 0.920442 0.250000 0.319975
O O17 0.750000 0.250000 0.832302
O O18 0.500000 0.500000 0.500000
O O19 0.250000 0.537081 0.536193
O O20 0.399154 0.250000 0.543566
#
# Coordination Sequence:
#
# PCOD8244069 Si02
#       7
#     8   8   8   4   8   4   8
#     4  10  21  36  55  79 107 139 177 221 269 322
#     4  10  20  35  57  84 115 152 194 241 292 346
#     4   9  19  37  58  80 111 147 186 237 287 336
#     4  10  22  38  54  82 120 152 190 240 294 348
#     4  10  21  36  55  82 112 141 177 222 274 331
#     4  10  22  38  58  84 112 150 200 240 284 348
#     4  10  21  37  56  78 105 139 179 221 268 324
#
# _framework density 19.875793000000002
#
# number of rings (size 3 to 8) (size 9 to 14) (size 15 to 20)
#    0.000    2.167    0.833    1.500    1.167    5.667 
#    0.000    0.000    0.000    0.000    0.000    0.000 
#    0.000    0.000    0.000    0.000    0.000    0.000 
#
# Total GULP energy -595222.696705 kJ/mol
# GULP energy per Si atom -12400.472848 kJ/mol
# Density = 1.983055 g / cm^3
# Si number density = 19.875793 Si / 1000 Ang^3
#
#
#
# Elastic Constant Matrix: (Units=GPa)
#
#
# Indices 1 2 3 4 5 6 
#
# 1 135.1091 37.8416 88.4860 0.0000 0.0000 0.0000
# 2 37.8416 89.0065 58.8845 0.0000 0.0000 0.0000
# 3 88.4860 58.8845 176.7345 0.0000 0.0000 0.0000
# 4 0.0000 0.0000 0.0000 30.3228 0.0000 0.0000
# 5 0.0000 0.0000 0.0000 0.0000 45.2902 0.0000
# 6 0.0000 0.0000 0.0000 0.0000 0.0000 20.4094
#
#
#
# Elastic Compliance Matrix: (Units=1/GPa)
#
#
# Indices 1 2 3 4 5 6 
#
# 1 0.011136 -0.001342 -0.005128 0.000000 0.000000 0.000000
# 2 -0.001342 0.014573 -0.004184 0.000000 0.000000 0.000000
# 3 -0.005128 -0.004184 0.009620 0.000000 0.000000 0.000000
# 4 0.000000 0.000000 0.000000 0.032979 0.000000 0.000000
# 5 0.000000 0.000000 0.000000 0.000000 0.022080 0.000000
# 6 0.000000 0.000000 0.000000 0.000000 0.000000 0.048997
#
#
# Mechanical properties :
#
#
# Convention : Reuss Voigt Hill
#
# Bulk Modulus (GPa) = 71.31982 85.69715 78.50848
# Shear Modulus (GPa) = 30.23590 33.58034 31.90812
#
# Velocity S-wave (km/s) = 3.90454 4.11482 4.01106
# Velocity P-wave (km/s) = 7.50253 8.11083 7.81260
#
# Compressibility (1/GPa) = 0.01402135
#
# Stress axis : x y z
#
# Youngs Moduli (GPa) = 89.79945 68.61770 103.95173
#
# Poissons Ratio (x) = 0.09206 0.53311
# Poissons Ratio (y) = 0.12048 0.43492
# Poissons Ratio (z) = 0.46053 0.28709
#
# Static dielectric constant tensor:
#      x y z
#    x 3.829870 0.000000 0.000000 
#    y 0.000000 4.067530 0.000000 
#    z 0.000000 0.000000 3.552800 
# 
# 
# High freq. dielectric constant tensor:
#      x y z
#    x 1.782380 0.000000 0.000000 
#    y 0.000000 1.774820 0.000000 
#    z 0.000000 0.000000 1.770470 
# 
# From -- ./inp_files/32926.got.cif
#   From: 2010.03.12/outbox.cif.g09.slc.cpg/sg59_17_cif.got.tgz:32926.got - 2010.04.16 16:29:54.
