data_PCOD8244840
_publ_section_title
;
Structure prediction by ZEFSAII (Michael W. Deem and Ramdas Pophale) SiO2 
 PCOD8244840
Probable space group: P M M N
;
_chemical_formula_sum "Si O2"
_cell_formula_units_Z 40
_cell_length_a 9.269912
_cell_length_b 15.720257
_cell_length_c 14.487086
_cell_angle_alpha 90.000000
_cell_angle_beta 90.000000
_cell_angle_gamma 90.000000
_cell_volume 2111.136388
_symmetry_space_group_name_H-M "P M M N"
_symmetry_group_IT_number 59
_space_group.IT_coordinate_system_code '2'
_symmetry_cell_setting 'orthorhombic'
loop_
_space_group_symop_operation_xyz
x,y,z
1/2-x,1/2-y,z
1/2+x,-y,-z
-x,1/2+y,-z
-x,-y,-z
1/2+x,1/2+y,-z
1/2-x,y,z
x,1/2-y,z
loop_
_atom_site_type_symbol
_atom_site_label
_atom_site_fract_x
_atom_site_fract_y
_atom_site_fract_z
Si Si1 0.588243 0.847471 0.227413
Si Si2 0.920730 0.750000 0.716465
Si Si3 0.077993 0.250000 0.076258
Si Si4 0.418129 0.105367 0.420087
Si Si5 0.918934 0.583843 0.030966
Si Si6 0.581910 0.089877 0.601688
O O1 0.750000 0.869054 0.262495
O O2 0.579232 0.750000 0.195563
O O3 0.548834 0.904112 0.139117
O O4 0.474721 0.864180 0.307591
O O5 0.750000 0.750000 0.724008
O O6 0.985464 0.750000 0.819493
O O7 0.973246 0.833757 0.661814
O O8 0.250000 0.250000 0.074515
O O9 0.020882 0.165234 0.025404
O O10 0.250000 0.119449 0.441124
O O11 0.503393 0.129169 0.512800
O O12 0.452326 0.009860 0.388749
O O13 0.750000 0.572305 0.011693
O O14 0.000000 0.500000 0.000000
O O15 0.750000 0.108431 0.591344
#
# Coordination Sequence:
#
# PCOD8244840 Si02
#       6
#     8   4   4   8   8   8
#     4  10  21  38  58  81 110 149 190 226 272 336
#     4   9  18  32  56  81 102 138 189 225 256 317
#     4   9  18  36  60  83 110 146 191 233 270 333
#     4   9  19  36  55  79 109 146 185 222 269 330
#     4  10  21  38  61  86 113 148 188 233 284 333
#     4  10  21  35  55  83 113 143 180 231 282 321
#
# _framework density 18.947141999999999
#
# number of rings (size 3 to 8) (size 9 to 14) (size 15 to 20)
#    0.000    2.400    1.000    0.600    4.200    2.000 
#    0.000    0.500    0.000    1.200    0.000    0.000 
#    0.000    0.000    0.000    0.000    0.000    0.000 
#
# Total GULP energy -496085.715914 kJ/mol
# GULP energy per Si atom -12402.142898 kJ/mol
# Density = 1.890402 g / cm^3
# Si number density = 18.947142 Si / 1000 Ang^3
#
#
#
# Elastic Constant Matrix: (Units=GPa)
#
#
# Indices 1 2 3 4 5 6 
#
# 1 52.4931 29.9263 42.7316 0.0000 0.0000 0.0000
# 2 29.9263 98.5244 51.1536 0.0000 0.0000 0.0000
# 3 42.7316 51.1536 124.4749 0.0000 0.0000 0.0000
# 4 0.0000 0.0000 0.0000 36.5182 0.0000 0.0000
# 5 0.0000 0.0000 0.0000 0.0000 19.5266 0.0000
# 6 0.0000 0.0000 0.0000 0.0000 0.0000 29.0200
#
#
#
# Elastic Compliance Matrix: (Units=1/GPa)
#
#
# Indices 1 2 3 4 5 6 
#
# 1 0.027894 -0.004450 -0.007747 0.000000 0.000000 0.000000
# 2 -0.004450 0.013613 -0.004066 0.000000 0.000000 0.000000
# 3 -0.007747 -0.004066 0.012364 0.000000 0.000000 0.000000
# 4 0.000000 0.000000 0.000000 0.027384 0.000000 0.000000
# 5 0.000000 0.000000 0.000000 0.000000 0.051212 0.000000
# 6 0.000000 0.000000 0.000000 0.000000 0.000000 0.034459
#
#
# Mechanical properties :
#
#
# Convention : Reuss Voigt Hill
#
# Bulk Modulus (GPa) = 46.85297 58.12394 52.48845
# Shear Modulus (GPa) = 24.20517 27.12500 25.66509
#
# Velocity S-wave (km/s) = 3.57811 3.78777 3.68443
# Velocity P-wave (km/s) = 6.46934 7.06209 6.77220
#
# Compressibility (1/GPa) = 0.02134336
#
# Stress axis : x y z
#
# Youngs Moduli (GPa) = 35.85064 73.45990 80.87790
#
# Poissons Ratio (x) = 0.32693 0.62654
# Poissons Ratio (y) = 0.15955 0.32889
# Poissons Ratio (z) = 0.27773 0.29872
#
# Static dielectric constant tensor:
#      x y z
#    x 3.201050 0.000000 0.000000 
#    y 0.000000 3.514980 0.000000 
#    z 0.000000 0.000000 3.583220 
# 
# 
# High freq. dielectric constant tensor:
#      x y z
#    x 1.708770 0.000000 0.000000 
#    y 0.000000 1.742700 0.000000 
#    z 0.000000 0.000000 1.745690 
# 
# From -- ./inp_files/19950.got.cif
#   From: 2010.03.12/outbox.cif.g09.slc.cpg/sg59_10_cif.got.tgz:19950.got - 2010.04.16 16:29:54.
