data_PCOD8244030
_publ_section_title
;
Structure prediction by ZEFSAII (Michael W. Deem and Ramdas Pophale) SiO2 
 PCOD8244030
Probable space group: P M M N
;
_chemical_formula_sum "Si O2"
_cell_formula_units_Z 48
_cell_length_a 9.032051
_cell_length_b 36.525252
_cell_length_c 7.575767
_cell_angle_alpha 90.000000
_cell_angle_beta 90.000000
_cell_angle_gamma 90.000000
_cell_volume 2499.229919
_symmetry_space_group_name_H-M "P M M N"
_symmetry_group_IT_number 59
_space_group.IT_coordinate_system_code '2'
_symmetry_cell_setting 'orthorhombic'
loop_
_space_group_symop_operation_xyz
x,y,z
1/2-x,1/2-y,z
1/2+x,-y,-z
-x,1/2+y,-z
-x,-y,-z
1/2+x,1/2+y,-z
1/2-x,y,z
x,1/2-y,z
loop_
_atom_site_type_symbol
_atom_site_label
_atom_site_fract_x
_atom_site_fract_y
_atom_site_fract_z
Si Si1 0.079533 0.707938 0.003501
Si Si2 0.921792 0.587243 0.281732
Si Si3 0.075473 0.462286 0.048992
Si Si4 0.577319 0.337845 0.329404
Si Si5 0.577300 0.829166 0.315709
Si Si6 0.576570 0.422113 0.363076
O O1 0.250000 0.698795 0.043167
O O2 0.057067 0.750000 0.950119
O O3 0.987140 0.699476 0.177481
O O4 0.019972 0.682992 0.843804
O O5 0.750000 0.582227 0.331538
O O6 0.963865 0.567025 0.101730
O O7 0.962242 0.629729 0.254079
O O8 0.019128 0.570259 0.439250
O O9 0.250000 0.467860 0.069113
O O10 0.000000 0.500000 0.000000
O O11 0.009610 0.448946 0.233437
O O12 0.750000 0.331153 0.361419
O O13 0.492274 0.320723 0.494560
O O14 0.540280 0.380600 0.307036
O O15 0.750000 0.822646 0.330557
O O16 0.750000 0.430835 0.354408
#
# Coordination Sequence:
#
# PCOD8244030 Si02
#       6
#     8   8   8   8   8   8
#     4  10  21  36  54  77 108 146 182 217 262 317
#     4   9  20  38  58  80 107 142 180 218 265 320
#     4  11  23  38  56  79 110 145 180 220 268 323
#     4   9  19  36  57  81 108 141 183 225 265 316
#     4  10  20  35  57  83 109 138 176 223 271 317
#     4  10  20  35  58  84 108 138 179 227 272 315
#
# _framework density 19.205916999999999
#
# number of rings (size 3 to 8) (size 9 to 14) (size 15 to 20)
#    0.000    2.167    0.000    2.500    0.000    5.000 
#    0.000    1.667    0.000    0.000    0.000    0.000 
#    0.000    0.000    0.000    0.000    0.000    0.000 
#
# Total GULP energy -595464.001745 kJ/mol
# GULP energy per Si atom -12405.500036 kJ/mol
# Density = 1.916220 g / cm^3
# Si number density = 19.205917 Si / 1000 Ang^3
#
#
#
# Elastic Constant Matrix: (Units=GPa)
#
#
# Indices 1 2 3 4 5 6 
#
# 1 67.8550 18.7827 34.9725 0.0000 0.0000 0.0000
# 2 18.7827 40.3582 13.7974 0.0000 0.0000 0.0000
# 3 34.9725 13.7974 77.8579 0.0000 0.0000 0.0000
# 4 0.0000 0.0000 0.0000 20.1248 0.0000 0.0000
# 5 0.0000 0.0000 0.0000 0.0000 32.1869 0.0000
# 6 0.0000 0.0000 0.0000 0.0000 0.0000 28.0457
#
#
#
# Elastic Compliance Matrix: (Units=1/GPa)
#
#
# Indices 1 2 3 4 5 6 
#
# 1 0.020847 -0.006920 -0.008138 0.000000 0.000000 0.000000
# 2 -0.006920 0.028673 -0.001973 0.000000 0.000000 0.000000
# 3 -0.008138 -0.001973 0.016849 0.000000 0.000000 0.000000
# 4 0.000000 0.000000 0.000000 0.049690 0.000000 0.000000
# 5 0.000000 0.000000 0.000000 0.000000 0.031069 0.000000
# 6 0.000000 0.000000 0.000000 0.000000 0.000000 0.035656
#
#
# Mechanical properties :
#
#
# Convention : Reuss Voigt Hill
#
# Bulk Modulus (GPa) = 30.95248 35.68626 33.31937
# Shear Modulus (GPa) = 21.96695 23.97270 22.96982
#
# Velocity S-wave (km/s) = 3.38562 3.53681 3.46204
# Velocity P-wave (km/s) = 5.60663 5.94137 5.77643
#
# Compressibility (1/GPa) = 0.03230759
#
# Stress axis : x y z
#
# Youngs Moduli (GPa) = 47.96839 34.87572 59.35109
#
# Poissons Ratio (x) = 0.24134 0.48299
# Poissons Ratio (y) = 0.33195 0.11709
# Poissons Ratio (z) = 0.39036 0.06880
#
# Static dielectric constant tensor:
#      x y z
#    x 3.501340 0.000000 0.000000 
#    y 0.000000 3.590730 0.000000 
#    z 0.000000 0.000000 3.546730 
# 
# 
# High freq. dielectric constant tensor:
#      x y z
#    x 1.750080 0.000000 0.000000 
#    y 0.000000 1.741530 0.000000 
#    z 0.000000 0.000000 1.755430 
# 
# From -- ./inp_files/6290.got.cif
#   From: 2010.03.12/outbox.cif.g09.slc.cpg/sg59_4_cif.got.tgz:6290.got - 2010.04.16 16:29:54.
