data_PCOD8244660
_publ_section_title
;
Structure prediction by ZEFSAII (Michael W. Deem and Ramdas Pophale) SiO2 
 PCOD8244660
Probable space group: P M M N
;
_chemical_formula_sum "Si O2"
_cell_formula_units_Z 40
_cell_length_a 22.897294
_cell_length_b 8.676883
_cell_length_c 10.213292
_cell_angle_alpha 90.000000
_cell_angle_beta 90.000000
_cell_angle_gamma 90.000000
_cell_volume 2029.147655
_symmetry_space_group_name_H-M "P M M N"
_symmetry_group_IT_number 59
_space_group.IT_coordinate_system_code '2'
_symmetry_cell_setting 'orthorhombic'
loop_
_space_group_symop_operation_xyz
x,y,z
1/2-x,1/2-y,z
1/2+x,-y,-z
-x,1/2+y,-z
-x,-y,-z
1/2+x,1/2+y,-z
1/2-x,y,z
x,1/2-y,z
loop_
_atom_site_type_symbol
_atom_site_label
_atom_site_fract_x
_atom_site_fract_y
_atom_site_fract_z
Si Si1 0.370032 0.432109 0.524649
Si Si2 0.076712 0.568805 0.266383
Si Si3 0.872090 0.570010 0.985761
Si Si4 0.055151 0.432584 0.767576
Si Si5 0.750000 0.926778 0.115802
Si Si6 0.250000 0.569629 0.603475
O O1 0.364605 0.250000 0.534040
O O2 0.400487 0.477826 0.390727
O O3 0.408829 0.498741 0.644245
O O4 0.305925 0.502276 0.530274
O O5 0.078474 0.750000 0.294698
O O6 0.116981 0.529120 0.143229
O O7 0.011204 0.508931 0.238082
O O8 0.882452 0.750000 0.956383
O O9 0.915477 0.508089 0.098642
O O10 0.806021 0.537192 0.028218
O O11 0.058143 0.250000 0.763907
O O12 0.750000 0.750000 0.164587
O O13 0.750000 0.031675 0.243357
O O14 0.250000 0.750000 0.583986
#
# Coordination Sequence:
#
# PCOD8244660 Si02
#       6
#     8   8   8   8   4   4
#     4  11  22  41  65  87 116 162 205 242 292 360
#     4  11  23  38  56  90 129 158 195 254 308 346
#     4  10  20  38  62  88 116 159 207 246 294 360
#     4   9  19  37  63  88 117 157 207 251 292 352
#     4  10  20  39  66  87 114 154 204 248 286 355
#     4  12  24  39  62  93 122 148 190 250 306 355
#
# _framework density 19.712710999999999
#
# number of rings (size 3 to 8) (size 9 to 14) (size 15 to 20)
#    0.000    1.600    2.000    3.300    0.000    1.600 
#    0.000    7.000    0.000    0.000    0.000    0.000 
#    0.000    0.000    0.000    0.000    0.000    0.000 
#
# Total GULP energy -496206.096083 kJ/mol
# GULP energy per Si atom -12405.152402 kJ/mol
# Density = 1.966784 g / cm^3
# Si number density = 19.712711 Si / 1000 Ang^3
#
#
#
# Elastic Constant Matrix: (Units=GPa)
#
#
# Indices 1 2 3 4 5 6 
#
# 1 103.0452 25.1650 9.0300 0.0000 0.0000 0.0000
# 2 25.1650 62.4236 15.3011 0.0000 0.0000 0.0000
# 3 9.0300 15.3011 86.3429 0.0000 0.0000 0.0000
# 4 0.0000 0.0000 0.0000 24.2125 0.0000 0.0000
# 5 0.0000 0.0000 0.0000 0.0000 4.9612 0.0000
# 6 0.0000 0.0000 0.0000 0.0000 0.0000 4.7040
#
#
#
# Elastic Compliance Matrix: (Units=1/GPa)
#
#
# Indices 1 2 3 4 5 6 
#
# 1 0.010776 -0.004253 -0.000373 0.000000 0.000000 0.000000
# 2 -0.004253 0.018425 -0.002820 0.000000 0.000000 0.000000
# 3 -0.000373 -0.002820 0.012121 0.000000 0.000000 0.000000
# 4 0.000000 0.000000 0.000000 0.041301 0.000000 0.000000
# 5 0.000000 0.000000 0.000000 0.000000 0.201565 0.000000
# 6 0.000000 0.000000 0.000000 0.000000 0.000000 0.212584
#
#
# Mechanical properties :
#
#
# Convention : Reuss Voigt Hill
#
# Bulk Modulus (GPa) = 37.83735 38.97820 38.40777
# Shear Modulus (GPa) = 9.60664 20.26324 14.93494
#
# Velocity S-wave (km/s) = 2.20996 3.20961 2.75549
# Velocity P-wave (km/s) = 5.07424 5.79237 5.44516
#
# Compressibility (1/GPa) = 0.02642891
#
# Stress axis : x y z
#
# Youngs Moduli (GPa) = 92.80119 54.27329 82.50416
#
# Poissons Ratio (x) = 0.23080 0.03080
# Poissons Ratio (y) = 0.39464 0.23270
# Poissons Ratio (z) = 0.03465 0.15308
#
# Static dielectric constant tensor:
#      x y z
#    x 3.896660 0.000000 0.000000 
#    y 0.000000 3.368360 0.000000 
#    z 0.000000 0.000000 3.602880 
# 
# 
# High freq. dielectric constant tensor:
#      x y z
#    x 1.786420 0.000000 0.000000 
#    y 0.000000 1.750080 0.000000 
#    z 0.000000 0.000000 1.775840 
# 
# From -- ./inp_files/12427.got.cif
#   From: 2010.03.12/outbox.cif.g09.slc.cpg/sg59_7_cif.got.tgz:12427.got - 2010.04.16 16:29:54.
