data_PCOD8244013
_publ_section_title
;
Structure prediction by ZEFSAII (Michael W. Deem and Ramdas Pophale) SiO2 
 PCOD8244013
Probable space group: P M M N
;
_chemical_formula_sum "Si O2"
_cell_formula_units_Z 48
_cell_length_a 18.052753
_cell_length_b 8.948402
_cell_length_c 16.290811
_cell_angle_alpha 90.000000
_cell_angle_beta 90.000000
_cell_angle_gamma 90.000000
_cell_volume 2631.671223
_symmetry_space_group_name_H-M "P M M N"
_symmetry_group_IT_number 59
_space_group.IT_coordinate_system_code '2'
_symmetry_cell_setting 'orthorhombic'
loop_
_space_group_symop_operation_xyz
x,y,z
1/2-x,1/2-y,z
1/2+x,-y,-z
-x,1/2+y,-z
-x,-y,-z
1/2+x,1/2+y,-z
1/2-x,y,z
x,1/2-y,z
loop_
_atom_site_type_symbol
_atom_site_label
_atom_site_fract_x
_atom_site_fract_y
_atom_site_fract_z
Si Si1 0.920949 0.922432 0.496764
Si Si2 0.166287 0.424321 0.160106
Si Si3 0.530819 0.425952 0.918952
Si Si4 0.835919 0.075360 0.351123
Si Si5 0.950242 0.575340 0.246093
Si Si6 0.916672 0.580439 0.678774
O O1 0.930922 0.750000 0.471620
O O2 0.884053 0.938218 0.587306
O O3 0.866418 0.999761 0.433174
O O4 0.000000 0.000000 0.500000
O O5 0.250000 0.478455 0.144615
O O6 0.157373 0.250000 0.140330
O O7 0.113163 0.514689 0.099135
O O8 0.146615 0.459020 0.255088
O O9 0.535055 0.250000 0.930799
O O10 0.475703 0.471164 0.845077
O O11 0.500000 0.500000 0.000000
O O12 0.750000 0.037729 0.342746
O O13 0.851663 0.250000 0.357065
O O14 0.875105 0.010353 0.269607
O O15 0.935802 0.750000 0.253210
O O16 0.013422 0.529095 0.310991
O O17 0.945267 0.750000 0.692465
#
# Coordination Sequence:
#
# PCOD8244013 Si02
#       6
#     8   8   8   8   8   8
#     4  11  21  33  54  81 111 148 191 234 275 325
#     4   9  18  34  56  82 113 146 180 223 274 324
#     4  10  21  37  59  87 113 142 181 222 271 333
#     4  11  24  39  54  76 109 148 190 235 282 328
#     4  10  20  35  57  81 105 137 179 225 272 327
#     4   9  18  32  53  79 107 143 183 222 267 325
#
# _framework density 18.239359
#
# number of rings (size 3 to 8) (size 9 to 14) (size 15 to 20)
#    0.000    2.000    1.667    2.000    0.000    5.000 
#    0.000    2.500    0.000    1.000    0.000    0.000 
#    0.000    0.000    0.000    0.000    0.000    0.000 
#
# Total GULP energy -595267.089245 kJ/mol
# GULP energy per Si atom -12401.397693 kJ/mol
# Density = 1.819785 g / cm^3
# Si number density = 18.239359 Si / 1000 Ang^3
#
#
#
# Elastic Constant Matrix: (Units=GPa)
#
#
# Indices 1 2 3 4 5 6 
#
# 1 138.4403 73.2420 74.1859 0.0000 0.0000 0.0000
# 2 73.2420 98.6204 53.8655 0.0000 0.0000 0.0000
# 3 74.1859 53.8655 121.3578 0.0000 0.0000 0.0000
# 4 0.0000 0.0000 0.0000 29.0460 0.0000 0.0000
# 5 0.0000 0.0000 0.0000 0.0000 24.7511 0.0000
# 6 0.0000 0.0000 0.0000 0.0000 0.0000 29.9553
#
#
#
# Elastic Compliance Matrix: (Units=1/GPa)
#
#
# Indices 1 2 3 4 5 6 
#
# 1 0.014018 -0.007564 -0.005212 0.000000 0.000000 0.000000
# 2 -0.007564 0.017466 -0.003129 0.000000 0.000000 0.000000
# 3 -0.005212 -0.003129 0.012815 0.000000 0.000000 0.000000
# 4 0.000000 0.000000 0.000000 0.034428 0.000000 0.000000
# 5 0.000000 0.000000 0.000000 0.000000 0.040402 0.000000
# 6 0.000000 0.000000 0.000000 0.000000 0.000000 0.033383
#
#
# Mechanical properties :
#
#
# Convention : Reuss Voigt Hill
#
# Bulk Modulus (GPa) = 80.06405 84.55614 82.31009
# Shear Modulus (GPa) = 26.52736 27.22549 26.87642
#
# Velocity S-wave (km/s) = 3.81780 3.86771 3.84284
# Velocity P-wave (km/s) = 7.96403 8.14895 8.05702
#
# Compressibility (1/GPa) = 0.01249000
#
# Stress axis : x y z
#
# Youngs Moduli (GPa) = 71.33727 57.25329 78.03511
#
# Poissons Ratio (x) = 0.43306 0.40670
# Poissons Ratio (y) = 0.53959 0.24415
# Poissons Ratio (z) = 0.37180 0.17913
#
# Static dielectric constant tensor:
#      x y z
#    x 3.323360 0.000000 0.000000 
#    y 0.000000 3.487050 0.000000 
#    z 0.000000 0.000000 3.372580 
# 
# 
# High freq. dielectric constant tensor:
#      x y z
#    x 1.692740 0.000000 0.000000 
#    y 0.000000 1.717030 0.000000 
#    z 0.000000 0.000000 1.707130 
# 
# From -- ./inp_files/27782.got.cif
#   From: 2010.03.12/outbox.cif.g09.slc.cpg/sg59_14_cif.got.tgz:27782.got - 2010.04.16 16:29:54.
