data_PCOD8244244
_publ_section_title
;
Structure prediction by ZEFSAII (Michael W. Deem and Ramdas Pophale) SiO2 
 PCOD8244244
Probable space group: P M M N
;
_chemical_formula_sum "Si O2"
_cell_formula_units_Z 48
_cell_length_a 8.914129
_cell_length_b 9.738106
_cell_length_c 28.797971
_cell_angle_alpha 90.000000
_cell_angle_beta 90.000000
_cell_angle_gamma 90.000000
_cell_volume 2499.857782
_symmetry_space_group_name_H-M "P M M N"
_symmetry_group_IT_number 59
_space_group.IT_coordinate_system_code '2'
_symmetry_cell_setting 'orthorhombic'
loop_
_space_group_symop_operation_xyz
x,y,z
1/2-x,1/2-y,z
1/2+x,-y,-z
-x,1/2+y,-z
-x,-y,-z
1/2+x,1/2+y,-z
1/2-x,y,z
x,1/2-y,z
loop_
_atom_site_type_symbol
_atom_site_label
_atom_site_fract_x
_atom_site_fract_y
_atom_site_fract_z
Si Si1 0.071875 0.911147 0.040874
Si Si2 0.426332 0.250000 0.534443
Si Si3 0.420733 0.905245 0.297163
Si Si4 0.422214 0.092997 0.214706
Si Si5 0.572814 0.250000 0.434754
Si Si6 0.073736 0.907778 0.881994
Si Si7 0.926495 0.971359 0.392700
O O1 0.250000 0.922156 0.037228
O O2 0.022795 0.750000 0.038609
O O3 0.016612 0.981057 0.088192
O O4 0.000000 0.000000 0.000000
O O5 0.250000 0.250000 0.525481
O O6 0.506404 0.250000 0.485641
O O7 0.480178 0.380625 0.563952
O O8 0.250000 0.947144 0.306961
O O9 0.435057 0.750000 0.279162
O O10 0.486869 0.002258 0.256885
O O11 0.507973 0.920595 0.344712
O O12 0.250000 0.053532 0.202479
O O13 0.433434 0.250000 0.230695
O O14 0.527155 0.064940 0.170786
O O15 0.750000 0.250000 0.441075
O O16 0.516157 0.377312 0.404465
O O17 0.250000 0.933405 0.888176
O O18 0.033369 0.750000 0.896396
O O19 0.750000 0.961139 0.387181
#
# Coordination Sequence:
#
# PCOD8244244 Si02
#       7
#     8   4   8   8   4   8   8
#     4  11  24  40  60  88 121 159 202 247 294 344
#     4  10  20  36  56  76 104 140 176 214 263 324
#     4  10  21  36  55  80 108 141 182 226 273 326
#     4   9  19  36  57  81 112 149 187 231 282 334
#     4  10  22  36  54  80 106 136 174 218 265 318
#     4  10  21  38  60  88 120 154 195 240 289 346
#     4  10  21  37  54  77 108 139 173 217 270 324
#
# _framework density 19.201090000000001
#
# number of rings (size 3 to 8) (size 9 to 14) (size 15 to 20)
#    0.000    2.000    0.833    2.000    1.167    7.000 
#    0.000    1.667    0.000    0.000    0.000    0.000 
#    0.000    0.000    0.000    0.000    0.000    0.000 
#
# Total GULP energy -595214.506853 kJ/mol
# GULP energy per Si atom -12400.302226 kJ/mol
# Density = 1.915739 g / cm^3
# Si number density = 19.201090 Si / 1000 Ang^3
#
#
#
# Elastic Constant Matrix: (Units=GPa)
#
#
# Indices 1 2 3 4 5 6 
#
# 1 49.0425 38.9853 29.5421 0.0000 0.0000 0.0000
# 2 38.9853 127.5565 51.3972 0.0000 0.0000 0.0000
# 3 29.5421 51.3972 96.0635 0.0000 0.0000 0.0000
# 4 0.0000 0.0000 0.0000 -432.0746 0.0000 0.0000
# 5 0.0000 0.0000 0.0000 0.0000 31.2119 0.0000
# 6 0.0000 0.0000 0.0000 0.0000 0.0000 47.5445
#
#
#
# Elastic Compliance Matrix: (Units=1/GPa)
#
#
# Indices 1 2 3 4 5 6 
#
# 1 0.028912 -0.006698 -0.005308 0.000000 0.000000 0.000000
# 2 -0.006698 0.011546 -0.004118 0.000000 0.000000 0.000000
# 3 -0.005308 -0.004118 0.014245 0.000000 0.000000 0.000000
# 4 0.000000 0.000000 0.000000 -0.002314 0.000000 0.000000
# 5 0.000000 0.000000 0.000000 0.000000 0.032039 0.000000
# 6 0.000000 0.000000 0.000000 0.000000 0.000000 0.021033
#
#
# Mechanical properties :
#
#
# Convention : Reuss Voigt Hill
#
# Bulk Modulus (GPa) = 44.53007 56.94571 50.73789
# Shear Modulus (GPa) = 34.43708 -60.48110 -13.02201
#
# Velocity S-wave (km/s) = 4.23956 -5.61847 -2.60704
# Velocity P-wave (km/s) = 6.87073 3.51676 4.17369
#
# Compressibility (1/GPa) = 0.02245674
#
# Stress axis : x y z
#
# Youngs Moduli (GPa) = 34.58778 86.61099 70.19938
#
# Poissons Ratio (x) = 0.58010 0.37260
# Poissons Ratio (y) = 0.23166 0.28906
# Poissons Ratio (z) = 0.18358 0.35664
#
# Static dielectric constant tensor:
#      x y z
#    x 3.434240 0.000000 0.000000 
#    y 0.000000 4.108860 0.000000 
#    z 0.000000 0.000000 3.484360 
# 
# 
# High freq. dielectric constant tensor:
#      x y z
#    x 1.739260 0.000000 0.000000 
#    y 0.000000 1.760830 0.000000 
#    z 0.000000 0.000000 1.752820 
# 
# From -- ./inp_files/33011.got.cif
#   From: 2010.03.12/outbox.cif.g09.slc.cpg/sg59_17_cif.got.tgz:33011.got - 2010.04.16 16:29:54.
