data_PCOD8244709
_publ_section_title
;
Structure prediction by ZEFSAII (Michael W. Deem and Ramdas Pophale) SiO2 
 PCOD8244709
Probable space group: P M M N
;
_chemical_formula_sum "Si O2"
_cell_formula_units_Z 56
_cell_length_a 18.601996
_cell_length_b 9.406042
_cell_length_c 18.596459
_cell_angle_alpha 90.000000
_cell_angle_beta 90.000000
_cell_angle_gamma 90.000000
_cell_volume 3253.843922
_symmetry_space_group_name_H-M "P M M N"
_symmetry_group_IT_number 59
_space_group.IT_coordinate_system_code '2'
_symmetry_cell_setting 'orthorhombic'
loop_
_space_group_symop_operation_xyz
x,y,z
1/2-x,1/2-y,z
1/2+x,-y,-z
-x,1/2+y,-z
-x,-y,-z
1/2+x,1/2+y,-z
1/2-x,y,z
x,1/2-y,z
loop_
_atom_site_type_symbol
_atom_site_label
_atom_site_fract_x
_atom_site_fract_y
_atom_site_fract_z
Si Si1 0.930723 0.085590 0.655221
Si Si2 0.478092 0.084076 0.221202
Si Si3 0.331523 0.584685 0.474485
Si Si4 0.880080 0.587284 0.254822
Si Si5 0.327675 0.911962 0.863376
Si Si6 0.025334 0.586702 0.932321
Si Si7 0.583553 0.910368 0.409272
O O1 0.938500 0.250000 0.677959
O O2 0.861481 0.058512 0.605677
O O3 0.003018 0.039198 0.612206
O O4 0.918511 0.993430 0.728589
O O5 0.479876 0.250000 0.240610
O O6 0.470219 0.062792 0.134828
O O7 0.551035 0.008811 0.242368
O O8 0.250000 0.525086 0.478203
O O9 0.332973 0.750000 0.493686
O O10 0.384052 0.509493 0.530099
O O11 0.892403 0.750000 0.229809
O O12 0.818995 0.513080 0.206756
O O13 0.863418 0.582789 0.339894
O O14 0.250000 0.920396 0.903584
O O15 0.344005 0.750000 0.838606
O O16 0.393256 0.964143 0.913413
O O17 0.026366 0.750000 0.955236
O O18 0.000000 0.500000 0.000000
O O19 0.580299 0.750000 0.439465
#
# Coordination Sequence:
#
# PCOD8244709 Si02
#       7
#     8   8   8   8   8   8   8
#     4   9  18  33  51  70  92 120 158 202 243 283
#     4   9  17  30  49  73  95 117 151 191 232 279
#     4  10  21  34  47  66  93 124 159 201 247 291
#     4   9  17  29  45  68  96 123 154 191 232 280
#     4   9  18  32  48  68  97 131 164 196 232 279
#     4   9  18  31  49  74 100 125 154 191 232 275
#     4   9  18  31  47  68  93 122 157 197 238 282
#
# _framework density 17.210414
#
# number of rings (size 3 to 8) (size 9 to 14) (size 15 to 20)
#    0.000    2.857    0.000    3.000    0.000    7.429 
#    0.000    2.857    0.000    0.857    0.000    6.000 
#    0.000    0.000    0.000    0.000    0.000    0.000 
#
# Total GULP energy -693811.880344 kJ/mol
# GULP energy per Si atom -12389.497863 kJ/mol
# Density = 1.717124 g / cm^3
# Si number density = 17.210414 Si / 1000 Ang^3
#
#
#
# Elastic Constant Matrix: (Units=GPa)
#
#
# Indices 1 2 3 4 5 6 
#
# 1 54.5703 22.8628 28.5815 0.0000 0.0000 0.0000
# 2 22.8628 81.0618 54.8417 0.0000 0.0000 0.0000
# 3 28.5815 54.8417 88.9571 0.0000 0.0000 0.0000
# 4 0.0000 0.0000 0.0000 35.9404 0.0000 0.0000
# 5 0.0000 0.0000 0.0000 0.0000 16.3498 0.0000
# 6 0.0000 0.0000 0.0000 0.0000 0.0000 17.2043
#
#
#
# Elastic Compliance Matrix: (Units=1/GPa)
#
#
# Indices 1 2 3 4 5 6 
#
# 1 0.022319 -0.002476 -0.005644 0.000000 0.000000 0.000000
# 2 -0.002476 0.021438 -0.012421 0.000000 0.000000 0.000000
# 3 -0.005644 -0.012421 0.020712 0.000000 0.000000 0.000000
# 4 0.000000 0.000000 0.000000 0.027824 0.000000 0.000000
# 5 0.000000 0.000000 0.000000 0.000000 0.061163 0.000000
# 6 0.000000 0.000000 0.000000 0.000000 0.000000 0.058125
#
#
# Mechanical properties :
#
#
# Convention : Reuss Voigt Hill
#
# Bulk Modulus (GPa) = 42.76029 48.57348 45.66689
# Shear Modulus (GPa) = 19.19692 21.78577 20.49134
#
# Velocity S-wave (km/s) = 3.34342 3.56174 3.45430
# Velocity P-wave (km/s) = 6.30905 6.72303 6.51933
#
# Compressibility (1/GPa) = 0.02338618
#
# Stress axis : x y z
#
# Youngs Moduli (GPa) = 44.80563 46.64650 48.28067
#
# Poissons Ratio (x) = 0.11550 0.27251
# Poissons Ratio (y) = 0.11095 0.59968
# Poissons Ratio (z) = 0.25290 0.57939
#
# Static dielectric constant tensor:
#      x y z
#    x 3.311190 0.000000 0.000000 
#    y 0.000000 3.536660 0.000000 
#    z 0.000000 0.000000 3.421710 
# 
# 
# High freq. dielectric constant tensor:
#      x y z
#    x 1.636280 0.000000 0.000000 
#    y 0.000000 1.670940 0.000000 
#    z 0.000000 0.000000 1.650950 
# 
# From -- ./inp_files/28050.got.cif
#   From: 2010.03.12/outbox.cif.g09.slc.cpg/sg59_15_cif.got.tgz:28050.got - 2010.04.16 16:29:54.
