data_PCOD8244590
_publ_section_title
;
Structure prediction by ZEFSAII (Michael W. Deem and Ramdas Pophale) SiO2 
 PCOD8244590
Probable space group: P M M N
;
_chemical_formula_sum "Si O2"
_cell_formula_units_Z 48
_cell_length_a 15.096850
_cell_length_b 8.769405
_cell_length_c 18.645578
_cell_angle_alpha 90.000000
_cell_angle_beta 90.000000
_cell_angle_gamma 90.000000
_cell_volume 2468.495378
_symmetry_space_group_name_H-M "P M M N"
_symmetry_group_IT_number 59
_space_group.IT_coordinate_system_code '2'
_symmetry_cell_setting 'orthorhombic'
loop_
_space_group_symop_operation_xyz
x,y,z
1/2-x,1/2-y,z
1/2+x,-y,-z
-x,1/2+y,-z
-x,-y,-z
1/2+x,1/2+y,-z
1/2-x,y,z
x,1/2-y,z
loop_
_atom_site_type_symbol
_atom_site_label
_atom_site_fract_x
_atom_site_fract_y
_atom_site_fract_z
Si Si1 0.898425 0.571802 0.829060
Si Si2 0.407554 0.927739 0.666303
Si Si3 0.750000 0.075047 0.571057
Si Si4 0.750000 0.573043 0.077345
Si Si5 0.407051 0.572588 0.321262
Si Si6 0.750000 0.070791 0.924045
Si Si7 0.750000 0.928641 0.420464
Si Si8 0.397690 0.575349 0.831254
O O1 0.878768 0.750000 0.828213
O O2 0.874174 0.508357 0.751040
O O3 0.838608 0.494284 0.888820
O O4 0.000349 0.537497 0.848415
O O5 0.418315 0.750000 0.650016
O O6 0.377241 0.955029 0.747919
O O7 0.500659 0.007095 0.650498
O O8 0.336742 0.998378 0.613442
O O9 0.750000 0.250000 0.544342
O O10 0.663639 0.039703 0.617452
O O11 0.750000 0.961196 0.504634
O O12 0.750000 0.750000 0.056386
O O13 0.837565 0.536989 0.122805
O O14 0.750000 0.471271 0.006939
O O15 0.417021 0.750000 0.304114
O O16 0.750000 0.250000 0.914464
O O17 0.750000 0.750000 0.405772
O O18 0.375154 0.750000 0.850963
#
# Coordination Sequence:
#
# PCOD8244590 Si02
#       8
#     8   8   4   4   8   4   4   8
#     4  10  21  39  63  89 117 150 191 238 288 342
#     4  10  21  39  62  86 116 153 191 236 290 344
#     4  10  23  40  57  81 117 157 191 232 287 344
#     4  12  25  38  57  85 117 153 191 236 287 340
#     4  10  20  37  62  90 117 149 194 240 284 338
#     4  12  25  40  59  83 117 157 193 236 287 342
#     4  12  25  38  57  85 115 151 195 242 291 346
#     4   9  20  39  62  86 113 149 189 231 282 340
#
# _framework density 19.445043999999999
#
# number of rings (size 3 to 8) (size 9 to 14) (size 15 to 20)
#    0.000    1.667    0.000    5.750    0.000    9.333 
#    0.000    0.000    0.000    0.000    0.000    0.000 
#    0.000    0.000    0.000    0.000    0.000    0.000 
#
# Total GULP energy -595475.799507 kJ/mol
# GULP energy per Si atom -12405.745823 kJ/mol
# Density = 1.940079 g / cm^3
# Si number density = 19.445044 Si / 1000 Ang^3
#
#
#
# Elastic Constant Matrix: (Units=GPa)
#
#
# Indices 1 2 3 4 5 6 
#
# 1 116.8200 55.6725 65.9971 0.0000 0.0000 0.0000
# 2 55.6725 120.8507 52.1391 0.0000 0.0000 0.0000
# 3 65.9971 52.1391 101.8607 0.0000 0.0000 0.0000
# 4 0.0000 0.0000 0.0000 36.3920 0.0000 0.0000
# 5 0.0000 0.0000 0.0000 0.0000 47.0097 0.0000
# 6 0.0000 0.0000 0.0000 0.0000 0.0000 33.5784
#
#
#
# Elastic Compliance Matrix: (Units=1/GPa)
#
#
# Indices 1 2 3 4 5 6 
#
# 1 0.014499 -0.003371 -0.007669 0.000000 0.000000 0.000000
# 2 -0.003371 0.011404 -0.003653 0.000000 0.000000 0.000000
# 3 -0.007669 -0.003653 0.016656 0.000000 0.000000 0.000000
# 4 0.000000 0.000000 0.000000 0.027479 0.000000 0.000000
# 5 0.000000 0.000000 0.000000 0.000000 0.021272 0.000000
# 6 0.000000 0.000000 0.000000 0.000000 0.000000 0.029781
#
#
# Mechanical properties :
#
#
# Convention : Reuss Voigt Hill
#
# Bulk Modulus (GPa) = 75.91146 76.34987 76.13066
# Shear Modulus (GPa) = 32.28582 34.44421 33.36502
#
# Velocity S-wave (km/s) = 4.07918 4.21332 4.14679
# Velocity P-wave (km/s) = 7.83007 7.93846 7.88445
#
# Compressibility (1/GPa) = 0.01317324
#
# Stress axis : x y z
#
# Youngs Moduli (GPa) = 68.97030 87.69187 60.03851
#
# Poissons Ratio (x) = 0.29558 0.46042
# Poissons Ratio (y) = 0.23248 0.21933
# Poissons Ratio (z) = 0.52892 0.32035
#
# Static dielectric constant tensor:
#      x y z
#    x 3.672190 0.000000 0.000000 
#    y 0.000000 3.645310 0.000000 
#    z 0.000000 0.000000 3.460750 
# 
# 
# High freq. dielectric constant tensor:
#      x y z
#    x 1.772160 0.000000 0.000000 
#    y 0.000000 1.768820 0.000000 
#    z 0.000000 0.000000 1.754000 
# 
# From -- ./inp_files/27513.got.cif
#   From: 2010.03.12/outbox.cif.g09.slc.cpg/sg59_14_cif.got.tgz:27513.got - 2010.04.16 16:29:54.
