data_PCOD8244313
_publ_section_title
;
Structure prediction by ZEFSAII (Michael W. Deem and Ramdas Pophale) SiO2 
 PCOD8244313
Probable space group: P M M N
;
_chemical_formula_sum "Si O2"
_cell_formula_units_Z 48
_cell_length_a 18.388404
_cell_length_b 8.751780
_cell_length_c 16.310235
_cell_angle_alpha 90.000000
_cell_angle_beta 90.000000
_cell_angle_gamma 90.000000
_cell_volume 2624.826773
_symmetry_space_group_name_H-M "P M M N"
_symmetry_group_IT_number 59
_space_group.IT_coordinate_system_code '2'
_symmetry_cell_setting 'orthorhombic'
loop_
_space_group_symop_operation_xyz
x,y,z
1/2-x,1/2-y,z
1/2+x,-y,-z
-x,1/2+y,-z
-x,-y,-z
1/2+x,1/2+y,-z
1/2-x,y,z
x,1/2-y,z
loop_
_atom_site_type_symbol
_atom_site_label
_atom_site_fract_x
_atom_site_fract_y
_atom_site_fract_z
Si Si1 0.973979 0.431104 0.084505
Si Si2 0.088287 0.929991 0.671893
Si Si3 0.165614 0.427087 0.337706
Si Si4 0.670250 0.069585 0.167356
Si Si5 0.542321 0.070889 0.758472
Si Si6 0.333708 0.926803 0.506923
O O1 0.977617 0.250000 0.080148
O O2 0.891262 0.487953 0.103383
O O3 0.026938 0.486183 0.156340
O O4 0.000000 0.500000 0.000000
O O5 0.072371 0.750000 0.676469
O O6 0.147024 0.977521 0.740786
O O7 0.118308 0.980228 0.583845
O O8 0.013576 0.019087 0.687766
O O9 0.250000 0.464601 0.324115
O O10 0.147747 0.250000 0.325252
O O11 0.122727 0.525438 0.270634
O O12 0.141817 0.474004 0.429298
O O13 0.750000 0.997438 0.147708
O O14 0.675930 0.250000 0.161390
O O15 0.537137 0.250000 0.773454
O O16 0.250000 0.956216 0.529883
O O17 0.347174 0.750000 0.485885
#
# Coordination Sequence:
#
# PCOD8244313 Si02
#       6
#     8   8   8   8   8   8
#     4  10  20  36  58  81 107 137 169 210 260 315
#     4   9  17  30  50  76 106 138 171 211 257 306
#     4  10  21  37  55  74 100 135 175 221 268 309
#     4   8  14  27  50  78 104 132 168 208 250 298
#     4  11  22  36  55  77 102 134 172 213 258 312
#     4   9  17  30  50  76 105 139 179 219 259 305
#
# _framework density 18.286922000000001
#
# number of rings (size 3 to 8) (size 9 to 14) (size 15 to 20)
#    0.000    2.500    0.000    4.000    0.000    4.333 
#    0.000    0.833    0.000   19.500    0.000    0.000 
#    0.000    0.000    0.000    0.000    0.000    0.000 
#
# Total GULP energy -595183.741863 kJ/mol
# GULP energy per Si atom -12399.661289 kJ/mol
# Density = 1.824530 g / cm^3
# Si number density = 18.286922 Si / 1000 Ang^3
#
#
#
# Elastic Constant Matrix: (Units=GPa)
#
#
# Indices 1 2 3 4 5 6 
#
# 1 107.4449 34.6703 72.0646 0.0000 0.0000 0.0000
# 2 34.6703 67.0444 37.2447 0.0000 0.0000 0.0000
# 3 72.0646 37.2447 113.4040 0.0000 0.0000 0.0000
# 4 0.0000 0.0000 0.0000 32.4426 0.0000 0.0000
# 5 0.0000 0.0000 0.0000 0.0000 26.3633 0.0000
# 6 0.0000 0.0000 0.0000 0.0000 0.0000 22.1291
#
#
#
# Elastic Compliance Matrix: (Units=1/GPa)
#
#
# Indices 1 2 3 4 5 6 
#
# 1 0.016823 -0.003377 -0.009582 0.000000 0.000000 0.000000
# 2 -0.003377 0.018922 -0.004069 0.000000 0.000000 0.000000
# 3 -0.009582 -0.004069 0.016243 0.000000 0.000000 0.000000
# 4 0.000000 0.000000 0.000000 0.030824 0.000000 0.000000
# 5 0.000000 0.000000 0.000000 0.000000 0.037931 0.000000
# 6 0.000000 0.000000 0.000000 0.000000 0.000000 0.045189
#
#
# Mechanical properties :
#
#
# Convention : Reuss Voigt Hill
#
# Bulk Modulus (GPa) = 55.75940 63.98359 59.87150
# Shear Modulus (GPa) = 24.27601 25.78126 25.02863
#
# Velocity S-wave (km/s) = 3.64745 3.75883 3.70356
# Velocity P-wave (km/s) = 6.94954 7.34187 7.14840
#
# Compressibility (1/GPa) = 0.01793419
#
# Stress axis : x y z
#
# Youngs Moduli (GPa) = 59.44162 52.84871 61.56494
#
# Poissons Ratio (x) = 0.17847 0.58989
# Poissons Ratio (y) = 0.20073 0.25048
# Poissons Ratio (z) = 0.56954 0.21502
#
# Static dielectric constant tensor:
#      x y z
#    x 3.040240 0.000000 0.000000 
#    y 0.000000 3.211980 0.000000 
#    z 0.000000 0.000000 3.310100 
# 
# 
# High freq. dielectric constant tensor:
#      x y z
#    x 1.711550 0.000000 0.000000 
#    y 0.000000 1.695510 0.000000 
#    z 0.000000 0.000000 1.699390 
# 
# From -- ./inp_files/22556.got.cif
#   From: 2010.03.12/outbox.cif.g09.slc.cpg/sg59_12_cif.got.tgz:22556.got - 2010.04.16 16:29:54.
