data_PCOD8244908
_publ_section_title
;
Structure prediction by ZEFSAII (Michael W. Deem and Ramdas Pophale) SiO2 
 PCOD8244908
Probable space group: P M M N
;
_chemical_formula_sum "Si O2"
_cell_formula_units_Z 64
_cell_length_a 28.481374
_cell_length_b 9.191816
_cell_length_c 12.353876
_cell_angle_alpha 90.000000
_cell_angle_beta 90.000000
_cell_angle_gamma 90.000000
_cell_volume 3234.189753
_symmetry_space_group_name_H-M "P M M N"
_symmetry_group_IT_number 59
_space_group.IT_coordinate_system_code '2'
_symmetry_cell_setting 'orthorhombic'
loop_
_space_group_symop_operation_xyz
x,y,z
1/2-x,1/2-y,z
1/2+x,-y,-z
-x,1/2+y,-z
-x,-y,-z
1/2+x,1/2+y,-z
1/2-x,y,z
x,1/2-y,z
loop_
_atom_site_type_symbol
_atom_site_label
_atom_site_fract_x
_atom_site_fract_y
_atom_site_fract_z
Si Si1 0.197582 0.918531 0.710271
Si Si2 0.063713 0.086019 0.493010
Si Si3 0.829699 0.584085 0.494041
Si Si4 0.196031 0.417197 0.085096
Si Si5 0.974342 0.577815 0.098641
Si Si6 0.490013 0.921128 0.330615
Si Si7 0.694552 0.086629 0.703778
Si Si8 0.133953 0.419620 0.878756
O O1 0.250000 0.937408 0.760585
O O2 0.184668 0.750000 0.697120
O O3 0.199306 0.991205 0.592097
O O4 0.157801 0.993069 0.781873
O O5 0.049489 0.250000 0.463503
O O6 0.115999 0.076517 0.537552
O O7 0.032815 0.027131 0.592899
O O8 0.056529 0.993554 0.382358
O O9 0.811150 0.750000 0.495020
O O10 0.825199 0.516819 0.612014
O O11 0.250000 0.448751 0.052418
O O12 0.189883 0.250000 0.120645
O O13 0.178915 0.519588 0.181979
O O14 0.162746 0.456952 0.985937
O O15 0.978219 0.750000 0.082160
O O16 0.000134 0.525874 0.208596
O O17 0.919760 0.530822 0.104727
O O18 0.000000 0.500000 0.000000
O O19 0.483329 0.750000 0.331402
O O20 0.750000 0.089254 0.694835
O O21 0.674001 0.250000 0.693849
O O22 0.136791 0.250000 0.848408
#
# Coordination Sequence:
#
# PCOD8244908 Si02
#       8
#     8   8   8   8   8   8   8   8
#     4  11  24  39  57  86 122 154 186 230 284 342
#     4   9  19  35  56  81 106 136 177 224 270 318
#     4  11  22  36  56  81 111 147 186 227 272 326
#     4   9  18  34  57  83 109 141 185 232 278 334
#     4  10  22  39  58  82 114 150 189 235 286 340
#     4   9  18  35  56  78 107 140 175 218 270 326
#     4  10  21  36  53  75 107 144 179 221 272 321
#     4  10  21  39  62  85 112 149 193 239 285 339
#
# _framework density 19.788571999999998
#
# number of rings (size 3 to 8) (size 9 to 14) (size 15 to 20)
#    0.000    2.125    0.000    2.625    0.000    9.250 
#    0.000    7.500    0.000    0.000    0.000    0.000 
#    0.000    0.000    0.000    0.000    0.000    0.000 
#
# Total GULP energy -793676.517007 kJ/mol
# GULP energy per Si atom -12401.195578 kJ/mol
# Density = 1.974353 g / cm^3
# Si number density = 19.788572 Si / 1000 Ang^3
#
#
#
# Elastic Constant Matrix: (Units=GPa)
#
#
# Indices 1 2 3 4 5 6 
#
# 1 73.5666 34.1804 42.7059 0.0000 0.0000 0.0000
# 2 34.1804 89.5871 57.3740 0.0000 0.0000 0.0000
# 3 42.7059 57.3740 121.2186 0.0000 0.0000 0.0000
# 4 0.0000 0.0000 0.0000 36.1346 0.0000 0.0000
# 5 0.0000 0.0000 0.0000 0.0000 28.3118 0.0000
# 6 0.0000 0.0000 0.0000 0.0000 0.0000 25.0210
#
#
#
# Elastic Compliance Matrix: (Units=1/GPa)
#
#
# Indices 1 2 3 4 5 6 
#
# 1 0.018052 -0.004039 -0.004448 0.000000 0.000000 0.000000
# 2 -0.004039 0.016921 -0.006586 0.000000 0.000000 0.000000
# 3 -0.004448 -0.006586 0.012934 0.000000 0.000000 0.000000
# 4 0.000000 0.000000 0.000000 0.027674 0.000000 0.000000
# 5 0.000000 0.000000 0.000000 0.000000 0.035321 0.000000
# 6 0.000000 0.000000 0.000000 0.000000 0.000000 0.039966
#
#
# Mechanical properties :
#
#
# Convention : Reuss Voigt Hill
#
# Bulk Modulus (GPa) = 56.30321 61.43255 58.86788
# Shear Modulus (GPa) = 26.74732 27.90095 27.32414
#
# Velocity S-wave (km/s) = 3.68047 3.75901 3.71995
# Velocity P-wave (km/s) = 6.82461 7.06768 6.94721
#
# Compressibility (1/GPa) = 0.01776098
#
# Stress axis : x y z
#
# Youngs Moduli (GPa) = 55.39633 59.09787 77.31583
#
# Poissons Ratio (x) = 0.23867 0.34392
# Poissons Ratio (y) = 0.22372 0.50921
# Poissons Ratio (z) = 0.24641 0.38923
#
# Static dielectric constant tensor:
#      x y z
#    x 3.611790 0.000000 0.000000 
#    y 0.000000 3.648030 0.000000 
#    z 0.000000 0.000000 3.678440 
# 
# 
# High freq. dielectric constant tensor:
#      x y z
#    x 1.769810 0.000000 0.000000 
#    y 0.000000 1.769290 0.000000 
#    z 0.000000 0.000000 1.775600 
# 
# From -- ./inp_files/14937.got.cif
#   From: 2010.03.12/outbox.cif.g09.slc.cpg/sg59_8_cif.got.tgz:14937.got - 2010.04.16 16:29:54.
