data_PCOD8244581
_publ_section_title
;
Structure prediction by ZEFSAII (Michael W. Deem and Ramdas Pophale) SiO2 
 PCOD8244581
Probable space group: P M M N
;
_chemical_formula_sum "Si O2"
_cell_formula_units_Z 64
_cell_length_a 30.913443
_cell_length_b 8.514888
_cell_length_c 12.042084
_cell_angle_alpha 90.000000
_cell_angle_beta 90.000000
_cell_angle_gamma 90.000000
_cell_volume 3169.771598
_symmetry_space_group_name_H-M "P M M N"
_symmetry_group_IT_number 59
_space_group.IT_coordinate_system_code '2'
_symmetry_cell_setting 'orthorhombic'
loop_
_space_group_symop_operation_xyz
x,y,z
1/2-x,1/2-y,z
1/2+x,-y,-z
-x,1/2+y,-z
-x,-y,-z
1/2+x,1/2+y,-z
1/2-x,y,z
x,1/2-y,z
loop_
_atom_site_type_symbol
_atom_site_label
_atom_site_fract_x
_atom_site_fract_y
_atom_site_fract_z
Si Si1 0.452648 0.567790 0.486377
Si Si2 0.046514 0.435233 0.027449
Si Si3 0.827880 0.431266 0.745757
Si Si4 0.624683 0.563041 0.121573
Si Si5 0.375814 0.064249 0.629241
Si Si6 0.701821 0.567986 0.524238
Si Si7 0.798241 0.930918 0.966897
Si Si8 0.080099 0.068108 0.264637
O O1 0.500000 0.500000 0.500000
O O2 0.452836 0.750000 0.514763
O O3 0.420081 0.484479 0.570751
O O4 0.438168 0.541308 0.360724
O O5 0.046238 0.250000 0.018101
O O6 0.057777 0.488407 0.151592
O O7 0.082409 0.503194 0.942390
O O8 0.000000 0.500000 0.000000
O O9 0.842015 0.250000 0.743997
O O10 0.799742 0.469399 0.637434
O O11 0.800289 0.466924 0.855291
O O12 0.869013 0.544829 0.746454
O O13 0.623573 0.750000 0.125033
O O14 0.625285 0.493512 0.246265
O O15 0.667688 0.505231 0.057559
O O16 0.373971 0.250000 0.635071
O O17 0.333941 0.001563 0.561839
O O18 0.750000 0.547018 0.473023
O O19 0.692404 0.750000 0.551120
O O20 0.750000 0.948349 0.017010
O O21 0.808572 0.750000 0.937226
O O22 0.070460 0.250000 0.291707
#
# Coordination Sequence:
#
# PCOD8244581 Si02
#       8
#     8   8   8   8   8   8   8   8
#     4  12  26  43  64  92 124 159 203 248 300 359
#     4  10  22  39  61  88 122 156 193 242 295 353
#     4  12  23  36  58  89 123 159 199 250 304 359
#     4   9  19  38  60  87 118 155 199 247 297 349
#     4  10  21  39  63  88 122 161 201 252 303 357
#     4  10  21  37  59  87 120 160 202 246 302 363
#     4  10  20  37  62  88 118 158 202 248 299 356
#     4  11  22  41  66  91 122 158 198 249 302 355
#
# _framework density 20.190729000000001
#
# number of rings (size 3 to 8) (size 9 to 14) (size 15 to 20)
#    0.000    1.500    2.500    3.000    1.750    3.500 
#    0.000    3.125    0.000    0.000    0.000    1.750 
#    0.000    0.000    0.000    0.000    0.000    0.000 
#
# Total GULP energy -793783.800339 kJ/mol
# GULP energy per Si atom -12402.871880 kJ/mol
# Density = 2.014477 g / cm^3
# Si number density = 20.190729 Si / 1000 Ang^3
#
#
#
# Elastic Constant Matrix: (Units=GPa)
#
#
# Indices 1 2 3 4 5 6 
#
# 1 162.2819 8.4948 70.6488 0.0000 0.0000 0.0000
# 2 8.4948 23.8372 20.0124 0.0000 0.0000 0.0000
# 3 70.6488 20.0124 159.1088 0.0000 0.0000 0.0000
# 4 0.0000 0.0000 0.0000 11.7585 0.0000 0.0000
# 5 0.0000 0.0000 0.0000 0.0000 84.5475 0.0000
# 6 0.0000 0.0000 0.0000 0.0000 0.0000 27.2867
#
#
#
# Elastic Compliance Matrix: (Units=1/GPa)
#
#
# Indices 1 2 3 4 5 6 
#
# 1 0.007639 0.000140 -0.003410 0.000000 0.000000 0.000000
# 2 0.000140 0.046907 -0.005962 0.000000 0.000000 0.000000
# 3 -0.003410 -0.005962 0.008549 0.000000 0.000000 0.000000
# 4 0.000000 0.000000 0.000000 0.085045 0.000000 0.000000
# 5 0.000000 0.000000 0.000000 0.000000 0.011828 0.000000
# 6 0.000000 0.000000 0.000000 0.000000 0.000000 0.036648
#
#
# Mechanical properties :
#
#
# Convention : Reuss Voigt Hill
#
# Bulk Modulus (GPa) = 22.40559 60.39332 41.39946
# Shear Modulus (GPa) = 21.74337 41.12333 31.43335
#
# Velocity S-wave (km/s) = 3.28517 4.51793 3.94994
# Velocity P-wave (km/s) = 5.05083 7.56253 6.43050
#
# Compressibility (1/GPa) = 0.04463171
#
# Stress axis : x y z
#
# Youngs Moduli (GPa) = 130.90464 21.31890 116.97442
#
# Poissons Ratio (x) = -0.00299 0.39884
# Poissons Ratio (y) = -0.01835 0.69741
# Poissons Ratio (z) = 0.44634 0.12710
#
# Static dielectric constant tensor:
#      x y z
#    x 3.693690 0.000000 0.000000 
#    y 0.000000 3.377020 0.000000 
#    z 0.000000 0.000000 4.575540 
# 
# 
# High freq. dielectric constant tensor:
#      x y z
#    x 1.802200 0.000000 0.000000 
#    y 0.000000 1.763730 0.000000 
#    z 0.000000 0.000000 1.792310 
# 
# From -- ./inp_files/19396.got.cif
#   From: 2010.03.12/outbox.cif.g09.slc.cpg/sg59_10_cif.got.tgz:19396.got - 2010.04.16 16:29:54.
