data_PCOD8244112
_publ_section_title
;
Structure prediction by ZEFSAII (Michael W. Deem and Ramdas Pophale) SiO2 
 PCOD8244112
Probable space group: P M M N
;
_chemical_formula_sum "Si O2"
_cell_formula_units_Z 56
_cell_length_a 14.902897
_cell_length_b 15.158434
_cell_length_c 12.187125
_cell_angle_alpha 90.000000
_cell_angle_beta 90.000000
_cell_angle_gamma 90.000000
_cell_volume 2753.127362
_symmetry_space_group_name_H-M "P M M N"
_symmetry_group_IT_number 59
_space_group.IT_coordinate_system_code '2'
_symmetry_cell_setting 'orthorhombic'
loop_
_space_group_symop_operation_xyz
x,y,z
1/2-x,1/2-y,z
1/2+x,-y,-z
-x,1/2+y,-z
-x,-y,-z
1/2+x,1/2+y,-z
1/2-x,y,z
x,1/2-y,z
loop_
_atom_site_type_symbol
_atom_site_label
_atom_site_fract_x
_atom_site_fract_y
_atom_site_fract_z
Si Si1 0.904001 0.346365 0.550541
Si Si2 0.348166 0.970536 0.624854
Si Si3 0.651707 0.886272 0.719309
Si Si4 0.892070 0.848331 0.475292
Si Si5 0.351960 0.646974 0.996189
Si Si6 0.041466 0.848857 0.782226
Si Si7 0.148147 0.588136 0.229128
O O1 0.864351 0.250000 0.520551
O O2 0.845838 0.423639 0.494735
O O3 0.907300 0.355418 0.682369
O O4 0.002951 0.354300 0.501579
O O5 0.250000 0.958629 0.679190
O O6 0.423506 0.921887 0.696781
O O7 0.365151 0.075281 0.611077
O O8 0.750000 0.856705 0.767620
O O9 0.655272 0.862197 0.591414
O O10 0.567216 0.842390 0.781793
O O11 0.639152 0.988938 0.733743
O O12 0.866555 0.750000 0.429606
O O13 0.250000 0.615794 0.967363
O O14 0.353044 0.750000 0.019155
O O15 0.420785 0.621085 0.900015
O O16 0.389489 0.600014 0.106092
O O17 0.078129 0.750000 0.754065
O O18 0.250000 0.622779 0.230988
#
# Coordination Sequence:
#
# PCOD8244112 Si02
#       7
#     8   8   8   8   8   8   8
#     4  11  21  34  56  86 121 158 192 241 298 351
#     4  12  23  36  57  87 122 157 196 245 298 356
#     4  11  22  38  59  83 115 155 203 256 300 348
#     4  11  23  40  58  80 117 162 202 245 298 359
#     4   9  19  37  59  84 119 160 197 236 292 366
#     4  11  23  39  59  87 123 161 202 246 299 361
#     4  10  20  35  57  87 120 155 199 248 297 353
#
# _framework density 20.340505
#
# number of rings (size 3 to 8) (size 9 to 14) (size 15 to 20)
#    0.000    1.286    2.857    3.857    0.000    5.714 
#    0.000    0.000    0.000    0.000    0.000    2.000 
#    0.000   16.000    0.000    0.000    0.000    0.000 
#
# Total GULP energy -694112.939798 kJ/mol
# GULP energy per Si atom -12394.873925 kJ/mol
# Density = 2.029421 g / cm^3
# Si number density = 20.340505 Si / 1000 Ang^3
#
#
#
# Elastic Constant Matrix: (Units=GPa)
#
#
# Indices 1 2 3 4 5 6 
#
# 1 101.4079 37.9963 38.0375 0.0000 0.0000 0.0000
# 2 37.9963 124.3299 44.0469 0.0000 0.0000 0.0000
# 3 38.0375 44.0469 100.9978 0.0000 0.0000 0.0000
# 4 0.0000 0.0000 0.0000 44.2985 0.0000 0.0000
# 5 0.0000 0.0000 0.0000 0.0000 27.1164 0.0000
# 6 0.0000 0.0000 0.0000 0.0000 0.0000 21.5996
#
#
#
# Elastic Compliance Matrix: (Units=1/GPa)
#
#
# Indices 1 2 3 4 5 6 
#
# 1 0.012089 -0.002462 -0.003479 0.000000 0.000000 0.000000
# 2 -0.002462 0.010014 -0.003440 0.000000 0.000000 0.000000
# 3 -0.003479 -0.003440 0.012712 0.000000 0.000000 0.000000
# 4 0.000000 0.000000 0.000000 0.022574 0.000000 0.000000
# 5 0.000000 0.000000 0.000000 0.000000 0.036878 0.000000
# 6 0.000000 0.000000 0.000000 0.000000 0.000000 0.046297
#
#
# Mechanical properties :
#
#
# Convention : Reuss Voigt Hill
#
# Bulk Modulus (GPa) = 62.29621 62.98857 62.64239
# Shear Modulus (GPa) = 30.36245 32.37989 31.37117
#
# Velocity S-wave (km/s) = 3.86775 3.99418 3.93147
# Velocity P-wave (km/s) = 7.11612 7.23226 7.17443
#
# Compressibility (1/GPa) = 0.01605234
#
# Stress axis : x y z
#
# Youngs Moduli (GPa) = 82.72274 99.85770 78.66671
#
# Poissons Ratio (x) = 0.24583 0.27369
# Poissons Ratio (y) = 0.20365 0.27063
# Poissons Ratio (z) = 0.28780 0.34353
#
# Static dielectric constant tensor:
#      x y z
#    x 3.812490 0.000000 0.000000 
#    y 0.000000 3.791690 0.000000 
#    z 0.000000 0.000000 3.542680 
# 
# 
# High freq. dielectric constant tensor:
#      x y z
#    x 1.793580 0.000000 0.000000 
#    y 0.000000 1.801080 0.000000 
#    z 0.000000 0.000000 1.765180 
# 
# From -- ./inp_files/16931.got.cif
#   From: 2010.03.12/outbox.cif.g09.slc.cpg/sg59_9_cif.got.tgz:16931.got - 2010.04.16 16:29:54.
