data_PCOD8244875
_publ_section_title
;
Structure prediction by ZEFSAII (Michael W. Deem and Ramdas Pophale) SiO2 
 PCOD8244875
Probable space group: P M M N
;
_chemical_formula_sum "Si O2"
_cell_formula_units_Z 64
_cell_length_a 9.145222
_cell_length_b 14.775828
_cell_length_c 24.076160
_cell_angle_alpha 90.000000
_cell_angle_beta 90.000000
_cell_angle_gamma 90.000000
_cell_volume 3253.368821
_symmetry_space_group_name_H-M "P M M N"
_symmetry_group_IT_number 59
_space_group.IT_coordinate_system_code '2'
_symmetry_cell_setting 'orthorhombic'
loop_
_space_group_symop_operation_xyz
x,y,z
1/2-x,1/2-y,z
1/2+x,-y,-z
-x,1/2+y,-z
-x,-y,-z
1/2+x,1/2+y,-z
1/2-x,y,z
x,1/2-y,z
loop_
_atom_site_type_symbol
_atom_site_label
_atom_site_fract_x
_atom_site_fract_y
_atom_site_fract_z
Si Si1 0.086897 0.142210 0.032903
Si Si2 0.076302 0.149193 0.155259
Si Si3 0.920771 0.855673 0.181522
Si Si4 0.920400 0.353362 0.456620
Si Si5 0.579222 0.015657 0.358333
Si Si6 0.919718 0.851821 0.433314
Si Si7 0.075944 0.495354 0.245371
Si Si8 0.413203 0.642581 0.071606
O O1 0.250000 0.103409 0.023283
O O2 0.092397 0.250000 0.029141
O O3 0.026375 0.114562 0.093965
O O4 0.981416 0.102247 0.985102
O O5 0.250000 0.154520 0.155557
O O6 0.012885 0.250000 0.167534
O O7 0.019693 0.079927 0.201669
O O8 0.750000 0.878651 0.181575
O O9 0.949202 0.750000 0.191990
O O10 0.001617 0.908987 0.230675
O O11 0.988315 0.888320 0.123201
O O12 0.750000 0.365557 0.467403
O O13 0.963655 0.250000 0.443863
O O14 0.970712 0.412273 0.404381
O O15 0.998882 0.388277 0.512142
O O16 0.750000 0.026350 0.342992
O O17 0.544547 0.915146 0.380946
O O18 0.479609 0.035452 0.305337
O O19 0.750000 0.856050 0.447918
O O20 0.970102 0.750000 0.417884
O O21 0.250000 0.505631 0.245160
O O22 0.250000 0.602713 0.079336
O O23 0.407965 0.750000 0.068130
#
# Coordination Sequence:
#
# PCOD8244875 Si02
#       8
#     8   8   8   8   8   8   8   8
#     4   8  13  25  48  74  99 131 170 208 254 319
#     4   8  16  33  55  77 104 139 176 217 267 319
#     4  10  21  38  58  76 100 139 180 217 265 325
#     4   9  18  33  54  80 109 139 171 211 259 307
#     4  10  21  36  52  73 106 144 177 211 256 312
#     4   9  18  33  54  79 105 134 170 211 255 307
#     4  11  23  37  55  80 107 137 181 231 268 304
#     4   9  16  27  47  77 108 132 162 212 268 318
#
# _framework density 19.671914999999998
#
# number of rings (size 3 to 8) (size 9 to 14) (size 15 to 20)
#    0.000    2.750    0.000    2.250    0.000    4.250 
#    0.000    3.125    0.000    2.625    0.000    0.000 
#    0.000    0.000    0.000    0.000    0.000    0.000 
#
# Total GULP energy -793575.835319 kJ/mol
# GULP energy per Si atom -12399.622427 kJ/mol
# Density = 1.962714 g / cm^3
# Si number density = 19.671915 Si / 1000 Ang^3
#
#
#
# Elastic Constant Matrix: (Units=GPa)
#
#
# Indices 1 2 3 4 5 6 
#
# 1 73.0960 16.5170 34.8051 0.0000 0.0000 0.0000
# 2 16.5170 39.1529 13.6044 0.0000 0.0000 0.0000
# 3 34.8051 13.6044 93.6528 0.0000 0.0000 0.0000
# 4 0.0000 0.0000 0.0000 24.4746 0.0000 0.0000
# 5 0.0000 0.0000 0.0000 0.0000 37.0046 0.0000
# 6 0.0000 0.0000 0.0000 0.0000 0.0000 16.4351
#
#
#
# Elastic Compliance Matrix: (Units=1/GPa)
#
#
# Indices 1 2 3 4 5 6 
#
# 1 0.017659 -0.005444 -0.005772 0.000000 0.000000 0.000000
# 2 -0.005444 0.028577 -0.002128 0.000000 0.000000 0.000000
# 3 -0.005772 -0.002128 0.013132 0.000000 0.000000 0.000000
# 4 0.000000 0.000000 0.000000 0.040859 0.000000 0.000000
# 5 0.000000 0.000000 0.000000 0.000000 0.027024 0.000000
# 6 0.000000 0.000000 0.000000 0.000000 0.000000 0.060845
#
#
# Mechanical properties :
#
#
# Convention : Reuss Voigt Hill
#
# Bulk Modulus (GPa) = 30.59985 37.30610 33.95298
# Shear Modulus (GPa) = 22.15555 24.98122 23.56839
#
# Velocity S-wave (km/s) = 3.35961 3.56742 3.46507
# Velocity P-wave (km/s) = 5.53518 5.99783 5.77114
#
# Compressibility (1/GPa) = 0.03267990
#
# Stress axis : x y z
#
# Youngs Moduli (GPa) = 56.62777 34.99325 76.15010
#
# Poissons Ratio (x) = 0.19051 0.43954
# Poissons Ratio (y) = 0.30829 0.16205
# Poissons Ratio (z) = 0.32686 0.07446
#
# Static dielectric constant tensor:
#      x y z
#    x 3.490800 0.000000 0.000000 
#    y 0.000000 3.651340 0.000000 
#    z 0.000000 0.000000 3.617780 
# 
# 
# High freq. dielectric constant tensor:
#      x y z
#    x 1.750810 0.000000 0.000000 
#    y 0.000000 1.762810 0.000000 
#    z 0.000000 0.000000 1.764550 
# 
# From -- ./inp_files/31433.got.cif
#   From: 2010.03.12/outbox.cif.g09.slc.cpg/sg59_16_cif.got.tgz:31433.got - 2010.04.16 16:29:54.
