data_PCOD8244633
_publ_section_title
;
Structure prediction by ZEFSAII (Michael W. Deem and Ramdas Pophale) SiO2 
 PCOD8244633
Probable space group: P M M N
;
_chemical_formula_sum "Si O2"
_cell_formula_units_Z 52
_cell_length_a 18.721933
_cell_length_b 18.013223
_cell_length_c 7.770154
_cell_angle_alpha 90.000000
_cell_angle_beta 90.000000
_cell_angle_gamma 90.000000
_cell_volume 2620.425027
_symmetry_space_group_name_H-M "P M M N"
_symmetry_group_IT_number 59
_space_group.IT_coordinate_system_code '2'
_symmetry_cell_setting 'orthorhombic'
loop_
_space_group_symop_operation_xyz
x,y,z
1/2-x,1/2-y,z
1/2+x,-y,-z
-x,1/2+y,-z
-x,-y,-z
1/2+x,1/2+y,-z
1/2-x,y,z
x,1/2-y,z
loop_
_atom_site_type_symbol
_atom_site_label
_atom_site_fract_x
_atom_site_fract_y
_atom_site_fract_z
Si Si1 0.250000 0.591181 0.953369
Si Si2 0.032886 0.086290 0.618397
Si Si3 0.750000 0.494918 0.723854
Si Si4 0.532162 0.665399 0.741240
Si Si5 0.750000 0.925837 0.057635
Si Si6 0.890251 0.837338 0.083966
Si Si7 0.615273 0.456934 0.512897
Si Si8 0.631531 0.334584 0.252939
O O1 0.250000 0.509284 0.861351
O O2 0.179634 0.636873 0.903903
O O3 0.250000 0.580193 0.159879
O O4 0.047982 0.118539 0.428426
O O5 0.053004 0.143835 0.767021
O O6 0.949045 0.066821 0.641883
O O7 0.081279 0.012100 0.631006
O O8 0.678717 0.498185 0.611222
O O9 0.750000 0.567218 0.848738
O O10 0.551248 0.750000 0.697479
O O11 0.450497 0.657944 0.802487
O O12 0.579712 0.636135 0.899569
O O13 0.818033 0.880936 0.124222
O O14 0.875503 0.750000 0.085416
O O15 0.647339 0.384065 0.421287
O O16 0.651602 0.250000 0.298788
#
# Coordination Sequence:
#
# PCOD8244633 Si02
#       8
#     4   8   4   8   4   8   8   8
#     4  10  22  35  57  84 110 157 193 233 294 357
#     4  10  21  37  62  90 122 158 206 255 295 359
#     4  10  23  38  60  83 120 155 195 249 298 358
#     4   9  20  37  59  89 122 158 197 246 301 353
#     4  10  23  39  55  85 116 150 194 252 294 357
#     4  11  22  38  63  88 119 159 200 247 304 360
#     4  10  21  39  58  91 117 159 206 247 305 357
#     4  10  20  38  59  83 119 156 195 246 300 357
#
# _framework density 19.844109
#
# number of rings (size 3 to 8) (size 9 to 14) (size 15 to 20)
#    0.462    1.538    0.000    3.231    2.154    1.231 
#    0.000    6.154    0.000    1.846    0.000    0.000 
#    0.000    0.000    0.000    0.000    0.000    0.000 
#
# Total GULP energy -644778.901177 kJ/mol
# GULP energy per Si atom -12399.594253 kJ/mol
# Density = 1.979894 g / cm^3
# Si number density = 19.844109 Si / 1000 Ang^3
#
#
#
# Elastic Constant Matrix: (Units=GPa)
#
#
# Indices 1 2 3 4 5 6 
#
# 1 91.5457 20.3272 22.7909 0.0000 0.0000 0.0000
# 2 20.3272 86.2821 17.1432 0.0000 0.0000 0.0000
# 3 22.7909 17.1432 59.7795 0.0000 0.0000 0.0000
# 4 0.0000 0.0000 0.0000 35.5462 0.0000 0.0000
# 5 0.0000 0.0000 0.0000 0.0000 24.4237 0.0000
# 6 0.0000 0.0000 0.0000 0.0000 0.0000 31.8932
#
#
#
# Elastic Compliance Matrix: (Units=1/GPa)
#
#
# Indices 1 2 3 4 5 6 
#
# 1 0.012419 -0.002105 -0.004131 0.000000 0.000000 0.000000
# 2 -0.002105 0.012647 -0.002824 0.000000 0.000000 0.000000
# 3 -0.004131 -0.002824 0.019113 0.000000 0.000000 0.000000
# 4 0.000000 0.000000 0.000000 0.028132 0.000000 0.000000
# 5 0.000000 0.000000 0.000000 0.000000 0.040944 0.000000
# 6 0.000000 0.000000 0.000000 0.000000 0.000000 0.031355
#
#
# Mechanical properties :
#
#
# Convention : Reuss Voigt Hill
#
# Bulk Modulus (GPa) = 38.37536 39.79221 39.08379
# Shear Modulus (GPa) = 29.16855 30.19570 29.68212
#
# Velocity S-wave (km/s) = 3.83807 3.90506 3.87171
# Velocity P-wave (km/s) = 6.24671 6.35835 6.30278
#
# Compressibility (1/GPa) = 0.02605838
#
# Stress axis : x y z
#
# Youngs Moduli (GPa) = 80.51908 79.07035 52.32017
#
# Poissons Ratio (x) = 0.16645 0.21615
# Poissons Ratio (y) = 0.16950 0.14777
# Poissons Ratio (z) = 0.33264 0.22331
#
# Static dielectric constant tensor:
#      x y z
#    x 3.558350 0.000000 0.000000 
#    y 0.000000 3.687420 0.000000 
#    z 0.000000 0.000000 3.296800 
# 
# 
# High freq. dielectric constant tensor:
#      x y z
#    x 1.780970 0.000000 0.000000 
#    y 0.000000 1.779200 0.000000 
#    z 0.000000 0.000000 1.751010 
# 
# From -- ./inp_files/10486.got.cif
#   From: 2010.03.12/outbox.cif.g09.slc.cpg/sg59_6_cif.got.tgz:10486.got - 2010.04.16 16:29:54.
