data_PCOD8244315
_publ_section_title
;
Structure prediction by ZEFSAII (Michael W. Deem and Ramdas Pophale) SiO2 
 PCOD8244315
Probable space group: P M M N
;
_chemical_formula_sum "Si O2"
_cell_formula_units_Z 48
_cell_length_a 17.718096
_cell_length_b 9.078271
_cell_length_c 15.227108
_cell_angle_alpha 90.000000
_cell_angle_beta 90.000000
_cell_angle_gamma 90.000000
_cell_volume 2449.275405
_symmetry_space_group_name_H-M "P M M N"
_symmetry_group_IT_number 59
_space_group.IT_coordinate_system_code '2'
_symmetry_cell_setting 'orthorhombic'
loop_
_space_group_symop_operation_xyz
x,y,z
1/2-x,1/2-y,z
1/2+x,-y,-z
-x,1/2+y,-z
-x,-y,-z
1/2+x,1/2+y,-z
1/2-x,y,z
x,1/2-y,z
loop_
_atom_site_type_symbol
_atom_site_label
_atom_site_fract_x
_atom_site_fract_y
_atom_site_fract_z
Si Si1 0.337036 0.079179 0.159883
Si Si2 0.834652 0.074914 0.514902
Si Si3 0.921779 0.921429 0.016692
Si Si4 0.420969 0.919612 0.656474
Si Si5 0.077055 0.575326 0.314119
Si Si6 0.836265 0.081652 0.166368
O O1 0.250000 0.033228 0.167819
O O2 0.349498 0.250000 0.182997
O O3 0.363623 0.044257 0.061448
O O4 0.385847 0.982129 0.225360
O O5 0.750000 0.009181 0.511347
O O6 0.830841 0.250000 0.512722
O O7 0.882762 0.018108 0.432069
O O8 0.874320 0.017798 0.603400
O O9 0.938274 0.750000 0.025914
O O10 0.887213 0.977591 0.107173
O O11 0.000000 0.000000 0.000000
O O12 0.446246 0.750000 0.645552
O O13 0.359757 0.936850 0.732854
O O14 0.492873 0.016767 0.678569
O O15 0.074847 0.750000 0.310813
O O16 0.750000 0.031664 0.157605
O O17 0.847377 0.250000 0.135603
#
# Coordination Sequence:
#
# PCOD8244315 Si02
#       6
#     8   8   8   8   8   8
#     4  10  22  40  59  79 107 145 186 225 269 325
#     4   9  18  34  56  81 109 143 184 228 273 322
#     4  11  23  39  59  83 112 147 185 226 276 330
#     4  10  20  36  58  81 109 147 186 223 268 327
#     4  11  22  35  55  84 115 145 180 226 276 322
#     4  10  21  37  58  84 111 142 184 231 277 327
#
# _framework density 19.597632999999998
#
# number of rings (size 3 to 8) (size 9 to 14) (size 15 to 20)
#    0.000    1.833    0.000    4.000    0.000   10.000 
#    0.000    0.833    0.000    3.500    0.000    0.000 
#    0.000    0.000    0.000    0.000    0.000    0.000 
#
# Total GULP energy -595443.231629 kJ/mol
# GULP energy per Si atom -12405.067326 kJ/mol
# Density = 1.955303 g / cm^3
# Si number density = 19.597633 Si / 1000 Ang^3
#
#
#
# Elastic Constant Matrix: (Units=GPa)
#
#
# Indices 1 2 3 4 5 6 
#
# 1 103.9205 31.2553 5.6957 0.0000 0.0000 0.0000
# 2 31.2553 60.2323 28.3874 0.0000 0.0000 0.0000
# 3 5.6957 28.3874 74.8254 0.0000 0.0000 0.0000
# 4 0.0000 0.0000 0.0000 26.1044 0.0000 0.0000
# 5 0.0000 0.0000 0.0000 0.0000 41.8260 0.0000
# 6 0.0000 0.0000 0.0000 0.0000 0.0000 23.8756
#
#
#
# Elastic Compliance Matrix: (Units=1/GPa)
#
#
# Indices 1 2 3 4 5 6 
#
# 1 0.011578 -0.006810 0.001702 0.000000 0.000000 0.000000
# 2 -0.006810 0.024223 -0.008671 0.000000 0.000000 0.000000
# 3 0.001702 -0.008671 0.016525 0.000000 0.000000 0.000000
# 4 0.000000 0.000000 0.000000 0.038308 0.000000 0.000000
# 5 0.000000 0.000000 0.000000 0.000000 0.023909 0.000000
# 6 0.000000 0.000000 0.000000 0.000000 0.000000 0.041884
#
#
# Mechanical properties :
#
#
# Convention : Reuss Voigt Hill
#
# Bulk Modulus (GPa) = 40.37626 41.07276 40.72451
# Shear Modulus (GPa) = 26.00923 29.93719 27.97321
#
# Velocity S-wave (km/s) = 3.64698 3.91268 3.78216
# Velocity P-wave (km/s) = 6.19526 6.43550 6.31652
#
# Compressibility (1/GPa) = 0.02476703
#
# Stress axis : x y z
#
# Youngs Moduli (GPa) = 86.37326 41.28299 60.51568
#
# Poissons Ratio (x) = 0.28114 -0.10302
# Poissons Ratio (y) = 0.58821 0.52476
# Poissons Ratio (z) = -0.14704 0.35798
#
# Static dielectric constant tensor:
#      x y z
#    x 3.855760 0.000000 0.000000 
#    y 0.000000 3.410570 0.000000 
#    z 0.000000 0.000000 3.779040 
# 
# 
# High freq. dielectric constant tensor:
#      x y z
#    x 1.780240 0.000000 0.000000 
#    y 0.000000 1.744020 0.000000 
#    z 0.000000 0.000000 1.778870 
# 
# From -- ./inp_files/20287.got.cif
#   From: 2010.03.12/outbox.cif.g09.slc.cpg/sg59_11_cif.got.tgz:20287.got - 2010.04.16 16:29:54.
