data_PCOD8244071
_publ_section_title
;
Structure prediction by ZEFSAII (Michael W. Deem and Ramdas Pophale) SiO2 
 PCOD8244071
Probable space group: P M M N
;
_chemical_formula_sum "Si O2"
_cell_formula_units_Z 56
_cell_length_a 24.169581
_cell_length_b 8.380641
_cell_length_c 14.779377
_cell_angle_alpha 90.000000
_cell_angle_beta 90.000000
_cell_angle_gamma 90.000000
_cell_volume 2993.660082
_symmetry_space_group_name_H-M "P M M N"
_symmetry_group_IT_number 59
_space_group.IT_coordinate_system_code '2'
_symmetry_cell_setting 'orthorhombic'
loop_
_space_group_symop_operation_xyz
x,y,z
1/2-x,1/2-y,z
1/2+x,-y,-z
-x,1/2+y,-z
-x,-y,-z
1/2+x,1/2+y,-z
1/2-x,y,z
x,1/2-y,z
loop_
_atom_site_type_symbol
_atom_site_label
_atom_site_fract_x
_atom_site_fract_y
_atom_site_fract_z
Si Si1 0.041204 0.935340 0.871743
Si Si2 0.144093 0.933652 0.211961
Si Si3 0.932903 0.564298 0.637910
Si Si4 0.130080 0.939224 0.534704
Si Si5 0.079164 0.063070 0.052437
Si Si6 0.750000 0.930717 0.703196
Si Si7 0.949430 0.563852 0.323091
Si Si8 0.250000 0.933601 0.490029
O O1 0.048796 0.750000 0.849615
O O2 0.978880 0.976382 0.900069
O O3 0.056133 0.036774 0.783718
O O4 0.081817 0.987575 0.952542
O O5 0.161397 0.750000 0.215744
O O6 0.094241 0.964104 0.281407
O O7 0.126699 0.979783 0.110722
O O8 0.196265 0.041106 0.236559
O O9 0.925610 0.750000 0.660353
O O10 0.905087 0.524572 0.542991
O O11 0.997419 0.522177 0.633911
O O12 0.128274 0.750000 0.518688
O O13 0.193326 0.006290 0.531423
O O14 0.104760 0.987496 0.630900
O O15 0.089894 0.250000 0.045877
O O16 0.750000 0.750000 0.667486
O O17 0.750000 0.047084 0.617788
O O18 0.952870 0.750000 0.344849
O O19 0.250000 0.750000 0.514723
#
# Coordination Sequence:
#
# PCOD8244071 Si02
#       8
#     8   8   8   8   8   4   8   4
#     4  10  20  35  57  84 116 151 189 233 284 342
#     4  12  23  37  58  85 119 156 194 236 289 348
#     4  12  23  37  56  84 118 154 193 237 290 348
#     4  11  23  40  60  83 114 152 194 242 293 349
#     4  10  20  35  57  85 117 150 188 231 284 342
#     4  12  24  38  60  85 116 153 196 242 288 342
#     4  12  24  38  57  84 118 157 196 239 291 348
#     4  10  22  40  62  83 110 149 196 242 290 342
#
# _framework density 18.706199999999999
#
# number of rings (size 3 to 8) (size 9 to 14) (size 15 to 20)
#    0.000    0.857    2.857    6.214    0.000    1.714 
#    0.000    0.000    0.000    0.857    0.000    5.000 
#    0.000    0.000    0.000    0.000    0.000    0.000 
#
# Total GULP energy -694736.042930 kJ/mol
# GULP energy per Si atom -12406.000767 kJ/mol
# Density = 1.866362 g / cm^3
# Si number density = 18.706200 Si / 1000 Ang^3
#
#
#
# Elastic Constant Matrix: (Units=GPa)
#
#
# Indices 1 2 3 4 5 6 
#
# 1 107.8410 23.5353 56.9289 0.0000 0.0000 0.0000
# 2 23.5353 60.9643 15.5079 0.0000 0.0000 0.0000
# 3 56.9289 15.5079 92.4651 0.0000 0.0000 0.0000
# 4 0.0000 0.0000 0.0000 33.9835 0.0000 0.0000
# 5 0.0000 0.0000 0.0000 0.0000 25.4653 0.0000
# 6 0.0000 0.0000 0.0000 0.0000 0.0000 22.4646
#
#
#
# Elastic Compliance Matrix: (Units=1/GPa)
#
#
# Indices 1 2 3 4 5 6 
#
# 1 0.014401 -0.003451 -0.008288 0.000000 0.000000 0.000000
# 2 -0.003451 0.017961 -0.000887 0.000000 0.000000 0.000000
# 3 -0.008288 -0.000887 0.016066 0.000000 0.000000 0.000000
# 4 0.000000 0.000000 0.000000 0.029426 0.000000 0.000000
# 5 0.000000 0.000000 0.000000 0.000000 0.039269 0.000000
# 6 0.000000 0.000000 0.000000 0.000000 0.000000 0.044514
#
#
# Mechanical properties :
#
#
# Convention : Reuss Voigt Hill
#
# Bulk Modulus (GPa) = 43.14869 50.35718 46.75294
# Shear Modulus (GPa) = 25.69158 27.40259 26.54708
#
# Velocity S-wave (km/s) = 3.71000 3.83154 3.77126
# Velocity P-wave (km/s) = 6.43962 6.82296 6.63406
#
# Compressibility (1/GPa) = 0.02317567
#
# Stress axis : x y z
#
# Youngs Moduli (GPa) = 69.43888 55.67562 62.24226
#
# Poissons Ratio (x) = 0.19216 0.51584
# Poissons Ratio (y) = 0.23966 0.05524
# Poissons Ratio (z) = 0.57548 0.04941
#
# Static dielectric constant tensor:
#      x y z
#    x 3.505190 0.000000 0.000000 
#    y 0.000000 3.474670 0.000000 
#    z 0.000000 0.000000 3.444360 
# 
# 
# High freq. dielectric constant tensor:
#      x y z
#    x 1.710570 0.000000 0.000000 
#    y 0.000000 1.740460 0.000000 
#    z 0.000000 0.000000 1.722740 
# 
# From -- ./inp_files/24323.got.cif
#   From: 2010.03.12/outbox.cif.g09.slc.cpg/sg59_13_cif.got.tgz:24323.got - 2010.04.16 16:29:54.
