data_PCOD8244393
_publ_section_title
;
Structure prediction by ZEFSAII (Michael W. Deem and Ramdas Pophale) SiO2 
 PCOD8244393
Probable space group: P M M N
;
_chemical_formula_sum "Si O2"
_cell_formula_units_Z 48
_cell_length_a 29.901715
_cell_length_b 8.674539
_cell_length_c 9.555679
_cell_angle_alpha 90.000000
_cell_angle_beta 90.000000
_cell_angle_gamma 90.000000
_cell_volume 2478.586352
_symmetry_space_group_name_H-M "P M M N"
_symmetry_group_IT_number 59
_space_group.IT_coordinate_system_code '2'
_symmetry_cell_setting 'orthorhombic'
loop_
_space_group_symop_operation_xyz
x,y,z
1/2-x,1/2-y,z
1/2+x,-y,-z
-x,1/2+y,-z
-x,-y,-z
1/2+x,1/2+y,-z
1/2-x,y,z
x,1/2-y,z
loop_
_atom_site_type_symbol
_atom_site_label
_atom_site_fract_x
_atom_site_fract_y
_atom_site_fract_z
Si Si1 0.250000 0.931580 0.157403
Si Si2 0.927985 0.430359 0.358825
Si Si3 0.498916 0.067800 0.846096
Si Si4 0.824401 0.928979 0.654113
Si Si5 0.825466 0.070411 0.361216
Si Si6 0.427628 0.069572 0.344932
Si Si7 0.250000 0.932641 0.846073
O O1 0.250000 0.750000 0.149827
O O2 0.294975 0.983193 0.233201
O O3 0.250000 0.004038 0.001339
O O4 0.937147 0.250000 0.379803
O O5 0.876554 0.464829 0.320768
O O6 0.942185 0.516929 0.500475
O O7 0.956751 0.494562 0.232009
O O8 0.493342 0.250000 0.852278
O O9 0.544757 0.024610 0.768973
O O10 0.500000 0.000000 0.000000
O O11 0.814667 0.750000 0.669767
O O12 0.875965 0.970317 0.682563
O O13 0.810514 0.979748 0.499131
O O14 0.817914 0.250000 0.392445
O O15 0.794464 0.011096 0.234815
O O16 0.437845 0.250000 0.329862
O O17 0.250000 0.750000 0.855325
#
# Coordination Sequence:
#
# PCOD8244393 Si02
#       7
#     4   8   8   8   8   8   4
#     4  11  22  35  54  80 114 153 190 229 278 334
#     4  10  20  36  59  87 115 147 188 233 281 336
#     4  12  25  40  58  82 114 151 189 233 285 341
#     4  10  21  37  58  84 113 144 184 232 280 330
#     4   9  18  35  60  85 110 143 185 230 276 329
#     4  10  21  39  61  85 113 147 187 234 285 339
#     4   9  19  35  54  80 110 143 184 227 270 322
#
# _framework density 19.365879
#
# number of rings (size 3 to 8) (size 9 to 14) (size 15 to 20)
#    0.000    1.833    0.000    4.250    0.000    4.667 
#    0.000    3.333    0.000    0.000    0.000    0.000 
#    0.000    0.000    0.000    0.000    0.000    0.000 
#
# Total GULP energy -595410.633481 kJ/mol
# GULP energy per Si atom -12404.388198 kJ/mol
# Density = 1.932180 g / cm^3
# Si number density = 19.365879 Si / 1000 Ang^3
#
#
#
# Elastic Constant Matrix: (Units=GPa)
#
#
# Indices 1 2 3 4 5 6 
#
# 1 110.4467 26.2456 75.2907 0.0000 0.0000 0.0000
# 2 26.2456 48.4848 19.8243 0.0000 0.0000 0.0000
# 3 75.2907 19.8243 143.1829 0.0000 0.0000 0.0000
# 4 0.0000 0.0000 0.0000 27.7234 0.0000 0.0000
# 5 0.0000 0.0000 0.0000 0.0000 8.7298 0.0000
# 6 0.0000 0.0000 0.0000 0.0000 0.0000 27.5321
#
#
#
# Elastic Compliance Matrix: (Units=1/GPa)
#
#
# Indices 1 2 3 4 5 6 
#
# 1 0.015294 -0.005290 -0.007310 0.000000 0.000000 0.000000
# 2 -0.005290 0.023693 -0.000499 0.000000 0.000000 0.000000
# 3 -0.007310 -0.000499 0.010897 0.000000 0.000000 0.000000
# 4 0.000000 0.000000 0.000000 0.036071 0.000000 0.000000
# 5 0.000000 0.000000 0.000000 0.000000 0.114550 0.000000
# 6 0.000000 0.000000 0.000000 0.000000 0.000000 0.036321
#
#
# Mechanical properties :
#
#
# Convention : Reuss Voigt Hill
#
# Bulk Modulus (GPa) = 42.21814 60.53729 51.37771
# Shear Modulus (GPa) = 18.45575 24.84732 21.65154
#
# Velocity S-wave (km/s) = 3.09042 3.58585 3.34732
# Velocity P-wave (km/s) = 5.88064 6.96219 6.44414
#
# Compressibility (1/GPa) = 0.02368650
#
# Stress axis : x y z
#
# Youngs Moduli (GPa) = 65.38368 42.20736 91.76936
#
# Poissons Ratio (x) = 0.22329 0.67082
# Poissons Ratio (y) = 0.34589 0.04575
# Poissons Ratio (z) = 0.47795 0.02104
#
# Static dielectric constant tensor:
#      x y z
#    x 3.683180 0.000000 0.000000 
#    y 0.000000 3.547620 0.000000 
#    z 0.000000 0.000000 3.625890 
# 
# 
# High freq. dielectric constant tensor:
#      x y z
#    x 1.768480 0.000000 0.000000 
#    y 0.000000 1.756440 0.000000 
#    z 0.000000 0.000000 1.752880 
# 
# From -- ./inp_files/13036.got.cif
#   From: 2010.03.12/outbox.cif.g09.slc.cpg/sg59_7_cif.got.tgz:13036.got - 2010.04.16 16:29:54.
