data_PCOD8244093
_publ_section_title
;
Structure prediction by ZEFSAII (Michael W. Deem and Ramdas Pophale) SiO2 
 PCOD8244093
Probable space group: P M M N
;
_chemical_formula_sum "Si O2"
_cell_formula_units_Z 48
_cell_length_a 15.956795
_cell_length_b 9.264750
_cell_length_c 16.356030
_cell_angle_alpha 90.000000
_cell_angle_beta 90.000000
_cell_angle_gamma 90.000000
_cell_volume 2418.005414
_symmetry_space_group_name_H-M "P M M N"
_symmetry_group_IT_number 59
_space_group.IT_coordinate_system_code '2'
_symmetry_cell_setting 'orthorhombic'
loop_
_space_group_symop_operation_xyz
x,y,z
1/2-x,1/2-y,z
1/2+x,-y,-z
-x,1/2+y,-z
-x,-y,-z
1/2+x,1/2+y,-z
1/2-x,y,z
x,1/2-y,z
loop_
_atom_site_type_symbol
_atom_site_label
_atom_site_fract_x
_atom_site_fract_y
_atom_site_fract_z
Si Si1 0.574418 0.079933 0.546831
Si Si2 0.898305 0.586099 0.180117
Si Si3 0.750000 0.581186 0.297114
Si Si4 0.847569 0.909512 0.869779
Si Si5 0.848846 0.082721 0.025263
Si Si6 0.750000 0.419627 0.466658
Si Si7 0.924903 0.086056 0.733834
O O1 0.559739 0.250000 0.536490
O O2 0.666182 0.032762 0.514882
O O3 0.569253 0.032106 0.641052
O O4 0.500000 0.000000 0.500000
O O5 0.879132 0.750000 0.151937
O O6 0.830512 0.533913 0.245621
O O7 0.897491 0.483393 0.101907
O O8 0.986125 0.571789 0.223822
O O9 0.750000 0.750000 0.317951
O O10 0.750000 0.495155 0.380189
O O11 0.750000 0.893720 0.884126
O O12 0.889290 0.750000 0.870893
O O13 0.861162 0.985058 0.782624
O O14 0.884282 0.006096 0.943622
O O15 0.750000 0.057890 0.037175
O O16 0.871557 0.250000 0.017591
O O17 0.750000 0.250000 0.452343
O O18 0.891179 0.250000 0.736549
#
# Coordination Sequence:
#
# PCOD8244093 Si02
#       7
#     8   8   4   8   8   4   8
#     4  10  22  41  63  89 122 158 199 249 302 359
#     4  10  20  35  57  85 116 151 191 237 287 341
#     4  10  20  36  60  87 116 151 192 237 288 349
#     4  10  22  39  59  83 114 152 195 242 291 342
#     4  10  20  35  57  85 115 152 194 235 286 343
#     4  10  22  38  60  89 118 155 198 245 302 357
#     4  10  22  38  59  86 115 152 197 239 289 348
#
# _framework density 19.851073
#
# number of rings (size 3 to 8) (size 9 to 14) (size 15 to 20)
#    0.000    2.000    0.833    2.000    1.167    6.333 
#    0.000    0.000    0.000    0.000    0.000    0.000 
#    0.000    0.000    0.000    0.000    0.000    0.000 
#
# Total GULP energy -595345.704761 kJ/mol
# GULP energy per Si atom -12403.035516 kJ/mol
# Density = 1.980589 g / cm^3
# Si number density = 19.851073 Si / 1000 Ang^3
#
#
#
# Elastic Constant Matrix: (Units=GPa)
#
#
# Indices 1 2 3 4 5 6 
#
# 1 67.3540 37.5919 42.9641 0.0000 0.0000 0.0000
# 2 37.5919 106.6384 83.5973 0.0000 0.0000 0.0000
# 3 42.9641 83.5973 178.9566 0.0000 0.0000 0.0000
# 4 0.0000 0.0000 0.0000 41.2562 0.0000 0.0000
# 5 0.0000 0.0000 0.0000 0.0000 30.1137 0.0000
# 6 0.0000 0.0000 0.0000 0.0000 0.0000 20.9359
#
#
#
# Elastic Compliance Matrix: (Units=1/GPa)
#
#
# Indices 1 2 3 4 5 6 
#
# 1 0.019049 -0.004938 -0.002266 0.000000 0.000000 0.000000
# 2 -0.004938 0.016076 -0.006324 0.000000 0.000000 0.000000
# 3 -0.002266 -0.006324 0.009086 0.000000 0.000000 0.000000
# 4 0.000000 0.000000 0.000000 0.024239 0.000000 0.000000
# 5 0.000000 0.000000 0.000000 0.000000 0.033207 0.000000
# 6 0.000000 0.000000 0.000000 0.000000 0.000000 0.047765
#
#
# Mechanical properties :
#
#
# Convention : Reuss Voigt Hill
#
# Bulk Modulus (GPa) = 58.29728 75.69508 66.99618
# Shear Modulus (GPa) = 27.44273 31.04755 29.24514
#
# Velocity S-wave (km/s) = 3.72214 3.95906 3.84243
# Velocity P-wave (km/s) = 6.92124 7.68851 7.31494
#
# Compressibility (1/GPa) = 0.01715346
#
# Stress axis : x y z
#
# Youngs Moduli (GPa) = 52.49668 62.20452 110.05599
#
# Poissons Ratio (x) = 0.30719 0.24943
# Poissons Ratio (y) = 0.25925 0.69600
# Poissons Ratio (z) = 0.11898 0.39339
#
# Static dielectric constant tensor:
#      x y z
#    x 3.571380 0.000000 0.000000 
#    y 0.000000 3.706870 0.000000 
#    z 0.000000 0.000000 3.684710 
# 
# 
# High freq. dielectric constant tensor:
#      x y z
#    x 1.773430 0.000000 0.000000 
#    y 0.000000 1.771520 0.000000 
#    z 0.000000 0.000000 1.785140 
# 
# From -- ./inp_files/23735.got.cif
#   From: 2010.03.12/outbox.cif.g09.slc.cpg/sg59_12_cif.got.tgz:23735.got - 2010.04.16 16:29:54.
