data_PCOD8244392
_publ_section_title
;
Structure prediction by ZEFSAII (Michael W. Deem and Ramdas Pophale) SiO2 
 PCOD8244392
Probable space group: P M M N
;
_chemical_formula_sum "Si O2"
_cell_formula_units_Z 48
_cell_length_a 16.509346
_cell_length_b 8.654425
_cell_length_c 16.372847
_cell_angle_alpha 90.000000
_cell_angle_beta 90.000000
_cell_angle_gamma 90.000000
_cell_volume 2339.334316
_symmetry_space_group_name_H-M "P M M N"
_symmetry_group_IT_number 59
_space_group.IT_coordinate_system_code '2'
_symmetry_cell_setting 'orthorhombic'
loop_
_space_group_symop_operation_xyz
x,y,z
1/2-x,1/2-y,z
1/2+x,-y,-z
-x,1/2+y,-z
-x,-y,-z
1/2+x,1/2+y,-z
1/2-x,y,z
x,1/2-y,z
loop_
_atom_site_type_symbol
_atom_site_label
_atom_site_fract_x
_atom_site_fract_y
_atom_site_fract_z
Si Si1 0.579095 0.930492 0.543700
Si Si2 0.889179 0.572322 0.204625
Si Si3 0.750000 0.073008 0.303056
Si Si4 0.841813 0.928114 0.877366
Si Si5 0.844993 0.071274 0.042806
Si Si6 0.750000 0.569514 0.475816
Si Si7 0.955651 0.928361 0.729377
O O1 0.576798 0.750000 0.524483
O O2 0.665598 0.000826 0.512303
O O3 0.576421 0.966370 0.639542
O O4 0.500000 0.000000 0.500000
O O5 0.862731 0.750000 0.214032
O O6 0.826942 0.458028 0.247430
O O7 0.894569 0.527003 0.109380
O O8 0.973335 0.546108 0.249811
O O9 0.750000 0.250000 0.332680
O O10 0.750000 0.960332 0.379866
O O11 0.750000 0.977554 0.862085
O O12 0.850310 0.750000 0.901712
O O13 0.885319 0.966362 0.793065
O O14 0.877832 0.025495 0.953155
O O15 0.750000 0.030472 0.050215
O O16 0.862406 0.250000 0.058500
O O17 0.750000 0.750000 0.494885
O O18 0.984287 0.750000 0.736077
#
# Coordination Sequence:
#
# PCOD8244392 Si02
#       7
#     8   8   4   8   8   4   8
#     4  10  22  40  63  90 124 161 204 255 310 368
#     4  12  24  38  60  88 120 158 200 248 300 358
#     4  12  24  40  62  89 120 153 196 247 304 367
#     4   9  19  36  60  87 118 157 204 251 297 354
#     4  10  20  36  59  86 119 158 199 247 302 356
#     4  10  22  40  64  93 122 161 206 251 306 373
#     4  10  22  39  60  88 121 160 202 250 303 357
#
# _framework density 20.518657000000001
#
# number of rings (size 3 to 8) (size 9 to 14) (size 15 to 20)
#    0.000    1.667    0.833    3.750    1.167    6.000 
#    0.000    0.000    0.000    0.000    0.000    0.000 
#    0.000    0.000    0.000    0.000    0.000    0.000 
#
# Total GULP energy -595281.970062 kJ/mol
# GULP energy per Si atom -12401.707710 kJ/mol
# Density = 2.047196 g / cm^3
# Si number density = 20.518657 Si / 1000 Ang^3
#
#
#
# Elastic Constant Matrix: (Units=GPa)
#
#
# Indices 1 2 3 4 5 6 
#
# 1 119.0152 27.8032 58.6699 0.0000 0.0000 0.0000
# 2 27.8032 60.0605 26.8391 0.0000 0.0000 0.0000
# 3 58.6699 26.8391 146.3347 0.0000 0.0000 0.0000
# 4 0.0000 0.0000 0.0000 29.0645 0.0000 0.0000
# 5 0.0000 0.0000 0.0000 0.0000 31.3880 0.0000
# 6 0.0000 0.0000 0.0000 0.0000 0.0000 31.7379
#
#
#
# Elastic Compliance Matrix: (Units=1/GPa)
#
#
# Indices 1 2 3 4 5 6 
#
# 1 0.011083 -0.003426 -0.003815 0.000000 0.000000 0.000000
# 2 -0.003426 0.019195 -0.002147 0.000000 0.000000 0.000000
# 3 -0.003815 -0.002147 0.008757 0.000000 0.000000 0.000000
# 4 0.000000 0.000000 0.000000 0.034406 0.000000 0.000000
# 5 0.000000 0.000000 0.000000 0.000000 0.031859 0.000000
# 6 0.000000 0.000000 0.000000 0.000000 0.000000 0.031508
#
#
# Mechanical properties :
#
#
# Convention : Reuss Voigt Hill
#
# Bulk Modulus (GPa) = 49.35999 61.33720 55.34859
# Shear Modulus (GPa) = 30.79976 32.57795 31.68886
#
# Velocity S-wave (km/s) = 3.87856 3.98895 3.93414
# Velocity P-wave (km/s) = 6.64575 7.15359 6.90434
#
# Compressibility (1/GPa) = 0.02025933
#
# Stress axis : x y z
#
# Youngs Moduli (GPa) = 90.22500 52.09637 114.19271
#
# Poissons Ratio (x) = 0.17847 0.43568
# Poissons Ratio (y) = 0.30909 0.24518
# Poissons Ratio (z) = 0.34424 0.11186
#
# Static dielectric constant tensor:
#      x y z
#    x 3.534010 0.000000 0.000000 
#    y 0.000000 3.553030 0.000000 
#    z 0.000000 0.000000 3.833210 
# 
# 
# High freq. dielectric constant tensor:
#      x y z
#    x 1.800200 0.000000 0.000000 
#    y 0.000000 1.789750 0.000000 
#    z 0.000000 0.000000 1.816580 
# 
# From -- ./inp_files/23733.got.cif
#   From: 2010.03.12/outbox.cif.g09.slc.cpg/sg59_12_cif.got.tgz:23733.got - 2010.04.16 16:29:54.
