data_PCOD8244330
_publ_section_title
;
Structure prediction by ZEFSAII (Michael W. Deem and Ramdas Pophale) SiO2 
 PCOD8244330
Probable space group: P M M N
;
_chemical_formula_sum "Si O2"
_cell_formula_units_Z 48
_cell_length_a 9.667166
_cell_length_b 9.136333
_cell_length_c 28.344118
_cell_angle_alpha 90.000000
_cell_angle_beta 90.000000
_cell_angle_gamma 90.000000
_cell_volume 2503.421881
_symmetry_space_group_name_H-M "P M M N"
_symmetry_group_IT_number 59
_space_group.IT_coordinate_system_code '2'
_symmetry_cell_setting 'orthorhombic'
loop_
_space_group_symop_operation_xyz
x,y,z
1/2-x,1/2-y,z
1/2+x,-y,-z
-x,1/2+y,-z
-x,-y,-z
1/2+x,1/2+y,-z
1/2-x,y,z
x,1/2-y,z
loop_
_atom_site_type_symbol
_atom_site_label
_atom_site_fract_x
_atom_site_fract_y
_atom_site_fract_z
Si Si1 0.089768 0.580397 0.855832
Si Si2 0.536542 0.579671 0.391077
Si Si3 0.588571 0.423210 0.779044
Si Si4 0.094426 0.919519 0.703098
Si Si5 0.595433 0.419819 0.036634
Si Si6 0.250000 0.580088 0.432101
Si Si7 0.750000 0.582410 0.470018
O O1 0.250000 0.536415 0.847566
O O2 0.069139 0.750000 0.841895
O O3 0.046263 0.552755 0.909883
O O4 0.987792 0.481260 0.825470
O O5 0.555422 0.750000 0.377203
O O6 0.595701 0.480390 0.349700
O O7 0.379011 0.534999 0.400037
O O8 0.615784 0.543411 0.439298
O O9 0.750000 0.468077 0.780398
O O10 0.571344 0.250000 0.776385
O O11 0.516955 0.492276 0.733368
O O12 0.250000 0.938199 0.724029
O O13 0.051709 0.750000 0.702814
O O14 0.750000 0.481177 0.030395
O O15 0.591173 0.250000 0.024722
O O16 0.500000 0.500000 0.000000
O O17 0.250000 0.750000 0.443465
O O18 0.250000 0.507469 0.482629
O O19 0.750000 0.750000 0.485268
#
# Coordination Sequence:
#
# PCOD8244330 Si02
#       7
#     8   8   8   8   8   4   4
#     4   9  19  38  61  84 114 153 197 242 288 340
#     4  10  21  38  58  83 115 150 187 230 280 333
#     4  11  25  41  59  86 118 150 185 232 289 346
#     4  11  24  41  62  87 113 146 189 236 284 338
#     4   9  19  35  55  82 117 156 197 243 291 339
#     4  10  22  36  56  84 116 150 184 230 281 326
#     4  10  20  36  58  82 112 152 192 228 273 330
#
# _framework density 19.173756999999998
#
# number of rings (size 3 to 8) (size 9 to 14) (size 15 to 20)
#    0.000    2.000    0.833    3.000    1.167    7.667 
#    0.000    5.000    0.000    0.000    0.000    0.000 
#    0.000    0.000    0.000    0.000    0.000    0.000 
#
# Total GULP energy -595267.147106 kJ/mol
# GULP energy per Si atom -12401.398898 kJ/mol
# Density = 1.913012 g / cm^3
# Si number density = 19.173757 Si / 1000 Ang^3
#
#
#
# Elastic Constant Matrix: (Units=GPa)
#
#
# Indices 1 2 3 4 5 6 
#
# 1 124.1893 55.7335 44.4574 0.0000 0.0000 0.0000
# 2 55.7335 81.4191 50.0896 0.0000 0.0000 0.0000
# 3 44.4574 50.0896 93.6542 0.0000 0.0000 0.0000
# 4 0.0000 0.0000 0.0000 41.5771 0.0000 0.0000
# 5 0.0000 0.0000 0.0000 0.0000 17.8565 0.0000
# 6 0.0000 0.0000 0.0000 0.0000 0.0000 23.8475
#
#
#
# Elastic Compliance Matrix: (Units=1/GPa)
#
#
# Indices 1 2 3 4 5 6 
#
# 1 0.011849 -0.006931 -0.001918 0.000000 0.000000 0.000000
# 2 -0.006931 0.022360 -0.008668 0.000000 0.000000 0.000000
# 3 -0.001918 -0.008668 0.016224 0.000000 0.000000 0.000000
# 4 0.000000 0.000000 0.000000 0.024052 0.000000 0.000000
# 5 0.000000 0.000000 0.000000 0.000000 0.056002 0.000000
# 6 0.000000 0.000000 0.000000 0.000000 0.000000 0.041933
#
#
# Mechanical properties :
#
#
# Convention : Reuss Voigt Hill
#
# Bulk Modulus (GPa) = 64.94318 66.64706 65.79512
# Shear Modulus (GPa) = 23.51968 26.58837 25.05403
#
# Velocity S-wave (km/s) = 3.50617 3.72789 3.61873
# Velocity P-wave (km/s) = 7.09474 7.30510 7.20069
#
# Compressibility (1/GPa) = 0.01539808
#
# Stress axis : x y z
#
# Youngs Moduli (GPa) = 84.39241 44.72323 61.63670
#
# Poissons Ratio (x) = 0.31000 0.11820
# Poissons Ratio (y) = 0.58496 0.53429
# Poissons Ratio (z) = 0.16184 0.38768
#
# Static dielectric constant tensor:
#      x y z
#    x 3.640190 0.000000 0.000000 
#    y 0.000000 3.410290 0.000000 
#    z 0.000000 0.000000 3.336090 
# 
# 
# High freq. dielectric constant tensor:
#      x y z
#    x 1.756540 0.000000 0.000000 
#    y 0.000000 1.741710 0.000000 
#    z 0.000000 0.000000 1.752260 
# 
# From -- ./inp_files/33036.got.cif
#   From: 2010.03.12/outbox.cif.g09.slc.cpg/sg59_17_cif.got.tgz:33036.got - 2010.04.16 16:29:54.
