data_PCOD8244747
_publ_section_title
;
Structure prediction by ZEFSAII (Michael W. Deem and Ramdas Pophale) SiO2 
 PCOD8244747
Probable space group: P M M N
;
_chemical_formula_sum "Si O2"
_cell_formula_units_Z 64
_cell_length_a 9.300514
_cell_length_b 22.485868
_cell_length_c 16.399637
_cell_angle_alpha 90.000000
_cell_angle_beta 90.000000
_cell_angle_gamma 90.000000
_cell_volume 3429.658220
_symmetry_space_group_name_H-M "P M M N"
_symmetry_group_IT_number 59
_space_group.IT_coordinate_system_code '2'
_symmetry_cell_setting 'orthorhombic'
loop_
_space_group_symop_operation_xyz
x,y,z
1/2-x,1/2-y,z
1/2+x,-y,-z
-x,1/2+y,-z
-x,-y,-z
1/2+x,1/2+y,-z
1/2-x,y,z
x,1/2-y,z
loop_
_atom_site_type_symbol
_atom_site_label
_atom_site_fract_x
_atom_site_fract_y
_atom_site_fract_z
Si Si1 0.411947 0.512157 0.079869
Si Si2 0.080906 0.967970 0.623664
Si Si3 0.914215 0.317132 0.654665
Si Si4 0.583933 0.681015 0.895445
Si Si5 0.583082 0.574846 0.778806
Si Si6 0.414093 0.852943 0.053314
Si Si7 0.093902 0.316881 0.802625
Si Si8 0.914416 0.072983 0.553592
O O1 0.250000 0.490487 0.063241
O O2 0.471953 0.475213 0.156858
O O3 0.420459 0.582283 0.094996
O O4 0.500000 0.500000 0.000000
O O5 0.250000 0.973834 0.639856
O O6 0.044374 0.932123 0.541102
O O7 0.010222 0.931762 0.697588
O O8 0.013452 0.033339 0.612858
O O9 0.750000 0.318756 0.684327
O O10 0.959656 0.250000 0.631008
O O11 0.938775 0.358085 0.575807
O O12 0.004431 0.346192 0.729026
O O13 0.750000 0.676694 0.923302
O O14 0.541442 0.750000 0.878554
O O15 0.558760 0.641365 0.814522
O O16 0.484995 0.651507 0.964537
O O17 0.750000 0.564270 0.757548
O O18 0.250000 0.830590 0.046383
O O19 0.505629 0.812625 0.113705
O O20 0.250000 0.348785 0.814185
O O21 0.120793 0.250000 0.774880
O O22 0.750000 0.052807 0.568118
#
# Coordination Sequence:
#
# PCOD8244747 Si02
#       8
#     8   8   8   8   8   8   8   8
#     4  10  21  36  54  77 105 139 176 217 266 316
#     4  10  21  36  57  85 111 140 180 224 267 321
#     4   9  18  34  56  79 105 140 179 219 266 323
#     4  10  21  38  59  79 103 142 188 228 270 320
#     4  10  21  38  57  79 110 144 177 221 273 320
#     4  11  22  34  52  79 107 139 181 223 266 317
#     4  10  21  35  50  73 107 143 178 215 257 310
#     4   9  19  37  58  81 111 142 175 217 271 326
#
# _framework density 18.660753
#
# number of rings (size 3 to 8) (size 9 to 14) (size 15 to 20)
#    0.000    2.125    1.250    1.500    1.750    5.000 
#    0.000    0.625    0.000    0.750    0.000    0.000 
#    0.000    0.000    0.000    0.000    0.000    0.000 
#
# Total GULP energy -793422.683885 kJ/mol
# GULP energy per Si atom -12397.229436 kJ/mol
# Density = 1.861828 g / cm^3
# Si number density = 18.660753 Si / 1000 Ang^3
#
#
#
# Elastic Constant Matrix: (Units=GPa)
#
#
# Indices 1 2 3 4 5 6 
#
# 1 101.1009 40.6354 58.5925 0.0000 0.0000 0.0000
# 2 40.6354 91.1195 48.3535 0.0000 0.0000 0.0000
# 3 58.5925 48.3535 111.3573 0.0000 0.0000 0.0000
# 4 0.0000 0.0000 0.0000 27.0509 0.0000 0.0000
# 5 0.0000 0.0000 0.0000 0.0000 35.2063 0.0000
# 6 0.0000 0.0000 0.0000 0.0000 0.0000 21.1668
#
#
#
# Elastic Compliance Matrix: (Units=1/GPa)
#
#
# Indices 1 2 3 4 5 6 
#
# 1 0.014930 -0.003235 -0.006451 0.000000 0.000000 0.000000
# 2 -0.003235 0.014961 -0.004794 0.000000 0.000000 0.000000
# 3 -0.006451 -0.004794 0.014456 0.000000 0.000000 0.000000
# 4 0.000000 0.000000 0.000000 0.036967 0.000000 0.000000
# 5 0.000000 0.000000 0.000000 0.000000 0.028404 0.000000
# 6 0.000000 0.000000 0.000000 0.000000 0.000000 0.047244
#
#
# Mechanical properties :
#
#
# Convention : Reuss Voigt Hill
#
# Bulk Modulus (GPa) = 64.98994 66.52672 65.75833
# Shear Modulus (GPa) = 26.17082 27.08455 26.62769
#
# Velocity S-wave (km/s) = 3.74900 3.81388 3.78158
# Velocity P-wave (km/s) = 7.32411 7.42444 7.37445
#
# Compressibility (1/GPa) = 0.01538700
#
# Stress axis : x y z
#
# Youngs Moduli (GPa) = 66.97958 66.83849 69.17410
#
# Poissons Ratio (x) = 0.21621 0.44624
# Poissons Ratio (y) = 0.21667 0.33166
# Poissons Ratio (z) = 0.43209 0.32046
#
# Static dielectric constant tensor:
#      x y z
#    x 3.642780 0.000000 0.000000 
#    y 0.000000 3.561870 0.000000 
#    z 0.000000 0.000000 3.261860 
# 
# 
# High freq. dielectric constant tensor:
#      x y z
#    x 1.729790 0.000000 0.000000 
#    y 0.000000 1.719380 0.000000 
#    z 0.000000 0.000000 1.712180 
# 
# From -- ./inp_files/26218.got.cif
#   From: 2010.03.12/outbox.cif.g09.slc.cpg/sg59_14_cif.got.tgz:26218.got - 2010.04.16 16:29:54.
