data_PCOD8244073
_publ_section_title
;
Structure prediction by ZEFSAII (Michael W. Deem and Ramdas Pophale) SiO2 
 PCOD8244073
Probable space group: P M M N
;
_chemical_formula_sum "Si O2"
_cell_formula_units_Z 64
_cell_length_a 23.616350
_cell_length_b 8.879521
_cell_length_c 15.072928
_cell_angle_alpha 90.000000
_cell_angle_beta 90.000000
_cell_angle_gamma 90.000000
_cell_volume 3160.821275
_symmetry_space_group_name_H-M "P M M N"
_symmetry_group_IT_number 59
_space_group.IT_coordinate_system_code '2'
_symmetry_cell_setting 'orthorhombic'
loop_
_space_group_symop_operation_xyz
x,y,z
1/2-x,1/2-y,z
1/2+x,-y,-z
-x,1/2+y,-z
-x,-y,-z
1/2+x,1/2+y,-z
1/2-x,y,z
x,1/2-y,z
loop_
_atom_site_type_symbol
_atom_site_label
_atom_site_fract_x
_atom_site_fract_y
_atom_site_fract_z
Si Si1 0.867157 0.576753 0.641939
Si Si2 0.510719 0.571817 0.214952
Si Si3 0.374465 0.572298 0.836371
Si Si4 0.395581 0.423384 0.163262
Si Si5 0.315601 0.427013 0.002809
Si Si6 0.682548 0.919712 0.326683
Si Si7 0.019913 0.573879 0.409619
Si Si8 0.685958 0.415276 0.497364
O O1 0.878650 0.750000 0.618437
O O2 0.859622 0.554175 0.746633
O O3 0.915745 0.472409 0.602083
O O4 0.813556 0.511223 0.588964
O O5 0.513635 0.750000 0.205931
O O6 0.563181 0.500014 0.163045
O O7 0.453186 0.518573 0.166679
O O8 0.512593 0.521587 0.319104
O O9 0.381240 0.750000 0.840111
O O10 0.340144 0.525902 0.749960
O O11 0.338134 0.517302 0.919226
O O12 0.413141 0.250000 0.150686
O O13 0.353890 0.478487 0.085937
O O14 0.250000 0.468691 0.021200
O O15 0.321828 0.250000 0.984278
O O16 0.750000 0.916767 0.323958
O O17 0.658570 0.750000 0.315394
O O18 0.657650 0.986767 0.418561
O O19 0.013715 0.750000 0.421086
O O20 0.000000 0.500000 0.500000
O O21 0.750000 0.389218 0.469449
O O22 0.656683 0.250000 0.506228
#
# Coordination Sequence:
#
# PCOD8244073 Si02
#       8
#     8   8   8   8   8   8   8   8
#     4  10  20  35  57  84 116 152 192 241 294 350
#     4  10  22  40  61  87 120 161 205 247 300 362
#     4  12  25  39  60  89 122 158 198 249 303 362
#     4   9  20  40  64  90 121 156 199 250 302 357
#     4  10  22  42  67  93 121 156 199 248 304 365
#     4  10  21  38  59  82 113 154 198 247 302 361
#     4  10  21  36  56  82 115 154 198 245 292 347
#     4  10  21  36  54  80 115 155 199 244 293 351
#
# _framework density 20.247900999999999
#
# number of rings (size 3 to 8) (size 9 to 14) (size 15 to 20)
#    0.000    1.875    0.000    3.375    1.750    6.750 
#    0.000    1.250    0.000    0.000    0.000    0.000 
#    0.000    0.000    0.000    0.000    0.000    0.000 
#
# Total GULP energy -793467.267050 kJ/mol
# GULP energy per Si atom -12397.926048 kJ/mol
# Density = 2.020182 g / cm^3
# Si number density = 20.247901 Si / 1000 Ang^3
#
#
#
# Elastic Constant Matrix: (Units=GPa)
#
#
# Indices 1 2 3 4 5 6 
#
# 1 77.7841 46.3712 46.8460 0.0000 0.0000 0.0000
# 2 46.3712 87.4102 43.0186 0.0000 0.0000 0.0000
# 3 46.8460 43.0186 95.5247 0.0000 0.0000 0.0000
# 4 0.0000 0.0000 0.0000 27.3094 0.0000 0.0000
# 5 0.0000 0.0000 0.0000 0.0000 34.0832 0.0000
# 6 0.0000 0.0000 0.0000 0.0000 0.0000 31.4230
#
#
#
# Elastic Compliance Matrix: (Units=1/GPa)
#
#
# Indices 1 2 3 4 5 6 
#
# 1 0.022016 -0.008179 -0.007114 0.000000 0.000000 0.000000
# 2 -0.008179 0.017736 -0.003976 0.000000 0.000000 0.000000
# 3 -0.007114 -0.003976 0.015748 0.000000 0.000000 0.000000
# 4 0.000000 0.000000 0.000000 0.036617 0.000000 0.000000
# 5 0.000000 0.000000 0.000000 0.000000 0.029340 0.000000
# 6 0.000000 0.000000 0.000000 0.000000 0.000000 0.031824
#
#
# Mechanical properties :
#
#
# Convention : Reuss Voigt Hill
#
# Bulk Modulus (GPa) = 58.95330 59.24338 59.09834
# Shear Modulus (GPa) = 25.31998 26.86201 26.09099
#
# Velocity S-wave (km/s) = 3.54008 3.64628 3.59357
# Velocity P-wave (km/s) = 6.77410 6.85928 6.81682
#
# Compressibility (1/GPa) = 0.01696258
#
# Stress axis : x y z
#
# Youngs Moduli (GPa) = 45.42151 56.38243 63.50084
#
# Poissons Ratio (x) = 0.46113 0.45172
# Poissons Ratio (y) = 0.37148 0.25251
# Poissons Ratio (z) = 0.32311 0.22420
#
# Static dielectric constant tensor:
#      x y z
#    x 3.484280 0.000000 0.000000 
#    y 0.000000 3.821380 0.000000 
#    z 0.000000 0.000000 3.336950 
# 
# 
# High freq. dielectric constant tensor:
#      x y z
#    x 1.784830 0.000000 0.000000 
#    y 0.000000 1.799470 0.000000 
#    z 0.000000 0.000000 1.795860 
# 
# From -- ./inp_files/24725.got.cif
#   From: 2010.03.12/outbox.cif.g09.slc.cpg/sg59_13_cif.got.tgz:24725.got - 2010.04.16 16:29:54.
