data_PCOD8244306
_publ_section_title
;
Structure prediction by ZEFSAII (Michael W. Deem and Ramdas Pophale) SiO2 
 PCOD8244306
Probable space group: P M M N
;
_chemical_formula_sum "Si O2"
_cell_formula_units_Z 64
_cell_length_a 14.307460
_cell_length_b 18.315585
_cell_length_c 12.020045
_cell_angle_alpha 90.000000
_cell_angle_beta 90.000000
_cell_angle_gamma 90.000000
_cell_volume 3149.846779
_symmetry_space_group_name_H-M "P M M N"
_symmetry_group_IT_number 59
_space_group.IT_coordinate_system_code '2'
_symmetry_cell_setting 'orthorhombic'
loop_
_space_group_symop_operation_xyz
x,y,z
1/2-x,1/2-y,z
1/2+x,-y,-z
-x,1/2+y,-z
-x,-y,-z
1/2+x,1/2+y,-z
1/2-x,y,z
x,1/2-y,z
loop_
_atom_site_type_symbol
_atom_site_label
_atom_site_fract_x
_atom_site_fract_y
_atom_site_fract_z
Si Si1 0.025879 0.336172 0.471371
Si Si2 0.031526 0.886119 0.864681
Si Si3 0.146974 0.665563 0.668302
Si Si4 0.489132 0.830869 0.283963
Si Si5 0.643883 0.509235 0.034739
Si Si6 0.920551 0.831514 0.054779
Si Si7 0.855834 0.598744 0.710761
Si Si8 0.853136 0.449256 0.799378
O O1 0.032194 0.250000 0.452674
O O2 0.114444 0.371421 0.409498
O O3 0.928491 0.367436 0.419056
O O4 0.033761 0.359175 0.600474
O O5 0.110048 0.844726 0.793951
O O6 0.931013 0.877646 0.804072
O O7 0.071432 0.969464 0.880381
O O8 0.016489 0.846077 0.984138
O O9 0.250000 0.628570 0.654048
O O10 0.158162 0.750000 0.643395
O O11 0.448292 0.750000 0.304916
O O12 0.565273 0.830047 0.187132
O O13 0.405437 0.880173 0.245521
O O14 0.750000 0.483948 0.059341
O O15 0.644616 0.597782 0.035512
O O16 0.607487 0.484506 0.913261
O O17 0.880324 0.750000 0.021948
O O18 0.750000 0.626469 0.740793
O O19 0.855745 0.511076 0.704239
O O20 0.750000 0.420972 0.823781
#
# Coordination Sequence:
#
# PCOD8244306 Si02
#       8
#     8   8   8   8   8   8   8   8
#     4   9  20  38  59  84 116 158 202 241 299 359
#     4  11  19  35  61  87 118 157 195 244 306 365
#     4   9  18  33  54  83 118 152 194 250 302 356
#     4  10  21  38  59  84 116 158 201 245 298 361
#     4  11  22  38  59  87 125 166 202 242 300 367
#     4  11  22  36  57  86 120 157 201 249 299 357
#     4  10  21  37  60  88 114 147 197 251 301 350
#     4  10  20  36  57  86 120 155 199 247 296 356
#
# _framework density 20.318448
#
# number of rings (size 3 to 8) (size 9 to 14) (size 15 to 20)
#    0.000    1.875    2.500    1.875    0.000    2.250 
#    0.000    1.875    0.000    5.250    0.000    0.000 
#    0.000    0.000    0.000    0.000    0.000    0.000 
#
# Total GULP energy -792875.365603 kJ/mol
# GULP energy per Si atom -12388.677588 kJ/mol
# Density = 2.027220 g / cm^3
# Si number density = 20.318448 Si / 1000 Ang^3
#
#
#
# Elastic Constant Matrix: (Units=GPa)
#
#
# Indices 1 2 3 4 5 6 
#
# 1 110.8731 36.0296 43.5683 0.0000 0.0000 0.0000
# 2 36.0296 79.7968 36.9993 0.0000 0.0000 0.0000
# 3 43.5683 36.9993 123.3006 0.0000 0.0000 0.0000
# 4 0.0000 0.0000 0.0000 28.8812 0.0000 0.0000
# 5 0.0000 0.0000 0.0000 0.0000 19.6756 0.0000
# 6 0.0000 0.0000 0.0000 0.0000 0.0000 24.0356
#
#
#
# Elastic Compliance Matrix: (Units=1/GPa)
#
#
# Indices 1 2 3 4 5 6 
#
# 1 0.011389 -0.003806 -0.002882 0.000000 0.000000 0.000000
# 2 -0.003806 0.015829 -0.003405 0.000000 0.000000 0.000000
# 3 -0.002882 -0.003405 0.010150 0.000000 0.000000 0.000000
# 4 0.000000 0.000000 0.000000 0.034625 0.000000 0.000000
# 5 0.000000 0.000000 0.000000 0.000000 0.050824 0.000000
# 6 0.000000 0.000000 0.000000 0.000000 0.000000 0.041605
#
#
# Mechanical properties :
#
#
# Convention : Reuss Voigt Hill
#
# Bulk Modulus (GPa) = 58.20035 60.79609 59.49822
# Shear Modulus (GPa) = 26.26941 27.67671 26.97306
#
# Velocity S-wave (km/s) = 3.59957 3.69473 3.64746
# Velocity P-wave (km/s) = 6.78101 6.94176 6.86186
#
# Compressibility (1/GPa) = 0.01718203
#
# Stress axis : x y z
#
# Youngs Moduli (GPa) = 87.80704 63.17499 98.51775
#
# Poissons Ratio (x) = 0.24043 0.28394
# Poissons Ratio (y) = 0.33417 0.33546
# Poissons Ratio (z) = 0.25307 0.21512
#
# Static dielectric constant tensor:
#      x y z
#    x 3.704480 0.000000 0.000000 
#    y 0.000000 3.693040 0.000000 
#    z 0.000000 0.000000 3.845460 
# 
# 
# High freq. dielectric constant tensor:
#      x y z
#    x 1.782820 0.000000 0.000000 
#    y 0.000000 1.783870 0.000000 
#    z 0.000000 0.000000 1.787940 
# 
# From -- ./inp_files/17258.got.cif
#   From: 2010.03.12/outbox.cif.g09.slc.cpg/sg59_9_cif.got.tgz:17258.got - 2010.04.16 16:29:54.
