data_PCOD8244031
_publ_section_title
;
Structure prediction by ZEFSAII (Michael W. Deem and Ramdas Pophale) SiO2 
 PCOD8244031
Probable space group: P M M N
;
_chemical_formula_sum "Si O2"
_cell_formula_units_Z 48
_cell_length_a 9.132794
_cell_length_b 9.014837
_cell_length_c 31.034942
_cell_angle_alpha 90.000000
_cell_angle_beta 90.000000
_cell_angle_gamma 90.000000
_cell_volume 2555.126925
_symmetry_space_group_name_H-M "P M M N"
_symmetry_group_IT_number 59
_space_group.IT_coordinate_system_code '2'
_symmetry_cell_setting 'orthorhombic'
loop_
_space_group_symop_operation_xyz
x,y,z
1/2-x,1/2-y,z
1/2+x,-y,-z
-x,1/2+y,-z
-x,-y,-z
1/2+x,1/2+y,-z
1/2-x,y,z
x,1/2-y,z
loop_
_atom_site_type_symbol
_atom_site_label
_atom_site_fract_x
_atom_site_fract_y
_atom_site_fract_z
Si Si1 0.578706 0.076288 0.118467
Si Si2 0.420576 0.421616 0.374744
Si Si3 0.921950 0.078921 0.289358
Si Si4 0.578271 0.078708 0.539126
Si Si5 0.423793 0.083469 0.795174
Si Si6 0.421700 0.576083 0.039849
O O1 0.750000 0.043664 0.110580
O O2 0.545230 0.250000 0.115967
O O3 0.525495 0.016092 0.164661
O O4 0.484589 0.991094 0.083419
O O5 0.250000 0.449103 0.367282
O O6 0.457475 0.250000 0.382771
O O7 0.502940 0.482349 0.332588
O O8 0.478992 0.510899 0.416004
O O9 0.750000 0.056050 0.294554
O O10 0.962727 0.250000 0.281651
O O11 0.985283 0.987826 0.248797
O O12 0.750000 0.050869 0.534265
O O13 0.536271 0.250000 0.538468
O O14 0.500000 0.000000 0.500000
O O15 0.250000 0.085108 0.793059
O O16 0.486042 0.250000 0.800260
O O17 0.250000 0.542963 0.037094
O O18 0.455191 0.750000 0.038652
O O19 0.500000 0.500000 0.000000
#
# Coordination Sequence:
#
# PCOD8244031 Si02
#       6
#     8   8   8   8   8   8
#     4  10  20  35  57  83 109 140 179 220 264 314
#     4   9  18  33  51  71  99 134 168 205 255 311
#     4   9  17  30  49  73 100 131 170 214 255 300
#     4  10  21  36  54  76 102 133 170 212 259 311
#     4   9  17  30  50  76 105 137 173 214 260 307
#     4  11  24  40  58  82 111 142 178 219 263 313
#
# _framework density 18.785758999999999
#
# number of rings (size 3 to 8) (size 9 to 14) (size 15 to 20)
#    0.000    2.333    0.000    2.500    0.000    8.667 
#    0.000    2.500    0.000    3.000    0.000    0.000 
#    0.000    0.000    0.000    0.000    0.000    0.000 
#
# Total GULP energy -595315.749944 kJ/mol
# GULP energy per Si atom -12402.411457 kJ/mol
# Density = 1.874300 g / cm^3
# Si number density = 18.785759 Si / 1000 Ang^3
#
#
#
# Elastic Constant Matrix: (Units=GPa)
#
#
# Indices 1 2 3 4 5 6 
#
# 1 50.4334 56.2294 63.0624 0.0000 0.0000 0.0000
# 2 56.2294 124.3283 93.3049 0.0000 0.0000 0.0000
# 3 63.0624 93.3049 197.2917 0.0000 0.0000 0.0000
# 4 0.0000 0.0000 0.0000 43.1670 0.0000 0.0000
# 5 0.0000 0.0000 0.0000 0.0000 33.8539 0.0000
# 6 0.0000 0.0000 0.0000 0.0000 0.0000 23.7476
#
#
#
# Elastic Compliance Matrix: (Units=1/GPa)
#
#
# Indices 1 2 3 4 5 6 
#
# 1 0.046334 -0.015255 -0.007596 0.000000 0.000000 0.000000
# 2 -0.015255 0.017491 -0.003396 0.000000 0.000000 0.000000
# 3 -0.007596 -0.003396 0.009103 0.000000 0.000000 0.000000
# 4 0.000000 0.000000 0.000000 0.023166 0.000000 0.000000
# 5 0.000000 0.000000 0.000000 0.000000 0.029539 0.000000
# 6 0.000000 0.000000 0.000000 0.000000 0.000000 0.042110
#
#
# Mechanical properties :
#
#
# Convention : Reuss Voigt Hill
#
# Bulk Modulus (GPa) = 48.93699 88.58298 68.75999
# Shear Modulus (GPa) = 22.02198 30.78415 26.40307
#
# Velocity S-wave (km/s) = 3.42756 4.05247 3.75304
# Velocity P-wave (km/s) = 6.46303 8.31585 7.44729
#
# Compressibility (1/GPa) = 0.02043444
#
# Stress axis : x y z
#
# Youngs Moduli (GPa) = 21.58252 57.17229 109.85902
#
# Poissons Ratio (x) = 0.87215 0.83446
# Poissons Ratio (y) = 0.32924 0.37307
# Poissons Ratio (z) = 0.16394 0.19415
#
# Static dielectric constant tensor:
#      x y z
#    x 3.357100 0.000000 0.000000 
#    y 0.000000 3.549330 0.000000 
#    z 0.000000 0.000000 3.727830 
# 
# 
# High freq. dielectric constant tensor:
#      x y z
#    x 1.703220 0.000000 0.000000 
#    y 0.000000 1.737540 0.000000 
#    z 0.000000 0.000000 1.748470 
# 
# From -- ./inp_files/32770.got.cif
#   From: 2010.03.12/outbox.cif.g09.slc.cpg/sg59_17_cif.got.tgz:32770.got - 2010.04.16 16:29:54.
