data_PCOD8244753
_publ_section_title
;
Structure prediction by ZEFSAII (Michael W. Deem and Ramdas Pophale) SiO2 
 PCOD8244753
Probable space group: P M M N
;
_chemical_formula_sum "Si O2"
_cell_formula_units_Z 48
_cell_length_a 9.201018
_cell_length_b 7.764424
_cell_length_c 34.722884
_cell_angle_alpha 90.000000
_cell_angle_beta 90.000000
_cell_angle_gamma 90.000000
_cell_volume 2480.623840
_symmetry_space_group_name_H-M "P M M N"
_symmetry_group_IT_number 59
_space_group.IT_coordinate_system_code '2'
_symmetry_cell_setting 'orthorhombic'
loop_
_space_group_symop_operation_xyz
x,y,z
1/2-x,1/2-y,z
1/2+x,-y,-z
-x,1/2+y,-z
-x,-y,-z
1/2+x,1/2+y,-z
1/2-x,y,z
x,1/2-y,z
loop_
_atom_site_type_symbol
_atom_site_label
_atom_site_fract_x
_atom_site_fract_y
_atom_site_fract_z
Si Si1 0.576090 0.250000 0.245260
Si Si2 0.422282 0.058845 0.806646
Si Si3 0.420682 0.051456 0.613008
Si Si4 0.088476 0.548133 0.462459
Si Si5 0.921816 0.250000 0.331379
Si Si6 0.914375 0.045420 0.110526
Si Si7 0.911706 0.547238 0.962389
O O1 0.750000 0.250000 0.245947
O O2 0.515342 0.419485 0.223461
O O3 0.511596 0.250000 0.288458
O O4 0.250000 0.038028 0.808370
O O5 0.468258 0.250000 0.792840
O O6 0.482376 0.025374 0.849650
O O7 0.250000 0.032704 0.604834
O O8 0.459634 0.250000 0.623636
O O9 0.502805 0.983469 0.575085
O O10 0.472477 0.925115 0.647239
O O11 0.250000 0.464373 0.463802
O O12 0.103436 0.750000 0.460018
O O13 0.000000 0.500000 0.500000
O O14 0.750000 0.250000 0.328631
O O15 0.750000 0.978489 0.104639
O O16 0.917342 0.250000 0.112088
O O17 0.008950 0.970675 0.075289
O O18 0.750000 0.467548 0.965264
O O19 0.902996 0.750000 0.958185
O O20 0.000000 0.500000 0.000000
#
# Coordination Sequence:
#
# PCOD8244753 Si02
#       7
#     4   8   8   8   4   8   8
#     4   9  16  28  44  71 107 135 167 215 263 311
#     4   9  16  26  44  71 102 135 169 207 257 314
#     4   9  18  33  50  71 103 139 176 219 264 312
#     4  10  21  35  52  76 105 137 174 220 269 316
#     4   9  18  30  49  73 101 141 179 213 263 319
#     4   9  16  29  48  68  96 134 170 210 261 308
#     4  10  21  35  51  73 101 135 174 214 258 309
#
# _framework density 19.349972000000001
#
# number of rings (size 3 to 8) (size 9 to 14) (size 15 to 20)
#    0.000    2.667    0.833    1.000    1.167    3.333 
#    0.000    5.000    0.000    0.000    0.000    2.333 
#    0.000    0.000    0.000    0.000    0.000    0.000 
#
# Total GULP energy -595039.008921 kJ/mol
# GULP energy per Si atom -12396.646019 kJ/mol
# Density = 1.930593 g / cm^3
# Si number density = 19.349972 Si / 1000 Ang^3
#
#
#
# Elastic Constant Matrix: (Units=GPa)
#
#
# Indices 1 2 3 4 5 6 
#
# 1 78.2526 24.5780 56.8898 0.0000 0.0000 0.0000
# 2 24.5780 88.7442 71.0820 0.0000 0.0000 0.0000
# 3 56.8898 71.0820 199.3348 0.0000 0.0000 0.0000
# 4 0.0000 0.0000 0.0000 29.4924 0.0000 0.0000
# 5 0.0000 0.0000 0.0000 0.0000 21.2784 0.0000
# 6 0.0000 0.0000 0.0000 0.0000 0.0000 11.8022
#
#
#
# Elastic Compliance Matrix: (Units=1/GPa)
#
#
# Indices 1 2 3 4 5 6 
#
# 1 0.016201 -0.001097 -0.004233 0.000000 0.000000 0.000000
# 2 -0.001097 0.015848 -0.005338 0.000000 0.000000 0.000000
# 3 -0.004233 -0.005338 0.008128 0.000000 0.000000 0.000000
# 4 0.000000 0.000000 0.000000 0.033907 0.000000 0.000000
# 5 0.000000 0.000000 0.000000 0.000000 0.046996 0.000000
# 6 0.000000 0.000000 0.000000 0.000000 0.000000 0.084730
#
#
# Mechanical properties :
#
#
# Convention : Reuss Voigt Hill
#
# Bulk Modulus (GPa) = 53.07354 74.60348 63.83851
# Shear Modulus (GPa) = 21.42011 26.76672 24.09342
#
# Velocity S-wave (km/s) = 3.33075 3.72330 3.53248
# Velocity P-wave (km/s) = 6.50228 7.55794 7.04990
#
# Compressibility (1/GPa) = 0.01884178
#
# Stress axis : x y z
#
# Youngs Moduli (GPa) = 61.72591 63.09964 123.02713
#
# Poissons Ratio (x) = 0.06920 0.52072
# Poissons Ratio (y) = 0.06769 0.65676
# Poissons Ratio (z) = 0.26126 0.33685
#
# Static dielectric constant tensor:
#      x y z
#    x 3.406040 0.000000 0.000000 
#    y 0.000000 3.685360 0.000000 
#    z 0.000000 0.000000 4.106370 
# 
# 
# High freq. dielectric constant tensor:
#      x y z
#    x 1.710220 0.000000 0.000000 
#    y 0.000000 1.753800 0.000000 
#    z 0.000000 0.000000 1.756550 
# 
# From -- ./inp_files/33079.got.cif
#   From: 2010.03.12/outbox.cif.g09.slc.cpg/sg59_17_cif.got.tgz:33079.got - 2010.04.16 16:29:54.
