data_PCOD8244415
_publ_section_title
;
Structure prediction by ZEFSAII (Michael W. Deem and Ramdas Pophale) SiO2 
 PCOD8244415
Probable space group: P M M N
;
_chemical_formula_sum "Si O2"
_cell_formula_units_Z 56
_cell_length_a 14.568579
_cell_length_b 9.072858
_cell_length_c 22.513669
_cell_angle_alpha 90.000000
_cell_angle_beta 90.000000
_cell_angle_gamma 90.000000
_cell_volume 2975.826342
_symmetry_space_group_name_H-M "P M M N"
_symmetry_group_IT_number 59
_space_group.IT_coordinate_system_code '2'
_symmetry_cell_setting 'orthorhombic'
loop_
_space_group_symop_operation_xyz
x,y,z
1/2-x,1/2-y,z
1/2+x,-y,-z
-x,1/2+y,-z
-x,-y,-z
1/2+x,1/2+y,-z
1/2-x,y,z
x,1/2-y,z
loop_
_atom_site_type_symbol
_atom_site_label
_atom_site_fract_x
_atom_site_fract_y
_atom_site_fract_z
Si Si1 0.418015 0.575106 0.158343
Si Si2 0.521287 0.078353 0.715552
Si Si3 0.643842 0.424198 0.475736
Si Si4 0.750000 0.078263 0.029052
Si Si5 0.750000 0.575155 0.904522
Si Si6 0.479741 0.923068 0.414897
Si Si7 0.406836 0.917483 0.879773
Si Si8 0.351334 0.586041 0.748974
O O1 0.401920 0.750000 0.154000
O O2 0.424056 0.515712 0.227105
O O3 0.336790 0.487577 0.129132
O O4 0.509360 0.532240 0.122124
O O5 0.523992 0.250000 0.723809
O O6 0.559263 0.032164 0.650590
O O7 0.415873 0.030177 0.717136
O O8 0.750000 0.480586 0.471748
O O9 0.641420 0.250000 0.466329
O O10 0.600635 0.469146 0.539628
O O11 0.577393 0.496944 0.426655
O O12 0.750000 0.250000 0.010889
O O13 0.841106 0.039266 0.066006
O O14 0.750000 0.975905 0.972102
O O15 0.750000 0.750000 0.901952
O O16 0.500305 0.750000 0.418400
O O17 0.443720 0.750000 0.887252
O O18 0.348507 0.932502 0.819802
O O19 0.250000 0.558286 0.723738
O O20 0.385563 0.750000 0.732280
#
# Coordination Sequence:
#
# PCOD8244415 Si02
#       8
#     8   8   8   4   4   8   8   8
#     4  10  21  39  59  80 108 142 180 226 274 320
#     4   9  19  34  52  77 105 137 178 219 264 315
#     4   9  18  33  53  77 105 139 178 218 261 309
#     4  10  20  36  60  86 112 142 181 224 267 322
#     4  12  26  42  58  78 106 142 183 226 275 324
#     4   9  18  34  53  76 106 139 176 218 264 310
#     4   9  17  33  57  83 109 140 176 217 267 324
#     4   9  16  28  48  75 106 140 174 210 261 318
#
# _framework density 18.818303
#
# number of rings (size 3 to 8) (size 9 to 14) (size 15 to 20)
#    0.000    2.571    0.714    1.071    0.000    3.429 
#    1.286    2.857    0.000    0.000    0.000    0.000 
#    0.000    0.000    0.000    0.000    0.000    0.000 
#
# Total GULP energy -694059.874944 kJ/mol
# GULP energy per Si atom -12393.926338 kJ/mol
# Density = 1.877547 g / cm^3
# Si number density = 18.818303 Si / 1000 Ang^3
#
#
#
# Elastic Constant Matrix: (Units=GPa)
#
#
# Indices 1 2 3 4 5 6 
#
# 1 87.3970 33.4588 35.0680 0.0000 0.0000 0.0000
# 2 33.4588 43.8487 46.3479 0.0000 0.0000 0.0000
# 3 35.0680 46.3479 105.4309 0.0000 0.0000 0.0000
# 4 0.0000 0.0000 0.0000 25.0238 0.0000 0.0000
# 5 0.0000 0.0000 0.0000 0.0000 18.4326 0.0000
# 6 0.0000 0.0000 0.0000 0.0000 0.0000 35.8252
#
#
#
# Elastic Compliance Matrix: (Units=1/GPa)
#
#
# Indices 1 2 3 4 5 6 
#
# 1 0.016164 -0.012424 0.000085 0.000000 0.000000 0.000000
# 2 -0.012424 0.052150 -0.018793 0.000000 0.000000 0.000000
# 3 0.000085 -0.018793 0.017718 0.000000 0.000000 0.000000
# 4 0.000000 0.000000 0.000000 0.039962 0.000000 0.000000
# 5 0.000000 0.000000 0.000000 0.000000 0.054252 0.000000
# 6 0.000000 0.000000 0.000000 0.000000 0.000000 0.027913
#
#
# Mechanical properties :
#
#
# Convention : Reuss Voigt Hill
#
# Bulk Modulus (GPa) = 42.07251 51.82510 46.94880
# Shear Modulus (GPa) = 17.96326 23.97645 20.96986
#
# Velocity S-wave (km/s) = 3.09295 3.57333 3.34178
# Velocity P-wave (km/s) = 5.92966 6.68015 6.31606
#
# Compressibility (1/GPa) = 0.02376849
#
# Stress axis : x y z
#
# Youngs Moduli (GPa) = 61.86475 19.17544 56.43998
#
# Poissons Ratio (x) = 0.23824 -0.00481
# Poissons Ratio (y) = 0.76863 1.06067
# Poissons Ratio (z) = -0.00528 0.36036
#
# Static dielectric constant tensor:
#      x y z
#    x 2.166050 0.000000 0.000000 
#    y 0.000000 3.372030 0.000000 
#    z 0.000000 0.000000 3.686080 
# 
# 
# High freq. dielectric constant tensor:
#      x y z
#    x 1.720500 0.000000 0.000000 
#    y 0.000000 1.721420 0.000000 
#    z 0.000000 0.000000 1.735470 
# 
# From -- ./inp_files/30448.got.cif
#   From: 2010.03.12/outbox.cif.g09.slc.cpg/sg59_16_cif.got.tgz:30448.got - 2010.04.16 16:29:54.
