data_PCOD8244744
_publ_section_title
;
Structure prediction by ZEFSAII (Michael W. Deem and Ramdas Pophale) SiO2 
 PCOD8244744
Probable space group: P M M N
;
_chemical_formula_sum "Si O2"
_cell_formula_units_Z 48
_cell_length_a 9.821808
_cell_length_b 9.310702
_cell_length_c 30.198030
_cell_angle_alpha 90.000000
_cell_angle_beta 90.000000
_cell_angle_gamma 90.000000
_cell_volume 2761.547255
_symmetry_space_group_name_H-M "P M M N"
_symmetry_group_IT_number 59
_space_group.IT_coordinate_system_code '2'
_symmetry_cell_setting 'orthorhombic'
loop_
_space_group_symop_operation_xyz
x,y,z
1/2-x,1/2-y,z
1/2+x,-y,-z
-x,1/2+y,-z
-x,-y,-z
1/2+x,1/2+y,-z
1/2-x,y,z
x,1/2-y,z
loop_
_atom_site_type_symbol
_atom_site_label
_atom_site_fract_x
_atom_site_fract_y
_atom_site_fract_z
Si Si1 0.407598 0.083175 0.534106
Si Si2 0.400947 0.079288 0.632884
Si Si3 0.403188 0.083495 0.967472
Si Si4 0.407092 0.582890 0.289560
Si Si5 0.407525 0.081763 0.201372
Si Si6 0.091672 0.414993 0.865878
O O1 0.250000 0.054588 0.523044
O O2 0.442843 0.250000 0.530102
O O3 0.441362 0.026253 0.583699
O O4 0.500000 0.000000 0.500000
O O5 0.250000 0.022850 0.645359
O O6 0.400432 0.250000 0.632410
O O7 0.507612 0.021488 0.668991
O O8 0.250000 0.028554 0.975287
O O9 0.414254 0.250000 0.978902
O O10 0.445508 0.055560 0.916852
O O11 0.500000 0.000000 0.000000
O O12 0.250000 0.557020 0.301092
O O13 0.438120 0.750000 0.280510
O O14 0.452363 0.494789 0.246614
O O15 0.250000 0.048519 0.190616
O O16 0.434444 0.250000 0.206417
O O17 0.498801 0.021158 0.162087
O O18 0.250000 0.448229 0.856775
O O19 0.059379 0.250000 0.853450
#
# Coordination Sequence:
#
# PCOD8244744 Si02
#       6
#     8   8   8   8   8   8
#     4   9  18  32  49  71  99 129 162 200 242 289
#     4   8  15  29  48  69  93 121 156 199 242 284
#     4   9  19  35  53  75 103 132 164 203 245 290
#     4   9  17  30  49  71  93 121 160 201 239 284
#     4  10  21  35  50  72 103 134 162 197 244 294
#     4   9  19  36  55  74  98 130 168 207 244 285
#
# _framework density 17.38156
#
# number of rings (size 3 to 8) (size 9 to 14) (size 15 to 20)
#    0.000    3.000    0.000    2.500    0.000    4.667 
#    0.000    9.167    0.000    3.000    0.000    0.000 
#    0.000    0.000    0.000    0.000    0.000    0.000 
#
# Total GULP energy -595128.467670 kJ/mol
# GULP energy per Si atom -12398.509743 kJ/mol
# Density = 1.734200 g / cm^3
# Si number density = 17.381560 Si / 1000 Ang^3
#
#
#
# Elastic Constant Matrix: (Units=GPa)
#
#
# Indices 1 2 3 4 5 6 
#
# 1 88.4833 48.1269 81.6108 0.0000 0.0000 0.0000
# 2 48.1269 62.7550 58.5363 0.0000 0.0000 0.0000
# 3 81.6108 58.5363 131.7196 0.0000 0.0000 0.0000
# 4 0.0000 0.0000 0.0000 29.8155 0.0000 0.0000
# 5 0.0000 0.0000 0.0000 0.0000 40.9502 0.0000
# 6 0.0000 0.0000 0.0000 0.0000 0.0000 29.0643
#
#
#
# Elastic Compliance Matrix: (Units=1/GPa)
#
#
# Indices 1 2 3 4 5 6 
#
# 1 0.029333 -0.009468 -0.013967 0.000000 0.000000 0.000000
# 2 -0.009468 0.030273 -0.007587 0.000000 0.000000 0.000000
# 3 -0.013967 -0.007587 0.019617 0.000000 0.000000 0.000000
# 4 0.000000 0.000000 0.000000 0.033540 0.000000 0.000000
# 5 0.000000 0.000000 0.000000 0.000000 0.024420 0.000000
# 6 0.000000 0.000000 0.000000 0.000000 0.000000 0.034406
#
#
# Mechanical properties :
#
#
# Convention : Reuss Voigt Hill
#
# Bulk Modulus (GPa) = 58.20808 73.27844 65.74326
# Shear Modulus (GPa) = 20.88908 26.27827 23.58368
#
# Velocity S-wave (km/s) = 3.47045 3.89247 3.68750
# Velocity P-wave (km/s) = 7.04413 7.90266 7.48571
#
# Compressibility (1/GPa) = 0.01717974
#
# Stress axis : x y z
#
# Youngs Moduli (GPa) = 34.09125 33.03256 50.97570
#
# Poissons Ratio (x) = 0.31274 0.71196
# Poissons Ratio (y) = 0.32277 0.38677
# Poissons Ratio (z) = 0.47614 0.25063
#
# Static dielectric constant tensor:
#      x y z
#    x 3.300440 0.000000 0.000000 
#    y 0.000000 3.010680 0.000000 
#    z 0.000000 0.000000 3.397690 
# 
# 
# High freq. dielectric constant tensor:
#      x y z
#    x 1.672910 0.000000 0.000000 
#    y 0.000000 1.650770 0.000000 
#    z 0.000000 0.000000 1.678810 
# 
# From -- ./inp_files/32835.got.cif
#   From: 2010.03.12/outbox.cif.g09.slc.cpg/sg59_17_cif.got.tgz:32835.got - 2010.04.16 16:29:54.
