data_PCOD8244967
_publ_section_title
;
Structure prediction by ZEFSAII (Michael W. Deem and Ramdas Pophale) SiO2 
 PCOD8244967
Probable space group: P M M N
;
_chemical_formula_sum "Si O2"
_cell_formula_units_Z 64
_cell_length_a 8.873960
_cell_length_b 22.536795
_cell_length_c 17.388690
_cell_angle_alpha 90.000000
_cell_angle_beta 90.000000
_cell_angle_gamma 90.000000
_cell_volume 3477.574848
_symmetry_space_group_name_H-M "P M M N"
_symmetry_group_IT_number 59
_space_group.IT_coordinate_system_code '2'
_symmetry_cell_setting 'orthorhombic'
loop_
_space_group_symop_operation_xyz
x,y,z
1/2-x,1/2-y,z
1/2+x,-y,-z
-x,1/2+y,-z
-x,-y,-z
1/2+x,1/2+y,-z
1/2-x,y,z
x,1/2-y,z
loop_
_atom_site_type_symbol
_atom_site_label
_atom_site_fract_x
_atom_site_fract_y
_atom_site_fract_z
Si Si1 0.072976 0.913035 0.643258
Si Si2 0.923058 0.562771 0.496139
Si Si3 0.073015 0.361877 0.091379
Si Si4 0.075718 0.318968 0.922262
Si Si5 0.073282 0.914582 0.178712
Si Si6 0.576532 0.316131 0.234974
Si Si7 0.072147 0.984875 0.919323
Si Si8 0.923324 0.950881 0.326597
O O1 0.250000 0.908145 0.632538
O O2 0.014308 0.865053 0.705110
O O3 0.999962 0.895525 0.560571
O O4 0.026288 0.979795 0.668339
O O5 0.750000 0.555761 0.518221
O O6 0.941977 0.584081 0.407841
O O7 0.000000 0.500000 0.500000
O O8 0.250000 0.374023 0.095457
O O9 0.022607 0.316563 0.157408
O O10 0.982239 0.421464 0.109447
O O11 0.026795 0.336338 0.008444
O O12 0.250000 0.335572 0.908823
O O13 0.045893 0.250000 0.909526
O O14 0.973325 0.352961 0.860758
O O15 0.250000 0.924833 0.167236
O O16 0.030134 0.914823 0.268495
O O17 0.978290 0.967562 0.142521
O O18 0.750000 0.330040 0.214274
O O19 0.560550 0.250000 0.270573
O O20 0.250000 0.986111 0.928080
O O21 0.000000 0.000000 0.000000
O O22 0.750000 0.948137 0.299002
#
# Coordination Sequence:
#
# PCOD8244967 Si02
#       8
#     8   8   8   8   8   8   8   8
#     4   9  18  33  53  78 109 145 181 220 269 322
#     4   9  17  30  52  80 108 138 170 209 262 320
#     4  11  22  37  58  82 107 141 183 230 278 323
#     4  10  22  40  59  76 101 141 183 226 275 322
#     4  12  24  36  55  83 111 144 182 224 272 320
#     4  10  21  36  54  78 111 152 192 229 272 323
#     4  12  23  37  56  80 110 143 178 221 275 331
#     4   9  18  33  53  79 111 143 176 221 278 333
#
# _framework density 18.403631000000001
#
# number of rings (size 3 to 8) (size 9 to 14) (size 15 to 20)
#    0.000    1.750    1.250    4.875    0.000    5.500 
#    0.000    0.000    0.000    0.750    0.000    3.500 
#    0.000    0.000    0.000    0.000    0.000    0.000 
#
# Total GULP energy -793595.493939 kJ/mol
# GULP energy per Si atom -12399.929593 kJ/mol
# Density = 1.836174 g / cm^3
# Si number density = 18.403631 Si / 1000 Ang^3
#
#
#
# Elastic Constant Matrix: (Units=GPa)
#
#
# Indices 1 2 3 4 5 6 
#
# 1 92.7684 32.8202 49.5197 0.0000 0.0000 0.0000
# 2 32.8202 80.0843 45.1110 0.0000 0.0000 0.0000
# 3 49.5197 45.1110 126.3279 0.0000 0.0000 0.0000
# 4 0.0000 0.0000 0.0000 18.9411 0.0000 0.0000
# 5 0.0000 0.0000 0.0000 0.0000 35.4693 0.0000
# 6 0.0000 0.0000 0.0000 0.0000 0.0000 23.1748
#
#
#
# Elastic Compliance Matrix: (Units=1/GPa)
#
#
# Indices 1 2 3 4 5 6 
#
# 1 0.014332 -0.003391 -0.004407 0.000000 0.000000 0.000000
# 2 -0.003391 0.016433 -0.004539 0.000000 0.000000 0.000000
# 3 -0.004407 -0.004539 0.011264 0.000000 0.000000 0.000000
# 4 0.000000 0.000000 0.000000 0.052795 0.000000 0.000000
# 5 0.000000 0.000000 0.000000 0.000000 0.028193 0.000000
# 6 0.000000 0.000000 0.000000 0.000000 0.000000 0.043150
#
#
# Mechanical properties :
#
#
# Convention : Reuss Voigt Hill
#
# Bulk Modulus (GPa) = 57.61937 61.56472 59.59204
# Shear Modulus (GPa) = 25.42882 26.96569 26.19725
#
# Velocity S-wave (km/s) = 3.72119 3.83199 3.77700
# Velocity P-wave (km/s) = 7.05972 7.28725 7.17439
#
# Compressibility (1/GPa) = 0.01735528
#
# Stress axis : x y z
#
# Youngs Moduli (GPa) = 69.77546 60.85198 88.77609
#
# Poissons Ratio (x) = 0.20635 0.39124
# Poissons Ratio (y) = 0.23661 0.40296
# Poissons Ratio (z) = 0.30750 0.27621
#
# Static dielectric constant tensor:
#      x y z
#    x 3.429110 0.000000 0.000000 
#    y 0.000000 3.318770 0.000000 
#    z 0.000000 0.000000 3.068070 
# 
# 
# High freq. dielectric constant tensor:
#      x y z
#    x 1.717270 0.000000 0.000000 
#    y 0.000000 1.688030 0.000000 
#    z 0.000000 0.000000 1.720110 
# 
# From -- ./inp_files/26167.got.cif
#   From: 2010.03.12/outbox.cif.g09.slc.cpg/sg59_14_cif.got.tgz:26167.got - 2010.04.16 16:29:54.
