data_PCOD8244434
_publ_section_title
;
Structure prediction by ZEFSAII (Michael W. Deem and Ramdas Pophale) SiO2 
 PCOD8244434
Probable space group: P M M N
;
_chemical_formula_sum "Si O2"
_cell_formula_units_Z 40
_cell_length_a 8.767667
_cell_length_b 14.922620
_cell_length_c 15.196705
_cell_angle_alpha 90.000000
_cell_angle_beta 90.000000
_cell_angle_gamma 90.000000
_cell_volume 1988.284650
_symmetry_space_group_name_H-M "P M M N"
_symmetry_group_IT_number 59
_space_group.IT_coordinate_system_code '2'
_symmetry_cell_setting 'orthorhombic'
loop_
_space_group_symop_operation_xyz
x,y,z
1/2-x,1/2-y,z
1/2+x,-y,-z
-x,1/2+y,-z
-x,-y,-z
1/2+x,1/2+y,-z
1/2-x,y,z
x,1/2-y,z
loop_
_atom_site_type_symbol
_atom_site_label
_atom_site_fract_x
_atom_site_fract_y
_atom_site_fract_z
Si Si1 0.069095 0.392461 0.161313
Si Si2 0.430357 0.066358 0.769567
Si Si3 0.569901 0.750000 0.698868
Si Si4 0.927822 0.250000 0.833155
Si Si5 0.931545 0.750000 0.503305
Si Si6 0.572399 0.250000 0.039403
Si Si7 0.070608 0.065262 0.570632
O O1 0.250000 0.398163 0.152008
O O2 0.016947 0.338510 0.248623
O O3 0.000736 0.492143 0.165340
O O4 0.004152 0.340219 0.077020
O O5 0.250000 0.069182 0.781692
O O6 0.496050 0.163086 0.791230
O O7 0.477427 0.040341 0.669765
O O8 0.750000 0.750000 0.692381
O O9 0.496908 0.750000 0.601860
O O10 0.750000 0.250000 0.810667
O O11 0.958080 0.250000 0.936473
O O12 0.750000 0.750000 0.509596
O O13 0.991652 0.664401 0.450343
O O14 0.750000 0.250000 0.063589
O O15 0.250000 0.061477 0.558825
O O16 0.000000 0.000000 0.500000
#
# Coordination Sequence:
#
# PCOD8244434 Si02
#       7
#     8   8   4   4   4   4   8
#     4  10  20  36  60  88 117 152 194 237 289 352
#     4  11  23  39  59  85 119 158 197 242 294 343
#     4   8  15  28  51  82 111 144 187 234 280 330
#     4  11  25  43  63  86 115 154 197 239 290 355
#     4   9  16  30  51  74 107 148 186 227 277 331
#     4  10  22  41  63  90 119 146 184 238 297 354
#     4  10  21  36  56  83 115 153 195 238 285 338
#
# _framework density 20.117843000000001
#
# number of rings (size 3 to 8) (size 9 to 14) (size 15 to 20)
#    0.000    2.000    0.000    4.200    0.000    7.200 
#    0.000    0.500    0.000    3.600    0.000    0.000 
#    0.000    0.000    0.000    0.000    0.000    0.000 
#
# Total GULP energy -496057.717477 kJ/mol
# GULP energy per Si atom -12401.442937 kJ/mol
# Density = 2.007205 g / cm^3
# Si number density = 20.117843 Si / 1000 Ang^3
#
#
#
# Elastic Constant Matrix: (Units=GPa)
#
#
# Indices 1 2 3 4 5 6 
#
# 1 91.1649 56.0289 55.9708 0.0000 0.0000 0.0000
# 2 56.0289 164.6987 46.6780 0.0000 0.0000 0.0000
# 3 55.9708 46.6780 94.6639 0.0000 0.0000 0.0000
# 4 0.0000 0.0000 0.0000 26.5610 0.0000 0.0000
# 5 0.0000 0.0000 0.0000 0.0000 27.8230 0.0000
# 6 0.0000 0.0000 0.0000 0.0000 0.0000 36.2210
#
#
#
# Elastic Compliance Matrix: (Units=1/GPa)
#
#
# Indices 1 2 3 4 5 6 
#
# 1 0.019096 -0.003832 -0.009401 0.000000 0.000000 0.000000
# 2 -0.003832 0.007827 -0.001594 0.000000 0.000000 0.000000
# 3 -0.009401 -0.001594 0.016908 0.000000 0.000000 0.000000
# 4 0.000000 0.000000 0.000000 0.037649 0.000000 0.000000
# 5 0.000000 0.000000 0.000000 0.000000 0.035941 0.000000
# 6 0.000000 0.000000 0.000000 0.000000 0.000000 0.027608
#
#
# Mechanical properties :
#
#
# Convention : Reuss Voigt Hill
#
# Bulk Modulus (GPa) = 70.53491 74.20918 72.37205
# Shear Modulus (GPa) = 27.86917 30.91098 29.39007
#
# Velocity S-wave (km/s) = 3.72599 3.92407 3.82631
# Velocity P-wave (km/s) = 7.32446 7.58277 7.45473
#
# Compressibility (1/GPa) = 0.01417738
#
# Stress axis : x y z
#
# Youngs Moduli (GPa) = 52.36683 127.76358 59.14310
#
# Poissons Ratio (x) = 0.48957 0.55602
# Poissons Ratio (y) = 0.20066 0.09426
# Poissons Ratio (z) = 0.49231 0.20363
#
# Static dielectric constant tensor:
#      x y z
#    x 3.492480 0.000000 0.000000 
#    y 0.000000 3.824270 0.000000 
#    z 0.000000 0.000000 3.880530 
# 
# 
# High freq. dielectric constant tensor:
#      x y z
#    x 1.771800 0.000000 0.000000 
#    y 0.000000 1.797880 0.000000 
#    z 0.000000 0.000000 1.789970 
# 
# From -- ./inp_files/20049.got.cif
#   From: 2010.03.12/outbox.cif.g09.slc.cpg/sg59_11_cif.got.tgz:20049.got - 2010.04.16 16:29:54.
