data_PCOD8244254
_publ_section_title
;
Structure prediction by ZEFSAII (Michael W. Deem and Ramdas Pophale) SiO2 
 PCOD8244254
Probable space group: P M M N
;
_chemical_formula_sum "Si O2"
_cell_formula_units_Z 48
_cell_length_a 8.949526
_cell_length_b 17.923618
_cell_length_c 15.804649
_cell_angle_alpha 90.000000
_cell_angle_beta 90.000000
_cell_angle_gamma 90.000000
_cell_volume 2535.190324
_symmetry_space_group_name_H-M "P M M N"
_symmetry_group_IT_number 59
_space_group.IT_coordinate_system_code '2'
_symmetry_cell_setting 'orthorhombic'
loop_
_space_group_symop_operation_xyz
x,y,z
1/2-x,1/2-y,z
1/2+x,-y,-z
-x,1/2+y,-z
-x,-y,-z
1/2+x,1/2+y,-z
1/2-x,y,z
x,1/2-y,z
loop_
_atom_site_type_symbol
_atom_site_label
_atom_site_fract_x
_atom_site_fract_y
_atom_site_fract_z
Si Si1 0.924231 0.473798 0.364281
Si Si2 0.083099 0.750000 0.384431
Si Si3 0.424916 0.250000 0.786826
Si Si4 0.426742 0.453445 0.188279
Si Si5 0.419612 0.904635 0.460912
Si Si6 0.925288 0.386215 0.880810
Si Si7 0.424983 0.663526 0.932187
O O1 0.750000 0.473352 0.342100
O O2 0.966943 0.420114 0.442512
O O3 0.014337 0.446600 0.283220
O O4 0.974398 0.556303 0.391952
O O5 0.250000 0.750000 0.343479
O O6 0.061183 0.682167 0.447718
O O7 0.959478 0.750000 0.312241
O O8 0.250000 0.250000 0.802923
O O9 0.491958 0.175046 0.825466
O O10 0.250000 0.449436 0.188453
O O11 0.480739 0.531312 0.145965
O O12 0.487851 0.382338 0.138339
O O13 0.250000 0.932559 0.445563
O O14 0.750000 0.376233 0.864472
O O15 0.966763 0.372873 0.978128
O O16 0.250000 0.657005 0.913960
O O17 0.475979 0.750000 0.930631
#
# Coordination Sequence:
#
# PCOD8244254 Si02
#       7
#     8   4   4   8   8   8   8
#     4  10  20  36  57  82 113 148 189 234 280 337
#     4  10  20  36  56  79 108 143 186 229 276 341
#     4  12  24  34  54  89 122 149 184 239 292 337
#     4  11  23  37  59  88 117 151 193 238 284 340
#     4   9  19  36  58  81 108 146 188 234 285 335
#     4  10  21  40  61  82 114 156 194 231 284 346
#     4  10  21  40  63  83 111 152 194 237 287 338
#
# _framework density 18.933489999999999
#
# number of rings (size 3 to 8) (size 9 to 14) (size 15 to 20)
#    0.000    1.833    0.833    3.250    0.000    7.667 
#    1.500    0.000    0.000    0.000    0.000    0.000 
#    0.000    0.000    0.000    0.000    0.000    0.000 
#
# Total GULP energy -595333.788509 kJ/mol
# GULP energy per Si atom -12402.787261 kJ/mol
# Density = 1.889040 g / cm^3
# Si number density = 18.933490 Si / 1000 Ang^3
#
#
#
# Elastic Constant Matrix: (Units=GPa)
#
#
# Indices 1 2 3 4 5 6 
#
# 1 47.1974 45.9497 45.1265 0.0000 0.0000 0.0000
# 2 45.9497 100.6484 60.6603 0.0000 0.0000 0.0000
# 3 45.1265 60.6603 126.4119 0.0000 0.0000 0.0000
# 4 0.0000 0.0000 0.0000 20.4494 0.0000 0.0000
# 5 0.0000 0.0000 0.0000 0.0000 28.7755 0.0000
# 6 0.0000 0.0000 0.0000 0.0000 0.0000 26.3559
#
#
#
# Elastic Compliance Matrix: (Units=1/GPa)
#
#
# Indices 1 2 3 4 5 6 
#
# 1 0.043788 -0.014870 -0.008496 0.000000 0.000000 0.000000
# 2 -0.014870 0.019028 -0.003823 0.000000 0.000000 0.000000
# 3 -0.008496 -0.003823 0.012778 0.000000 0.000000 0.000000
# 4 0.000000 0.000000 0.000000 0.048901 0.000000 0.000000
# 5 0.000000 0.000000 0.000000 0.000000 0.034752 0.000000
# 6 0.000000 0.000000 0.000000 0.000000 0.000000 0.037942
#
#
# Mechanical properties :
#
#
# Convention : Reuss Voigt Hill
#
# Bulk Modulus (GPa) = 47.13280 64.19229 55.66255
# Shear Modulus (GPa) = 19.33202 23.28424 21.30813
#
# Velocity S-wave (km/s) = 3.19885 3.51064 3.35837
# Velocity P-wave (km/s) = 6.21220 7.10004 6.67091
#
# Compressibility (1/GPa) = 0.02121665
#
# Stress axis : x y z
#
# Youngs Moduli (GPa) = 22.83742 52.55332 78.26153
#
# Poissons Ratio (x) = 0.78149 0.66488
# Poissons Ratio (y) = 0.33960 0.29915
# Poissons Ratio (z) = 0.19402 0.20089
#
# Static dielectric constant tensor:
#      x y z
#    x 3.478070 0.000000 0.000000 
#    y 0.000000 3.607870 0.000000 
#    z 0.000000 0.000000 3.506070 
# 
# 
# High freq. dielectric constant tensor:
#      x y z
#    x 1.733330 0.000000 0.000000 
#    y 0.000000 1.740030 0.000000 
#    z 0.000000 0.000000 1.742370 
# 
# From -- ./inp_files/20553.got.cif
#   From: 2010.03.12/outbox.cif.g09.slc.cpg/sg59_11_cif.got.tgz:20553.got - 2010.04.16 16:29:54.
