data_PCOD8244954
_publ_section_title
;
Structure prediction by ZEFSAII (Michael W. Deem and Ramdas Pophale) SiO2 
 PCOD8244954
Probable space group: P M M N
;
_chemical_formula_sum "Si O2"
_cell_formula_units_Z 48
_cell_length_a 9.098041
_cell_length_b 25.064592
_cell_length_c 11.744894
_cell_angle_alpha 90.000000
_cell_angle_beta 90.000000
_cell_angle_gamma 90.000000
_cell_volume 2678.290191
_symmetry_space_group_name_H-M "P M M N"
_symmetry_group_IT_number 59
_space_group.IT_coordinate_system_code '2'
_symmetry_cell_setting 'orthorhombic'
loop_
_space_group_symop_operation_xyz
x,y,z
1/2-x,1/2-y,z
1/2+x,-y,-z
-x,1/2+y,-z
-x,-y,-z
1/2+x,1/2+y,-z
1/2-x,y,z
x,1/2-y,z
loop_
_atom_site_type_symbol
_atom_site_label
_atom_site_fract_x
_atom_site_fract_y
_atom_site_fract_z
Si Si1 0.079756 0.556067 0.998643
Si Si2 0.421691 0.600273 0.761513
Si Si3 0.576322 0.503826 0.379620
Si Si4 0.077463 0.310144 0.376517
Si Si5 0.921576 0.096955 0.754913
Si Si6 0.080338 0.187864 0.635250
O O1 0.250000 0.542241 0.984695
O O2 0.046870 0.589853 0.111488
O O3 0.026797 0.591391 0.891593
O O4 0.000000 0.500000 0.000000
O O5 0.250000 0.611196 0.752340
O O6 0.467716 0.548394 0.690558
O O7 0.501552 0.651928 0.714011
O O8 0.500000 0.500000 0.500000
O O9 0.750000 0.509845 0.395104
O O10 0.516251 0.554931 0.314765
O O11 0.250000 0.313654 0.358104
O O12 0.021994 0.250000 0.354256
O O13 0.038097 0.327264 0.505486
O O14 0.750000 0.089717 0.726278
O O15 0.974967 0.155746 0.720243
O O16 0.250000 0.173392 0.658832
O O17 0.052158 0.250000 0.657476
#
# Coordination Sequence:
#
# PCOD8244954 Si02
#       6
#     8   8   8   8   8   8
#     4  10  21  38  56  77 107 145 187 226 268 322
#     4  10  21  36  54  78 107 141 181 222 268 321
#     4  11  22  35  53  79 112 143 177 224 275 331
#     4   9  19  36  57  81 108 140 179 222 269 322
#     4  11  22  35  55  82 110 142 183 227 275 328
#     4   9  19  37  59  81 109 146 184 224 274 329
#
# _framework density 17.921880000000002
#
# number of rings (size 3 to 8) (size 9 to 14) (size 15 to 20)
#    0.000    2.000    1.667    3.000    0.000    6.667 
#    0.000    2.500    0.000    5.000    0.000    0.000 
#    0.000    0.000    0.000    0.000    0.000    0.000 
#
# Total GULP energy -595326.072630 kJ/mol
# GULP energy per Si atom -12402.626513 kJ/mol
# Density = 1.788109 g / cm^3
# Si number density = 17.921880 Si / 1000 Ang^3
#
#
#
# Elastic Constant Matrix: (Units=GPa)
#
#
# Indices 1 2 3 4 5 6 
#
# 1 61.4598 47.6085 58.0561 0.0000 0.0000 0.0000
# 2 47.6085 108.3291 70.9549 0.0000 0.0000 0.0000
# 3 58.0561 70.9549 150.0554 0.0000 0.0000 0.0000
# 4 0.0000 0.0000 0.0000 13.7452 0.0000 0.0000
# 5 0.0000 0.0000 0.0000 0.0000 29.6006 0.0000
# 6 0.0000 0.0000 0.0000 0.0000 0.0000 37.1406
#
#
#
# Elastic Compliance Matrix: (Units=1/GPa)
#
#
# Indices 1 2 3 4 5 6 
#
# 1 0.029793 -0.008031 -0.007729 0.000000 0.000000 0.000000
# 2 -0.008031 0.015538 -0.004240 0.000000 0.000000 0.000000
# 3 -0.007729 -0.004240 0.011660 0.000000 0.000000 0.000000
# 4 0.000000 0.000000 0.000000 0.072753 0.000000 0.000000
# 5 0.000000 0.000000 0.000000 0.000000 0.033783 0.000000
# 6 0.000000 0.000000 0.000000 0.000000 0.000000 0.026925
#
#
# Mechanical properties :
#
#
# Convention : Reuss Voigt Hill
#
# Bulk Modulus (GPa) = 58.85842 74.78702 66.82272
# Shear Modulus (GPa) = 21.17615 25.64559 23.41087
#
# Velocity S-wave (km/s) = 3.44114 3.78691 3.61816
# Velocity P-wave (km/s) = 6.97865 7.80647 7.40414
#
# Compressibility (1/GPa) = 0.01698992
#
# Stress axis : x y z
#
# Youngs Moduli (GPa) = 33.56491 64.35974 85.76566
#
# Poissons Ratio (x) = 0.51685 0.66293
# Poissons Ratio (y) = 0.26955 0.36365
# Poissons Ratio (z) = 0.25944 0.27289
#
# Static dielectric constant tensor:
#      x y z
#    x 3.345050 0.000000 0.000000 
#    y 0.000000 3.333010 0.000000 
#    z 0.000000 0.000000 3.551120 
# 
# 
# High freq. dielectric constant tensor:
#      x y z
#    x 1.694890 0.000000 0.000000 
#    y 0.000000 1.694790 0.000000 
#    z 0.000000 0.000000 1.698730 
# 
# From -- ./inp_files/14294.got.cif
#   From: 2010.03.12/outbox.cif.g09.slc.cpg/sg59_8_cif.got.tgz:14294.got - 2010.04.16 16:29:54.
