data_PCOD8244387
_publ_section_title
;
Structure prediction by ZEFSAII (Michael W. Deem and Ramdas Pophale) SiO2 
 PCOD8244387
Probable space group: P M M N
;
_chemical_formula_sum "Si O2"
_cell_formula_units_Z 48
_cell_length_a 8.722522
_cell_length_b 10.300302
_cell_length_c 27.912623
_cell_angle_alpha 90.000000
_cell_angle_beta 90.000000
_cell_angle_gamma 90.000000
_cell_volume 2507.798750
_symmetry_space_group_name_H-M "P M M N"
_symmetry_group_IT_number 59
_space_group.IT_coordinate_system_code '2'
_symmetry_cell_setting 'orthorhombic'
loop_
_space_group_symop_operation_xyz
x,y,z
1/2-x,1/2-y,z
1/2+x,-y,-z
-x,1/2+y,-z
-x,-y,-z
1/2+x,1/2+y,-z
1/2-x,y,z
x,1/2-y,z
loop_
_atom_site_type_symbol
_atom_site_label
_atom_site_fract_x
_atom_site_fract_y
_atom_site_fract_z
Si Si1 0.932166 0.750000 0.108327
Si Si2 0.068143 0.509209 0.732551
Si Si3 0.074245 0.250000 0.214769
Si Si4 0.574367 0.750000 0.898654
Si Si5 0.072563 0.099933 0.362372
Si Si6 0.431860 0.250000 0.784310
Si Si7 0.431865 0.997456 0.947488
Si Si8 0.930887 0.102470 0.463508
O O1 0.750000 0.750000 0.110425
O O2 0.000941 0.750000 0.162022
O O3 0.992319 0.876103 0.080454
O O4 0.250000 0.516930 0.728382
O O5 0.009785 0.376324 0.756300
O O6 0.009910 0.624021 0.765850
O O7 0.996743 0.513455 0.679762
O O8 0.250000 0.250000 0.232694
O O9 0.062193 0.250000 0.158083
O O10 0.750000 0.750000 0.916176
O O11 0.489345 0.625381 0.918542
O O12 0.250000 0.067007 0.369580
O O13 0.046742 0.250000 0.348608
O O14 0.985388 0.063021 0.410780
O O15 0.250000 0.250000 0.787199
O O16 0.250000 0.994462 0.950850
O O17 0.500000 0.000000 0.000000
O O18 0.750000 0.092879 0.465817
O O19 0.985586 0.250000 0.475666
O O20 0.000000 0.000000 0.500000
#
# Coordination Sequence:
#
# PCOD8244387 Si02
#       8
#     4   8   4   4   8   4   8   8
#     4   9  19  37  59  82 112 149 189 234 289 350
#     4  11  21  36  60  86 114 150 194 242 294 353
#     4  11  23  38  58  85 117 151 192 244 293 342
#     4  11  24  40  57  84 120 153 193 242 287 340
#     4  10  20  36  59  85 118 156 195 241 293 348
#     4   9  20  37  56  83 115 147 188 238 289 346
#     4  11  22  38  62  88 116 151 191 238 294 352
#     4  10  21  38  61  89 120 155 199 245 295 352
#
# _framework density 19.140291999999999
#
# number of rings (size 3 to 8) (size 9 to 14) (size 15 to 20)
#    0.000    1.667    0.833    4.000    0.000    5.000 
#    1.500    2.917    0.000    6.000    0.000    0.000 
#    0.000    0.000    0.000    0.000    0.000    0.000 
#
# Total GULP energy -595398.677088 kJ/mol
# GULP energy per Si atom -12404.139106 kJ/mol
# Density = 1.909673 g / cm^3
# Si number density = 19.140292 Si / 1000 Ang^3
#
#
#
# Elastic Constant Matrix: (Units=GPa)
#
#
# Indices 1 2 3 4 5 6 
#
# 1 69.4202 41.3964 40.6986 0.0000 0.0000 0.0000
# 2 41.3964 165.1893 88.0098 0.0000 0.0000 0.0000
# 3 40.6986 88.0098 154.1248 0.0000 0.0000 0.0000
# 4 0.0000 0.0000 0.0000 37.0159 0.0000 0.0000
# 5 0.0000 0.0000 0.0000 0.0000 37.4670 0.0000
# 6 0.0000 0.0000 0.0000 0.0000 0.0000 29.0262
#
#
#
# Elastic Compliance Matrix: (Units=1/GPa)
#
#
# Indices 1 2 3 4 5 6 
#
# 1 0.017920 -0.002831 -0.003115 0.000000 0.000000 0.000000
# 2 -0.002831 0.009148 -0.004476 0.000000 0.000000 0.000000
# 3 -0.003115 -0.004476 0.009867 0.000000 0.000000 0.000000
# 4 0.000000 0.000000 0.000000 0.027015 0.000000 0.000000
# 5 0.000000 0.000000 0.000000 0.000000 0.026690 0.000000
# 6 0.000000 0.000000 0.000000 0.000000 0.000000 0.034452
#
#
# Mechanical properties :
#
#
# Convention : Reuss Voigt Hill
#
# Bulk Modulus (GPa) = 62.15213 80.99376 71.57295
# Shear Modulus (GPa) = 33.04701 35.27713 34.16207
#
# Velocity S-wave (km/s) = 4.15971 4.29777 4.22930
# Velocity P-wave (km/s) = 7.45743 8.18752 7.83099
#
# Compressibility (1/GPa) = 0.01608955
#
# Stress axis : x y z
#
# Youngs Moduli (GPa) = 55.80502 109.31465 101.34836
#
# Poissons Ratio (x) = 0.30945 0.31574
# Poissons Ratio (y) = 0.15797 0.45366
# Poissons Ratio (z) = 0.17386 0.48932
#
# Static dielectric constant tensor:
#      x y z
#    x 3.546020 0.000000 0.000000 
#    y 0.000000 3.518790 0.000000 
#    z 0.000000 0.000000 3.898860 
# 
# 
# High freq. dielectric constant tensor:
#      x y z
#    x 1.744640 0.000000 0.000000 
#    y 0.000000 1.747630 0.000000 
#    z 0.000000 0.000000 1.761160 
# 
# From -- ./inp_files/33106.got.cif
#   From: 2010.03.12/outbox.cif.g09.slc.cpg/sg59_17_cif.got.tgz:33106.got - 2010.04.16 16:29:54.
