data_PCOD8244550
_publ_section_title
;
Structure prediction by ZEFSAII (Michael W. Deem and Ramdas Pophale) SiO2 
 PCOD8244550
Probable space group: P M M N
;
_chemical_formula_sum "Si O2"
_cell_formula_units_Z 48
_cell_length_a 8.798801
_cell_length_b 15.474249
_cell_length_c 17.723398
_cell_angle_alpha 90.000000
_cell_angle_beta 90.000000
_cell_angle_gamma 90.000000
_cell_volume 2413.126376
_symmetry_space_group_name_H-M "P M M N"
_symmetry_group_IT_number 59
_space_group.IT_coordinate_system_code '2'
_symmetry_cell_setting 'orthorhombic'
loop_
_space_group_symop_operation_xyz
x,y,z
1/2-x,1/2-y,z
1/2+x,-y,-z
-x,1/2+y,-z
-x,-y,-z
1/2+x,1/2+y,-z
1/2-x,y,z
x,1/2-y,z
loop_
_atom_site_type_symbol
_atom_site_label
_atom_site_fract_x
_atom_site_fract_y
_atom_site_fract_z
Si Si1 0.070023 0.250000 0.202898
Si Si2 0.070114 0.582933 0.538683
Si Si3 0.928787 0.586580 0.701394
Si Si4 0.423637 0.911037 0.214329
Si Si5 0.069348 0.250000 0.032456
Si Si6 0.574236 0.417915 0.961972
Si Si7 0.926720 0.750000 0.287384
Si Si8 0.929744 0.250000 0.549859
O O1 0.250000 0.250000 0.198957
O O2 0.012564 0.164596 0.245966
O O3 0.004978 0.250000 0.117920
O O4 0.250000 0.575751 0.534796
O O5 0.008559 0.665754 0.493160
O O6 0.000000 0.500000 0.500000
O O7 0.019273 0.591830 0.624249
O O8 0.750000 0.594249 0.685133
O O9 0.970182 0.497158 0.741510
O O10 0.250000 0.884853 0.232222
O O11 0.446623 0.929225 0.126787
O O12 0.532478 0.834176 0.239368
O O13 0.250000 0.250000 0.031833
O O14 0.010938 0.166986 0.988759
O O15 0.750000 0.411614 0.984786
O O16 0.500000 0.500000 0.000000
O O17 0.750000 0.750000 0.305163
O O18 0.015418 0.750000 0.365147
O O19 0.750000 0.250000 0.550223
#
# Coordination Sequence:
#
# PCOD8244550 Si02
#       8
#     4   8   8   8   4   8   4   4
#     4   9  19  37  61  87 117 153 192 231 282 348
#     4  11  23  39  59  85 115 149 188 233 284 339
#     4  10  20  37  61  86 112 149 192 233 280 339
#     4  10  22  40  60  82 116 159 195 229 287 358
#     4  11  22  39  62  89 122 159 200 247 296 354
#     4  11  23  40  62  89 120 158 202 247 296 354
#     4  12  25  38  59  89 115 144 193 250 292 328
#     4  10  23  42  60  79 114 158 189 220 282 356
#
# _framework density 19.891209
#
# number of rings (size 3 to 8) (size 9 to 14) (size 15 to 20)
#    0.000    1.500    0.000    5.000    0.000   12.000 
#    0.000    3.333    0.000    0.000    0.000    0.000 
#    0.000    0.000    0.000    0.000    0.000    0.000 
#
# Total GULP energy -595459.287152 kJ/mol
# GULP energy per Si atom -12405.401816 kJ/mol
# Density = 1.984594 g / cm^3
# Si number density = 19.891209 Si / 1000 Ang^3
#
#
#
# Elastic Constant Matrix: (Units=GPa)
#
#
# Indices 1 2 3 4 5 6 
#
# 1 43.5491 33.4008 21.0304 0.0000 0.0000 0.0000
# 2 33.4008 144.1012 24.5022 0.0000 0.0000 0.0000
# 3 21.0304 24.5022 81.1764 0.0000 0.0000 0.0000
# 4 0.0000 0.0000 0.0000 45.8871 0.0000 0.0000
# 5 0.0000 0.0000 0.0000 0.0000 36.1372 0.0000
# 6 0.0000 0.0000 0.0000 0.0000 0.0000 13.3164
#
#
#
# Elastic Compliance Matrix: (Units=1/GPa)
#
#
# Indices 1 2 3 4 5 6 
#
# 1 0.030537 -0.006043 -0.006087 0.000000 0.000000 0.000000
# 2 -0.006043 0.008511 -0.001003 0.000000 0.000000 0.000000
# 3 -0.006087 -0.001003 0.014199 0.000000 0.000000 0.000000
# 4 0.000000 0.000000 0.000000 0.021793 0.000000 0.000000
# 5 0.000000 0.000000 0.000000 0.000000 0.027672 0.000000
# 6 0.000000 0.000000 0.000000 0.000000 0.000000 0.075095
#
#
# Mechanical properties :
#
#
# Convention : Reuss Voigt Hill
#
# Bulk Modulus (GPa) = 37.06532 47.41040 42.23786
# Shear Modulus (GPa) = 23.46677 31.72770 27.59724
#
# Velocity S-wave (km/s) = 3.43848 3.99815 3.72883
# Velocity P-wave (km/s) = 5.86845 6.72311 6.31027
#
# Compressibility (1/GPa) = 0.02697940
#
# Stress axis : x y z
#
# Youngs Moduli (GPa) = 32.74715 117.49683 70.42885
#
# Poissons Ratio (x) = 0.71004 0.42872
# Poissons Ratio (y) = 0.19789 0.07066
# Poissons Ratio (z) = 0.19934 0.11789
#
# Static dielectric constant tensor:
#      x y z
#    x 3.546330 0.000000 0.000000 
#    y 0.000000 3.771820 0.000000 
#    z 0.000000 0.000000 4.066740 
# 
# 
# High freq. dielectric constant tensor:
#      x y z
#    x 1.766220 0.000000 0.000000 
#    y 0.000000 1.797710 0.000000 
#    z 0.000000 0.000000 1.795000 
# 
# From -- ./inp_files/25671.got.cif
#   From: 2010.03.12/outbox.cif.g09.slc.cpg/sg59_13_cif.got.tgz:25671.got - 2010.04.16 16:29:54.
