data_PCOD8244972
_publ_section_title
;
Structure prediction by ZEFSAII (Michael W. Deem and Ramdas Pophale) SiO2 
 PCOD8244972
Probable space group: P M M N
;
_chemical_formula_sum "Si O2"
_cell_formula_units_Z 64
_cell_length_a 8.835841
_cell_length_b 30.950450
_cell_length_c 12.043760
_cell_angle_alpha 90.000000
_cell_angle_beta 90.000000
_cell_angle_gamma 90.000000
_cell_volume 3293.646251
_symmetry_space_group_name_H-M "P M M N"
_symmetry_group_IT_number 59
_space_group.IT_coordinate_system_code '2'
_symmetry_cell_setting 'orthorhombic'
loop_
_space_group_symop_operation_xyz
x,y,z
1/2-x,1/2-y,z
1/2+x,-y,-z
-x,1/2+y,-z
-x,-y,-z
1/2+x,1/2+y,-z
1/2-x,y,z
x,1/2-y,z
loop_
_atom_site_type_symbol
_atom_site_label
_atom_site_fract_x
_atom_site_fract_y
_atom_site_fract_z
Si Si1 0.928779 0.373573 0.637360
Si Si2 0.924389 0.453387 0.490404
Si Si3 0.572352 0.016179 0.887235
Si Si4 0.576177 0.443828 0.239810
Si Si5 0.428742 0.107977 0.860875
Si Si6 0.421177 0.199375 0.239115
Si Si7 0.574952 0.299397 0.467144
Si Si8 0.573105 0.135592 0.083553
O O1 0.750000 0.376293 0.659729
O O2 0.986783 0.417636 0.576904
O O3 0.970096 0.331371 0.565989
O O4 0.018678 0.366425 0.751572
O O5 0.750000 0.461478 0.514910
O O6 0.948831 0.432648 0.368622
O O7 0.000000 0.500000 0.500000
O O8 0.750000 0.019638 0.903843
O O9 0.508961 0.062145 0.854736
O O10 0.531754 0.983908 0.788033
O O11 0.500000 0.000000 0.000000
O O12 0.750000 0.456651 0.215966
O O13 0.527035 0.403791 0.163906
O O14 0.250000 0.102214 0.862964
O O15 0.480721 0.133620 0.969640
O O16 0.250000 0.182387 0.226069
O O17 0.431958 0.250000 0.221085
O O18 0.478654 0.186575 0.360806
O O19 0.527527 0.179249 0.145175
O O20 0.750000 0.304986 0.434569
O O21 0.539715 0.250000 0.503408
O O22 0.750000 0.135426 0.056172
#
# Coordination Sequence:
#
# PCOD8244972 Si02
#       8
#     8   8   8   8   8   8   8   8
#     4  10  21  39  60  84 116 156 199 245 298 357
#     4  10  21  36  54  79 112 150 190 236 287 343
#     4  12  23  37  57  82 113 153 196 241 290 346
#     4  10  21  37  58  84 113 146 190 242 290 339
#     4  12  25  40  58  83 116 155 198 246 295 352
#     4  10  21  37  59  89 124 155 186 234 294 352
#     4   9  18  36  64  93 118 149 194 244 294 354
#     4  11  22  38  61  85 112 149 194 242 288 344
#
# _framework density 19.431350999999999
#
# number of rings (size 3 to 8) (size 9 to 14) (size 15 to 20)
#    0.000    1.500    1.250    4.500    0.000    6.750 
#    0.000    1.875    0.000    2.250    0.000    0.000 
#    0.000    0.000    0.000    0.000    0.000    0.000 
#
# Total GULP energy -793849.797534 kJ/mol
# GULP energy per Si atom -12403.903086 kJ/mol
# Density = 1.938712 g / cm^3
# Si number density = 19.431351 Si / 1000 Ang^3
#
#
#
# Elastic Constant Matrix: (Units=GPa)
#
#
# Indices 1 2 3 4 5 6 
#
# 1 100.8596 38.3989 48.3268 0.0000 0.0000 0.0000
# 2 38.3989 83.6952 51.9520 0.0000 0.0000 0.0000
# 3 48.3268 51.9520 127.1226 0.0000 0.0000 0.0000
# 4 0.0000 0.0000 0.0000 33.4429 0.0000 0.0000
# 5 0.0000 0.0000 0.0000 0.0000 32.9426 0.0000
# 6 0.0000 0.0000 0.0000 0.0000 0.0000 28.2291
#
#
#
# Elastic Compliance Matrix: (Units=1/GPa)
#
#
# Indices 1 2 3 4 5 6 
#
# 1 0.013001 -0.003881 -0.003356 0.000000 0.000000 0.000000
# 2 -0.003881 0.017168 -0.005541 0.000000 0.000000 0.000000
# 3 -0.003356 -0.005541 0.011407 0.000000 0.000000 0.000000
# 4 0.000000 0.000000 0.000000 0.029902 0.000000 0.000000
# 5 0.000000 0.000000 0.000000 0.000000 0.030356 0.000000
# 6 0.000000 0.000000 0.000000 0.000000 0.000000 0.035424
#
#
# Mechanical properties :
#
#
# Convention : Reuss Voigt Hill
#
# Bulk Modulus (GPa) = 62.42563 65.44810 63.93686
# Shear Modulus (GPa) = 29.73481 30.45623 30.09552
#
# Velocity S-wave (km/s) = 3.91608 3.96330 3.93977
# Velocity P-wave (km/s) = 7.25559 7.39585 7.32605
#
# Compressibility (1/GPa) = 0.01601906
#
# Stress axis : x y z
#
# Youngs Moduli (GPa) = 76.92004 58.24749 87.66860
#
# Poissons Ratio (x) = 0.22608 0.29422
# Poissons Ratio (y) = 0.29856 0.48574
# Poissons Ratio (z) = 0.25815 0.32273
#
# Static dielectric constant tensor:
#      x y z
#    x 3.599720 0.000000 0.000000 
#    y 0.000000 3.534680 0.000000 
#    z 0.000000 0.000000 3.605510 
# 
# 
# High freq. dielectric constant tensor:
#      x y z
#    x 1.756560 0.000000 0.000000 
#    y 0.000000 1.751760 0.000000 
#    z 0.000000 0.000000 1.764610 
# 
# From -- ./inp_files/14952.got.cif
#   From: 2010.03.12/outbox.cif.g09.slc.cpg/sg59_8_cif.got.tgz:14952.got - 2010.04.16 16:29:54.
