data_PCOD8244823
_publ_section_title
;
Structure prediction by ZEFSAII (Michael W. Deem and Ramdas Pophale) SiO2 
 PCOD8244823
Probable space group: P M M N
;
_chemical_formula_sum "Si O2"
_cell_formula_units_Z 56
_cell_length_a 9.325638
_cell_length_b 20.317829
_cell_length_c 14.425343
_cell_angle_alpha 90.000000
_cell_angle_beta 90.000000
_cell_angle_gamma 90.000000
_cell_volume 2733.266651
_symmetry_space_group_name_H-M "P M M N"
_symmetry_group_IT_number 59
_space_group.IT_coordinate_system_code '2'
_symmetry_cell_setting 'orthorhombic'
loop_
_space_group_symop_operation_xyz
x,y,z
1/2-x,1/2-y,z
1/2+x,-y,-z
-x,1/2+y,-z
-x,-y,-z
1/2+x,1/2+y,-z
1/2-x,y,z
x,1/2-y,z
loop_
_atom_site_type_symbol
_atom_site_label
_atom_site_fract_x
_atom_site_fract_y
_atom_site_fract_z
Si Si1 0.412823 0.514349 0.906552
Si Si2 0.916212 0.176198 0.339403
Si Si3 0.916689 0.461538 0.420627
Si Si4 0.404386 0.324524 0.962730
Si Si5 0.408255 0.064097 0.731555
Si Si6 0.919887 0.866604 0.835788
Si Si7 0.915906 0.174339 0.791269
O O1 0.250000 0.537910 0.930016
O O2 0.407601 0.450351 0.841736
O O3 0.499221 0.564627 0.842346
O O4 0.500000 0.500000 0.000000
O O5 0.750000 0.165125 0.311317
O O6 0.935953 0.250000 0.384041
O O7 0.962298 0.115915 0.408379
O O8 0.014174 0.175109 0.248010
O O9 0.750000 0.465218 0.445536
O O10 0.955564 0.499724 0.325833
O O11 0.000000 0.500000 0.500000
O O12 0.250000 0.362355 0.949897
O O13 0.374402 0.250000 0.938437
O O14 0.526524 0.348180 0.892194
O O15 0.456624 0.330219 0.068073
O O16 0.250000 0.085658 0.699073
O O17 0.511179 0.127013 0.714272
O O18 0.750000 0.875598 0.820188
O O19 0.750000 0.159431 0.790816
O O20 0.949649 0.250000 0.766251
#
# Coordination Sequence:
#
# PCOD8244823 Si02
#       7
#     8   8   8   8   8   8   8
#     4  11  22  36  53  80 120 163 208 255 301 358
#     4  10  21  40  65  91 123 160 196 244 309 375
#     4  10  22  43  67  94 121 155 198 244 303 370
#     4   9  18  32  48  70 108 157 201 240 290 350
#     4  10  21  39  60  81 115 156 196 240 293 358
#     4  11  21  33  52  82 119 159 205 254 304 358
#     4  10  21  35  53  81 114 149 198 255 301 346
#
# _framework density 20.488305
#
# number of rings (size 3 to 8) (size 9 to 14) (size 15 to 20)
#    0.000    1.857    1.429    2.571    0.000    8.571 
#    0.000    2.143    0.000    2.571    0.000    0.000 
#    0.000    0.000    0.000    0.000    0.000    0.000 
#
# Total GULP energy -693839.844675 kJ/mol
# GULP energy per Si atom -12389.997226 kJ/mol
# Density = 2.044167 g / cm^3
# Si number density = 20.488305 Si / 1000 Ang^3
#
#
#
# Elastic Constant Matrix: (Units=GPa)
#
#
# Indices 1 2 3 4 5 6 
#
# 1 101.0455 69.9318 34.3711 0.0000 0.0000 0.0000
# 2 69.9318 136.7093 54.2437 0.0000 0.0000 0.0000
# 3 34.3711 54.2437 67.1472 0.0000 0.0000 0.0000
# 4 0.0000 0.0000 0.0000 30.0265 0.0000 0.0000
# 5 0.0000 0.0000 0.0000 0.0000 29.1239 0.0000
# 6 0.0000 0.0000 0.0000 0.0000 0.0000 30.7475
#
#
#
# Elastic Compliance Matrix: (Units=1/GPa)
#
#
# Indices 1 2 3 4 5 6 
#
# 1 0.015549 -0.007058 -0.002257 0.000000 0.000000 0.000000
# 2 -0.007058 0.013970 -0.007672 0.000000 0.000000 0.000000
# 3 -0.002257 -0.007672 0.022246 0.000000 0.000000 0.000000
# 4 0.000000 0.000000 0.000000 0.033304 0.000000 0.000000
# 5 0.000000 0.000000 0.000000 0.000000 0.034336 0.000000
# 6 0.000000 0.000000 0.000000 0.000000 0.000000 0.032523
#
#
# Mechanical properties :
#
#
# Convention : Reuss Voigt Hill
#
# Bulk Modulus (GPa) = 56.21390 69.11059 62.66224
# Shear Modulus (GPa) = 26.06435 27.73661 26.90048
#
# Velocity S-wave (km/s) = 3.57060 3.68336 3.62742
# Velocity P-wave (km/s) = 6.67050 7.20378 6.94226
#
# Compressibility (1/GPa) = 0.01778920
#
# Stress axis : x y z
#
# Youngs Moduli (GPa) = 64.31129 71.58445 44.95225
#
# Poissons Ratio (x) = 0.50527 0.10147
# Poissons Ratio (y) = 0.45393 0.34487
# Poissons Ratio (z) = 0.14518 0.54920
#
# Static dielectric constant tensor:
#      x y z
#    x 3.790380 0.000000 0.000000 
#    y 0.000000 4.072360 0.000000 
#    z 0.000000 0.000000 3.472720 
# 
# 
# High freq. dielectric constant tensor:
#      x y z
#    x 1.803510 0.000000 0.000000 
#    y 0.000000 1.814450 0.000000 
#    z 0.000000 0.000000 1.764780 
# 
# From -- ./inp_files/21018.got.cif
#   From: 2010.03.12/outbox.cif.g09.slc.cpg/sg59_11_cif.got.tgz:21018.got - 2010.04.16 16:29:54.
