data_PCOD8244778
_publ_section_title
;
Structure prediction by ZEFSAII (Michael W. Deem and Ramdas Pophale) SiO2 
 PCOD8244778
Probable space group: P M M N
;
_chemical_formula_sum "Si O2"
_cell_formula_units_Z 40
_cell_length_a 7.721675
_cell_length_b 9.324597
_cell_length_c 29.672287
_cell_angle_alpha 90.000000
_cell_angle_beta 90.000000
_cell_angle_gamma 90.000000
_cell_volume 2136.449396
_symmetry_space_group_name_H-M "P M M N"
_symmetry_group_IT_number 59
_space_group.IT_coordinate_system_code '2'
_symmetry_cell_setting 'orthorhombic'
loop_
_space_group_symop_operation_xyz
x,y,z
1/2-x,1/2-y,z
1/2+x,-y,-z
-x,1/2+y,-z
-x,-y,-z
1/2+x,1/2+y,-z
1/2-x,y,z
x,1/2-y,z
loop_
_atom_site_type_symbol
_atom_site_label
_atom_site_fract_x
_atom_site_fract_y
_atom_site_fract_z
Si Si1 0.750000 0.419179 0.303119
Si Si2 0.250000 0.578576 0.797494
Si Si3 0.049750 0.417940 0.369266
Si Si4 0.547435 0.905728 0.957844
Si Si5 0.056398 0.421283 0.140174
Si Si6 0.452810 0.590059 0.456458
O O1 0.750000 0.250000 0.298916
O O2 0.750000 0.485892 0.253008
O O3 0.574264 0.467807 0.328476
O O4 0.250000 0.750000 0.797136
O O5 0.421898 0.520589 0.822667
O O6 0.250000 0.452438 0.356829
O O7 0.026688 0.250000 0.380094
O O8 0.982034 0.504981 0.412601
O O9 0.750000 0.885047 0.955243
O O10 0.458645 0.750000 0.964496
O O11 0.491390 0.973789 0.909533
O O12 0.500000 0.000000 0.000000
O O13 0.250000 0.479251 0.151612
O O14 0.059363 0.250000 0.139487
O O15 0.500000 0.500000 0.500000
O O16 0.250000 0.605904 0.453415
O O17 0.536805 0.750000 0.458411
#
# Coordination Sequence:
#
# PCOD8244778 Si02
#       6
#     4   4   8   8   8   8
#     4   9  18  30  47  73  99 127 169 209 248 301
#     4   9  16  26  44  69  93 125 163 201 252 301
#     4   9  18  33  50  70 102 136 163 202 251 296
#     4   9  18  30  44  67  96 127 165 205 247 298
#     4   8  15  27  41  62  95 127 158 200 246 297
#     4  10  21  35  52  76 104 135 171 209 249 297
#
# _framework density 18.722653000000001
#
# number of rings (size 3 to 8) (size 9 to 14) (size 15 to 20)
#    0.000    3.000    0.000    1.800    2.800    2.400 
#    0.000    4.000    0.000    0.000    0.000    2.800 
#    0.000    3.200    0.000    0.000    0.000    0.000 
#
# Total GULP energy -495677.972250 kJ/mol
# GULP energy per Si atom -12391.949306 kJ/mol
# Density = 1.868004 g / cm^3
# Si number density = 18.722653 Si / 1000 Ang^3
#
#
#
# Elastic Constant Matrix: (Units=GPa)
#
#
# Indices 1 2 3 4 5 6 
#
# 1 92.0855 23.2740 78.7645 0.0000 0.0000 0.0000
# 2 23.2740 57.2535 50.1038 0.0000 0.0000 0.0000
# 3 78.7645 50.1038 200.9360 0.0000 0.0000 0.0000
# 4 0.0000 0.0000 0.0000 21.2136 0.0000 0.0000
# 5 0.0000 0.0000 0.0000 0.0000 35.9562 0.0000
# 6 0.0000 0.0000 0.0000 0.0000 0.0000 12.5736
#
#
#
# Elastic Compliance Matrix: (Units=1/GPa)
#
#
# Indices 1 2 3 4 5 6 
#
# 1 0.016416 -0.001333 -0.006103 0.000000 0.000000 0.000000
# 2 -0.001333 0.022450 -0.005075 0.000000 0.000000 0.000000
# 3 -0.006103 -0.005075 0.008634 0.000000 0.000000 0.000000
# 4 0.000000 0.000000 0.000000 0.047140 0.000000 0.000000
# 5 0.000000 0.000000 0.000000 0.000000 0.027812 0.000000
# 6 0.000000 0.000000 0.000000 0.000000 0.000000 0.079532
#
#
# Mechanical properties :
#
#
# Convention : Reuss Voigt Hill
#
# Bulk Modulus (GPa) = 44.48687 72.72886 58.60786
# Shear Modulus (GPa) = 21.32219 27.15751 24.23985
#
# Velocity S-wave (km/s) = 3.37834 3.81270 3.60207
# Velocity P-wave (km/s) = 6.24741 7.63622 6.97646
#
# Compressibility (1/GPa) = 0.02247854
#
# Stress axis : x y z
#
# Youngs Moduli (GPa) = 60.91565 44.54428 115.81548
#
# Poissons Ratio (x) = 0.05937 0.70678
# Poissons Ratio (y) = 0.08119 0.58781
# Poissons Ratio (z) = 0.37174 0.22608
#
# Static dielectric constant tensor:
#      x y z
#    x 3.727990 0.000000 0.000000 
#    y 0.000000 3.066790 0.000000 
#    z 0.000000 0.000000 3.156330 
# 
# 
# High freq. dielectric constant tensor:
#      x y z
#    x 1.731510 0.000000 0.000000 
#    y 0.000000 1.674360 0.000000 
#    z 0.000000 0.000000 1.731320 
# 
# From -- ./inp_files/32385.got.cif
#   From: 2010.03.12/outbox.cif.g09.slc.cpg/sg59_17_cif.got.tgz:32385.got - 2010.04.16 16:29:54.
