data_PCOD8244238
_publ_section_title
;
Structure prediction by ZEFSAII (Michael W. Deem and Ramdas Pophale) SiO2 
 PCOD8244238
Probable space group: P M M N
;
_chemical_formula_sum "Si O2"
_cell_formula_units_Z 56
_cell_length_a 9.083071
_cell_length_b 20.243810
_cell_length_c 16.026554
_cell_angle_alpha 90.000000
_cell_angle_beta 90.000000
_cell_angle_gamma 90.000000
_cell_volume 2946.898059
_symmetry_space_group_name_H-M "P M M N"
_symmetry_group_IT_number 59
_space_group.IT_coordinate_system_code '2'
_symmetry_cell_setting 'orthorhombic'
loop_
_space_group_symop_operation_xyz
x,y,z
1/2-x,1/2-y,z
1/2+x,-y,-z
-x,1/2+y,-z
-x,-y,-z
1/2+x,1/2+y,-z
1/2-x,y,z
x,1/2-y,z
loop_
_atom_site_type_symbol
_atom_site_label
_atom_site_fract_x
_atom_site_fract_y
_atom_site_fract_z
Si Si1 0.574989 0.108750 0.222237
Si Si2 0.422234 0.439708 0.389478
Si Si3 0.420555 0.914311 0.447078
Si Si4 0.419968 0.355820 0.861074
Si Si5 0.924736 0.250000 0.969420
Si Si6 0.586183 0.674621 0.324993
Si Si7 0.920478 0.498155 0.087760
Si Si8 0.075811 0.750000 0.842171
O O1 0.750000 0.103986 0.233255
O O2 0.500093 0.084628 0.306354
O O3 0.522399 0.061729 0.146046
O O4 0.521259 0.183720 0.204670
O O5 0.250000 0.425040 0.382755
O O6 0.487220 0.401209 0.468980
O O7 0.458180 0.516485 0.403224
O O8 0.250000 0.908792 0.470182
O O9 0.464625 0.858939 0.381778
O O10 0.250000 0.339422 0.879683
O O11 0.517587 0.316781 0.927355
O O12 0.466220 0.331442 0.770026
O O13 0.452483 0.433534 0.864982
O O14 0.750000 0.250000 0.965309
O O15 0.984725 0.250000 0.063803
O O16 0.750000 0.642724 0.335694
O O17 0.592031 0.750000 0.352121
O O18 0.750000 0.488041 0.068603
O O19 0.000000 0.500000 0.000000
O O20 0.250000 0.750000 0.845125
#
# Coordination Sequence:
#
# PCOD8244238 Si02
#       8
#     8   8   8   8   4   8   8   4
#     4  10  20  38  60  82 110 149 193 236 287 340
#     4  10  21  38  60  86 113 144 186 232 280 335
#     4  10  21  37  59  86 115 146 182 228 278 333
#     4  10  20  36  55  79 113 153 190 229 283 344
#     4  11  21  35  57  82 109 148 193 239 284 333
#     4  10  20  36  57  81 113 151 188 227 274 332
#     4  10  21  35  56  83 114 151 192 239 289 340
#     4   9  20  37  57  80 109 144 187 237 284 331
#
# _framework density 19.003032999999999
#
# number of rings (size 3 to 8) (size 9 to 14) (size 15 to 20)
#    0.000    2.000    0.714    2.786    0.000    6.000 
#    1.286    1.786    0.000    0.000    0.000    0.000 
#    0.000    0.000    0.000    0.000    0.000    0.000 
#
# Total GULP energy -694543.975163 kJ/mol
# GULP energy per Si atom -12402.570985 kJ/mol
# Density = 1.895978 g / cm^3
# Si number density = 19.003033 Si / 1000 Ang^3
#
#
#
# Elastic Constant Matrix: (Units=GPa)
#
#
# Indices 1 2 3 4 5 6 
#
# 1 61.8596 43.9620 58.6087 0.0000 0.0000 0.0000
# 2 43.9620 110.5668 62.2784 0.0000 0.0000 0.0000
# 3 58.6087 62.2784 146.0942 0.0000 0.0000 0.0000
# 4 0.0000 0.0000 0.0000 28.4405 0.0000 0.0000
# 5 0.0000 0.0000 0.0000 0.0000 39.1089 0.0000
# 6 0.0000 0.0000 0.0000 0.0000 0.0000 27.6975
#
#
#
# Elastic Compliance Matrix: (Units=1/GPa)
#
#
# Indices 1 2 3 4 5 6 
#
# 1 0.029359 -0.006632 -0.008951 0.000000 0.000000 0.000000
# 2 -0.006632 0.013400 -0.003052 0.000000 0.000000 0.000000
# 3 -0.008951 -0.003052 0.011737 0.000000 0.000000 0.000000
# 4 0.000000 0.000000 0.000000 0.035161 0.000000 0.000000
# 5 0.000000 0.000000 0.000000 0.000000 0.025570 0.000000
# 6 0.000000 0.000000 0.000000 0.000000 0.000000 0.036104
#
#
# Mechanical properties :
#
#
# Convention : Reuss Voigt Hill
#
# Bulk Modulus (GPa) = 58.04854 72.02430 65.03642
# Shear Modulus (GPa) = 25.72776 29.29414 27.51095
#
# Velocity S-wave (km/s) = 3.68350 3.93052 3.80901
# Velocity P-wave (km/s) = 6.97884 7.65391 7.32416
#
# Compressibility (1/GPa) = 0.01722696
#
# Stress axis : x y z
#
# Youngs Moduli (GPa) = 34.06093 74.62636 85.20203
#
# Poissons Ratio (x) = 0.49489 0.76265
# Poissons Ratio (y) = 0.22588 0.26003
# Poissons Ratio (z) = 0.30488 0.22775
#
# Static dielectric constant tensor:
#      x y z
#    x 3.380320 0.000000 0.000000 
#    y 0.000000 3.696670 0.000000 
#    z 0.000000 0.000000 3.516060 
# 
# 
# High freq. dielectric constant tensor:
#      x y z
#    x 1.728750 0.000000 0.000000 
#    y 0.000000 1.742920 0.000000 
#    z 0.000000 0.000000 1.745510 
# 
# From -- ./inp_files/21092.got.cif
#   From: 2010.03.12/outbox.cif.g09.slc.cpg/sg59_11_cif.got.tgz:21092.got - 2010.04.16 16:29:54.
