data_PCOD8244547
_publ_section_title
;
Structure prediction by ZEFSAII (Michael W. Deem and Ramdas Pophale) SiO2 
 PCOD8244547
Probable space group: P M M N
;
_chemical_formula_sum "Si O2"
_cell_formula_units_Z 48
_cell_length_a 8.799065
_cell_length_b 17.840581
_cell_length_c 16.316309
_cell_angle_alpha 90.000000
_cell_angle_beta 90.000000
_cell_angle_gamma 90.000000
_cell_volume 2561.341233
_symmetry_space_group_name_H-M "P M M N"
_symmetry_group_IT_number 59
_space_group.IT_coordinate_system_code '2'
_symmetry_cell_setting 'orthorhombic'
loop_
_space_group_symop_operation_xyz
x,y,z
1/2-x,1/2-y,z
1/2+x,-y,-z
-x,1/2+y,-z
-x,-y,-z
1/2+x,1/2+y,-z
1/2-x,y,z
x,1/2-y,z
loop_
_atom_site_type_symbol
_atom_site_label
_atom_site_fract_x
_atom_site_fract_y
_atom_site_fract_z
Si Si1 0.929352 0.025378 0.415431
Si Si2 0.422592 0.400085 0.169806
Si Si3 0.071743 0.581532 0.994382
Si Si4 0.575363 0.051789 0.737578
Si Si5 0.924782 0.661947 0.145038
Si Si6 0.573146 0.835368 0.659962
O O1 0.750000 0.019042 0.419911
O O2 0.975972 0.111489 0.398888
O O3 0.000000 0.000000 0.500000
O O4 0.989968 0.970874 0.344956
O O5 0.250000 0.381769 0.143891
O O6 0.531483 0.382274 0.093578
O O7 0.438535 0.486936 0.194545
O O8 0.474176 0.347884 0.245453
O O9 0.250000 0.573723 0.005154
O O10 0.000000 0.500000 0.000000
O O11 0.010164 0.636336 0.063634
O O12 0.750000 0.068206 0.715877
O O13 0.498057 0.125561 0.774167
O O14 0.750000 0.637233 0.138557
O O15 0.943526 0.750000 0.154987
O O16 0.750000 0.857278 0.650171
O O17 0.541005 0.750000 0.634512
#
# Coordination Sequence:
#
# PCOD8244547 Si02
#       6
#     8   8   8   8   8   8
#     4  11  22  38  62  90 120 152 192 237 281 342
#     4   9  18  33  55  83 112 148 190 232 281 341
#     4  12  23  35  55  81 113 154 199 246 290 338
#     4  10  20  37  61  85 112 147 187 232 284 344
#     4  11  24  40  58  82 114 152 195 243 294 344
#     4   9  19  37  60  86 119 154 188 233 291 347
#
# _framework density 18.740181
#
# number of rings (size 3 to 8) (size 9 to 14) (size 15 to 20)
#    0.000    1.667    1.667    5.000    0.000    5.000 
#    0.000    2.500    0.000    5.000    0.000    0.000 
#    0.000    0.000    0.000    0.000    0.000    0.000 
#
# Total GULP energy -595406.735733 kJ/mol
# GULP energy per Si atom -12404.306994 kJ/mol
# Density = 1.869753 g / cm^3
# Si number density = 18.740181 Si / 1000 Ang^3
#
#
#
# Elastic Constant Matrix: (Units=GPa)
#
#
# Indices 1 2 3 4 5 6 
#
# 1 162.5217 61.0067 73.5967 0.0000 0.0000 0.0000
# 2 61.0067 88.5277 56.7882 0.0000 0.0000 0.0000
# 3 73.5967 56.7882 132.9726 0.0000 0.0000 0.0000
# 4 0.0000 0.0000 0.0000 19.5074 0.0000 0.0000
# 5 0.0000 0.0000 0.0000 0.0000 35.9236 0.0000
# 6 0.0000 0.0000 0.0000 0.0000 0.0000 29.5078
#
#
#
# Elastic Compliance Matrix: (Units=1/GPa)
#
#
# Indices 1 2 3 4 5 6 
#
# 1 0.009244 -0.004254 -0.003300 0.000000 0.000000 0.000000
# 2 -0.004254 0.017515 -0.005126 0.000000 0.000000 0.000000
# 3 -0.003300 -0.005126 0.011536 0.000000 0.000000 0.000000
# 4 0.000000 0.000000 0.000000 0.051263 0.000000 0.000000
# 5 0.000000 0.000000 0.000000 0.000000 0.027837 0.000000
# 6 0.000000 0.000000 0.000000 0.000000 0.000000 0.033889
#
#
# Mechanical properties :
#
#
# Convention : Reuss Voigt Hill
#
# Bulk Modulus (GPa) = 77.30046 85.20057 81.25052
# Shear Modulus (GPa) = 27.63122 29.82978 28.73050
#
# Velocity S-wave (km/s) = 3.84401 3.99401 3.91972
# Velocity P-wave (km/s) = 7.81280 8.17510 7.99600
#
# Compressibility (1/GPa) = 0.01293653
#
# Stress axis : x y z
#
# Youngs Moduli (GPa) = 108.17870 57.09284 86.68667
#
# Poissons Ratio (x) = 0.24285 0.28604
# Poissons Ratio (y) = 0.46014 0.44436
# Poissons Ratio (z) = 0.35696 0.29266
#
# Static dielectric constant tensor:
#      x y z
#    x 3.609230 0.000000 0.000000 
#    y 0.000000 3.375330 0.000000 
#    z 0.000000 0.000000 3.467260 
# 
# 
# High freq. dielectric constant tensor:
#      x y z
#    x 1.736240 0.000000 0.000000 
#    y 0.000000 1.717550 0.000000 
#    z 0.000000 0.000000 1.726170 
# 
# From -- ./inp_files/20397.got.cif
#   From: 2010.03.12/outbox.cif.g09.slc.cpg/sg59_11_cif.got.tgz:20397.got - 2010.04.16 16:29:54.
