data_PCOD8244037
_publ_section_title
;
Structure prediction by ZEFSAII (Michael W. Deem and Ramdas Pophale) SiO2 
 PCOD8244037
Probable space group: P M M N
;
_chemical_formula_sum "Si O2"
_cell_formula_units_Z 56
_cell_length_a 19.456804
_cell_length_b 8.713362
_cell_length_c 17.228212
_cell_angle_alpha 90.000000
_cell_angle_beta 90.000000
_cell_angle_gamma 90.000000
_cell_volume 2920.770736
_symmetry_space_group_name_H-M "P M M N"
_symmetry_group_IT_number 59
_space_group.IT_coordinate_system_code '2'
_symmetry_cell_setting 'orthorhombic'
loop_
_space_group_symop_operation_xyz
x,y,z
1/2-x,1/2-y,z
1/2+x,-y,-z
-x,1/2+y,-z
-x,-y,-z
1/2+x,1/2+y,-z
1/2-x,y,z
x,1/2-y,z
loop_
_atom_site_type_symbol
_atom_site_label
_atom_site_fract_x
_atom_site_fract_y
_atom_site_fract_z
Si Si1 0.827951 0.426582 0.892727
Si Si2 0.050270 0.071965 0.389578
Si Si3 0.171869 0.073542 0.672729
Si Si4 0.829345 0.928052 0.054286
Si Si5 0.096868 0.927682 0.539627
Si Si6 0.587322 0.070576 0.189569
Si Si7 0.054219 0.571010 0.225493
O O1 0.750000 0.459018 0.865387
O O2 0.837230 0.250000 0.917939
O O3 0.877275 0.470407 0.821938
O O4 0.847353 0.531914 0.965836
O O5 0.060930 0.250000 0.371271
O O6 0.972341 0.034173 0.413287
O O7 0.100240 0.021563 0.459432
O O8 0.068647 0.975188 0.313879
O O9 0.250000 0.048541 0.699470
O O10 0.155421 0.250000 0.655186
O O11 0.159618 0.978926 0.593873
O O12 0.123548 0.018969 0.741362
O O13 0.750000 0.967736 0.072411
O O14 0.844768 0.750000 0.069691
O O15 0.877669 0.029927 0.108371
O O16 0.102558 0.750000 0.518732
O O17 0.593904 0.250000 0.206202
O O18 0.507751 0.024036 0.187436
O O19 0.036308 0.750000 0.220897
#
# Coordination Sequence:
#
# PCOD8244037 Si02
#       7
#     8   8   8   8   8   8   8
#     4   9  20  40  63  86 112 146 189 235 288 347
#     4  10  20  35  57  84 114 148 189 236 283 337
#     4  11  23  38  57  83 118 156 193 239 292 344
#     4  10  21  38  60  85 114 151 193 236 285 341
#     4  10  20  35  57  83 111 150 193 234 281 336
#     4  12  24  37  56  84 117 154 194 237 285 341
#     4  11  22  37  60  87 117 151 189 239 292 343
#
# _framework density 19.173022
#
# number of rings (size 3 to 8) (size 9 to 14) (size 15 to 20)
#    0.000    1.571    1.429    3.857    0.000    6.571 
#    0.000    0.714    0.000    2.571    0.000    0.000 
#    0.000    0.000    0.000    0.000    0.000    0.000 
#
# Total GULP energy -694728.824295 kJ/mol
# GULP energy per Si atom -12405.871862 kJ/mol
# Density = 1.912938 g / cm^3
# Si number density = 19.173022 Si / 1000 Ang^3
#
#
#
# Elastic Constant Matrix: (Units=GPa)
#
#
# Indices 1 2 3 4 5 6 
#
# 1 84.9645 26.4200 48.8140 0.0000 0.0000 0.0000
# 2 26.4200 43.9326 20.8609 0.0000 0.0000 0.0000
# 3 48.8140 20.8609 103.4868 0.0000 0.0000 0.0000
# 4 0.0000 0.0000 0.0000 37.6958 0.0000 0.0000
# 5 0.0000 0.0000 0.0000 0.0000 19.9827 0.0000
# 6 0.0000 0.0000 0.0000 0.0000 0.0000 24.5777
#
#
#
# Elastic Compliance Matrix: (Units=1/GPa)
#
#
# Indices 1 2 3 4 5 6 
#
# 1 0.018175 -0.007585 -0.007044 0.000000 0.000000 0.000000
# 2 -0.007585 0.028337 -0.002134 0.000000 0.000000 0.000000
# 3 -0.007044 -0.002134 0.013416 0.000000 0.000000 0.000000
# 4 0.000000 0.000000 0.000000 0.026528 0.000000 0.000000
# 5 0.000000 0.000000 0.000000 0.000000 0.050043 0.000000
# 6 0.000000 0.000000 0.000000 0.000000 0.000000 0.040687
#
#
# Mechanical properties :
#
#
# Convention : Reuss Voigt Hill
#
# Bulk Modulus (GPa) = 37.87735 47.17484 42.52610
# Shear Modulus (GPa) = 22.77748 25.53717 24.15732
#
# Velocity S-wave (km/s) = 3.45047 3.65352 3.55345
# Velocity P-wave (km/s) = 5.97267 6.51582 6.25015
#
# Compressibility (1/GPa) = 0.02640100
#
# Stress axis : x y z
#
# Youngs Moduli (GPa) = 55.01966 35.28932 74.53819
#
# Poissons Ratio (x) = 0.26768 0.52506
# Poissons Ratio (y) = 0.41734 0.15908
# Poissons Ratio (z) = 0.38756 0.07532
#
# Static dielectric constant tensor:
#      x y z
#    x 3.479180 0.000000 0.000000 
#    y 0.000000 3.582140 0.000000 
#    z 0.000000 0.000000 3.527970 
# 
# 
# High freq. dielectric constant tensor:
#      x y z
#    x 1.731530 0.000000 0.000000 
#    y 0.000000 1.757800 0.000000 
#    z 0.000000 0.000000 1.750390 
# 
# From -- ./inp_files/24292.got.cif
#   From: 2010.03.12/outbox.cif.g09.slc.cpg/sg59_13_cif.got.tgz:24292.got - 2010.04.16 16:29:54.
