data_PCOD8244760
_publ_section_title
;
Structure prediction by ZEFSAII (Michael W. Deem and Ramdas Pophale) SiO2 
 PCOD8244760
Probable space group: P M M N
;
_chemical_formula_sum "Si O2"
_cell_formula_units_Z 48
_cell_length_a 9.439352
_cell_length_b 7.726533
_cell_length_c 34.297596
_cell_angle_alpha 90.000000
_cell_angle_beta 90.000000
_cell_angle_gamma 90.000000
_cell_volume 2501.442508
_symmetry_space_group_name_H-M "P M M N"
_symmetry_group_IT_number 59
_space_group.IT_coordinate_system_code '2'
_symmetry_cell_setting 'orthorhombic'
loop_
_space_group_symop_operation_xyz
x,y,z
1/2-x,1/2-y,z
1/2+x,-y,-z
-x,1/2+y,-z
-x,-y,-z
1/2+x,1/2+y,-z
1/2-x,y,z
x,1/2-y,z
loop_
_atom_site_type_symbol
_atom_site_label
_atom_site_fract_x
_atom_site_fract_y
_atom_site_fract_z
Si Si1 0.908327 0.047254 0.037206
Si Si2 0.592852 0.950934 0.619631
Si Si3 0.405943 0.951494 0.463660
Si Si4 0.915115 0.449606 0.307788
Si Si5 0.084345 0.250000 0.750421
Si Si6 0.913459 0.250000 0.829310
Si Si7 0.586193 0.549769 0.888790
O O1 0.750000 0.963787 0.035081
O O2 0.892754 0.250000 0.039634
O O3 0.990445 0.982234 0.075515
O O4 0.000000 0.000000 0.000000
O O5 0.750000 0.036956 0.621648
O O6 0.606087 0.750000 0.626843
O O7 0.493997 0.023816 0.653889
O O8 0.524217 0.985743 0.577053
O O9 0.250000 0.037956 0.468373
O O10 0.389250 0.750000 0.461845
O O11 0.500000 0.000000 0.500000
O O12 0.750000 0.465588 0.317026
O O13 0.955384 0.250000 0.297410
O O14 0.959457 0.575196 0.272493
O O15 0.250000 0.250000 0.759124
O O16 0.005193 0.250000 0.790911
O O17 0.750000 0.250000 0.817258
O O18 0.950539 0.424904 0.852868
O O19 0.750000 0.528799 0.901279
O O20 0.553557 0.750000 0.877432
#
# Coordination Sequence:
#
# PCOD8244760 Si02
#       7
#     8   8   8   8   4   4   8
#     4  10  21  35  53  80 112 147 188 233 282 334
#     4   9  18  33  53  77 104 134 170 215 266 316
#     4  10  21  35  51  74 104 139 179 221 265 316
#     4   9  19  36  56  79 109 142 176 217 267 324
#     4  10  22  38  56  82 112 140 178 224 272 328
#     4  10  22  38  58  84 110 144 186 228 278 334
#     4   9  19  37  57  78 110 147 184 230 279 327
#
# _framework density 19.188925999999999
#
# number of rings (size 3 to 8) (size 9 to 14) (size 15 to 20)
#    0.000    2.500    0.000    1.000    2.333    4.667 
#    0.000    1.667    0.000    0.000    0.000    0.000 
#    0.000    0.000    0.000    0.000    0.000    0.000 
#
# Total GULP energy -595025.597008 kJ/mol
# GULP energy per Si atom -12396.366604 kJ/mol
# Density = 1.914525 g / cm^3
# Si number density = 19.188926 Si / 1000 Ang^3
#
#
#
# Elastic Constant Matrix: (Units=GPa)
#
#
# Indices 1 2 3 4 5 6 
#
# 1 96.1119 37.2268 91.7412 0.0000 0.0000 0.0000
# 2 37.2268 76.1930 59.2875 0.0000 0.0000 0.0000
# 3 91.7412 59.2875 187.9563 0.0000 0.0000 0.0000
# 4 0.0000 0.0000 0.0000 32.2229 0.0000 0.0000
# 5 0.0000 0.0000 0.0000 0.0000 40.0156 0.0000
# 6 0.0000 0.0000 0.0000 0.0000 0.0000 18.5128
#
#
#
# Elastic Compliance Matrix: (Units=1/GPa)
#
#
# Indices 1 2 3 4 5 6 
#
# 1 0.019945 -0.002875 -0.008828 0.000000 0.000000 0.000000
# 2 -0.002875 0.017808 -0.004214 0.000000 0.000000 0.000000
# 3 -0.008828 -0.004214 0.010959 0.000000 0.000000 0.000000
# 4 0.000000 0.000000 0.000000 0.031034 0.000000 0.000000
# 5 0.000000 0.000000 0.000000 0.000000 0.024990 0.000000
# 6 0.000000 0.000000 0.000000 0.000000 0.000000 0.054017
#
#
# Mechanical properties :
#
#
# Convention : Reuss Voigt Hill
#
# Bulk Modulus (GPa) = 59.25205 81.86360 70.55783
# Shear Modulus (GPa) = 25.48252 29.61730 27.54991
#
# Velocity S-wave (km/s) = 3.64810 3.93295 3.79320
# Velocity P-wave (km/s) = 6.97783 7.96107 7.48561
#
# Compressibility (1/GPa) = 0.01687705
#
# Stress axis : x y z
#
# Youngs Moduli (GPa) = 50.13817 56.15348 91.25324
#
# Poissons Ratio (x) = 0.16147 0.80559
# Poissons Ratio (y) = 0.14417 0.38452
# Poissons Ratio (z) = 0.44262 0.23662
#
# Static dielectric constant tensor:
#      x y z
#    x 3.368010 0.000000 0.000000 
#    y 0.000000 3.980210 0.000000 
#    z 0.000000 0.000000 3.352640 
# 
# 
# High freq. dielectric constant tensor:
#      x y z
#    x 1.742220 0.000000 0.000000 
#    y 0.000000 1.750940 0.000000 
#    z 0.000000 0.000000 1.742120 
# 
# From -- ./inp_files/32941.got.cif
#   From: 2010.03.12/outbox.cif.g09.slc.cpg/sg59_17_cif.got.tgz:32941.got - 2010.04.16 16:29:54.
