data_PCOD8244701
_publ_section_title
;
Structure prediction by ZEFSAII (Michael W. Deem and Ramdas Pophale) SiO2 
 PCOD8244701
Probable space group: P M M N
;
_chemical_formula_sum "Si O2"
_cell_formula_units_Z 64
_cell_length_a 9.100125
_cell_length_b 21.612674
_cell_length_c 19.059677
_cell_angle_alpha 90.000000
_cell_angle_beta 90.000000
_cell_angle_gamma 90.000000
_cell_volume 3748.619820
_symmetry_space_group_name_H-M "P M M N"
_symmetry_group_IT_number 59
_space_group.IT_coordinate_system_code '2'
_symmetry_cell_setting 'orthorhombic'
loop_
_space_group_symop_operation_xyz
x,y,z
1/2-x,1/2-y,z
1/2+x,-y,-z
-x,1/2+y,-z
-x,-y,-z
1/2+x,1/2+y,-z
1/2-x,y,z
x,1/2-y,z
loop_
_atom_site_type_symbol
_atom_site_label
_atom_site_fract_x
_atom_site_fract_y
_atom_site_fract_z
Si Si1 0.081557 0.946698 0.458033
Si Si2 0.424991 0.010760 0.828647
Si Si3 0.084158 0.610411 0.596928
Si Si4 0.423871 0.943794 0.042889
Si Si5 0.576380 0.884038 0.839988
Si Si6 0.419233 0.679916 0.958587
Si Si7 0.422206 0.482336 0.667498
Si Si8 0.921039 0.817444 0.701574
O O1 0.250000 0.965754 0.445258
O O2 0.070759 0.888979 0.512060
O O3 0.005325 0.932256 0.382664
O O4 0.000000 0.000000 0.500000
O O5 0.250000 0.012713 0.837516
O O6 0.504282 0.060079 0.879291
O O7 0.472726 0.023895 0.748260
O O8 0.484082 0.945163 0.856610
O O9 0.250000 0.620697 0.621019
O O10 0.028017 0.547728 0.634951
O O11 0.990139 0.666453 0.626657
O O12 0.250000 0.957291 0.046396
O O13 0.456509 0.875063 0.013181
O O14 0.500000 0.000000 0.000000
O O15 0.750000 0.895630 0.848759
O O16 0.524599 0.829754 0.891823
O O17 0.532405 0.865399 0.761367
O O18 0.250000 0.674318 0.934966
O O19 0.449133 0.750000 0.988403
O O20 0.250000 0.470848 0.660387
O O21 0.750000 0.817993 0.690066
O O22 0.976259 0.750000 0.724812
#
# Coordination Sequence:
#
# PCOD8244701 Si02
#       8
#     8   8   8   8   8   8   8   8
#     4   9  17  28  44  67  94 122 156 195 237 288
#     4  11  21  34  52  75 106 139 173 212 257 313
#     4   9  17  30  45  65  92 125 163 201 242 289
#     4  11  22  36  55  79 107 137 173 216 263 315
#     4  11  21  33  51  74 102 136 175 217 259 305
#     4  10  22  39  57  76 101 137 177 216 261 314
#     4   9  18  31  47  69  97 126 160 201 246 296
#     4  10  21  33  44  65  97 132 171 212 251 296
#
# _framework density 17.072949999999999
#
# number of rings (size 3 to 8) (size 9 to 14) (size 15 to 20)
#    0.000    2.000    2.500    2.625    0.000    5.500 
#    0.000    0.000    0.000    0.000    0.000    0.875 
#    0.000    3.000    0.000    0.000    0.000    0.000 
#
# Total GULP energy -793145.010257 kJ/mol
# GULP energy per Si atom -12392.890785 kJ/mol
# Density = 1.703409 g / cm^3
# Si number density = 17.072950 Si / 1000 Ang^3
#
#
#
# Elastic Constant Matrix: (Units=GPa)
#
#
# Indices 1 2 3 4 5 6 
#
# 1 59.8330 37.5407 53.4559 0.0000 0.0000 0.0000
# 2 37.5407 74.6967 43.8348 0.0000 0.0000 0.0000
# 3 53.4559 43.8348 120.7539 0.0000 0.0000 0.0000
# 4 0.0000 0.0000 0.0000 15.9403 0.0000 0.0000
# 5 0.0000 0.0000 0.0000 0.0000 34.1764 0.0000
# 6 0.0000 0.0000 0.0000 0.0000 0.0000 20.9209
#
#
#
# Elastic Compliance Matrix: (Units=1/GPa)
#
#
# Indices 1 2 3 4 5 6 
#
# 1 0.032708 -0.010091 -0.010816 0.000000 0.000000 0.000000
# 2 -0.010091 0.020125 -0.002838 0.000000 0.000000 0.000000
# 3 -0.010816 -0.002838 0.014100 0.000000 0.000000 0.000000
# 4 0.000000 0.000000 0.000000 0.062734 0.000000 0.000000
# 5 0.000000 0.000000 0.000000 0.000000 0.029260 0.000000
# 6 0.000000 0.000000 0.000000 0.000000 0.000000 0.047799
#
#
# Mechanical properties :
#
#
# Convention : Reuss Voigt Hill
#
# Bulk Modulus (GPa) = 51.43648 58.32739 54.88194
# Shear Modulus (GPa) = 19.17940 22.23764 20.70852
#
# Velocity S-wave (km/s) = 3.35532 3.61294 3.48651
# Velocity P-wave (km/s) = 6.72338 7.18626 6.95867
#
# Compressibility (1/GPa) = 0.01944145
#
# Stress axis : x y z
#
# Youngs Moduli (GPa) = 30.57380 49.69059 70.92299
#
# Poissons Ratio (x) = 0.50142 0.76711
# Poissons Ratio (y) = 0.30851 0.20131
# Poissons Ratio (z) = 0.33069 0.14104
#
# Static dielectric constant tensor:
#      x y z
#    x 3.118400 0.000000 0.000000 
#    y 0.000000 3.062410 0.000000 
#    z 0.000000 0.000000 3.545690 
# 
# 
# High freq. dielectric constant tensor:
#      x y z
#    x 1.668640 0.000000 0.000000 
#    y 0.000000 1.616870 0.000000 
#    z 0.000000 0.000000 1.661260 
# 
# From -- ./inp_files/29659.got.cif
#   From: 2010.03.12/outbox.cif.g09.slc.cpg/sg59_15_cif.got.tgz:29659.got - 2010.04.16 16:29:54.
