data_PCOD8244920
_publ_section_title
;
Structure prediction by ZEFSAII (Michael W. Deem and Ramdas Pophale) SiO2 
 PCOD8244920
Probable space group: P M M N
;
_chemical_formula_sum "Si O2"
_cell_formula_units_Z 64
_cell_length_a 22.793792
_cell_length_b 8.952203
_cell_length_c 16.367465
_cell_angle_alpha 90.000000
_cell_angle_beta 90.000000
_cell_angle_gamma 90.000000
_cell_volume 3339.857393
_symmetry_space_group_name_H-M "P M M N"
_symmetry_group_IT_number 59
_space_group.IT_coordinate_system_code '2'
_symmetry_cell_setting 'orthorhombic'
loop_
_space_group_symop_operation_xyz
x,y,z
1/2-x,1/2-y,z
1/2+x,-y,-z
-x,1/2+y,-z
-x,-y,-z
1/2+x,1/2+y,-z
1/2-x,y,z
x,1/2-y,z
loop_
_atom_site_type_symbol
_atom_site_label
_atom_site_fract_x
_atom_site_fract_y
_atom_site_fract_z
Si Si1 0.918181 0.077185 0.550496
Si Si2 0.019044 0.925926 0.083206
Si Si3 0.183730 0.427081 0.890092
Si Si4 0.318295 0.075813 0.368233
Si Si5 0.576269 0.574280 0.218692
Si Si6 0.138991 0.073101 0.065743
Si Si7 0.184038 0.586583 0.209865
Si Si8 0.973617 0.076835 0.376160
O O1 0.911824 0.250000 0.572442
O O2 0.936390 0.050702 0.457547
O O3 0.855589 0.995487 0.558283
O O4 0.964748 0.007899 0.614333
O O5 0.021392 0.750000 0.070577
O O6 0.973806 0.969562 0.154081
O O7 0.082113 0.992684 0.103814
O O8 0.000000 0.000000 0.000000
O O9 0.250000 0.490860 0.876017
O O10 0.186775 0.250000 0.895492
O O11 0.139885 0.476347 0.817399
O O12 0.156949 0.485590 0.975938
O O13 0.250000 0.042978 0.384633
O O14 0.330674 0.250000 0.362269
O O15 0.344522 0.001562 0.285621
O O16 0.576004 0.750000 0.236506
O O17 0.564756 0.487378 0.302043
O O18 0.130541 0.250000 0.065741
O O19 0.187362 0.018094 0.129628
O O20 0.250000 0.616185 0.236302
O O21 0.153433 0.750000 0.195827
O O22 0.986733 0.250000 0.360399
#
# Coordination Sequence:
#
# PCOD8244920 Si02
#       8
#     8   8   8   8   8   8   8   8
#     4  10  21  39  62  87 116 149 185 230 288 346
#     4  11  22  37  55  80 113 149 187 234 286 338
#     4   9  18  35  58  81 108 146 192 238 282 329
#     4  10  21  37  58  85 116 151 192 235 280 339
#     4  10  21  38  58  83 114 148 189 234 286 341
#     4  11  21  35  55  81 111 149 195 238 282 333
#     4  10  21  36  53  78 114 152 189 230 279 334
#     4  10  22  39  61  88 115 147 187 234 286 344
#
# _framework density 19.162493999999999
#
# number of rings (size 3 to 8) (size 9 to 14) (size 15 to 20)
#    0.000    1.875    1.250    2.625    1.750    4.500 
#    0.000    0.625    0.000    4.125    0.000    0.000 
#    0.000    0.000    0.000    0.000    0.000    0.000 
#
# Total GULP energy -793471.536991 kJ/mol
# GULP energy per Si atom -12397.992765 kJ/mol
# Density = 1.911888 g / cm^3
# Si number density = 19.162494 Si / 1000 Ang^3
#
#
#
# Elastic Constant Matrix: (Units=GPa)
#
#
# Indices 1 2 3 4 5 6 
#
# 1 117.1343 53.5590 57.3558 0.0000 0.0000 0.0000
# 2 53.5590 92.0032 52.4971 0.0000 0.0000 0.0000
# 3 57.3558 52.4971 95.9939 0.0000 0.0000 0.0000
# 4 0.0000 0.0000 0.0000 35.2986 0.0000 0.0000
# 5 0.0000 0.0000 0.0000 0.0000 26.0733 0.0000
# 6 0.0000 0.0000 0.0000 0.0000 0.0000 30.7317
#
#
#
# Elastic Compliance Matrix: (Units=1/GPa)
#
#
# Indices 1 2 3 4 5 6 
#
# 1 0.013319 -0.004670 -0.005404 0.000000 0.000000 0.000000
# 2 -0.004670 0.017437 -0.006746 0.000000 0.000000 0.000000
# 3 -0.005404 -0.006746 0.017335 0.000000 0.000000 0.000000
# 4 0.000000 0.000000 0.000000 0.028330 0.000000 0.000000
# 5 0.000000 0.000000 0.000000 0.000000 0.038353 0.000000
# 6 0.000000 0.000000 0.000000 0.000000 0.000000 0.032540
#
#
# Mechanical properties :
#
#
# Convention : Reuss Voigt Hill
#
# Bulk Modulus (GPa) = 69.19570 70.21723 69.70646
# Shear Modulus (GPa) = 26.91512 27.86869 27.39191
#
# Velocity S-wave (km/s) = 3.75183 3.81771 3.78491
# Velocity P-wave (km/s) = 7.41328 7.49372 7.45361
#
# Compressibility (1/GPa) = 0.01445177
#
# Stress axis : x y z
#
# Youngs Moduli (GPa) = 75.08343 57.35017 57.68609
#
# Poissons Ratio (x) = 0.26781 0.31173
# Poissons Ratio (y) = 0.35062 0.38913
# Poissons Ratio (z) = 0.40575 0.38686
#
# Static dielectric constant tensor:
#      x y z
#    x 3.217850 0.000000 0.000000 
#    y 0.000000 3.579120 0.000000 
#    z 0.000000 0.000000 3.397390 
# 
# 
# High freq. dielectric constant tensor:
#      x y z
#    x 1.747680 0.000000 0.000000 
#    y 0.000000 1.745170 0.000000 
#    z 0.000000 0.000000 1.738530 
# 
# From -- ./inp_files/24711.got.cif
#   From: 2010.03.12/outbox.cif.g09.slc.cpg/sg59_13_cif.got.tgz:24711.got - 2010.04.16 16:29:54.
