data_PCOD8244802
_publ_section_title
;
Structure prediction by ZEFSAII (Michael W. Deem and Ramdas Pophale) SiO2 
 PCOD8244802
Probable space group: P M M N
;
_chemical_formula_sum "Si O2"
_cell_formula_units_Z 64
_cell_length_a 9.109808
_cell_length_b 29.122866
_cell_length_c 12.450203
_cell_angle_alpha 90.000000
_cell_angle_beta 90.000000
_cell_angle_gamma 90.000000
_cell_volume 3303.085142
_symmetry_space_group_name_H-M "P M M N"
_symmetry_group_IT_number 59
_space_group.IT_coordinate_system_code '2'
_symmetry_cell_setting 'orthorhombic'
loop_
_space_group_symop_operation_xyz
x,y,z
1/2-x,1/2-y,z
1/2+x,-y,-z
-x,1/2+y,-z
-x,-y,-z
1/2+x,1/2+y,-z
1/2-x,y,z
x,1/2-y,z
loop_
_atom_site_type_symbol
_atom_site_label
_atom_site_fract_x
_atom_site_fract_y
_atom_site_fract_z
Si Si1 0.581103 0.890248 0.392023
Si Si2 0.413884 0.681525 0.669161
Si Si3 0.420013 0.066023 0.835536
Si Si4 0.080782 0.198451 0.120794
Si Si5 0.424689 0.887277 0.974682
Si Si6 0.424386 0.963676 0.808843
Si Si7 0.915171 0.079830 0.401816
Si Si8 0.420414 0.800409 0.429843
O O1 0.750000 0.882451 0.418387
O O2 0.555690 0.920608 0.287614
O O3 0.512737 0.917843 0.491854
O O4 0.511239 0.840070 0.370983
O O5 0.250000 0.698705 0.699587
O O6 0.528480 0.699095 0.756211
O O7 0.415004 0.626833 0.664664
O O8 0.463361 0.701740 0.554967
O O9 0.250000 0.071457 0.868679
O O10 0.519020 0.098753 0.908116
O O11 0.475250 0.013592 0.849734
O O12 0.250000 0.183192 0.116902
O O13 0.061455 0.250000 0.073611
O O14 0.985375 0.163156 0.051336
O O15 0.250000 0.884952 0.974811
O O16 0.485833 0.924774 0.889459
O O17 0.250000 0.960594 0.806373
O O18 0.479501 0.956302 0.685551
O O19 0.750000 0.067147 0.438445
O O20 0.250000 0.813595 0.418639
O O21 0.453515 0.750000 0.379271
#
# Coordination Sequence:
#
# PCOD8244802 Si02
#       8
#     8   8   8   8   8   8   8   8
#     4  10  21  35  52  80 116 150 184 225 277 333
#     4   9  16  30  52  79 111 144 179 222 271 324
#     4  10  22  40  59  80 112 151 188 232 285 334
#     4  11  23  36  53  81 116 150 181 219 276 339
#     4  11  22  39  62  85 110 142 189 238 278 329
#     4   9  18  36  61  86 112 145 184 230 284 335
#     4   9  17  33  56  81 114 151 184 223 272 324
#     4   9  18  33  54  78 105 143 189 232 275 325
#
# _framework density 19.375824000000001
#
# number of rings (size 3 to 8) (size 9 to 14) (size 15 to 20)
#    0.000    2.250    1.250    2.625    0.000    5.250 
#    0.000    1.875    0.000    0.750    0.000    0.000 
#    0.000    0.000    0.000    0.000    0.000    0.000 
#
# Total GULP energy -793503.999978 kJ/mol
# GULP energy per Si atom -12398.500000 kJ/mol
# Density = 1.933172 g / cm^3
# Si number density = 19.375824 Si / 1000 Ang^3
#
#
#
# Elastic Constant Matrix: (Units=GPa)
#
#
# Indices 1 2 3 4 5 6 
#
# 1 86.4356 44.0795 42.0986 0.0000 0.0000 0.0000
# 2 44.0795 101.2672 36.5998 0.0000 0.0000 0.0000
# 3 42.0986 36.5998 70.0219 0.0000 0.0000 0.0000
# 4 0.0000 0.0000 0.0000 9.6870 0.0000 0.0000
# 5 0.0000 0.0000 0.0000 0.0000 31.1906 0.0000
# 6 0.0000 0.0000 0.0000 0.0000 0.0000 20.5494
#
#
#
# Elastic Compliance Matrix: (Units=1/GPa)
#
#
# Indices 1 2 3 4 5 6 
#
# 1 0.018118 -0.004869 -0.008348 0.000000 0.000000 0.000000
# 2 -0.004869 0.013484 -0.004120 0.000000 0.000000 0.000000
# 3 -0.008348 -0.004120 0.021454 0.000000 0.000000 0.000000
# 4 0.000000 0.000000 0.000000 0.103231 0.000000 0.000000
# 5 0.000000 0.000000 0.000000 0.000000 0.032061 0.000000
# 6 0.000000 0.000000 0.000000 0.000000 0.000000 0.048663
#
#
# Mechanical properties :
#
#
# Convention : Reuss Voigt Hill
#
# Bulk Modulus (GPa) = 54.40492 55.92002 55.16247
# Shear Modulus (GPa) = 17.99773 21.28186 19.63980
#
# Velocity S-wave (km/s) = 3.05105 3.31776 3.18720
# Velocity P-wave (km/s) = 6.36801 6.60304 6.48659
#
# Compressibility (1/GPa) = 0.01838069
#
# Stress axis : x y z
#
# Youngs Moduli (GPa) = 55.19222 74.16460 46.61194
#
# Poissons Ratio (x) = 0.36114 0.38912
# Poissons Ratio (y) = 0.26876 0.19204
# Poissons Ratio (z) = 0.46074 0.30556
#
# Static dielectric constant tensor:
#      x y z
#    x 3.395880 0.000000 0.000000 
#    y 0.000000 3.798210 0.000000 
#    z 0.000000 0.000000 3.320050 
# 
# 
# High freq. dielectric constant tensor:
#      x y z
#    x 1.738390 0.000000 0.000000 
#    y 0.000000 1.762810 0.000000 
#    z 0.000000 0.000000 1.736840 
# 
# From -- ./inp_files/15028.got.cif
#   From: 2010.03.12/outbox.cif.g09.slc.cpg/sg59_8_cif.got.tgz:15028.got - 2010.04.16 16:29:54.
