data_PCOD8244179
_publ_section_title
;
Structure prediction by ZEFSAII (Michael W. Deem and Ramdas Pophale) SiO2 
 PCOD8244179
Probable space group: P M M N
;
_chemical_formula_sum "Si O2"
_cell_formula_units_Z 40
_cell_length_a 13.748314
_cell_length_b 18.558236
_cell_length_c 7.949489
_cell_angle_alpha 90.000000
_cell_angle_beta 90.000000
_cell_angle_gamma 90.000000
_cell_volume 2028.268045
_symmetry_space_group_name_H-M "P M M N"
_symmetry_group_IT_number 59
_space_group.IT_coordinate_system_code '2'
_symmetry_cell_setting 'orthorhombic'
loop_
_space_group_symop_operation_xyz
x,y,z
1/2-x,1/2-y,z
1/2+x,-y,-z
-x,1/2+y,-z
-x,-y,-z
1/2+x,1/2+y,-z
1/2-x,y,z
x,1/2-y,z
loop_
_atom_site_type_symbol
_atom_site_label
_atom_site_fract_x
_atom_site_fract_y
_atom_site_fract_z
Si Si1 0.135786 0.025086 0.593044
Si Si2 0.135161 0.939214 0.914132
Si Si3 0.474507 0.168624 0.088255
Si Si4 0.365108 0.461039 0.226884
Si Si5 0.860591 0.671309 0.253919
O O1 0.250000 0.012611 0.605483
O O2 0.091778 0.977182 0.744864
O O3 0.098744 0.003593 0.405383
O O4 0.109270 0.109394 0.615805
O O5 0.250000 0.926920 0.910314
O O6 0.084414 0.861690 0.927294
O O7 0.103650 0.988292 0.072602
O O8 0.477805 0.250000 0.160655
O O9 0.411250 0.118053 0.209689
O O10 0.429294 0.167208 0.904969
O O11 0.250000 0.450262 0.233264
O O12 0.750000 0.658442 0.190655
O O13 0.870829 0.750000 0.341225
#
# Coordination Sequence:
#
# PCOD8244179 Si02
#       5
#     8   8   8   8   8
#     4   9  18  33  56  82 106 139 176 214 267 319
#     4  10  21  39  57  76 107 142 183 230 265 306
#     4  11  22  35  54  81 110 145 181 216 268 324
#     4  10  20  35  59  86 108 136 177 223 272 323
#     4   9  17  31  51  77 112 144 169 209 268 328
#
# _framework density 19.721259
#
# number of rings (size 3 to 8) (size 9 to 14) (size 15 to 20)
#    0.000    2.200    2.000    1.200    0.000    3.200 
#    0.000    2.000    0.000    0.000    0.000    5.600 
#    0.000    0.000    0.000    0.000    0.000    0.000 
#
# Total GULP energy -495819.770620 kJ/mol
# GULP energy per Si atom -12395.494266 kJ/mol
# Density = 1.967637 g / cm^3
# Si number density = 19.721259 Si / 1000 Ang^3
#
#
#
# Elastic Constant Matrix: (Units=GPa)
#
#
# Indices 1 2 3 4 5 6 
#
# 1 43.6932 38.2583 32.6396 0.0000 0.0000 0.0000
# 2 38.2583 102.5531 42.0549 0.0000 0.0000 0.0000
# 3 32.6396 42.0549 130.0318 0.0000 0.0000 0.0000
# 4 0.0000 0.0000 0.0000 18.2471 0.0000 0.0000
# 5 0.0000 0.0000 0.0000 0.0000 17.9352 0.0000
# 6 0.0000 0.0000 0.0000 0.0000 0.0000 32.2378
#
#
#
# Elastic Compliance Matrix: (Units=1/GPa)
#
#
# Indices 1 2 3 4 5 6 
#
# 1 0.037212 -0.011589 -0.005593 0.000000 0.000000 0.000000
# 2 -0.011589 0.014851 -0.001894 0.000000 0.000000 0.000000
# 3 -0.005593 -0.001894 0.009707 0.000000 0.000000 0.000000
# 4 0.000000 0.000000 0.000000 0.054803 0.000000 0.000000
# 5 0.000000 0.000000 0.000000 0.000000 0.055756 0.000000
# 6 0.000000 0.000000 0.000000 0.000000 0.000000 0.031020
#
#
# Mechanical properties :
#
#
# Convention : Reuss Voigt Hill
#
# Bulk Modulus (GPa) = 42.33938 55.79819 49.06879
# Shear Modulus (GPa) = 20.05028 24.57237 22.31132
#
# Velocity S-wave (km/s) = 3.19201 3.53368 3.36718
# Velocity P-wave (km/s) = 5.92459 6.70850 6.32869
#
# Compressibility (1/GPa) = 0.02361867
#
# Stress axis : x y z
#
# Youngs Moduli (GPa) = 26.87306 67.33491 103.01976
#
# Poissons Ratio (x) = 0.78033 0.57615
# Poissons Ratio (y) = 0.31143 0.19514
# Poissons Ratio (z) = 0.15029 0.12755
#
# Static dielectric constant tensor:
#      x y z
#    x 3.485670 0.000000 0.000000 
#    y 0.000000 3.703210 0.000000 
#    z 0.000000 0.000000 3.784940 
# 
# 
# High freq. dielectric constant tensor:
#      x y z
#    x 1.771420 0.000000 0.000000 
#    y 0.000000 1.751970 0.000000 
#    z 0.000000 0.000000 1.765860 
# 
# From -- ./inp_files/8611.got.cif
#   From: 2010.03.12/outbox.cif.g09.slc.cpg/sg59_5_cif.got.tgz:8611.got - 2010.04.16 16:29:54.
