data_PCOD8244107
_publ_section_title
;
Structure prediction by ZEFSAII (Michael W. Deem and Ramdas Pophale) SiO2 
 PCOD8244107
Probable space group: P M M N
;
_chemical_formula_sum "Si O2"
_cell_formula_units_Z 64
_cell_length_a 8.881057
_cell_length_b 14.090706
_cell_length_c 25.366722
_cell_angle_alpha 90.000000
_cell_angle_beta 90.000000
_cell_angle_gamma 90.000000
_cell_volume 3174.400803
_symmetry_space_group_name_H-M "P M M N"
_symmetry_group_IT_number 59
_space_group.IT_coordinate_system_code '2'
_symmetry_cell_setting 'orthorhombic'
loop_
_space_group_symop_operation_xyz
x,y,z
1/2-x,1/2-y,z
1/2+x,-y,-z
-x,1/2+y,-z
-x,-y,-z
1/2+x,1/2+y,-z
1/2-x,y,z
x,1/2-y,z
loop_
_atom_site_type_symbol
_atom_site_label
_atom_site_fract_x
_atom_site_fract_y
_atom_site_fract_z
Si Si1 0.082938 0.637349 0.469116
Si Si2 0.923516 0.640915 0.972292
Si Si3 0.574488 0.357237 0.915601
Si Si4 0.425851 0.139579 0.217271
Si Si5 0.073555 0.357344 0.635619
Si Si6 0.074247 0.860178 0.585395
Si Si7 0.573315 0.529747 0.679085
Si Si8 0.427737 0.533602 0.878185
O O1 0.250000 0.599140 0.455076
O O2 0.088735 0.750000 0.473738
O O3 0.031185 0.600333 0.526876
O O4 0.969462 0.605470 0.423030
O O5 0.750000 0.607846 0.970407
O O6 0.938388 0.750000 0.954882
O O7 0.022495 0.578489 0.933339
O O8 0.986585 0.625117 0.030355
O O9 0.750000 0.377400 0.924707
O O10 0.548127 0.250000 0.895064
O O11 0.506074 0.429981 0.872662
O O12 0.250000 0.122146 0.206126
O O13 0.461202 0.250000 0.225038
O O14 0.482336 0.085971 0.269543
O O15 0.520484 0.101176 0.168654
O O16 0.250000 0.363680 0.641928
O O17 0.014952 0.250000 0.644513
O O18 0.998391 0.424530 0.679408
O O19 0.250000 0.878165 0.596649
O O20 0.033914 0.750000 0.590691
O O21 0.974753 0.915390 0.626983
O O22 0.750000 0.518706 0.679753
O O23 0.250000 0.521500 0.876528
#
# Coordination Sequence:
#
# PCOD8244107 Si02
#       8
#     8   8   8   8   8   8   8   8
#     4   8  15  30  52  78 109 145 183 223 270 326
#     4  10  20  35  57  86 122 161 198 239 286 335
#     4  10  21  38  60  86 119 158 198 239 282 332
#     4  10  23  44  65  85 112 145 185 233 280 329
#     4  10  21  37  57  81 110 144 183 229 279 331
#     4   9  18  33  54  81 114 149 183 224 276 333
#     4  11  23  38  59  84 109 143 186 231 281 336
#     4  12  24  37  58  87 118 153 194 238 286 341
#
# _framework density 20.161283999999998
#
# number of rings (size 3 to 8) (size 9 to 14) (size 15 to 20)
#    0.000    2.000    0.000    4.500    0.000    6.750 
#    0.000    1.875    0.000    0.750    0.000    0.000 
#    0.000    0.000    0.000    0.000    0.000    0.000 
#
# Total GULP energy -793705.571192 kJ/mol
# GULP energy per Si atom -12401.649550 kJ/mol
# Density = 2.011540 g / cm^3
# Si number density = 20.161284 Si / 1000 Ang^3
#
#
#
# Elastic Constant Matrix: (Units=GPa)
#
#
# Indices 1 2 3 4 5 6 
#
# 1 77.2420 42.0852 26.7520 0.0000 0.0000 0.0000
# 2 42.0852 99.5187 41.2549 0.0000 0.0000 0.0000
# 3 26.7520 41.2549 54.7416 0.0000 0.0000 0.0000
# 4 0.0000 0.0000 0.0000 35.3375 0.0000 0.0000
# 5 0.0000 0.0000 0.0000 0.0000 29.4290 0.0000
# 6 0.0000 0.0000 0.0000 0.0000 0.0000 32.3197
#
#
#
# Elastic Compliance Matrix: (Units=1/GPa)
#
#
# Indices 1 2 3 4 5 6 
#
# 1 0.017500 -0.005607 -0.004327 0.000000 0.000000 0.000000
# 2 -0.005607 0.016410 -0.009627 0.000000 0.000000 0.000000
# 3 -0.004327 -0.009627 0.027637 0.000000 0.000000 0.000000
# 4 0.000000 0.000000 0.000000 0.028299 0.000000 0.000000
# 5 0.000000 0.000000 0.000000 0.000000 0.033980 0.000000
# 6 0.000000 0.000000 0.000000 0.000000 0.000000 0.030941
#
#
# Mechanical properties :
#
#
# Convention : Reuss Voigt Hill
#
# Bulk Modulus (GPa) = 44.59093 50.18740 47.38916
# Shear Modulus (GPa) = 24.83071 27.51125 26.17098
#
# Velocity S-wave (km/s) = 3.51323 3.69800 3.60680
# Velocity P-wave (km/s) = 6.21467 6.57120 6.39542
#
# Compressibility (1/GPa) = 0.02242609
#
# Stress axis : x y z
#
# Youngs Moduli (GPa) = 57.14399 60.93720 36.18287
#
# Poissons Ratio (x) = 0.34166 0.15655
# Poissons Ratio (y) = 0.32040 0.34834
# Poissons Ratio (z) = 0.24724 0.58666
#
# Static dielectric constant tensor:
#      x y z
#    x 3.611420 0.000000 0.000000 
#    y 0.000000 3.960500 0.000000 
#    z 0.000000 0.000000 3.607370 
# 
# 
# High freq. dielectric constant tensor:
#      x y z
#    x 1.788320 0.000000 0.000000 
#    y 0.000000 1.801200 0.000000 
#    z 0.000000 0.000000 1.768150 
# 
# From -- ./inp_files/31551.got.cif
#   From: 2010.03.12/outbox.cif.g09.slc.cpg/sg59_16_cif.got.tgz:31551.got - 2010.04.16 16:29:54.
