data_PCOD8244615
_publ_section_title
;
Structure prediction by ZEFSAII (Michael W. Deem and Ramdas Pophale) SiO2 
 PCOD8244615
Probable space group: P M M N
;
_chemical_formula_sum "Si O2"
_cell_formula_units_Z 38
_cell_length_a 7.450073
_cell_length_b 11.407402
_cell_length_c 23.612091
_cell_angle_alpha 90.000000
_cell_angle_beta 90.000000
_cell_angle_gamma 90.000000
_cell_volume 2006.696638
_symmetry_space_group_name_H-M "P M M N"
_symmetry_group_IT_number 59
_space_group.IT_coordinate_system_code '2'
_symmetry_cell_setting 'orthorhombic'
loop_
_space_group_symop_operation_xyz
x,y,z
1/2-x,1/2-y,z
1/2+x,-y,-z
-x,1/2+y,-z
-x,-y,-z
1/2+x,1/2+y,-z
1/2-x,y,z
x,1/2-y,z
loop_
_atom_site_type_symbol
_atom_site_label
_atom_site_fract_x
_atom_site_fract_y
_atom_site_fract_z
Si Si1 0.957730 0.981302 0.935086
Si Si2 0.250000 0.750000 0.784869
Si Si3 0.464681 0.250000 0.120985
Si Si4 0.039823 0.884712 0.172152
Si Si5 0.250000 0.380945 0.631063
Si Si6 0.457402 0.614929 0.461715
Si Si7 0.250000 0.498305 0.749633
O O1 0.750000 0.970941 0.927543
O O2 0.039808 0.859129 0.914835
O O3 0.024821 0.082499 0.891983
O O4 0.000000 0.000000 0.000000
O O5 0.434889 0.750000 0.819768
O O6 0.250000 0.637525 0.745250
O O7 0.250000 0.250000 0.131401
O O8 0.250000 0.913008 0.181130
O O9 0.995752 0.750000 0.181269
O O10 0.928850 0.956026 0.218366
O O11 0.250000 0.250000 0.655028
O O12 0.427519 0.404397 0.594474
O O13 0.250000 0.463601 0.684706
O O14 0.500000 0.500000 0.500000
O O15 0.250000 0.609807 0.444955
O O16 0.499474 0.750000 0.486208
#
# Coordination Sequence:
#
# PCOD8244615 Si02
#       7
#     8   2   4   8   4   8   4
#     4  10  22  36  55  82 111 144 189 244 303 373
#     4  12  24  40  68  80 116 172 202 248 310 364
#     4  10  22  42  58  80 112 154 196 240 309 380
#     4  10  22  40  60  85 114 150 193 251 309 364
#     4  10  22  40  62  94 132 166 210 257 300 356
#     4  10  20  37  64  97 133 174 210 251 306 358
#     4  12  24  42  64  90 118 162 211 249 303 360
#
# _framework density 18.936592999999998
#
# number of rings (size 3 to 8) (size 9 to 14) (size 15 to 20)
#    0.000    1.684    3.158    0.947    4.421    0.842 
#    1.895    2.105    0.000    0.000    0.000    0.000 
#    0.000    0.000    0.000    0.000    0.000    0.000 
#
# Total GULP energy -470788.523424 kJ/mol
# GULP energy per Si atom -12389.171669 kJ/mol
# Density = 1.889349 g / cm^3
# Si number density = 18.936593 Si / 1000 Ang^3
#
#
#
# Elastic Constant Matrix: (Units=GPa)
#
#
# Indices 1 2 3 4 5 6 
#
# 1 94.3425 48.1673 45.3161 0.0000 0.0000 0.0000
# 2 48.1673 171.4596 81.3701 0.0000 0.0000 0.0000
# 3 45.3161 81.3701 130.3135 0.0000 0.0000 0.0000
# 4 0.0000 0.0000 0.0000 40.8401 0.0000 0.0000
# 5 0.0000 0.0000 0.0000 0.0000 21.0018 0.0000
# 6 0.0000 0.0000 0.0000 0.0000 0.0000 16.5952
#
#
#
# Elastic Compliance Matrix: (Units=1/GPa)
#
#
# Indices 1 2 3 4 5 6 
#
# 1 0.013278 -0.002187 -0.003252 0.000000 0.000000 0.000000
# 2 -0.002187 0.008649 -0.004640 0.000000 0.000000 0.000000
# 3 -0.003252 -0.004640 0.011702 0.000000 0.000000 0.000000
# 4 0.000000 0.000000 0.000000 0.024486 0.000000 0.000000
# 5 0.000000 0.000000 0.000000 0.000000 0.047615 0.000000
# 6 0.000000 0.000000 0.000000 0.000000 0.000000 0.060258
#
#
# Mechanical properties :
#
#
# Convention : Reuss Voigt Hill
#
# Bulk Modulus (GPa) = 74.23176 82.86919 78.55047
# Shear Modulus (GPa) = 26.22805 30.43823 28.33314
#
# Velocity S-wave (km/s) = 3.72566 4.01356 3.87229
# Velocity P-wave (km/s) = 7.60215 8.08298 7.84625
#
# Compressibility (1/GPa) = 0.01347132
#
# Stress axis : x y z
#
# Youngs Moduli (GPa) = 75.31126 115.62592 85.45661
#
# Poissons Ratio (x) = 0.25286 0.27790
# Poissons Ratio (y) = 0.16470 0.39650
# Poissons Ratio (z) = 0.24491 0.53649
#
# Static dielectric constant tensor:
#      x y z
#    x 4.397860 0.000000 0.000000 
#    y 0.000000 3.293130 0.000000 
#    z 0.000000 0.000000 3.097640 
# 
# 
# High freq. dielectric constant tensor:
#      x y z
#    x 1.750680 0.000000 0.000000 
#    y 0.000000 1.755540 0.000000 
#    z 0.000000 0.000000 1.707460 
# 
# From -- ./inp_files/25302.got.cif
#   From: 2010.03.12/outbox.cif.g09.slc.cpg/sg59_13_cif.got.tgz:25302.got - 2010.04.16 16:29:54.
