data_PCOD8244707
_publ_section_title
;
Structure prediction by ZEFSAII (Michael W. Deem and Ramdas Pophale) SiO2 
 PCOD8244707
Probable space group: P M M N
;
_chemical_formula_sum "Si O2"
_cell_formula_units_Z 48
_cell_length_a 7.591429
_cell_length_b 18.832429
_cell_length_c 16.779568
_cell_angle_alpha 90.000000
_cell_angle_beta 90.000000
_cell_angle_gamma 90.000000
_cell_volume 2398.891739
_symmetry_space_group_name_H-M "P M M N"
_symmetry_group_IT_number 59
_space_group.IT_coordinate_system_code '2'
_symmetry_cell_setting 'orthorhombic'
loop_
_space_group_symop_operation_xyz
x,y,z
1/2-x,1/2-y,z
1/2+x,-y,-z
-x,1/2+y,-z
-x,-y,-z
1/2+x,1/2+y,-z
1/2-x,y,z
x,1/2-y,z
loop_
_atom_site_type_symbol
_atom_site_label
_atom_site_fract_x
_atom_site_fract_y
_atom_site_fract_z
Si Si1 0.750000 0.168130 0.911482
Si Si2 0.546994 0.584476 0.177409
Si Si3 0.450054 0.672607 0.505906
Si Si4 0.545006 0.586037 0.358729
Si Si5 0.750000 0.331904 0.099585
Si Si6 0.960233 0.072544 0.357412
Si Si7 0.549544 0.921093 0.819186
O O1 0.750000 0.250000 0.884440
O O2 0.574379 0.130520 0.879847
O O3 0.750000 0.160319 0.005451
O O4 0.750000 0.601149 0.157070
O O5 0.501675 0.606902 0.267932
O O6 0.513737 0.501174 0.165359
O O7 0.250000 0.682085 0.532298
O O8 0.543486 0.750000 0.505896
O O9 0.451531 0.640528 0.417534
O O10 0.538561 0.621666 0.572036
O O11 0.750000 0.590272 0.376392
O O12 0.473454 0.506982 0.376072
O O13 0.750000 0.250000 0.126455
O O14 0.573424 0.368095 0.132086
O O15 0.750000 0.073177 0.350337
O O16 0.038850 0.098879 0.273962
O O17 0.750000 0.911635 0.848947
#
# Coordination Sequence:
#
# PCOD8244707 Si02
#       7
#     4   8   8   8   4   8   8
#     4  11  26  44  66  97 130 170 207 251 324 386
#     4  10  21  42  67  96 127 163 214 265 313 372
#     4  10  21  33  49  79 116 158 204 247 299 360
#     4   9  19  34  56  80 113 155 199 254 305 354
#     4  11  26  46  64  93 138 168 197 259 326 382
#     4   9  18  36  57  82 118 156 201 256 309 358
#     4  11  21  40  69  98 123 162 217 262 311 378
#
# _framework density 20.009239000000001
#
# number of rings (size 3 to 8) (size 9 to 14) (size 15 to 20)
#    0.000    2.000    2.500    1.500    1.167    5.000 
#    0.000    3.333    0.000    0.000    0.000    0.000 
#    0.000    0.000    0.000    0.000    0.000    0.000 
#
# Total GULP energy -595197.037887 kJ/mol
# GULP energy per Si atom -12399.938289 kJ/mol
# Density = 1.996370 g / cm^3
# Si number density = 20.009239 Si / 1000 Ang^3
#
#
#
# Elastic Constant Matrix: (Units=GPa)
#
#
# Indices 1 2 3 4 5 6 
#
# 1 95.5176 42.6210 37.2847 0.0000 0.0000 0.0000
# 2 42.6210 130.5191 74.6176 0.0000 0.0000 0.0000
# 3 37.2847 74.6176 100.0738 0.0000 0.0000 0.0000
# 4 0.0000 0.0000 0.0000 21.7331 0.0000 0.0000
# 5 0.0000 0.0000 0.0000 0.0000 16.6674 0.0000
# 6 0.0000 0.0000 0.0000 0.0000 0.0000 17.3889
#
#
#
# Elastic Compliance Matrix: (Units=1/GPa)
#
#
# Indices 1 2 3 4 5 6 
#
# 1 0.012708 -0.002515 -0.002859 0.000000 0.000000 0.000000
# 2 -0.002515 0.013852 -0.009391 0.000000 0.000000 0.000000
# 3 -0.002859 -0.009391 0.018060 0.000000 0.000000 0.000000
# 4 0.000000 0.000000 0.000000 0.046013 0.000000 0.000000
# 5 0.000000 0.000000 0.000000 0.000000 0.059997 0.000000
# 6 0.000000 0.000000 0.000000 0.000000 0.000000 0.057508
#
#
# Mechanical properties :
#
#
# Convention : Reuss Voigt Hill
#
# Bulk Modulus (GPa) = 66.27490 70.57302 68.42396
# Shear Modulus (GPa) = 20.60163 22.59701 21.59932
#
# Velocity S-wave (km/s) = 3.21223 3.36419 3.28909
# Velocity P-wave (km/s) = 6.85215 7.10191 6.97815
#
# Compressibility (1/GPa) = 0.01508867
#
# Stress axis : x y z
#
# Youngs Moduli (GPa) = 78.69310 72.19131 55.36977
#
# Poissons Ratio (x) = 0.18157 0.15831
# Poissons Ratio (y) = 0.19792 0.52000
# Poissons Ratio (z) = 0.22500 0.67798
#
# Static dielectric constant tensor:
#      x y z
#    x 3.554420 0.000000 0.000000 
#    y 0.000000 3.814680 0.000000 
#    z 0.000000 0.000000 3.587310 
# 
# 
# High freq. dielectric constant tensor:
#      x y z
#    x 1.781240 0.000000 0.000000 
#    y 0.000000 1.777180 0.000000 
#    z 0.000000 0.000000 1.777920 
# 
# From -- ./inp_files/20564.got.cif
#   From: 2010.03.12/outbox.cif.g09.slc.cpg/sg59_11_cif.got.tgz:20564.got - 2010.04.16 16:29:54.
