data_PCOD8244533
_publ_section_title
;
Structure prediction by ZEFSAII (Michael W. Deem and Ramdas Pophale) SiO2 
 PCOD8244533
Probable space group: P M M N
;
_chemical_formula_sum "Si O2"
_cell_formula_units_Z 48
_cell_length_a 8.953642
_cell_length_b 15.955847
_cell_length_c 16.829499
_cell_angle_alpha 90.000000
_cell_angle_beta 90.000000
_cell_angle_gamma 90.000000
_cell_volume 2404.311737
_symmetry_space_group_name_H-M "P M M N"
_symmetry_group_IT_number 59
_space_group.IT_coordinate_system_code '2'
_symmetry_cell_setting 'orthorhombic'
loop_
_space_group_symop_operation_xyz
x,y,z
1/2-x,1/2-y,z
1/2+x,-y,-z
-x,1/2+y,-z
-x,-y,-z
1/2+x,1/2+y,-z
1/2-x,y,z
x,1/2-y,z
loop_
_atom_site_type_symbol
_atom_site_label
_atom_site_fract_x
_atom_site_fract_y
_atom_site_fract_z
Si Si1 0.918577 0.845928 0.499796
Si Si2 0.919980 0.345147 0.194688
Si Si3 0.574109 0.385942 0.661877
Si Si4 0.920585 0.750000 0.235810
Si Si5 0.425597 0.424856 0.340175
Si Si6 0.577303 0.750000 0.048010
Si Si7 0.573489 0.413124 0.026515
O O1 0.750000 0.875773 0.478673
O O2 0.917318 0.750000 0.526508
O O3 0.988384 0.897629 0.573609
O O4 0.024413 0.857146 0.424787
O O5 0.750000 0.357653 0.221117
O O6 0.951041 0.250000 0.167490
O O7 0.958637 0.404458 0.120357
O O8 0.019303 0.365700 0.270222
O O9 0.750000 0.373785 0.668115
O O10 0.497783 0.332711 0.730557
O O11 0.523539 0.480861 0.677344
O O12 0.750000 0.750000 0.264599
O O13 0.935599 0.750000 0.142200
O O14 0.250000 0.414952 0.344051
O O15 0.750000 0.750000 0.020398
O O16 0.497869 0.834121 0.018094
O O17 0.750000 0.414344 0.008423
O O18 0.500000 0.500000 0.000000
#
# Coordination Sequence:
#
# PCOD8244533 Si02
#       7
#     8   8   8   4   8   4   8
#     4  10  20  37  60  85 120 163 202 244 303 363
#     4  10  22  42  64  90 125 164 204 251 308 364
#     4  11  23  39  60  89 122 156 203 254 304 362
#     4  11  25  43  63  86 119 160 203 251 312 373
#     4  10  23  39  59  91 124 159 203 251 302 361
#     4  11  25  45  69  98 127 168 219 263 324 393
#     4  11  24  44  68  97 133 171 213 266 323 385
#
# _framework density 19.964133
#
# number of rings (size 3 to 8) (size 9 to 14) (size 15 to 20)
#    0.000    1.500    1.667    2.500    2.333    5.667 
#    0.000    0.000    0.000    0.000    0.000    0.000 
#    0.000    0.000    0.000    0.000    0.000    0.000 
#
# Total GULP energy -595361.762647 kJ/mol
# GULP energy per Si atom -12403.370055 kJ/mol
# Density = 1.991869 g / cm^3
# Si number density = 19.964133 Si / 1000 Ang^3
#
#
#
# Elastic Constant Matrix: (Units=GPa)
#
#
# Indices 1 2 3 4 5 6 
#
# 1 78.5376 46.1412 32.1650 0.0000 0.0000 0.0000
# 2 46.1412 109.2895 33.0373 0.0000 0.0000 0.0000
# 3 32.1650 33.0373 83.0379 0.0000 0.0000 0.0000
# 4 0.0000 0.0000 0.0000 42.8073 0.0000 0.0000
# 5 0.0000 0.0000 0.0000 0.0000 29.6429 0.0000
# 6 0.0000 0.0000 0.0000 0.0000 0.0000 31.2624
#
#
#
# Elastic Compliance Matrix: (Units=1/GPa)
#
#
# Indices 1 2 3 4 5 6 
#
# 1 0.018344 -0.006362 -0.004574 0.000000 0.000000 0.000000
# 2 -0.006362 0.012607 -0.002552 0.000000 0.000000 0.000000
# 3 -0.004574 -0.002552 0.014830 0.000000 0.000000 0.000000
# 4 0.000000 0.000000 0.000000 0.023361 0.000000 0.000000
# 5 0.000000 0.000000 0.000000 0.000000 0.033735 0.000000
# 6 0.000000 0.000000 0.000000 0.000000 0.000000 0.031987
#
#
# Mechanical properties :
#
#
# Convention : Reuss Voigt Hill
#
# Bulk Modulus (GPa) = 53.17700 54.83910 54.00805
# Shear Modulus (GPa) = 29.74285 31.37729 30.56007
#
# Velocity S-wave (km/s) = 3.86400 3.96875 3.91672
# Velocity P-wave (km/s) = 6.82652 6.96633 6.89678
#
# Compressibility (1/GPa) = 0.01880512
#
# Stress axis : x y z
#
# Youngs Moduli (GPa) = 54.51433 79.31948 67.43176
#
# Poissons Ratio (x) = 0.50461 0.30846
# Poissons Ratio (y) = 0.34681 0.17206
# Poissons Ratio (z) = 0.24937 0.20239
#
# Static dielectric constant tensor:
#      x y z
#    x 3.684200 0.000000 0.000000 
#    y 0.000000 3.939760 0.000000 
#    z 0.000000 0.000000 3.591490 
# 
# 
# High freq. dielectric constant tensor:
#      x y z
#    x 1.780450 0.000000 0.000000 
#    y 0.000000 1.792950 0.000000 
#    z 0.000000 0.000000 1.787260 
# 
# From -- ./inp_files/25612.got.cif
#   From: 2010.03.12/outbox.cif.g09.slc.cpg/sg59_13_cif.got.tgz:25612.got - 2010.04.16 16:29:54.
