data_PCOD8244097
_publ_section_title
;
Structure prediction by ZEFSAII (Michael W. Deem and Ramdas Pophale) SiO2 
 PCOD8244097
Probable space group: P M M N
;
_chemical_formula_sum "Si O2"
_cell_formula_units_Z 64
_cell_length_a 18.232280
_cell_length_b 9.045358
_cell_length_c 21.067001
_cell_angle_alpha 90.000000
_cell_angle_beta 90.000000
_cell_angle_gamma 90.000000
_cell_volume 3474.317132
_symmetry_space_group_name_H-M "P M M N"
_symmetry_group_IT_number 59
_space_group.IT_coordinate_system_code '2'
_symmetry_cell_setting 'orthorhombic'
loop_
_space_group_symop_operation_xyz
x,y,z
1/2-x,1/2-y,z
1/2+x,-y,-z
-x,1/2+y,-z
-x,-y,-z
1/2+x,1/2+y,-z
1/2-x,y,z
x,1/2-y,z
loop_
_atom_site_type_symbol
_atom_site_label
_atom_site_fract_x
_atom_site_fract_y
_atom_site_fract_z
Si Si1 0.077675 0.576694 0.502830
Si Si2 0.164684 0.920833 0.628252
Si Si3 0.037368 0.422122 0.941086
Si Si4 0.331169 0.424306 0.253466
Si Si5 0.335956 0.417119 0.396441
Si Si6 0.386719 0.075865 0.753708
Si Si7 0.460536 0.918027 0.190447
Si Si8 0.666475 0.420543 0.123990
O O1 0.065561 0.750000 0.500644
O O2 0.120267 0.528946 0.566308
O O3 0.124425 0.530460 0.442262
O O4 0.000000 0.500000 0.500000
O O5 0.250000 0.948368 0.614592
O O6 0.149565 0.750000 0.645541
O O7 0.137903 0.023828 0.684938
O O8 0.050119 0.250000 0.955454
O O9 0.116010 0.495516 0.926977
O O10 0.984032 0.445890 0.881640
O O11 0.000000 0.500000 0.000000
O O12 0.250000 0.487266 0.237295
O O13 0.329264 0.250000 0.248009
O O14 0.353606 0.469441 0.324902
O O15 0.389662 0.484330 0.203759
O O16 0.250000 0.423650 0.409543
O O17 0.364854 0.250000 0.407860
O O18 0.372732 0.250000 0.761989
O O19 0.472501 0.037939 0.763181
O O20 0.339162 0.991986 0.806396
O O21 0.437667 0.750000 0.201974
O O22 0.750000 0.434623 0.100339
O O23 0.641934 0.250000 0.128279
#
# Coordination Sequence:
#
# PCOD8244097 Si02
#       8
#     8   8   8   8   8   8   8   8
#     4  11  24  39  55  77 106 141 184 231 279 333
#     4  10  22  39  56  76 105 141 181 224 273 332
#     4  10  21  38  59  84 115 151 191 232 276 326
#     4   9  19  35  56  82 109 139 180 227 273 325
#     4   9  19  37  58  79 105 138 178 226 279 332
#     4  10  21  35  54  83 115 144 180 226 276 329
#     4   9  20  36  54  81 113 143 178 222 269 320
#     4  10  20  35  57  85 116 150 189 230 274 327
#
# _framework density 18.420887
#
# number of rings (size 3 to 8) (size 9 to 14) (size 15 to 20)
#    0.000    2.250    0.000    3.750    1.750    8.250 
#    0.000    1.875    0.000    0.750    0.000    0.000 
#    0.000    0.000    0.000    0.000    0.000    0.000 
#
# Total GULP energy -793750.472431 kJ/mol
# GULP energy per Si atom -12402.351132 kJ/mol
# Density = 1.837896 g / cm^3
# Si number density = 18.420887 Si / 1000 Ang^3
#
#
#
# Elastic Constant Matrix: (Units=GPa)
#
#
# Indices 1 2 3 4 5 6 
#
# 1 110.8415 60.1184 66.8166 0.0000 0.0000 0.0000
# 2 60.1184 95.2635 53.7344 0.0000 0.0000 0.0000
# 3 66.8166 53.7344 89.6001 0.0000 0.0000 0.0000
# 4 0.0000 0.0000 0.0000 35.8872 0.0000 0.0000
# 5 0.0000 0.0000 0.0000 0.0000 25.2554 0.0000
# 6 0.0000 0.0000 0.0000 0.0000 0.0000 34.3624
#
#
#
# Elastic Compliance Matrix: (Units=1/GPa)
#
#
# Indices 1 2 3 4 5 6 
#
# 1 0.018302 -0.005820 -0.010157 0.000000 0.000000 0.000000
# 2 -0.005820 0.017714 -0.006283 0.000000 0.000000 0.000000
# 3 -0.010157 -0.006283 0.022503 0.000000 0.000000 0.000000
# 4 0.000000 0.000000 0.000000 0.027865 0.000000 0.000000
# 5 0.000000 0.000000 0.000000 0.000000 0.039595 0.000000
# 6 0.000000 0.000000 0.000000 0.000000 0.000000 0.029102
#
#
# Mechanical properties :
#
#
# Convention : Reuss Voigt Hill
#
# Bulk Modulus (GPa) = 71.44095 73.00489 72.22292
# Shear Modulus (GPa) = 24.47742 26.77003 25.62373
#
# Velocity S-wave (km/s) = 3.64921 3.81628 3.73368
# Velocity P-wave (km/s) = 7.52478 7.69001 7.60785
#
# Compressibility (1/GPa) = 0.01399757
#
# Stress axis : x y z
#
# Youngs Moduli (GPa) = 54.63935 56.45125 44.43761
#
# Poissons Ratio (x) = 0.32857 0.45137
# Poissons Ratio (y) = 0.31802 0.27921
# Poissons Ratio (z) = 0.55500 0.35469
#
# Static dielectric constant tensor:
#      x y z
#    x 3.424030 0.000000 0.000000 
#    y 0.000000 3.430660 0.000000 
#    z 0.000000 0.000000 3.396050 
# 
# 
# High freq. dielectric constant tensor:
#      x y z
#    x 1.721130 0.000000 0.000000 
#    y 0.000000 1.720160 0.000000 
#    z 0.000000 0.000000 1.707200 
# 
# From -- ./inp_files/29463.got.cif
#   From: 2010.03.12/outbox.cif.g09.slc.cpg/sg59_15_cif.got.tgz:29463.got - 2010.04.16 16:29:54.
