data_PCOD8244333
_publ_section_title
;
Structure prediction by ZEFSAII (Michael W. Deem and Ramdas Pophale) SiO2 
 PCOD8244333
Probable space group: P M M N
;
_chemical_formula_sum "Si O2"
_cell_formula_units_Z 48
_cell_length_a 28.000069
_cell_length_b 9.014228
_cell_length_c 9.928299
_cell_angle_alpha 90.000000
_cell_angle_beta 90.000000
_cell_angle_gamma 90.000000
_cell_volume 2505.892799
_symmetry_space_group_name_H-M "P M M N"
_symmetry_group_IT_number 59
_space_group.IT_coordinate_system_code '2'
_symmetry_cell_setting 'orthorhombic'
loop_
_space_group_symop_operation_xyz
x,y,z
1/2-x,1/2-y,z
1/2+x,-y,-z
-x,1/2+y,-z
-x,-y,-z
1/2+x,1/2+y,-z
1/2-x,y,z
x,1/2-y,z
loop_
_atom_site_type_symbol
_atom_site_label
_atom_site_fract_x
_atom_site_fract_y
_atom_site_fract_z
Si Si1 0.698521 0.925831 0.343856
Si Si2 0.601435 0.922184 0.226139
Si Si3 0.395070 0.921546 0.274389
Si Si4 0.451388 0.422784 0.043186
Si Si5 0.951898 0.078676 0.459116
Si Si6 0.196043 0.076888 0.349981
O O1 0.750000 0.987223 0.291069
O O2 0.700490 0.750000 0.343814
O O3 0.655473 0.982503 0.249348
O O4 0.690614 0.979496 0.496744
O O5 0.597286 0.750000 0.267046
O O6 0.588516 0.948048 0.071218
O O7 0.565138 0.012154 0.318328
O O8 0.394695 0.750000 0.233033
O O9 0.411891 0.946363 0.427385
O O10 0.341678 0.987164 0.258806
O O11 0.432194 0.006038 0.179573
O O12 0.461541 0.250000 0.067107
O O13 0.500000 0.500000 0.000000
O O14 0.963209 0.250000 0.437088
O O15 0.000000 0.000000 0.500000
O O16 0.250000 0.045629 0.298342
O O17 0.183795 0.250000 0.337576
#
# Coordination Sequence:
#
# PCOD8244333 Si02
#       6
#     8   8   8   8   8   8
#     4   8  14  28  54  85 112 138 171 219 278 331
#     4  10  20  36  58  83 110 141 183 231 281 334
#     4  11  23  38  56  82 115 152 190 229 280 339
#     4  11  24  40  58  81 111 152 195 237 287 343
#     4  11  23  36  54  81 109 141 185 234 283 333
#     4   9  17  32  58  88 114 145 185 227 278 335
#
# _framework density 19.15485
#
# number of rings (size 3 to 8) (size 9 to 14) (size 15 to 20)
#    0.000    2.000    1.667    3.500    0.000    7.667 
#    0.000    0.833    0.000    3.500    0.000    0.000 
#    0.000    0.000    0.000    0.000    0.000    0.000 
#
# Total GULP energy -595207.735843 kJ/mol
# GULP energy per Si atom -12400.161163 kJ/mol
# Density = 1.911125 g / cm^3
# Si number density = 19.154850 Si / 1000 Ang^3
#
#
#
# Elastic Constant Matrix: (Units=GPa)
#
#
# Indices 1 2 3 4 5 6 
#
# 1 115.0229 38.6721 4.6335 0.0000 0.0000 0.0000
# 2 38.6721 91.1868 26.8798 0.0000 0.0000 0.0000
# 3 4.6335 26.8798 39.9645 0.0000 0.0000 0.0000
# 4 0.0000 0.0000 0.0000 26.3301 0.0000 0.0000
# 5 0.0000 0.0000 0.0000 0.0000 33.1107 0.0000
# 6 0.0000 0.0000 0.0000 0.0000 0.0000 32.1488
#
#
#
# Elastic Compliance Matrix: (Units=1/GPa)
#
#
# Indices 1 2 3 4 5 6 
#
# 1 0.010289 -0.005004 0.002173 0.000000 0.000000 0.000000
# 2 -0.005004 0.016112 -0.010257 0.000000 0.000000 0.000000
# 3 0.002173 -0.010257 0.031669 0.000000 0.000000 0.000000
# 4 0.000000 0.000000 0.000000 0.037979 0.000000 0.000000
# 5 0.000000 0.000000 0.000000 0.000000 0.030202 0.000000
# 6 0.000000 0.000000 0.000000 0.000000 0.000000 0.031105
#
#
# Mechanical properties :
#
#
# Convention : Reuss Voigt Hill
#
# Bulk Modulus (GPa) = 31.35393 42.94943 37.15168
# Shear Modulus (GPa) = 25.75154 30.05053 27.90104
#
# Velocity S-wave (km/s) = 3.67057 3.96513 3.82069
# Velocity P-wave (km/s) = 5.86245 6.59044 6.23707
#
# Compressibility (1/GPa) = 0.03189392
#
# Stress axis : x y z
#
# Youngs Moduli (GPa) = 97.19336 62.06526 31.57676
#
# Poissons Ratio (x) = 0.31057 -0.06861
# Poissons Ratio (y) = 0.48635 0.32387
# Poissons Ratio (z) = -0.21117 0.63658
#
# Static dielectric constant tensor:
#      x y z
#    x 3.902710 0.000000 0.000000 
#    y 0.000000 3.368690 0.000000 
#    z 0.000000 0.000000 3.370010 
# 
# 
# High freq. dielectric constant tensor:
#      x y z
#    x 1.763390 0.000000 0.000000 
#    y 0.000000 1.730920 0.000000 
#    z 0.000000 0.000000 1.723730 
# 
# From -- ./inp_files/12979.got.cif
#   From: 2010.03.12/outbox.cif.g09.slc.cpg/sg59_7_cif.got.tgz:12979.got - 2010.04.16 16:29:54.
