data_PCOD8244316
_publ_section_title
;
Structure prediction by ZEFSAII (Michael W. Deem and Ramdas Pophale) SiO2 
 PCOD8244316
Probable space group: P M M N
;
_chemical_formula_sum "Si O2"
_cell_formula_units_Z 56
_cell_length_a 20.124110
_cell_length_b 13.526106
_cell_length_c 10.102714
_cell_angle_alpha 90.000000
_cell_angle_beta 90.000000
_cell_angle_gamma 90.000000
_cell_volume 2749.967288
_symmetry_space_group_name_H-M "P M M N"
_symmetry_group_IT_number 59
_space_group.IT_coordinate_system_code '2'
_symmetry_cell_setting 'orthorhombic'
loop_
_space_group_symop_operation_xyz
x,y,z
1/2-x,1/2-y,z
1/2+x,-y,-z
-x,1/2+y,-z
-x,-y,-z
1/2+x,1/2+y,-z
1/2-x,y,z
x,1/2-y,z
loop_
_atom_site_type_symbol
_atom_site_label
_atom_site_fract_x
_atom_site_fract_y
_atom_site_fract_z
Si Si1 0.678477 0.138864 0.631264
Si Si2 0.904301 0.636026 0.522457
Si Si3 0.034147 0.864902 0.089134
Si Si4 0.602011 0.548821 0.020264
Si Si5 0.535387 0.364627 0.606203
Si Si6 0.672501 0.637564 0.257283
Si Si7 0.823946 0.553860 0.763170
O O1 0.750000 0.127515 0.552355
O O2 0.672147 0.250000 0.688337
O O3 0.610448 0.117407 0.546350
O O4 0.680411 0.065917 0.757131
O O5 0.909063 0.750000 0.560201
O O6 0.855422 0.615661 0.401641
O O7 0.875378 0.581793 0.648964
O O8 0.977353 0.589457 0.486956
O O9 0.054989 0.750000 0.076009
O O10 0.033018 0.903000 0.241863
O O11 0.084598 0.933860 0.006108
O O12 0.962015 0.880947 0.025448
O O13 0.649047 0.589986 0.903505
O O14 0.641814 0.558554 0.156626
O O15 0.516581 0.250000 0.613571
O O16 0.750000 0.619980 0.264175
O O17 0.654650 0.750000 0.213772
O O18 0.750000 0.599810 0.741224
#
# Coordination Sequence:
#
# PCOD8244316 Si02
#       7
#     8   8   8   8   8   8   8
#     4   9  18  34  55  81 113 148 186 231 285 343
#     4  10  21  37  57  81 113 152 192 236 285 341
#     4  10  20  36  58  83 113 149 191 238 290 345
#     4  11  21  35  58  86 114 149 188 239 291 343
#     4   9  16  33  58  79 102 142 191 233 269 327
#     4  10  20  36  58  81 110 154 202 239 278 341
#     4  11  23  36  54  87 122 149 185 237 293 345
#
# _framework density 20.363880000000002
#
# number of rings (size 3 to 8) (size 9 to 14) (size 15 to 20)
#    0.000    2.000    2.857    1.286    0.000    2.571 
#    0.000    0.000    0.000    3.857    0.000    0.000 
#    0.000    0.000    0.000    0.571    0.000    0.000 
#
# Total GULP energy -693822.559093 kJ/mol
# GULP energy per Si atom -12389.688555 kJ/mol
# Density = 2.031753 g / cm^3
# Si number density = 20.363880 Si / 1000 Ang^3
#
#
#
# Elastic Constant Matrix: (Units=GPa)
#
#
# Indices 1 2 3 4 5 6 
#
# 1 131.8294 26.8071 18.5664 0.0000 0.0000 0.0000
# 2 26.8071 63.5180 29.2566 0.0000 0.0000 0.0000
# 3 18.5664 29.2566 43.8551 0.0000 0.0000 0.0000
# 4 0.0000 0.0000 0.0000 15.0075 0.0000 0.0000
# 5 0.0000 0.0000 0.0000 0.0000 25.6089 0.0000
# 6 0.0000 0.0000 0.0000 0.0000 0.0000 24.5505
#
#
#
# Elastic Compliance Matrix: (Units=1/GPa)
#
#
# Indices 1 2 3 4 5 6 
#
# 1 0.008386 -0.002749 -0.001717 0.000000 0.000000 0.000000
# 2 -0.002749 0.023628 -0.014599 0.000000 0.000000 0.000000
# 3 -0.001717 -0.014599 0.033268 0.000000 0.000000 0.000000
# 4 0.000000 0.000000 0.000000 0.066633 0.000000 0.000000
# 5 0.000000 0.000000 0.000000 0.000000 0.039049 0.000000
# 6 0.000000 0.000000 0.000000 0.000000 0.000000 0.040732
#
#
# Mechanical properties :
#
#
# Convention : Reuss Voigt Hill
#
# Bulk Modulus (GPa) = 36.82708 43.16251 39.99479
# Shear Modulus (GPa) = 19.31417 24.00487 21.65952
#
# Velocity S-wave (km/s) = 3.08304 3.43709 3.26486
# Velocity P-wave (km/s) = 5.54953 6.08219 5.82195
#
# Compressibility (1/GPa) = 0.02715393
#
# Stress axis : x y z
#
# Youngs Moduli (GPa) = 119.24273 42.32280 30.05855
#
# Poissons Ratio (x) = 0.11633 0.05160
# Poissons Ratio (y) = 0.32775 0.43882
# Poissons Ratio (z) = 0.20471 0.61787
#
# Static dielectric constant tensor:
#      x y z
#    x 4.290650 0.000000 0.000000 
#    y 0.000000 3.771870 0.000000 
#    z 0.000000 0.000000 3.341010 
# 
# 
# High freq. dielectric constant tensor:
#      x y z
#    x 1.826050 0.000000 0.000000 
#    y 0.000000 1.790080 0.000000 
#    z 0.000000 0.000000 1.752210 
# 
# From -- ./inp_files/11431.got.cif
#   From: 2010.03.12/outbox.cif.g09.slc.cpg/sg59_6_cif.got.tgz:11431.got - 2010.04.16 16:29:54.
