data_PCOD8244342
_publ_section_title
;
Structure prediction by ZEFSAII (Michael W. Deem and Ramdas Pophale) SiO2 
 PCOD8244342
Probable space group: P M M N
;
_chemical_formula_sum "Si O2"
_cell_formula_units_Z 48
_cell_length_a 19.119324
_cell_length_b 8.734548
_cell_length_c 14.998183
_cell_angle_alpha 90.000000
_cell_angle_beta 90.000000
_cell_angle_gamma 90.000000
_cell_volume 2504.676362
_symmetry_space_group_name_H-M "P M M N"
_symmetry_group_IT_number 59
_space_group.IT_coordinate_system_code '2'
_symmetry_cell_setting 'orthorhombic'
loop_
_space_group_symop_operation_xyz
x,y,z
1/2-x,1/2-y,z
1/2+x,-y,-z
-x,1/2+y,-z
-x,-y,-z
1/2+x,1/2+y,-z
1/2-x,y,z
x,1/2-y,z
loop_
_atom_site_type_symbol
_atom_site_label
_atom_site_fract_x
_atom_site_fract_y
_atom_site_fract_z
Si Si1 0.589487 0.929924 0.781537
Si Si2 0.567003 0.428109 0.268329
Si Si3 0.329888 0.571995 0.057324
Si Si4 0.168610 0.073252 0.870543
Si Si5 0.430965 0.069638 0.541395
Si Si6 0.327802 0.068318 0.391629
O O1 0.601538 0.750000 0.796941
O O2 0.508282 0.971793 0.771553
O O3 0.629298 0.990236 0.693856
O O4 0.618490 0.022507 0.864887
O O5 0.570034 0.250000 0.291515
O O6 0.625886 0.469972 0.197601
O O7 0.582307 0.519671 0.358120
O O8 0.250000 0.536080 0.085671
O O9 0.340184 0.750000 0.035800
O O10 0.350794 0.476461 0.970279
O O11 0.250000 0.044073 0.851383
O O12 0.148283 0.250000 0.857847
O O13 0.438635 0.250000 0.536580
O O14 0.365673 0.012841 0.481759
O O15 0.500000 0.000000 0.500000
O O16 0.250000 0.997244 0.389648
O O17 0.324258 0.250000 0.388946
#
# Coordination Sequence:
#
# PCOD8244342 Si02
#       6
#     8   8   8   8   8   8
#     4  10  20  36  58  84 115 153 195 236 284 349
#     4  11  23  39  60  88 117 151 195 242 295 349
#     4  10  21  37  58  86 119 153 190 239 295 344
#     4  10  22  41  63  86 113 152 199 240 286 348
#     4  11  21  37  59  84 116 156 197 240 292 348
#     4   9  18  34  57  84 113 148 193 240 283 336
#
# _framework density 19.164152999999999
#
# number of rings (size 3 to 8) (size 9 to 14) (size 15 to 20)
#    0.000    1.833    1.667    2.500    0.000    5.333 
#    0.000    1.667    0.000    2.500    0.000    0.000 
#    0.000    0.000    0.000    0.000    0.000    0.000 
#
# Total GULP energy -595396.007591 kJ/mol
# GULP energy per Si atom -12404.083491 kJ/mol
# Density = 1.912053 g / cm^3
# Si number density = 19.164153 Si / 1000 Ang^3
#
#
#
# Elastic Constant Matrix: (Units=GPa)
#
#
# Indices 1 2 3 4 5 6 
#
# 1 110.7977 34.1171 63.9016 0.0000 0.0000 0.0000
# 2 34.1171 47.1711 22.8064 0.0000 0.0000 0.0000
# 3 63.9016 22.8064 113.8629 0.0000 0.0000 0.0000
# 4 0.0000 0.0000 0.0000 35.7017 0.0000 0.0000
# 5 0.0000 0.0000 0.0000 0.0000 40.6705 0.0000
# 6 0.0000 0.0000 0.0000 0.0000 0.0000 28.0309
#
#
#
# Elastic Compliance Matrix: (Units=1/GPa)
#
#
# Indices 1 2 3 4 5 6 
#
# 1 0.015560 -0.007786 -0.007173 0.000000 0.000000 0.000000
# 2 -0.007786 0.027368 -0.001112 0.000000 0.000000 0.000000
# 3 -0.007173 -0.001112 0.013031 0.000000 0.000000 0.000000
# 4 0.000000 0.000000 0.000000 0.028010 0.000000 0.000000
# 5 0.000000 0.000000 0.000000 0.000000 0.024588 0.000000
# 6 0.000000 0.000000 0.000000 0.000000 0.000000 0.035675
#
#
# Mechanical properties :
#
#
# Convention : Reuss Voigt Hill
#
# Bulk Modulus (GPa) = 41.98692 57.05357 49.52024
# Shear Modulus (GPa) = 27.12780 30.94773 29.03776
#
# Velocity S-wave (km/s) = 3.76646 4.02291 3.89680
# Velocity P-wave (km/s) = 6.39309 7.17036 6.79285
#
# Compressibility (1/GPa) = 0.02381694
#
# Stress axis : x y z
#
# Youngs Moduli (GPa) = 64.26802 36.53847 76.74105
#
# Poissons Ratio (x) = 0.28448 0.55046
# Poissons Ratio (y) = 0.50038 0.08536
# Poissons Ratio (z) = 0.46099 0.04064
#
# Static dielectric constant tensor:
#      x y z
#    x 4.856350 0.000000 0.000000 
#    y 0.000000 3.533410 0.000000 
#    z 0.000000 0.000000 3.739080 
# 
# 
# High freq. dielectric constant tensor:
#      x y z
#    x 1.751090 0.000000 0.000000 
#    y 0.000000 1.737230 0.000000 
#    z 0.000000 0.000000 1.755780 
# 
# From -- ./inp_files/20304.got.cif
#   From: 2010.03.12/outbox.cif.g09.slc.cpg/sg59_11_cif.got.tgz:20304.got - 2010.04.16 16:29:54.
