data_PCOD8244209
_publ_section_title
;
Structure prediction by ZEFSAII (Michael W. Deem and Ramdas Pophale) SiO2 
 PCOD8244209
Probable space group: P M M N
;
_chemical_formula_sum "Si O2"
_cell_formula_units_Z 56
_cell_length_a 18.052563
_cell_length_b 12.665178
_cell_length_c 12.745254
_cell_angle_alpha 90.000000
_cell_angle_beta 90.000000
_cell_angle_gamma 90.000000
_cell_volume 2914.061157
_symmetry_space_group_name_H-M "P M M N"
_symmetry_group_IT_number 59
_space_group.IT_coordinate_system_code '2'
_symmetry_cell_setting 'orthorhombic'
loop_
_space_group_symop_operation_xyz
x,y,z
1/2-x,1/2-y,z
1/2+x,-y,-z
-x,1/2+y,-z
-x,-y,-z
1/2+x,1/2+y,-z
1/2-x,y,z
x,1/2-y,z
loop_
_atom_site_type_symbol
_atom_site_label
_atom_site_fract_x
_atom_site_fract_y
_atom_site_fract_z
Si Si1 0.069973 0.374365 0.037378
Si Si2 0.552212 0.493672 0.163930
Si Si3 0.835017 0.991994 0.813183
Si Si4 0.445528 0.869717 0.283071
Si Si5 0.582836 0.041622 0.500999
Si Si6 0.163462 0.366193 0.394070
Si Si7 0.336378 0.626580 0.700652
O O1 0.079071 0.250000 0.038914
O O2 0.144041 0.429418 0.081923
O O3 0.999735 0.406096 0.109132
O O4 0.064822 0.412155 0.918004
O O5 0.513955 0.549281 0.265139
O O6 0.628230 0.438689 0.202235
O O7 0.750000 0.023861 0.814921
O O8 0.857657 0.916088 0.717214
O O9 0.881977 0.099952 0.802038
O O10 0.470735 0.750000 0.263203
O O11 0.410939 0.880746 0.399098
O O12 0.613007 0.105148 0.401323
O O13 0.500000 0.000000 0.500000
O O14 0.633493 0.937888 0.512156
O O15 0.250000 0.356725 0.407876
O O16 0.126741 0.250000 0.400587
O O17 0.250000 0.593365 0.684598
O O18 0.341317 0.750000 0.727209
#
# Coordination Sequence:
#
# PCOD8244209 Si02
#       7
#     8   8   8   8   8   8   8
#     4  10  20  35  60  86 113 152 196 243 295 345
#     4  10  21  39  58  85 118 149 194 246 290 342
#     4   9  19  34  53  83 117 147 188 237 283 342
#     4  10  20  36  58  84 115 152 190 236 289 336
#     4  11  21  37  56  86 116 147 190 244 277 337
#     4   9  18  33  53  78 112 149 182 225 283 338
#     4  11  24  42  62  85 118 159 197 234 285 350
#
# _framework density 19.217167
#
# number of rings (size 3 to 8) (size 9 to 14) (size 15 to 20)
#    0.000    2.000    1.429    2.143    0.000    3.429 
#    0.000    0.714    0.000    2.143    0.000    0.000 
#    0.000    0.000    0.000    0.000    0.000    0.000 
#
# Total GULP energy -694287.330753 kJ/mol
# GULP energy per Si atom -12397.988049 kJ/mol
# Density = 1.917343 g / cm^3
# Si number density = 19.217167 Si / 1000 Ang^3
#
#
#
# Elastic Constant Matrix: (Units=GPa)
#
#
# Indices 1 2 3 4 5 6 
#
# 1 87.3239 39.5424 27.7831 0.0000 0.0000 0.0000
# 2 39.5424 91.9073 22.5848 0.0000 0.0000 0.0000
# 3 27.7831 22.5848 71.6958 0.0000 0.0000 0.0000
# 4 0.0000 0.0000 0.0000 20.4541 0.0000 0.0000
# 5 0.0000 0.0000 0.0000 0.0000 28.9670 0.0000
# 6 0.0000 0.0000 0.0000 0.0000 0.0000 23.9727
#
#
#
# Elastic Compliance Matrix: (Units=1/GPa)
#
#
# Indices 1 2 3 4 5 6 
#
# 1 0.015296 -0.005554 -0.004178 0.000000 0.000000 0.000000
# 2 -0.005554 0.013810 -0.002198 0.000000 0.000000 0.000000
# 3 -0.004178 -0.002198 0.016259 0.000000 0.000000 0.000000
# 4 0.000000 0.000000 0.000000 0.048890 0.000000 0.000000
# 5 0.000000 0.000000 0.000000 0.000000 0.034522 0.000000
# 6 0.000000 0.000000 0.000000 0.000000 0.000000 0.041714
#
#
# Mechanical properties :
#
#
# Convention : Reuss Voigt Hill
#
# Bulk Modulus (GPa) = 46.50014 47.86084 47.18049
# Shear Modulus (GPa) = 24.81141 25.41320 25.11231
#
# Velocity S-wave (km/s) = 3.59710 3.64046 3.61884
# Velocity P-wave (km/s) = 6.44219 6.52916 6.48582
#
# Compressibility (1/GPa) = 0.02150531
#
# Stress axis : x y z
#
# Youngs Moduli (GPa) = 65.37679 72.40934 61.50395
#
# Poissons Ratio (x) = 0.40219 0.25695
# Poissons Ratio (y) = 0.36313 0.13519
# Poissons Ratio (z) = 0.27313 0.15916
#
# Static dielectric constant tensor:
#      x y z
#    x 3.483260 0.000000 0.000000 
#    y 0.000000 3.555820 0.000000 
#    z 0.000000 0.000000 3.491640 
# 
# 
# High freq. dielectric constant tensor:
#      x y z
#    x 1.742500 0.000000 0.000000 
#    y 0.000000 1.748190 0.000000 
#    z 0.000000 0.000000 1.742220 
# 
# From -- ./inp_files/18316.got.cif
#   From: 2010.03.12/outbox.cif.g09.slc.cpg/sg59_10_cif.got.tgz:18316.got - 2010.04.16 16:29:54.
