data_PCOD8244001
_publ_section_title
;
Structure prediction by ZEFSAII (Michael W. Deem and Ramdas Pophale) SiO2 
 PCOD8244001
Probable space group: P M M N
;
_chemical_formula_sum "Si O2"
_cell_formula_units_Z 48
_cell_length_a 31.004237
_cell_length_b 8.729160
_cell_length_c 9.086963
_cell_angle_alpha 90.000000
_cell_angle_beta 90.000000
_cell_angle_gamma 90.000000
_cell_volume 2459.304258
_symmetry_space_group_name_H-M "P M M N"
_symmetry_group_IT_number 59
_space_group.IT_coordinate_system_code '2'
_symmetry_cell_setting 'orthorhombic'
loop_
_space_group_symop_operation_xyz
x,y,z
1/2-x,1/2-y,z
1/2+x,-y,-z
-x,1/2+y,-z
-x,-y,-z
1/2+x,1/2+y,-z
1/2-x,y,z
x,1/2-y,z
loop_
_atom_site_type_symbol
_atom_site_label
_atom_site_fract_x
_atom_site_fract_y
_atom_site_fract_z
Si Si1 0.589705 0.928499 0.321066
Si Si2 0.750000 0.432635 0.655286
Si Si3 0.091165 0.075632 0.333024
Si Si4 0.995910 0.071934 0.341600
Si Si5 0.170105 0.931059 0.834966
Si Si6 0.250000 0.430512 0.666626
Si Si7 0.168056 0.929795 0.167685
O O1 0.596140 0.750000 0.286394
O O2 0.592845 0.964652 0.494330
O O3 0.542864 0.983024 0.258795
O O4 0.624981 0.028897 0.239212
O O5 0.750000 0.250000 0.649947
O O6 0.750000 0.494210 0.491988
O O7 0.792051 0.497888 0.739454
O O8 0.105877 0.250000 0.309585
O O9 0.042922 0.050454 0.266344
O O10 0.123024 0.968083 0.244001
O O11 0.983947 0.250000 0.354597
O O12 0.000000 0.000000 0.500000
O O13 0.178328 0.750000 0.825711
O O14 0.207801 0.018556 0.752476
O O15 0.169424 0.993378 0.001917
O O16 0.250000 0.250000 0.647609
O O17 0.172859 0.750000 0.161209
#
# Coordination Sequence:
#
# PCOD8244001 Si02
#       7
#     8   4   8   8   8   4   8
#     4  10  20  35  56  85 114 145 188 235 278 330
#     4  10  21  40  62  84 110 144 183 228 276 326
#     4   9  19  34  54  81 113 144 183 231 278 327
#     4   9  17  31  52  80 112 148 187 233 282 329
#     4  11  23  40  59  82 113 149 185 226 275 331
#     4  12  25  40  60  88 114 142 183 228 272 328
#     4  10  22  38  58  82 110 145 187 227 273 332
#
# _framework density 19.517714000000002
#
# number of rings (size 3 to 8) (size 9 to 14) (size 15 to 20)
#    0.000    2.000    0.000    4.750    0.000   10.000 
#    0.000    1.667    0.000    0.000    0.000    0.000 
#    0.000    0.000    0.000    0.000    0.000    0.000 
#
# Total GULP energy -595147.835098 kJ/mol
# GULP energy per Si atom -12398.913231 kJ/mol
# Density = 1.947329 g / cm^3
# Si number density = 19.517714 Si / 1000 Ang^3
#
#
#
# Elastic Constant Matrix: (Units=GPa)
#
#
# Indices 1 2 3 4 5 6 
#
# 1 137.4484 9.8015 46.3235 0.0000 0.0000 0.0000
# 2 9.8015 26.9095 7.3155 0.0000 0.0000 0.0000
# 3 46.3235 7.3155 89.7843 0.0000 0.0000 0.0000
# 4 0.0000 0.0000 0.0000 16.0100 0.0000 0.0000
# 5 0.0000 0.0000 0.0000 0.0000 109.9520 0.0000
# 6 0.0000 0.0000 0.0000 0.0000 0.0000 38.5235
#
#
#
# Elastic Compliance Matrix: (Units=1/GPa)
#
#
# Indices 1 2 3 4 5 6 
#
# 1 0.008915 -0.002042 -0.004433 0.000000 0.000000 0.000000
# 2 -0.002042 0.038471 -0.002081 0.000000 0.000000 0.000000
# 3 -0.004433 -0.002081 0.013595 0.000000 0.000000 0.000000
# 4 0.000000 0.000000 0.000000 0.062461 0.000000 0.000000
# 5 0.000000 0.000000 0.000000 0.000000 0.009095 0.000000
# 6 0.000000 0.000000 0.000000 0.000000 0.000000 0.025958
#
#
# Mechanical properties :
#
#
# Convention : Reuss Voigt Hill
#
# Bulk Modulus (GPa) = 22.79552 42.33591 32.56571
# Shear Modulus (GPa) = 26.28389 45.61056 35.94722
#
# Velocity S-wave (km/s) = 3.67368 4.83937 4.29625
# Velocity P-wave (km/s) = 5.44971 7.27765 6.42898
#
# Compressibility (1/GPa) = 0.04386827
#
# Stress axis : x y z
#
# Youngs Moduli (GPa) = 112.16765 25.99353 73.55802
#
# Poissons Ratio (x) = 0.05308 0.32611
# Poissons Ratio (y) = 0.22905 0.15307
# Poissons Ratio (z) = 0.49728 0.05409
#
# Static dielectric constant tensor:
#      x y z
#    x 4.112680 0.000000 0.000000 
#    y 0.000000 3.545680 0.000000 
#    z 0.000000 0.000000 3.470220 
# 
# 
# High freq. dielectric constant tensor:
#      x y z
#    x 1.783300 0.000000 0.000000 
#    y 0.000000 1.760320 0.000000 
#    z 0.000000 0.000000 1.739260 
# 
# From -- ./inp_files/13047.got.cif
#   From: 2010.03.12/outbox.cif.g09.slc.cpg/sg59_7_cif.got.tgz:13047.got - 2010.04.16 16:29:54.
