data_PCOD8244648
_publ_section_title
;
Structure prediction by ZEFSAII (Michael W. Deem and Ramdas Pophale) SiO2 
 PCOD8244648
Probable space group: P M M N
;
_chemical_formula_sum "Si O2"
_cell_formula_units_Z 48
_cell_length_a 8.844893
_cell_length_b 14.991369
_cell_length_c 18.892766
_cell_angle_alpha 90.000000
_cell_angle_beta 90.000000
_cell_angle_gamma 90.000000
_cell_volume 2505.125127
_symmetry_space_group_name_H-M "P M M N"
_symmetry_group_IT_number 59
_space_group.IT_coordinate_system_code '2'
_symmetry_cell_setting 'orthorhombic'
loop_
_space_group_symop_operation_xyz
x,y,z
1/2-x,1/2-y,z
1/2+x,-y,-z
-x,1/2+y,-z
-x,-y,-z
1/2+x,1/2+y,-z
1/2-x,y,z
x,1/2-y,z
loop_
_atom_site_type_symbol
_atom_site_label
_atom_site_fract_x
_atom_site_fract_y
_atom_site_fract_z
Si Si1 0.073796 0.750000 0.735254
Si Si2 0.571624 0.750000 0.950058
Si Si3 0.428346 0.112601 0.165041
Si Si4 0.072712 0.750000 0.570162
Si Si5 0.426015 0.587380 0.188042
Si Si6 0.928070 0.593731 0.482794
Si Si7 0.571184 0.750000 0.107837
Si Si8 0.921250 0.353132 0.658405
O O1 0.250000 0.750000 0.750954
O O2 0.037045 0.750000 0.652702
O O3 0.004123 0.839694 0.768015
O O4 0.750000 0.750000 0.956859
O O5 0.500609 0.750000 0.028442
O O6 0.519040 0.661752 0.907162
O O7 0.250000 0.120912 0.176281
O O8 0.478207 0.009641 0.160589
O O9 0.250000 0.750000 0.553157
O O10 0.999032 0.663294 0.536664
O O11 0.250000 0.605526 0.173664
O O12 0.519601 0.661107 0.146861
O O13 0.460622 0.590881 0.271625
O O14 0.750000 0.590524 0.494065
O O15 0.000000 0.500000 0.500000
O O16 0.962307 0.619986 0.402171
O O17 0.750000 0.750000 0.105640
O O18 0.750000 0.372843 0.632657
O O19 0.940745 0.250000 0.678223
#
# Coordination Sequence:
#
# PCOD8244648 Si02
#       8
#     4   4   8   4   8   8   4   8
#     4  10  22  38  59  87 119 148 186 244 296 340
#     4   8  17  36  57  83 119 154 190 236 288 340
#     4   9  19  38  63  85 112 153 196 236 285 350
#     4  11  24  43  61  86 121 155 194 249 300 348
#     4  10  21  38  60  87 114 150 197 242 287 343
#     4  12  26  42  62  88 118 157 201 244 297 357
#     4  11  22  35  55  84 121 159 192 237 292 346
#     4  10  20  38  61  83 116 152 189 246 301 347
#
# _framework density 19.160720000000001
#
# number of rings (size 3 to 8) (size 9 to 14) (size 15 to 20)
#    0.000    1.833    1.667    2.750    2.333    3.333 
#    0.000    3.333    0.000    0.000    0.000    0.000 
#    0.000    0.000    0.000    0.000    0.000    0.000 
#
# Total GULP energy -595327.344599 kJ/mol
# GULP energy per Si atom -12402.653012 kJ/mol
# Density = 1.911711 g / cm^3
# Si number density = 19.160720 Si / 1000 Ang^3
#
#
#
# Elastic Constant Matrix: (Units=GPa)
#
#
# Indices 1 2 3 4 5 6 
#
# 1 90.5695 57.5043 58.1406 0.0000 0.0000 0.0000
# 2 57.5043 160.7533 67.0571 0.0000 0.0000 0.0000
# 3 58.1406 67.0571 121.4121 0.0000 0.0000 0.0000
# 4 0.0000 0.0000 0.0000 22.7190 0.0000 0.0000
# 5 0.0000 0.0000 0.0000 0.0000 27.6530 0.0000
# 6 0.0000 0.0000 0.0000 0.0000 0.0000 23.1218
#
#
#
# Elastic Compliance Matrix: (Units=1/GPa)
#
#
# Indices 1 2 3 4 5 6 
#
# 1 0.017386 -0.003569 -0.006355 0.000000 0.000000 0.000000
# 2 -0.003569 0.008815 -0.003160 0.000000 0.000000 0.000000
# 3 -0.006355 -0.003160 0.013025 0.000000 0.000000 0.000000
# 4 0.000000 0.000000 0.000000 0.044016 0.000000 0.000000
# 5 0.000000 0.000000 0.000000 0.000000 0.036162 0.000000
# 6 0.000000 0.000000 0.000000 0.000000 0.000000 0.043249
#
#
# Mechanical properties :
#
#
# Convention : Reuss Voigt Hill
#
# Bulk Modulus (GPa) = 76.57027 82.01542 79.29284
# Shear Modulus (GPa) = 25.88333 27.36763 26.62548
#
# Velocity S-wave (km/s) = 3.67938 3.78341 3.73176
# Velocity P-wave (km/s) = 7.62229 7.87289 7.74861
#
# Compressibility (1/GPa) = 0.01305990
#
# Stress axis : x y z
#
# Youngs Moduli (GPa) = 57.51593 113.43782 76.77613
#
# Poissons Ratio (x) = 0.40481 0.48791
# Poissons Ratio (y) = 0.20525 0.24261
# Poissons Ratio (z) = 0.36551 0.35846
#
# Static dielectric constant tensor:
#      x y z
#    x 3.353800 0.000000 0.000000 
#    y 0.000000 3.678330 0.000000 
#    z 0.000000 0.000000 4.079900 
# 
# 
# High freq. dielectric constant tensor:
#      x y z
#    x 1.736530 0.000000 0.000000 
#    y 0.000000 1.756420 0.000000 
#    z 0.000000 0.000000 1.751690 
# 
# From -- ./inp_files/25663.got.cif
#   From: 2010.03.12/outbox.cif.g09.slc.cpg/sg59_13_cif.got.tgz:25663.got - 2010.04.16 16:29:54.
