data_PCOD8244066
_publ_section_title
;
Structure prediction by ZEFSAII (Michael W. Deem and Ramdas Pophale) SiO2 
 PCOD8244066
Probable space group: P M M N
;
_chemical_formula_sum "Si O2"
_cell_formula_units_Z 56
_cell_length_a 14.509822
_cell_length_b 9.037469
_cell_length_c 22.145808
_cell_angle_alpha 90.000000
_cell_angle_beta 90.000000
_cell_angle_gamma 90.000000
_cell_volume 2904.025568
_symmetry_space_group_name_H-M "P M M N"
_symmetry_group_IT_number 59
_space_group.IT_coordinate_system_code '2'
_symmetry_cell_setting 'orthorhombic'
loop_
_space_group_symop_operation_xyz
x,y,z
1/2-x,1/2-y,z
1/2+x,-y,-z
-x,1/2+y,-z
-x,-y,-z
1/2+x,1/2+y,-z
1/2-x,y,z
x,1/2-y,z
loop_
_atom_site_type_symbol
_atom_site_label
_atom_site_fract_x
_atom_site_fract_y
_atom_site_fract_z
Si Si1 0.522913 0.076788 0.088100
Si Si2 0.593911 0.582012 0.622095
Si Si3 0.582009 0.577434 0.339804
Si Si4 0.352001 0.415058 0.244517
Si Si5 0.522778 0.920922 0.206560
Si Si6 0.250000 0.422835 0.470558
Si Si7 0.750000 0.075430 0.401815
Si Si8 0.142953 0.923911 0.026699
O O1 0.507019 0.250000 0.092942
O O2 0.563871 0.014284 0.150969
O O3 0.422304 0.004969 0.075341
O O4 0.600241 0.036605 0.038683
O O5 0.557464 0.750000 0.613470
O O6 0.509586 0.468060 0.624203
O O7 0.651889 0.569075 0.683371
O O8 0.659044 0.534954 0.567001
O O9 0.600723 0.750000 0.350762
O O10 0.575435 0.540300 0.268537
O O11 0.662700 0.480147 0.365599
O O12 0.250000 0.441513 0.218891
O O13 0.387453 0.250000 0.227252
O O14 0.415732 0.537600 0.214171
O O15 0.531216 0.750000 0.190375
O O16 0.250000 0.250000 0.486680
O O17 0.250000 0.517074 0.530574
O O18 0.750000 0.250000 0.403634
O O19 0.250000 0.978168 0.029990
O O20 0.137554 0.750000 0.039312
#
# Coordination Sequence:
#
# PCOD8244066 Si02
#       8
#     8   8   8   8   8   4   4   8
#     4  10  20  35  57  84 114 146 186 231 274 326
#     4   9  17  33  58  86 113 144 183 226 279 340
#     4  10  22  41  61  81 112 150 188 236 289 337
#     4   9  16  29  51  79 110 143 181 226 276 330
#     4  10  21  36  55  80 111 148 187 228 279 333
#     4  10  20  36  60  88 118 150 183 230 285 342
#     4  12  26  42  60  82 108 146 193 240 287 338
#     4   9  19  37  59  82 113 149 184 228 277 324
#
# _framework density 19.283577000000001
#
# number of rings (size 3 to 8) (size 9 to 14) (size 15 to 20)
#    0.000    2.286    0.714    1.929    0.000    4.571 
#    1.286    0.000    0.000    0.000    0.000    0.000 
#    0.000    0.000    0.000    0.000    0.000    0.000 
#
# Total GULP energy -694355.337976 kJ/mol
# GULP energy per Si atom -12399.202464 kJ/mol
# Density = 1.923969 g / cm^3
# Si number density = 19.283577 Si / 1000 Ang^3
#
#
#
# Elastic Constant Matrix: (Units=GPa)
#
#
# Indices 1 2 3 4 5 6 
#
# 1 84.0824 37.2527 34.2914 0.0000 0.0000 0.0000
# 2 37.2527 81.7126 53.2612 0.0000 0.0000 0.0000
# 3 34.2914 53.2612 107.4691 0.0000 0.0000 0.0000
# 4 0.0000 0.0000 0.0000 33.9538 0.0000 0.0000
# 5 0.0000 0.0000 0.0000 0.0000 19.4954 0.0000
# 6 0.0000 0.0000 0.0000 0.0000 0.0000 32.1512
#
#
#
# Elastic Compliance Matrix: (Units=1/GPa)
#
#
# Indices 1 2 3 4 5 6 
#
# 1 0.015216 -0.005572 -0.002093 0.000000 0.000000 0.000000
# 2 -0.005572 0.020118 -0.008193 0.000000 0.000000 0.000000
# 3 -0.002093 -0.008193 0.014033 0.000000 0.000000 0.000000
# 4 0.000000 0.000000 0.000000 0.029452 0.000000 0.000000
# 5 0.000000 0.000000 0.000000 0.000000 0.051294 0.000000
# 6 0.000000 0.000000 0.000000 0.000000 0.000000 0.031103
#
#
# Mechanical properties :
#
#
# Convention : Reuss Voigt Hill
#
# Bulk Modulus (GPa) = 56.65509 58.09718 57.37614
# Shear Modulus (GPa) = 25.14883 27.01733 26.08308
#
# Velocity S-wave (km/s) = 3.61523 3.74713 3.68177
# Velocity P-wave (km/s) = 6.84619 6.99389 6.92043
#
# Compressibility (1/GPa) = 0.01765066
#
# Stress axis : x y z
#
# Youngs Moduli (GPa) = 65.72172 49.70569 71.25969
#
# Poissons Ratio (x) = 0.27697 0.14918
# Poissons Ratio (y) = 0.36622 0.58380
# Poissons Ratio (z) = 0.13758 0.40722
#
# Static dielectric constant tensor:
#      x y z
#    x 0.013540 0.000000 0.000000 
#    y 0.000000 3.486280 0.000000 
#    z 0.000000 0.000000 3.583150 
# 
# 
# High freq. dielectric constant tensor:
#      x y z
#    x 1.739930 0.000000 0.000000 
#    y 0.000000 1.750170 0.000000 
#    z 0.000000 0.000000 1.753270 
# 
# From -- ./inp_files/30499.got.cif
#   From: 2010.03.12/outbox.cif.g09.slc.cpg/sg59_16_cif.got.tgz:30499.got - 2010.04.16 16:29:54.
