data_PCOD8244206
_publ_section_title
;
Structure prediction by ZEFSAII (Michael W. Deem and Ramdas Pophale) SiO2 
 PCOD8244206
Probable space group: P M M N
;
_chemical_formula_sum "Si O2"
_cell_formula_units_Z 64
_cell_length_a 24.759013
_cell_length_b 13.925504
_cell_length_c 9.043359
_cell_angle_alpha 90.000000
_cell_angle_beta 90.000000
_cell_angle_gamma 90.000000
_cell_volume 3117.985002
_symmetry_space_group_name_H-M "P M M N"
_symmetry_group_IT_number 59
_space_group.IT_coordinate_system_code '2'
_symmetry_cell_setting 'orthorhombic'
loop_
_space_group_symop_operation_xyz
x,y,z
1/2-x,1/2-y,z
1/2+x,-y,-z
-x,1/2+y,-z
-x,-y,-z
1/2+x,1/2+y,-z
1/2-x,y,z
x,1/2-y,z
loop_
_atom_site_type_symbol
_atom_site_label
_atom_site_fract_x
_atom_site_fract_y
_atom_site_fract_z
Si Si1 0.001376 0.862941 0.550846
Si Si2 0.519998 0.141149 0.118545
Si Si3 0.813035 0.355848 0.156745
Si Si4 0.613367 0.447553 0.943526
Si Si5 0.090116 0.143577 0.961139
Si Si6 0.606412 0.135622 0.626872
Si Si7 0.604545 0.861045 0.385692
Si Si8 0.185755 0.522363 0.559987
O O1 0.998732 0.750000 0.534687
O O2 0.948624 0.904392 0.467155
O O3 0.999769 0.895803 0.721468
O O4 0.056543 0.899160 0.474528
O O5 0.541888 0.250000 0.131878
O O6 0.472888 0.135130 0.998584
O O7 0.567786 0.072663 0.066635
O O8 0.750000 0.347618 0.145479
O O9 0.837828 0.250000 0.187804
O O10 0.830461 0.426524 0.287227
O O11 0.832389 0.396148 0.998821
O O12 0.622221 0.563245 0.943377
O O13 0.594717 0.405154 0.788906
O O14 0.111630 0.250000 0.006232
O O15 0.097224 0.126231 0.788332
O O16 0.612623 0.250000 0.631979
O O17 0.662318 0.089321 0.570104
O O18 0.614098 0.750000 0.428156
O O19 0.657322 0.918461 0.441368
O O20 0.250000 0.510371 0.538740
#
# Coordination Sequence:
#
# PCOD8244206 Si02
#       8
#     8   8   8   8   8   8   8   8
#     4   9  20  37  61  93 128 163 204 251 308 373
#     4  10  20  35  59  92 127 164 205 248 301 373
#     4  10  21  39  63  87 115 152 201 259 310 365
#     4  12  22  38  61  91 121 165 208 248 305 368
#     4  10  22  39  58  87 125 162 203 252 304 358
#     4  11  24  40  61  93 131 166 202 253 311 376
#     4  10  21  41  65  91 124 163 206 261 311 364
#     4  11  24  42  63  91 122 161 210 256 309 374
#
# _framework density 20.526077000000001
#
# number of rings (size 3 to 8) (size 9 to 14) (size 15 to 20)
#    0.000    1.625    1.250    3.375    1.750    5.000 
#    0.000    0.000    0.000    0.375    0.000    0.000 
#    0.000    0.000    0.000    0.000    0.000    0.000 
#
# Total GULP energy -793657.889413 kJ/mol
# GULP energy per Si atom -12400.904522 kJ/mol
# Density = 2.047936 g / cm^3
# Si number density = 20.526077 Si / 1000 Ang^3
#
#
#
# Elastic Constant Matrix: (Units=GPa)
#
#
# Indices 1 2 3 4 5 6 
#
# 1 84.0148 41.9874 45.7338 0.0000 0.0000 0.0000
# 2 41.9874 121.5722 47.5916 0.0000 0.0000 0.0000
# 3 45.7338 47.5916 83.3985 0.0000 0.0000 0.0000
# 4 0.0000 0.0000 0.0000 29.2627 0.0000 0.0000
# 5 0.0000 0.0000 0.0000 0.0000 24.9175 0.0000
# 6 0.0000 0.0000 0.0000 0.0000 0.0000 27.5777
#
#
#
# Elastic Compliance Matrix: (Units=1/GPa)
#
#
# Indices 1 2 3 4 5 6 
#
# 1 0.017774 -0.002991 -0.008040 0.000000 0.000000 0.000000
# 2 -0.002991 0.011095 -0.004691 0.000000 0.000000 0.000000
# 3 -0.008040 -0.004691 0.019077 0.000000 0.000000 0.000000
# 4 0.000000 0.000000 0.000000 0.034173 0.000000 0.000000
# 5 0.000000 0.000000 0.000000 0.000000 0.040132 0.000000
# 6 0.000000 0.000000 0.000000 0.000000 0.000000 0.036261
#
#
# Mechanical properties :
#
#
# Convention : Reuss Voigt Hill
#
# Bulk Modulus (GPa) = 60.60194 62.17901 61.39048
# Shear Modulus (GPa) = 25.58100 26.59643 26.08872
#
# Velocity S-wave (km/s) = 3.53408 3.60354 3.56898
# Velocity P-wave (km/s) = 6.80011 6.90453 6.85251
#
# Compressibility (1/GPa) = 0.01650112
#
# Stress axis : x y z
#
# Youngs Moduli (GPa) = 56.26141 90.13008 52.42045
#
# Poissons Ratio (x) = 0.26960 0.42146
# Poissons Ratio (y) = 0.16829 0.24591
# Poissons Ratio (z) = 0.45234 0.42281
#
# Static dielectric constant tensor:
#      x y z
#    x 3.509480 0.000000 0.000000 
#    y 0.000000 4.074050 0.000000 
#    z 0.000000 0.000000 3.806200 
# 
# 
# High freq. dielectric constant tensor:
#      x y z
#    x 1.781270 0.000000 0.000000 
#    y 0.000000 1.819310 0.000000 
#    z 0.000000 0.000000 1.801390 
# 
# From -- ./inp_files/12206.got.cif
#   From: 2010.03.12/outbox.cif.g09.slc.cpg/sg59_7_cif.got.tgz:12206.got - 2010.04.16 16:29:54.
