data_PCOD8244667
_publ_section_title
;
Structure prediction by ZEFSAII (Michael W. Deem and Ramdas Pophale) SiO2 
 PCOD8244667
Probable space group: P M M N
;
_chemical_formula_sum "Si O2"
_cell_formula_units_Z 64
_cell_length_a 13.443786
_cell_length_b 17.819998
_cell_length_c 12.745098
_cell_angle_alpha 90.000000
_cell_angle_beta 90.000000
_cell_angle_gamma 90.000000
_cell_volume 3053.320692
_symmetry_space_group_name_H-M "P M M N"
_symmetry_group_IT_number 59
_space_group.IT_coordinate_system_code '2'
_symmetry_cell_setting 'orthorhombic'
loop_
_space_group_symop_operation_xyz
x,y,z
1/2-x,1/2-y,z
1/2+x,-y,-z
-x,1/2+y,-z
-x,-y,-z
1/2+x,1/2+y,-z
1/2-x,y,z
x,1/2-y,z
loop_
_atom_site_type_symbol
_atom_site_label
_atom_site_fract_x
_atom_site_fract_y
_atom_site_fract_z
Si Si1 0.140056 0.931528 0.711144
Si Si2 0.866904 0.058987 0.702851
Si Si3 0.138326 0.099452 0.788967
Si Si4 0.467184 0.566309 0.076715
Si Si5 0.435962 0.661107 0.895520
Si Si6 0.059053 0.090784 0.394338
Si Si7 0.358538 0.162941 0.197667
Si Si8 0.473387 0.163909 0.609838
O O1 0.250000 0.925494 0.661028
O O2 0.135419 0.874544 0.808693
O O3 0.059686 0.909450 0.624402
O O4 0.117788 0.015440 0.748530
O O5 0.750000 0.075688 0.703196
O O6 0.903042 0.039675 0.822041
O O7 0.923894 0.131233 0.657090
O O8 0.892035 0.990130 0.625774
O O9 0.250000 0.112689 0.827245
O O10 0.111802 0.158555 0.698170
O O11 0.066387 0.110672 0.887536
O O12 0.500000 0.500000 0.000000
O O13 0.405130 0.627187 0.008523
O O14 0.422626 0.750000 0.893730
O O15 0.550329 0.633478 0.873565
O O16 0.114249 0.149501 0.319128
O O17 0.071310 0.116269 0.513546
O O18 0.250000 0.124942 0.171662
O O19 0.347440 0.250000 0.178985
O O20 0.491489 0.250000 0.577198
#
# Coordination Sequence:
#
# PCOD8244667 Si02
#       8
#     8   8   8   8   8   8   8   8
#     4  10  20  38  63  91 124 157 202 258 310 364
#     4  11  25  42  63  91 125 164 208 258 309 369
#     4  10  22  40  63  91 121 158 203 256 307 362
#     4  11  20  38  61  91 122 164 209 255 309 368
#     4  10  21  36  58  88 127 166 206 255 309 372
#     4  11  20  40  64  94 118 159 208 256 312 365
#     4   9  18  33  55  88 128 162 198 254 316 369
#     4  11  25  44  64  91 128 165 205 253 311 377
#
# _framework density 20.960785000000001
#
# number of rings (size 3 to 8) (size 9 to 14) (size 15 to 20)
#    0.000    1.625    3.750    1.875    0.000    6.250 
#    0.000    0.000    0.000    0.000    0.000    0.000 
#    0.000    0.000    0.000    0.000    0.000    0.000 
#
# Total GULP energy -793395.347082 kJ/mol
# GULP energy per Si atom -12396.802298 kJ/mol
# Density = 2.091308 g / cm^3
# Si number density = 20.960785 Si / 1000 Ang^3
#
#
#
# Elastic Constant Matrix: (Units=GPa)
#
#
# Indices 1 2 3 4 5 6 
#
# 1 83.2928 7.6673 -0.0021 0.0000 0.0000 0.0000
# 2 7.6673 80.4181 26.6842 0.0000 0.0000 0.0000
# 3 -0.0021 26.6842 81.2401 0.0000 0.0000 0.0000
# 4 0.0000 0.0000 0.0000 32.9448 0.0000 0.0000
# 5 0.0000 0.0000 0.0000 0.0000 12.2276 0.0000
# 6 0.0000 0.0000 0.0000 0.0000 0.0000 18.3459
#
#
#
# Elastic Compliance Matrix: (Units=1/GPa)
#
#
# Indices 1 2 3 4 5 6 
#
# 1 0.012125 -0.001298 0.000427 0.000000 0.000000 0.000000
# 2 -0.001298 0.014095 -0.004630 0.000000 0.000000 0.000000
# 3 0.000427 -0.004630 0.013830 0.000000 0.000000 0.000000
# 4 0.000000 0.000000 0.000000 0.030354 0.000000 0.000000
# 5 0.000000 0.000000 0.000000 0.000000 0.081782 0.000000
# 6 0.000000 0.000000 0.000000 0.000000 0.000000 0.054508
#
#
# Mechanical properties :
#
#
# Convention : Reuss Voigt Hill
#
# Bulk Modulus (GPa) = 34.42503 34.84997 34.63750
# Shear Modulus (GPa) = 21.98976 26.74377 24.36676
#
# Velocity S-wave (km/s) = 3.24248 3.57584 3.41323
# Velocity P-wave (km/s) = 5.52064 5.80614 5.66519
#
# Compressibility (1/GPa) = 0.02904863
#
# Stress axis : x y z
#
# Youngs Moduli (GPa) = 82.47218 70.94746 72.30731
#
# Poissons Ratio (x) = 0.09206 -0.03084
# Poissons Ratio (y) = 0.10701 0.33476
# Poissons Ratio (z) = -0.03518 0.32846
#
# Static dielectric constant tensor:
#      x y z
#    x 4.077430 0.000000 0.000000 
#    y 0.000000 3.662320 0.000000 
#    z 0.000000 0.000000 3.786530 
# 
# 
# High freq. dielectric constant tensor:
#      x y z
#    x 1.820720 0.000000 0.000000 
#    y 0.000000 1.812010 0.000000 
#    z 0.000000 0.000000 1.815160 
# 
# From -- ./inp_files/17213.got.cif
#   From: 2010.03.12/outbox.cif.g09.slc.cpg/sg59_9_cif.got.tgz:17213.got - 2010.04.16 16:29:54.
