data_PCOD8244679
_publ_section_title
;
Structure prediction by ZEFSAII (Michael W. Deem and Ramdas Pophale) SiO2 
 PCOD8244679
Probable space group: P M M N
;
_chemical_formula_sum "Si O2"
_cell_formula_units_Z 56
_cell_length_a 9.314887
_cell_length_b 22.252853
_cell_length_c 14.095369
_cell_angle_alpha 90.000000
_cell_angle_beta 90.000000
_cell_angle_gamma 90.000000
_cell_volume 2921.727710
_symmetry_space_group_name_H-M "P M M N"
_symmetry_group_IT_number 59
_space_group.IT_coordinate_system_code '2'
_symmetry_cell_setting 'orthorhombic'
loop_
_space_group_symop_operation_xyz
x,y,z
1/2-x,1/2-y,z
1/2+x,-y,-z
-x,1/2+y,-z
-x,-y,-z
1/2+x,1/2+y,-z
1/2-x,y,z
x,1/2-y,z
loop_
_atom_site_type_symbol
_atom_site_label
_atom_site_fract_x
_atom_site_fract_y
_atom_site_fract_z
Si Si1 0.091312 0.557466 0.019966
Si Si2 0.415395 0.077360 0.424863
Si Si3 0.083997 0.034638 0.637821
Si Si4 0.584756 0.319670 0.341001
Si Si5 0.916570 0.116938 0.784201
Si Si6 0.085591 0.750000 0.172775
Si Si7 0.917905 0.750000 0.981031
Si Si8 0.908663 0.156371 0.127247
O O1 0.250000 0.535174 0.045353
O O2 0.038272 0.598908 0.107972
O O3 0.089773 0.591458 0.919957
O O4 0.000000 0.500000 0.000000
O O5 0.250000 0.077052 0.392330
O O6 0.430996 0.063964 0.535264
O O7 0.483994 0.143231 0.411886
O O8 0.500818 0.028804 0.361205
O O9 0.250000 0.023019 0.664520
O O10 0.015340 0.080142 0.712718
O O11 0.750000 0.326689 0.372505
O O12 0.538416 0.250000 0.342326
O O13 0.557756 0.348160 0.237936
O O14 0.750000 0.102097 0.763891
O O15 0.943980 0.188635 0.768284
O O16 0.250000 0.750000 0.136128
O O17 0.982963 0.750000 0.084181
O O18 0.750000 0.750000 0.991989
O O19 0.966429 0.692567 0.922764
O O20 0.750000 0.186264 0.113259
#
# Coordination Sequence:
#
# PCOD8244679 Si02
#       8
#     8   8   8   8   8   4   4   8
#     4  10  22  37  56  83 117 154 191 236 287 337
#     4  10  22  41  64  88 117 152 192 243 297 352
#     4  10  22  41  64  88 116 153 193 240 297 353
#     4  10  21  37  61  90 118 155 200 243 292 351
#     4  10  21  38  62  88 114 152 198 243 291 346
#     4  10  20  40  62  79 112 159 200 237 288 352
#     4  12  22  32  54  85 112 147 194 241 278 324
#     4  10  20  39  59  77 111 157 195 230 279 343
#
# _framework density 19.166741999999999
#
# number of rings (size 3 to 8) (size 9 to 14) (size 15 to 20)
#    0.000    1.857    2.143    1.500    2.000    4.286 
#    1.286    0.000    0.000    0.000    0.000    0.000 
#    0.000    0.000    0.000    0.000    0.000    0.000 
#
# Total GULP energy -694329.871090 kJ/mol
# GULP energy per Si atom -12398.747698 kJ/mol
# Density = 1.912312 g / cm^3
# Si number density = 19.166742 Si / 1000 Ang^3
#
#
#
# Elastic Constant Matrix: (Units=GPa)
#
#
# Indices 1 2 3 4 5 6 
#
# 1 115.5117 63.2706 40.9542 0.0000 0.0000 0.0000
# 2 63.2706 131.7303 43.0194 0.0000 0.0000 0.0000
# 3 40.9542 43.0194 49.0168 0.0000 0.0000 0.0000
# 4 0.0000 0.0000 0.0000 30.9843 0.0000 0.0000
# 5 0.0000 0.0000 0.0000 0.0000 30.7606 0.0000
# 6 0.0000 0.0000 0.0000 0.0000 0.0000 37.8202
#
#
#
# Elastic Compliance Matrix: (Units=1/GPa)
#
#
# Indices 1 2 3 4 5 6 
#
# 1 0.013634 -0.003965 -0.007912 0.000000 0.000000 0.000000
# 2 -0.003965 0.011794 -0.007039 0.000000 0.000000 0.000000
# 3 -0.007912 -0.007039 0.033189 0.000000 0.000000 0.000000
# 4 0.000000 0.000000 0.000000 0.032274 0.000000 0.000000
# 5 0.000000 0.000000 0.000000 0.000000 0.032509 0.000000
# 6 0.000000 0.000000 0.000000 0.000000 0.000000 0.026441
#
#
# Mechanical properties :
#
#
# Convention : Reuss Voigt Hill
#
# Bulk Modulus (GPa) = 48.10694 65.63858 56.87276
# Shear Modulus (GPa) = 25.69377 29.84732 27.77054
#
# Velocity S-wave (km/s) = 3.66531 3.95048 3.81056
# Velocity P-wave (km/s) = 6.56249 7.42488 7.00696
#
# Compressibility (1/GPa) = 0.02078702
#
# Stress axis : x y z
#
# Youngs Moduli (GPa) = 73.34726 84.78824 30.13066
#
# Poissons Ratio (x) = 0.33615 0.23838
# Poissons Ratio (y) = 0.29080 0.21208
# Poissons Ratio (z) = 0.58030 0.59678
#
# Static dielectric constant tensor:
#      x y z
#    x 3.535330 0.000000 0.000000 
#    y 0.000000 3.549290 0.000000 
#    z 0.000000 0.000000 3.474800 
# 
# 
# High freq. dielectric constant tensor:
#      x y z
#    x 1.744160 0.000000 0.000000 
#    y 0.000000 1.751310 0.000000 
#    z 0.000000 0.000000 1.735230 
# 
# From -- ./inp_files/21152.got.cif
#   From: 2010.03.12/outbox.cif.g09.slc.cpg/sg59_11_cif.got.tgz:21152.got - 2010.04.16 16:29:54.
