data_PCOD8244644
_publ_section_title
;
Structure prediction by ZEFSAII (Michael W. Deem and Ramdas Pophale) SiO2 
 PCOD8244644
Probable space group: P M M N
;
_chemical_formula_sum "Si O2"
_cell_formula_units_Z 64
_cell_length_a 23.941545
_cell_length_b 15.116979
_cell_length_c 9.004258
_cell_angle_alpha 90.000000
_cell_angle_beta 90.000000
_cell_angle_gamma 90.000000
_cell_volume 3258.855569
_symmetry_space_group_name_H-M "P M M N"
_symmetry_group_IT_number 59
_space_group.IT_coordinate_system_code '2'
_symmetry_cell_setting 'orthorhombic'
loop_
_space_group_symop_operation_xyz
x,y,z
1/2-x,1/2-y,z
1/2+x,-y,-z
-x,1/2+y,-z
-x,-y,-z
1/2+x,1/2+y,-z
1/2-x,y,z
x,1/2-y,z
loop_
_atom_site_type_symbol
_atom_site_label
_atom_site_fract_x
_atom_site_fract_y
_atom_site_fract_z
Si Si1 0.116059 0.849459 0.582407
Si Si2 0.106203 0.347481 0.418080
Si Si3 0.996469 0.403124 0.565050
Si Si4 0.814155 0.005370 0.576924
Si Si5 0.006072 0.853324 0.107204
Si Si6 0.897302 0.648645 0.923057
Si Si7 0.186056 0.504166 0.076575
Si Si8 0.115065 0.852890 0.924261
O O1 0.139184 0.750000 0.569333
O O2 0.058006 0.854540 0.495486
O O3 0.163055 0.911646 0.513417
O O4 0.105396 0.875484 0.752491
O O5 0.133218 0.250000 0.433935
O O6 0.151962 0.418019 0.471166
O O7 0.087352 0.364800 0.249228
O O8 0.051705 0.349986 0.520759
O O9 0.000000 0.500000 0.500000
O O10 0.992420 0.409561 0.742463
O O11 0.750000 0.989540 0.534153
O O12 0.821761 0.025320 0.750202
O O13 0.007017 0.750000 0.146749
O O14 0.951237 0.879296 0.015996
O O15 0.059111 0.880724 0.009693
O O16 0.879477 0.750000 0.955635
O O17 0.846863 0.584544 0.970115
O O18 0.250000 0.486174 0.035781
O O19 0.166007 0.589386 0.985706
O O20 0.129659 0.750000 0.949018
#
# Coordination Sequence:
#
# PCOD8244644 Si02
#       8
#     8   8   8   8   8   8   8   8
#     4  11  23  41  61  85 118 155 195 243 297 353
#     4  10  20  38  60  86 121 156 193 241 291 348
#     4  12  23  35  58  91 121 153 189 239 293 351
#     4  10  22  40  60  88 118 153 202 243 289 350
#     4  10  21  38  59  87 118 152 193 238 291 353
#     4   9  20  37  60  87 117 153 193 238 289 345
#     4  10  22  38  59  85 116 154 196 241 286 341
#     4  10  23  40  61  86 115 153 195 241 294 348
#
# _framework density 19.638797
#
# number of rings (size 3 to 8) (size 9 to 14) (size 15 to 20)
#    0.000    1.750    1.250    2.625    3.500    5.500 
#    0.000    5.000    0.000    0.000    0.000    3.500 
#    0.000    0.000    0.000    0.000    0.000    0.000 
#
# Total GULP energy -793911.035338 kJ/mol
# GULP energy per Si atom -12404.859927 kJ/mol
# Density = 1.959410 g / cm^3
# Si number density = 19.638797 Si / 1000 Ang^3
#
#
#
# Elastic Constant Matrix: (Units=GPa)
#
#
# Indices 1 2 3 4 5 6 
#
# 1 125.4737 51.0303 52.8379 0.0000 0.0000 0.0000
# 2 51.0303 104.3320 49.0538 0.0000 0.0000 0.0000
# 3 52.8379 49.0538 99.1304 0.0000 0.0000 0.0000
# 4 0.0000 0.0000 0.0000 31.4741 0.0000 0.0000
# 5 0.0000 0.0000 0.0000 0.0000 31.5662 0.0000
# 6 0.0000 0.0000 0.0000 0.0000 0.0000 24.3683
#
#
#
# Elastic Compliance Matrix: (Units=1/GPa)
#
#
# Indices 1 2 3 4 5 6 
#
# 1 0.011164 -0.003470 -0.004233 0.000000 0.000000 0.000000
# 2 -0.003470 0.013569 -0.004865 0.000000 0.000000 0.000000
# 3 -0.004233 -0.004865 0.014752 0.000000 0.000000 0.000000
# 4 0.000000 0.000000 0.000000 0.031772 0.000000 0.000000
# 5 0.000000 0.000000 0.000000 0.000000 0.031679 0.000000
# 6 0.000000 0.000000 0.000000 0.000000 0.000000 0.041037
#
#
# Mechanical properties :
#
#
# Convention : Reuss Voigt Hill
#
# Bulk Modulus (GPa) = 69.69685 70.53115 70.11400
# Shear Modulus (GPa) = 28.75330 29.21598 28.98464
#
# Velocity S-wave (km/s) = 3.83052 3.86121 3.84589
# Velocity P-wave (km/s) = 7.42497 7.47468 7.44987
#
# Compressibility (1/GPa) = 0.01434785
#
# Stress axis : x y z
#
# Youngs Moduli (GPa) = 89.57586 73.69486 67.78899
#
# Poissons Ratio (x) = 0.25572 0.28697
# Poissons Ratio (y) = 0.31082 0.32981
# Poissons Ratio (z) = 0.37921 0.35854
#
# Static dielectric constant tensor:
#      x y z
#    x 3.570430 0.000000 0.000000 
#    y 0.000000 3.681570 0.000000 
#    z 0.000000 0.000000 3.600180 
# 
# 
# High freq. dielectric constant tensor:
#      x y z
#    x 1.758470 0.000000 0.000000 
#    y 0.000000 1.776040 0.000000 
#    z 0.000000 0.000000 1.766030 
# 
# From -- ./inp_files/12183.got.cif
#   From: 2010.03.12/outbox.cif.g09.slc.cpg/sg59_7_cif.got.tgz:12183.got - 2010.04.16 16:29:54.
