data_PCOD8244213
_publ_section_title
;
Structure prediction by ZEFSAII (Michael W. Deem and Ramdas Pophale) SiO2 
 PCOD8244213
Probable space group: P M M N
;
_chemical_formula_sum "Si O2"
_cell_formula_units_Z 64
_cell_length_a 27.907889
_cell_length_b 8.951398
_cell_length_c 13.052189
_cell_angle_alpha 90.000000
_cell_angle_beta 90.000000
_cell_angle_gamma 90.000000
_cell_volume 3260.627658
_symmetry_space_group_name_H-M "P M M N"
_symmetry_group_IT_number 59
_space_group.IT_coordinate_system_code '2'
_symmetry_cell_setting 'orthorhombic'
loop_
_space_group_symop_operation_xyz
x,y,z
1/2-x,1/2-y,z
1/2+x,-y,-z
-x,1/2+y,-z
-x,-y,-z
1/2+x,1/2+y,-z
1/2-x,y,z
x,1/2-y,z
loop_
_atom_site_type_symbol
_atom_site_label
_atom_site_fract_x
_atom_site_fract_y
_atom_site_fract_z
Si Si1 0.472638 0.072989 0.094564
Si Si2 0.862900 0.927296 0.922612
Si Si3 0.805379 0.425479 0.742522
Si Si4 0.959544 0.578333 0.242575
Si Si5 0.545661 0.422853 0.451794
Si Si6 0.195257 0.426844 0.659120
Si Si7 0.352386 0.578256 0.466934
Si Si8 0.859560 0.579203 0.147200
O O1 0.478581 0.250000 0.086583
O O2 0.417409 0.023498 0.098403
O O3 0.495105 0.012025 0.200036
O O4 0.500000 0.000000 0.000000
O O5 0.858683 0.750000 0.918452
O O6 0.826954 0.996071 0.841448
O O7 0.847595 0.989130 0.035484
O O8 0.750000 0.471149 0.731289
O O9 0.811808 0.250000 0.756693
O O10 0.833611 0.482533 0.641972
O O11 0.974238 0.750000 0.262552
O O12 0.940995 0.504709 0.346798
O O13 0.916648 0.566846 0.161274
O O14 0.500000 0.500000 0.500000
O O15 0.534510 0.250000 0.430303
O O16 0.590269 0.441691 0.529036
O O17 0.250000 0.477055 0.664218
O O18 0.188747 0.250000 0.657404
O O19 0.172275 0.486632 0.556183
O O20 0.169133 0.498575 0.759306
O O21 0.337341 0.750000 0.481124
O O22 0.843183 0.750000 0.146508
#
# Coordination Sequence:
#
# PCOD8244213 Si02
#       8
#     8   8   8   8   8   8   8   8
#     4  11  22  37  58  90 123 157 202 250 297 357
#     4  10  22  40  61  88 120 158 204 249 299 358
#     4  10  23  43  63  85 117 158 204 255 308 359
#     4  11  21  38  61  84 120 164 199 244 304 361
#     4  11  24  40  59  90 124 159 201 245 302 367
#     4  10  20  35  60  91 117 147 191 243 300 359
#     4  10  22  41  63  86 117 157 198 242 300 363
#     4   9  18  36  58  85 120 155 191 238 299 357
#
# _framework density 19.628122000000001
#
# number of rings (size 3 to 8) (size 9 to 14) (size 15 to 20)
#    0.000    1.750    2.500    1.500    1.750    3.500 
#    0.000    1.875    0.000    0.000    0.000    0.000 
#    0.000    0.000    0.000    0.000    0.000    0.000 
#
# Total GULP energy -793688.326726 kJ/mol
# GULP energy per Si atom -12401.380105 kJ/mol
# Density = 1.958345 g / cm^3
# Si number density = 19.628122 Si / 1000 Ang^3
#
#
#
# Elastic Constant Matrix: (Units=GPa)
#
#
# Indices 1 2 3 4 5 6 
#
# 1 104.5920 39.2443 59.2969 0.0000 0.0000 0.0000
# 2 39.2443 57.1278 30.9479 0.0000 0.0000 0.0000
# 3 59.2969 30.9479 148.5672 0.0000 0.0000 0.0000
# 4 0.0000 0.0000 0.0000 34.6113 0.0000 0.0000
# 5 0.0000 0.0000 0.0000 0.0000 34.6788 0.0000
# 6 0.0000 0.0000 0.0000 0.0000 0.0000 27.7142
#
#
#
# Elastic Compliance Matrix: (Units=1/GPa)
#
#
# Indices 1 2 3 4 5 6 
#
# 1 0.015002 -0.007961 -0.004330 0.000000 0.000000 0.000000
# 2 -0.007961 0.023955 -0.001813 0.000000 0.000000 0.000000
# 3 -0.004330 -0.001813 0.008837 0.000000 0.000000 0.000000
# 4 0.000000 0.000000 0.000000 0.028892 0.000000 0.000000
# 5 0.000000 0.000000 0.000000 0.000000 0.028836 0.000000
# 6 0.000000 0.000000 0.000000 0.000000 0.000000 0.036083
#
#
# Mechanical properties :
#
#
# Convention : Reuss Voigt Hill
#
# Bulk Modulus (GPa) = 51.05074 63.25167 57.15121
# Shear Modulus (GPa) = 28.35420 31.45405 29.90412
#
# Velocity S-wave (km/s) = 3.80487 4.00747 3.90748
# Velocity P-wave (km/s) = 6.73559 7.32858 7.03833
#
# Compressibility (1/GPa) = 0.01958835
#
# Stress axis : x y z
#
# Youngs Moduli (GPa) = 66.65576 41.74457 113.16514
#
# Poissons Ratio (x) = 0.33231 0.48996
# Poissons Ratio (y) = 0.53062 0.20515
# Poissons Ratio (z) = 0.28859 0.07568
#
# Static dielectric constant tensor:
#      x y z
#    x 3.684330 0.000000 0.000000 
#    y 0.000000 3.456560 0.000000 
#    z 0.000000 0.000000 3.747220 
# 
# 
# High freq. dielectric constant tensor:
#      x y z
#    x 1.769830 0.000000 0.000000 
#    y 0.000000 1.747760 0.000000 
#    z 0.000000 0.000000 1.778540 
# 
# From -- ./inp_files/19255.got.cif
#   From: 2010.03.12/outbox.cif.g09.slc.cpg/sg59_10_cif.got.tgz:19255.got - 2010.04.16 16:29:54.
