data_PCOD8244312
_publ_section_title
;
Structure prediction by ZEFSAII (Michael W. Deem and Ramdas Pophale) SiO2 
 PCOD8244312
Probable space group: P M M N
;
_chemical_formula_sum "Si O2"
_cell_formula_units_Z 48
_cell_length_a 20.739568
_cell_length_b 8.608941
_cell_length_c 14.211529
_cell_angle_alpha 90.000000
_cell_angle_beta 90.000000
_cell_angle_gamma 90.000000
_cell_volume 2537.407639
_symmetry_space_group_name_H-M "P M M N"
_symmetry_group_IT_number 59
_space_group.IT_coordinate_system_code '2'
_symmetry_cell_setting 'orthorhombic'
loop_
_space_group_symop_operation_xyz
x,y,z
1/2-x,1/2-y,z
1/2+x,-y,-z
-x,1/2+y,-z
-x,-y,-z
1/2+x,1/2+y,-z
1/2-x,y,z
x,1/2-y,z
loop_
_atom_site_type_symbol
_atom_site_label
_atom_site_fract_x
_atom_site_fract_y
_atom_site_fract_z
Si Si1 0.177806 0.934253 0.104851
Si Si2 0.250000 0.427345 0.388089
Si Si3 0.822789 0.065500 0.100441
Si Si4 0.000171 0.066928 0.396152
Si Si5 0.250000 0.074443 0.610566
Si Si6 0.624142 0.066562 0.701739
Si Si7 0.126552 0.934352 0.706301
O O1 0.250000 0.000462 0.122434
O O2 0.182032 0.750000 0.105044
O O3 0.130975 0.987981 0.189084
O O4 0.152042 0.992774 0.002365
O O5 0.250000 0.250000 0.350542
O O6 0.250000 0.429895 0.499329
O O7 0.312209 0.519413 0.353642
O O8 0.750000 0.004591 0.116951
O O9 0.822352 0.250000 0.101703
O O10 0.867325 0.002995 0.185769
O O11 0.995753 0.250000 0.404508
O O12 0.938985 0.998920 0.338898
O O13 0.063994 0.022139 0.340861
O O14 0.000000 0.000000 0.500000
O O15 0.250000 0.250000 0.648612
O O16 0.186644 0.988293 0.645465
O O17 0.613584 0.250000 0.692177
O O18 0.125656 0.750000 0.705458
#
# Coordination Sequence:
#
# PCOD8244312 Si02
#       7
#     8   4   8   8   4   8   8
#     4   8  14  27  51  84 112 137 175 220 268 326
#     4  11  23  37  54  79 110 144 185 235 282 325
#     4   8  13  26  53  83 108 135 174 223 269 319
#     4  11  24  40  57  79 110 149 191 232 279 332
#     4  11  23  35  52  79 110 138 173 227 282 329
#     4  11  21  36  58  83 111 145 185 226 273 331
#     4  10  20  36  58  81 105 141 187 228 268 323
#
# _framework density 18.916944999999998
#
# number of rings (size 3 to 8) (size 9 to 14) (size 15 to 20)
#    0.000    2.167    1.667    3.500    0.000    5.333 
#    0.000    0.833    0.000    3.000    0.000    0.000 
#    0.000    0.000    0.000    0.000    0.000    0.000 
#
# Total GULP energy -594964.486978 kJ/mol
# GULP energy per Si atom -12395.093479 kJ/mol
# Density = 1.887389 g / cm^3
# Si number density = 18.916945 Si / 1000 Ang^3
#
#
#
# Elastic Constant Matrix: (Units=GPa)
#
#
# Indices 1 2 3 4 5 6 
#
# 1 134.1323 10.8769 75.5878 0.0000 0.0000 0.0000
# 2 10.8769 23.2049 20.0738 0.0000 0.0000 0.0000
# 3 75.5878 20.0738 172.4581 0.0000 0.0000 0.0000
# 4 0.0000 0.0000 0.0000 17.6548 0.0000 0.0000
# 5 0.0000 0.0000 0.0000 0.0000 60.3252 0.0000
# 6 0.0000 0.0000 0.0000 0.0000 0.0000 40.8791
#
#
#
# Elastic Compliance Matrix: (Units=1/GPa)
#
#
# Indices 1 2 3 4 5 6 
#
# 1 0.009921 -0.000988 -0.004233 0.000000 0.000000 0.000000
# 2 -0.000988 0.048018 -0.005156 0.000000 0.000000 0.000000
# 3 -0.004233 -0.005156 0.008254 0.000000 0.000000 0.000000
# 4 0.000000 0.000000 0.000000 0.056642 0.000000 0.000000
# 5 0.000000 0.000000 0.000000 0.000000 0.016577 0.000000
# 6 0.000000 0.000000 0.000000 0.000000 0.000000 0.024462
#
#
# Mechanical properties :
#
#
# Convention : Reuss Voigt Hill
#
# Bulk Modulus (GPa) = 22.00811 60.31914 41.16362
# Shear Modulus (GPa) = 25.02812 38.65559 31.84186
#
# Velocity S-wave (km/s) = 3.64133 4.52534 4.10719
# Velocity P-wave (km/s) = 5.41649 7.69808 6.65578
#
# Compressibility (1/GPa) = 0.04543780
#
# Stress axis : x y z
#
# Youngs Moduli (GPa) = 100.79536 20.82560 121.15149
#
# Poissons Ratio (x) = 0.02058 0.51288
# Poissons Ratio (y) = 0.09961 0.62466
# Poissons Ratio (z) = 0.42670 0.10738
#
# Static dielectric constant tensor:
#      x y z
#    x 1.251270 0.000000 0.000000 
#    y 0.000000 3.263380 0.000000 
#    z 0.000000 0.000000 4.124770 
# 
# 
# High freq. dielectric constant tensor:
#      x y z
#    x 1.719540 0.000000 0.000000 
#    y 0.000000 1.707660 0.000000 
#    z 0.000000 0.000000 1.760170 
# 
# From -- ./inp_files/23721.got.cif
#   From: 2010.03.12/outbox.cif.g09.slc.cpg/sg59_12_cif.got.tgz:23721.got - 2010.04.16 16:29:54.
