data_PCOD8244932
_publ_section_title
;
Structure prediction by ZEFSAII (Michael W. Deem and Ramdas Pophale) SiO2 
 PCOD8244932
Probable space group: P M M N
;
_chemical_formula_sum "Si O2"
_cell_formula_units_Z 48
_cell_length_a 9.295219
_cell_length_b 14.096931
_cell_length_c 18.908801
_cell_angle_alpha 90.000000
_cell_angle_beta 90.000000
_cell_angle_gamma 90.000000
_cell_volume 2477.696981
_symmetry_space_group_name_H-M "P M M N"
_symmetry_group_IT_number 59
_space_group.IT_coordinate_system_code '2'
_symmetry_cell_setting 'orthorhombic'
loop_
_space_group_symop_operation_xyz
x,y,z
1/2-x,1/2-y,z
1/2+x,-y,-z
-x,1/2+y,-z
-x,-y,-z
1/2+x,1/2+y,-z
1/2-x,y,z
x,1/2-y,z
loop_
_atom_site_type_symbol
_atom_site_label
_atom_site_fract_x
_atom_site_fract_y
_atom_site_fract_z
Si Si1 0.917986 0.143352 0.988227
Si Si2 0.417685 0.141466 0.666981
Si Si3 0.082987 0.466018 0.101841
Si Si4 0.413038 0.862711 0.622639
Si Si5 0.919303 0.979214 0.735577
Si Si6 0.590923 0.862946 0.490885
O O1 0.750000 0.138060 0.004378
O O2 0.963752 0.250000 0.965958
O O3 0.997151 0.114821 0.060415
O O4 0.961685 0.071302 0.925292
O O5 0.250000 0.129409 0.685574
O O6 0.465697 0.250000 0.674381
O O7 0.448617 0.101377 0.587883
O O8 0.515662 0.082498 0.720293
O O9 0.250000 0.448365 0.087610
O O10 0.044684 0.455176 0.183722
O O11 0.250000 0.900398 0.628856
O O12 0.419706 0.750000 0.624707
O O13 0.505853 0.899871 0.687800
O O14 0.476658 0.901269 0.548119
O O15 0.750000 0.979981 0.720692
O O16 0.750000 0.898872 0.512622
O O17 0.591265 0.750000 0.488417
#
# Coordination Sequence:
#
# PCOD8244932 Si02
#       6
#     8   8   8   8   8   8
#     4   9  18  35  60  84 105 134 170 209 256 306
#     4   9  19  36  56  78 106 140 178 223 272 317
#     4   9  20  37  54  78 111 140 171 212 253 302
#     4  10  21  36  54  76 103 138 181 228 274 318
#     4  11  23  36  53  78 109 146 180 213 259 314
#     4   8  15  31  54  76 100 133 175 224 273 318
#
# _framework density 19.372827999999998
#
# number of rings (size 3 to 8) (size 9 to 14) (size 15 to 20)
#    0.000    2.667    0.000    2.000    0.000    5.667 
#    0.000    6.667    0.000    0.000    0.000    0.000 
#    0.000    0.000    0.000    0.000    0.000    0.000 
#
# Total GULP energy -595202.847099 kJ/mol
# GULP energy per Si atom -12400.059315 kJ/mol
# Density = 1.932873 g / cm^3
# Si number density = 19.372828 Si / 1000 Ang^3
#
#
#
# Elastic Constant Matrix: (Units=GPa)
#
#
# Indices 1 2 3 4 5 6 
#
# 1 76.6935 9.4381 33.8265 0.0000 0.0000 0.0000
# 2 9.4381 30.2263 -14.2946 0.0000 0.0000 0.0000
# 3 33.8265 -14.2946 59.3001 0.0000 0.0000 0.0000
# 4 0.0000 0.0000 0.0000 23.7149 0.0000 0.0000
# 5 0.0000 0.0000 0.0000 0.0000 30.6042 0.0000
# 6 0.0000 0.0000 0.0000 0.0000 0.0000 30.8701
#
#
#
# Elastic Compliance Matrix: (Units=1/GPa)
#
#
# Indices 1 2 3 4 5 6 
#
# 1 0.021814 -0.014330 -0.015898 0.000000 0.000000 0.000000
# 2 -0.014330 0.046754 0.019444 0.000000 0.000000 0.000000
# 3 -0.015898 0.019444 0.030619 0.000000 0.000000 0.000000
# 4 0.000000 0.000000 0.000000 0.042168 0.000000 0.000000
# 5 0.000000 0.000000 0.000000 0.000000 0.032675 0.000000
# 6 0.000000 0.000000 0.000000 0.000000 0.000000 0.032394
#
#
# Mechanical properties :
#
#
# Convention : Reuss Voigt Hill
#
# Bulk Modulus (GPa) = 12.88313 24.90663 18.89488
# Shear Modulus (GPa) = 19.69561 26.18783 22.94172
#
# Velocity S-wave (km/s) = 3.19197 3.68065 3.44499
# Velocity P-wave (km/s) = 4.49994 5.56303 5.05948
#
# Compressibility (1/GPa) = 0.07762089
#
# Stress axis : x y z
#
# Youngs Moduli (GPa) = 45.84168 21.38863 32.65940
#
# Poissons Ratio (x) = 0.30649 0.51921
# Poissons Ratio (y) = 0.65690 -0.63504
# Poissons Ratio (z) = 0.72878 -0.41589
#
# Static dielectric constant tensor:
#      x y z
#    x 3.589430 0.000000 0.000000 
#    y 0.000000 3.495100 0.000000 
#    z 0.000000 0.000000 3.518040 
# 
# 
# High freq. dielectric constant tensor:
#      x y z
#    x 1.753610 0.000000 0.000000 
#    y 0.000000 1.757380 0.000000 
#    z 0.000000 0.000000 1.746300 
# 
# From -- ./inp_files/25436.got.cif
#   From: 2010.03.12/outbox.cif.g09.slc.cpg/sg59_13_cif.got.tgz:25436.got - 2010.04.16 16:29:54.
