data_PCOD8244133
_publ_section_title
;
Structure prediction by ZEFSAII (Michael W. Deem and Ramdas Pophale) SiO2 
 PCOD8244133
Probable space group: P M M N
;
_chemical_formula_sum "Si O2"
_cell_formula_units_Z 64
_cell_length_a 28.488548
_cell_length_b 9.074128
_cell_length_c 12.365837
_cell_angle_alpha 90.000000
_cell_angle_beta 90.000000
_cell_angle_gamma 90.000000
_cell_volume 3196.676832
_symmetry_space_group_name_H-M "P M M N"
_symmetry_group_IT_number 59
_space_group.IT_coordinate_system_code '2'
_symmetry_cell_setting 'orthorhombic'
loop_
_space_group_symop_operation_xyz
x,y,z
1/2-x,1/2-y,z
1/2+x,-y,-z
-x,1/2+y,-z
-x,-y,-z
1/2+x,1/2+y,-z
1/2-x,y,z
x,1/2-y,z
loop_
_atom_site_type_symbol
_atom_site_label
_atom_site_fract_x
_atom_site_fract_y
_atom_site_fract_z
Si Si1 0.136172 0.424178 0.603771
Si Si2 0.195347 0.412438 0.209389
Si Si3 0.570135 0.917480 0.991881
Si Si4 0.336579 0.918234 0.002118
Si Si5 0.302691 0.581955 0.768331
Si Si6 0.694783 0.421420 0.581523
Si Si7 0.490731 0.917872 0.169603
Si Si8 0.472244 0.424059 0.597006
O O1 0.140694 0.250000 0.593080
O O2 0.158542 0.474383 0.717374
O O3 0.166264 0.501302 0.512198
O O4 0.082044 0.474597 0.596509
O O5 0.250000 0.395711 0.227410
O O6 0.171735 0.250000 0.211780
O O7 0.175262 0.511424 0.306521
O O8 0.186497 0.488284 0.096099
O O9 0.586349 0.750000 0.972577
O O10 0.535073 0.929065 0.091443
O O11 0.612671 0.019693 0.027118
O O12 0.549361 0.976460 0.878185
O O13 0.340756 0.750000 0.040268
O O14 0.304079 0.933252 0.897379
O O15 0.250000 0.539070 0.730339
O O16 0.313831 0.750000 0.733043
O O17 0.750000 0.450014 0.564021
O O18 0.682996 0.250000 0.581973
O O19 0.472134 0.750000 0.173079
O O20 0.504747 0.972805 0.289102
O O21 0.500000 0.500000 0.500000
O O22 0.475876 0.250000 0.582107
#
# Coordination Sequence:
#
# PCOD8244133 Si02
#       8
#     8   8   8   8   8   8   8   8
#     4  11  23  39  60  87 118 151 192 243 296 348
#     4  10  21  37  57  81 110 145 186 232 280 330
#     4  10  20  35  58  85 112 144 184 233 283 334
#     4  11  22  36  56  83 117 154 190 230 280 339
#     4  10  22  39  59  86 120 157 197 239 284 342
#     4  10  21  38  60  85 115 153 196 239 286 345
#     4   9  19  38  59  80 110 145 183 229 284 343
#     4  10  23  41  60  83 113 149 189 237 291 348
#
# _framework density 20.020790000000002
#
# number of rings (size 3 to 8) (size 9 to 14) (size 15 to 20)
#    0.000    1.875    0.000    3.375    0.000    8.750 
#    0.000    2.500    0.000    0.000    0.000    0.000 
#    0.000    0.000    0.000    0.000    0.000    0.000 
#
# Total GULP energy -793698.955259 kJ/mol
# GULP energy per Si atom -12401.546176 kJ/mol
# Density = 1.997522 g / cm^3
# Si number density = 20.020790 Si / 1000 Ang^3
#
#
#
# Elastic Constant Matrix: (Units=GPa)
#
#
# Indices 1 2 3 4 5 6 
#
# 1 77.2715 42.0027 33.5256 0.0000 0.0000 0.0000
# 2 42.0027 108.1858 51.7639 0.0000 0.0000 0.0000
# 3 33.5256 51.7639 126.3840 0.0000 0.0000 0.0000
# 4 0.0000 0.0000 0.0000 35.3877 0.0000 0.0000
# 5 0.0000 0.0000 0.0000 0.0000 20.6753 0.0000
# 6 0.0000 0.0000 0.0000 0.0000 0.0000 30.7108
#
#
#
# Elastic Compliance Matrix: (Units=1/GPa)
#
#
# Indices 1 2 3 4 5 6 
#
# 1 0.016895 -0.005491 -0.002233 0.000000 0.000000 0.000000
# 2 -0.005491 0.013281 -0.003983 0.000000 0.000000 0.000000
# 3 -0.002233 -0.003983 0.010136 0.000000 0.000000 0.000000
# 4 0.000000 0.000000 0.000000 0.028258 0.000000 0.000000
# 5 0.000000 0.000000 0.000000 0.000000 0.048367 0.000000
# 6 0.000000 0.000000 0.000000 0.000000 0.000000 0.032562
#
#
# Mechanical properties :
#
#
# Convention : Reuss Voigt Hill
#
# Bulk Modulus (GPa) = 59.17715 62.93618 61.05667
# Shear Modulus (GPa) = 28.00411 29.65803 28.83107
#
# Velocity S-wave (km/s) = 3.74405 3.85302 3.79892
# Velocity P-wave (km/s) = 6.95072 7.16226 7.05729
#
# Compressibility (1/GPa) = 0.01689841
#
# Stress axis : x y z
#
# Youngs Moduli (GPa) = 59.18959 75.29554 98.65853
#
# Poissons Ratio (x) = 0.41346 0.22027
# Poissons Ratio (y) = 0.32502 0.39295
# Poissons Ratio (z) = 0.13215 0.29990
#
# Static dielectric constant tensor:
#      x y z
#    x 3.673390 0.000000 0.000000 
#    y 0.000000 4.058170 0.000000 
#    z 0.000000 0.000000 3.732290 
# 
# 
# High freq. dielectric constant tensor:
#      x y z
#    x 1.776590 0.000000 0.000000 
#    y 0.000000 1.787940 0.000000 
#    z 0.000000 0.000000 1.791240 
# 
# From -- ./inp_files/19300.got.cif
#   From: 2010.03.12/outbox.cif.g09.slc.cpg/sg59_10_cif.got.tgz:19300.got - 2010.04.16 16:29:54.
