data_PCOD8244007
_publ_section_title
;
Structure prediction by ZEFSAII (Michael W. Deem and Ramdas Pophale) SiO2 
 PCOD8244007
Probable space group: P M M N
;
_chemical_formula_sum "Si O2"
_cell_formula_units_Z 64
_cell_length_a 17.806281
_cell_length_b 14.340899
_cell_length_c 12.250371
_cell_angle_alpha 90.000000
_cell_angle_beta 90.000000
_cell_angle_gamma 90.000000
_cell_volume 3128.231186
_symmetry_space_group_name_H-M "P M M N"
_symmetry_group_IT_number 59
_space_group.IT_coordinate_system_code '2'
_symmetry_cell_setting 'orthorhombic'
loop_
_space_group_symop_operation_xyz
x,y,z
1/2-x,1/2-y,z
1/2+x,-y,-z
-x,1/2+y,-z
-x,-y,-z
1/2+x,1/2+y,-z
1/2-x,y,z
x,1/2-y,z
loop_
_atom_site_type_symbol
_atom_site_label
_atom_site_fract_x
_atom_site_fract_y
_atom_site_fract_z
Si Si1 0.445033 0.569446 0.438091
Si Si2 0.162015 0.644534 0.833978
Si Si3 0.334568 0.514285 0.249197
Si Si4 0.664502 0.856083 0.913188
Si Si5 0.161986 0.543150 0.615420
Si Si6 0.894975 0.360666 0.932224
Si Si7 0.088584 0.145760 0.651157
Si Si8 0.560681 0.641078 0.102836
O O1 0.500000 0.500000 0.500000
O O2 0.397168 0.523223 0.341629
O O3 0.384280 0.605852 0.527342
O O4 0.500899 0.646833 0.387416
O O5 0.250000 0.640193 0.853456
O O6 0.136672 0.750000 0.805957
O O7 0.137224 0.577473 0.735117
O O8 0.123379 0.608506 0.944276
O O9 0.250000 0.520570 0.298505
O O10 0.348792 0.412963 0.197282
O O11 0.339638 0.592626 0.155128
O O12 0.750000 0.863149 0.953554
O O13 0.641629 0.750000 0.886923
O O14 0.615253 0.901310 0.010551
O O15 0.250000 0.557901 0.595540
O O16 0.139796 0.434087 0.595198
O O17 0.886482 0.250000 0.918144
O O18 0.977633 0.400839 0.907637
O O19 0.120435 0.250000 0.627020
O O20 0.094239 0.121507 0.778625
O O21 0.554696 0.750000 0.080727
#
# Coordination Sequence:
#
# PCOD8244007 Si02
#       8
#     8   8   8   8   8   8   8   8
#     4  10  22  41  59  81 114 153 200 251 297 341
#     4   9  19  36  56  82 118 155 192 240 300 360
#     4  11  22  36  60  87 114 154 198 241 301 363
#     4   9  20  37  55  82 120 156 193 238 288 354
#     4  10  22  39  61  86 117 156 204 253 300 353
#     4  10  20  35  56  86 120 151 189 242 297 361
#     4  10  21  38  59  85 119 157 195 244 302 357
#     4   9  18  33  54  81 114 151 189 230 283 348
#
# _framework density 20.458845
#
# number of rings (size 3 to 8) (size 9 to 14) (size 15 to 20)
#    0.000    2.250    1.250    0.750    1.750    4.500 
#    0.000    3.750    0.000    5.250    0.000    0.000 
#    0.000    0.000    0.000    0.000    0.000    0.000 
#
# Total GULP energy -793321.364073 kJ/mol
# GULP energy per Si atom -12395.646314 kJ/mol
# Density = 2.041228 g / cm^3
# Si number density = 20.458845 Si / 1000 Ang^3
#
#
#
# Elastic Constant Matrix: (Units=GPa)
#
#
# Indices 1 2 3 4 5 6 
#
# 1 72.2300 15.3426 30.1785 0.0000 0.0000 0.0000
# 2 15.3426 60.7744 21.5544 0.0000 0.0000 0.0000
# 3 30.1785 21.5544 91.7765 0.0000 0.0000 0.0000
# 4 0.0000 0.0000 0.0000 17.6527 0.0000 0.0000
# 5 0.0000 0.0000 0.0000 0.0000 41.2341 0.0000
# 6 0.0000 0.0000 0.0000 0.0000 0.0000 22.1301
#
#
#
# Elastic Compliance Matrix: (Units=1/GPa)
#
#
# Indices 1 2 3 4 5 6 
#
# 1 0.016371 -0.002426 -0.004814 0.000000 0.000000 0.000000
# 2 -0.002426 0.018309 -0.003502 0.000000 0.000000 0.000000
# 3 -0.004814 -0.003502 0.013301 0.000000 0.000000 0.000000
# 4 0.000000 0.000000 0.000000 0.056648 0.000000 0.000000
# 5 0.000000 0.000000 0.000000 0.000000 0.024252 0.000000
# 6 0.000000 0.000000 0.000000 0.000000 0.000000 0.045187
#
#
# Mechanical properties :
#
#
# Convention : Reuss Voigt Hill
#
# Bulk Modulus (GPa) = 37.73852 39.88132 38.80992
# Shear Modulus (GPa) = 24.46368 26.71709 25.59039
#
# Velocity S-wave (km/s) = 3.46171 3.61764 3.54053
# Velocity P-wave (km/s) = 5.87061 6.08157 5.97702
#
# Compressibility (1/GPa) = 0.02649813
#
# Stress axis : x y z
#
# Youngs Moduli (GPa) = 61.08335 54.61852 75.17999
#
# Poissons Ratio (x) = 0.13249 0.36188
# Poissons Ratio (y) = 0.14817 0.26331
# Poissons Ratio (z) = 0.29403 0.19129
#
# Static dielectric constant tensor:
#      x y z
#    x 3.867180 0.000000 0.000000 
#    y 0.000000 3.557640 0.000000 
#    z 0.000000 0.000000 3.786390 
# 
# 
# High freq. dielectric constant tensor:
#      x y z
#    x 1.802750 0.000000 0.000000 
#    y 0.000000 1.785250 0.000000 
#    z 0.000000 0.000000 1.799270 
# 
# From -- ./inp_files/17855.got.cif
#   From: 2010.03.12/outbox.cif.g09.slc.cpg/sg59_9_cif.got.tgz:17855.got - 2010.04.16 16:29:54.
