data_PCOD8244810
_publ_section_title
;
Structure prediction by ZEFSAII (Michael W. Deem and Ramdas Pophale) SiO2 
 PCOD8244810
Probable space group: P M M N
;
_chemical_formula_sum "Si O2"
_cell_formula_units_Z 64
_cell_length_a 18.155873
_cell_length_b 9.399166
_cell_length_c 21.249669
_cell_angle_alpha 90.000000
_cell_angle_beta 90.000000
_cell_angle_gamma 90.000000
_cell_volume 3626.257379
_symmetry_space_group_name_H-M "P M M N"
_symmetry_group_IT_number 59
_space_group.IT_coordinate_system_code '2'
_symmetry_cell_setting 'orthorhombic'
loop_
_space_group_symop_operation_xyz
x,y,z
1/2-x,1/2-y,z
1/2+x,-y,-z
-x,1/2+y,-z
-x,-y,-z
1/2+x,1/2+y,-z
1/2-x,y,z
x,1/2-y,z
loop_
_atom_site_type_symbol
_atom_site_label
_atom_site_fract_x
_atom_site_fract_y
_atom_site_fract_z
Si Si1 0.528121 0.915143 0.440750
Si Si2 0.835328 0.915574 0.758538
Si Si3 0.831146 0.919110 0.371569
Si Si4 0.950186 0.088113 0.689355
Si Si5 0.164833 0.917657 0.873034
Si Si6 0.600970 0.915529 0.243271
Si Si7 0.924452 0.416539 0.003250
Si Si8 0.335108 0.587721 0.119479
O O1 0.530859 0.750000 0.458802
O O2 0.609605 0.973821 0.422524
O O3 0.475306 0.942051 0.381640
O O4 0.500000 0.000000 0.500000
O O5 0.750000 0.945400 0.743843
O O6 0.852801 0.750000 0.763519
O O7 0.882515 0.983087 0.702370
O O8 0.859959 0.987695 0.823590
O O9 0.750000 0.972829 0.391303
O O10 0.837029 0.750000 0.369588
O O11 0.849462 0.972504 0.301266
O O12 0.922869 0.250000 0.695996
O O13 0.015841 0.059476 0.738771
O O14 0.250000 0.967076 0.875817
O O15 0.159736 0.750000 0.861881
O O16 0.121507 0.994505 0.817390
O O17 0.124711 0.962984 0.937342
O O18 0.616264 0.750000 0.229271
O O19 0.941937 0.250000 0.005590
O O20 0.879596 0.459258 0.941469
O O21 0.000000 0.500000 0.000000
O O22 0.250000 0.566961 0.102886
O O23 0.352197 0.750000 0.138905
#
# Coordination Sequence:
#
# PCOD8244810 Si02
#       8
#     8   8   8   8   8   8   8   8
#     4   9  18  33  53  77 105 138 174 209 248 296
#     4  10  21  35  53  79 106 131 168 221 271 309
#     4   8  14  28  51  76 101 131 168 207 246 291
#     4   9  19  35  54  77 106 140 174 208 250 309
#     4  10  21  36  52  73 104 137 166 203 257 313
#     4   9  18  32  53  79 103 130 169 211 249 298
#     4  10  22  37  52  72  99 133 172 213 255 306
#     4   9  18  35  57  74  93 131 176 213 256 313
#
# _framework density 17.649049999999999
#
# number of rings (size 3 to 8) (size 9 to 14) (size 15 to 20)
#    0.000    2.750    0.000    2.625    1.750    5.000 
#    0.000    2.500    0.000    5.625    0.000    0.000 
#    0.000    0.000    0.000    0.000    0.000    0.000 
#
# Total GULP energy -793567.103668 kJ/mol
# GULP energy per Si atom -12399.485995 kJ/mol
# Density = 1.760888 g / cm^3
# Si number density = 17.649050 Si / 1000 Ang^3
#
#
#
# Elastic Constant Matrix: (Units=GPa)
#
#
# Indices 1 2 3 4 5 6 
#
# 1 104.0201 54.8524 72.5677 0.0000 0.0000 0.0000
# 2 54.8524 67.2719 59.9159 0.0000 0.0000 0.0000
# 3 72.5677 59.9159 119.0589 0.0000 0.0000 0.0000
# 4 0.0000 0.0000 0.0000 33.0428 0.0000 0.0000
# 5 0.0000 0.0000 0.0000 0.0000 25.8785 0.0000
# 6 0.0000 0.0000 0.0000 0.0000 0.0000 30.0165
#
#
#
# Elastic Compliance Matrix: (Units=1/GPa)
#
#
# Indices 1 2 3 4 5 6 
#
# 1 0.019710 -0.009735 -0.007115 0.000000 0.000000 0.000000
# 2 -0.009735 0.031748 -0.010044 0.000000 0.000000 0.000000
# 3 -0.007115 -0.010044 0.017790 0.000000 0.000000 0.000000
# 4 0.000000 0.000000 0.000000 0.030264 0.000000 0.000000
# 5 0.000000 0.000000 0.000000 0.000000 0.038642 0.000000
# 6 0.000000 0.000000 0.000000 0.000000 0.000000 0.033315
#
#
# Mechanical properties :
#
#
# Convention : Reuss Voigt Hill
#
# Bulk Modulus (GPa) = 64.67345 73.89143 69.28244
# Shear Modulus (GPa) = 21.70051 24.65522 23.17786
#
# Velocity S-wave (km/s) = 3.51031 3.74166 3.62783
# Velocity P-wave (km/s) = 7.29064 7.78619 7.54248
#
# Compressibility (1/GPa) = 0.01546230
#
# Stress axis : x y z
#
# Youngs Moduli (GPa) = 50.73484 31.49815 56.21118
#
# Poissons Ratio (x) = 0.30663 0.39992
# Poissons Ratio (y) = 0.49389 0.56456
# Poissons Ratio (z) = 0.36096 0.31635
#
# Static dielectric constant tensor:
#      x y z
#    x 3.383070 0.000000 0.000000 
#    y 0.000000 3.088800 0.000000 
#    z 0.000000 0.000000 3.188450 
# 
# 
# High freq. dielectric constant tensor:
#      x y z
#    x 1.690440 0.000000 0.000000 
#    y 0.000000 1.665030 0.000000 
#    z 0.000000 0.000000 1.679220 
# 
# From -- ./inp_files/30822.got.cif
#   From: 2010.03.12/outbox.cif.g09.slc.cpg/sg59_16_cif.got.tgz:30822.got - 2010.04.16 16:29:54.
