data_PCOD8244039
_publ_section_title
;
Structure prediction by ZEFSAII (Michael W. Deem and Ramdas Pophale) SiO2 
 PCOD8244039
Probable space group: P M M N
;
_chemical_formula_sum "Si O2"
_cell_formula_units_Z 64
_cell_length_a 18.077792
_cell_length_b 8.997489
_cell_length_c 21.434333
_cell_angle_alpha 90.000000
_cell_angle_beta 90.000000
_cell_angle_gamma 90.000000
_cell_volume 3486.395747
_symmetry_space_group_name_H-M "P M M N"
_symmetry_group_IT_number 59
_space_group.IT_coordinate_system_code '2'
_symmetry_cell_setting 'orthorhombic'
loop_
_space_group_symop_operation_xyz
x,y,z
1/2-x,1/2-y,z
1/2+x,-y,-z
-x,1/2+y,-z
-x,-y,-z
1/2+x,1/2+y,-z
1/2-x,y,z
x,1/2-y,z
loop_
_atom_site_type_symbol
_atom_site_label
_atom_site_fract_x
_atom_site_fract_y
_atom_site_fract_z
Si Si1 0.522091 0.574240 0.564131
Si Si2 0.664117 0.918518 0.116199
Si Si3 0.668199 0.922035 0.630444
Si Si4 0.578692 0.925553 0.992815
Si Si5 0.336468 0.578454 0.759153
Si Si6 0.606322 0.077251 0.746559
Si Si7 0.544086 0.576088 0.318675
Si Si8 0.336686 0.924460 0.120011
O O1 0.500000 0.500000 0.500000
O O2 0.512158 0.750000 0.558891
O O3 0.606780 0.527253 0.580140
O O4 0.468821 0.512231 0.617600
O O5 0.750000 0.933179 0.101275
O O6 0.643042 0.750000 0.135128
O O7 0.639858 0.025968 0.172056
O O8 0.622696 0.970625 0.054621
O O9 0.750000 0.956656 0.603235
O O10 0.657307 0.750000 0.645006
O O11 0.659564 0.002670 0.696272
O O12 0.569952 0.750000 0.985679
O O13 0.623093 0.986527 0.934110
O O14 0.500000 0.000000 0.000000
O O15 0.250000 0.550521 0.748010
O O16 0.358183 0.750000 0.751717
O O17 0.378715 0.480615 0.708393
O O18 0.623354 0.250000 0.742268
O O19 0.520750 0.041216 0.731205
O O20 0.626732 0.019475 0.815351
O O21 0.549031 0.750000 0.333887
O O22 0.250000 0.962892 0.120183
O O23 0.350455 0.750000 0.109897
#
# Coordination Sequence:
#
# PCOD8244039 Si02
#       8
#     8   8   8   8   8   8   8   8
#     4  10  20  36  57  81 112 149 188 229 273 323
#     4   9  19  37  58  76  99 136 180 226 276 331
#     4   9  18  33  54  81 111 142 179 223 269 318
#     4  11  24  39  55  77 106 141 184 231 278 331
#     4  10  21  36  56  83 112 140 177 228 281 330
#     4   9  19  34  54  81 111 143 179 219 266 320
#     4  10  20  35  57  83 112 147 184 223 268 323
#     4  10  21  37  56  79 110 145 179 221 275 330
#
# _framework density 18.357066
#
# number of rings (size 3 to 8) (size 9 to 14) (size 15 to 20)
#    0.000    2.250    0.000    2.250    1.750    4.750 
#    0.000    1.875    0.000    2.250    0.000    0.000 
#    0.000    0.000    0.000    0.000    0.000    0.000 
#
# Total GULP energy -793732.359319 kJ/mol
# GULP energy per Si atom -12402.068114 kJ/mol
# Density = 1.831528 g / cm^3
# Si number density = 18.357066 Si / 1000 Ang^3
#
#
#
# Elastic Constant Matrix: (Units=GPa)
#
#
# Indices 1 2 3 4 5 6 
#
# 1 92.1865 48.0169 77.8767 0.0000 0.0000 0.0000
# 2 48.0169 74.3751 60.6971 0.0000 0.0000 0.0000
# 3 77.8767 60.6971 143.8279 0.0000 0.0000 0.0000
# 4 0.0000 0.0000 0.0000 37.1518 0.0000 0.0000
# 5 0.0000 0.0000 0.0000 0.0000 26.3902 0.0000
# 6 0.0000 0.0000 0.0000 0.0000 0.0000 29.2409
#
#
#
# Elastic Compliance Matrix: (Units=1/GPa)
#
#
# Indices 1 2 3 4 5 6 
#
# 1 0.022070 -0.006858 -0.009056 0.000000 0.000000 0.000000
# 2 -0.006858 0.022640 -0.005841 0.000000 0.000000 0.000000
# 3 -0.009056 -0.005841 0.014321 0.000000 0.000000 0.000000
# 4 0.000000 0.000000 0.000000 0.026917 0.000000 0.000000
# 5 0.000000 0.000000 0.000000 0.000000 0.037893 0.000000
# 6 0.000000 0.000000 0.000000 0.000000 0.000000 0.034199
#
#
# Mechanical properties :
#
#
# Convention : Reuss Voigt Hill
#
# Bulk Modulus (GPa) = 64.42810 75.95232 70.19021
# Shear Modulus (GPa) = 24.18719 26.80983 25.49851
#
# Velocity S-wave (km/s) = 3.63381 3.82575 3.73101
# Velocity P-wave (km/s) = 7.26495 7.80896 7.54186
#
# Compressibility (1/GPa) = 0.01552118
#
# Stress axis : x y z
#
# Youngs Moduli (GPa) = 45.31114 44.17031 69.82800
#
# Poissons Ratio (x) = 0.30292 0.63233
# Poissons Ratio (y) = 0.31074 0.40786
# Poissons Ratio (z) = 0.41032 0.25799
#
# Static dielectric constant tensor:
#      x y z
#    x 3.542580 0.000000 0.000000 
#    y 0.000000 3.378530 0.000000 
#    z 0.000000 0.000000 3.393880 
# 
# 
# High freq. dielectric constant tensor:
#      x y z
#    x 1.717860 0.000000 0.000000 
#    y 0.000000 1.716630 0.000000 
#    z 0.000000 0.000000 1.707630 
# 
# From -- ./inp_files/30769.got.cif
#   From: 2010.03.12/outbox.cif.g09.slc.cpg/sg59_16_cif.got.tgz:30769.got - 2010.04.16 16:29:54.
