data_PCOD8244764
_publ_section_title
;
Structure prediction by ZEFSAII (Michael W. Deem and Ramdas Pophale) SiO2 
 PCOD8244764
Probable space group: P M M N
;
_chemical_formula_sum "Si O2"
_cell_formula_units_Z 48
_cell_length_a 15.236174
_cell_length_b 7.825138
_cell_length_c 19.188004
_cell_angle_alpha 90.000000
_cell_angle_beta 90.000000
_cell_angle_gamma 90.000000
_cell_volume 2287.692926
_symmetry_space_group_name_H-M "P M M N"
_symmetry_group_IT_number 59
_space_group.IT_coordinate_system_code '2'
_symmetry_cell_setting 'orthorhombic'
loop_
_space_group_symop_operation_xyz
x,y,z
1/2-x,1/2-y,z
1/2+x,-y,-z
-x,1/2+y,-z
-x,-y,-z
1/2+x,1/2+y,-z
1/2-x,y,z
x,1/2-y,z
loop_
_atom_site_type_symbol
_atom_site_label
_atom_site_fract_x
_atom_site_fract_y
_atom_site_fract_z
Si Si1 0.653123 0.547618 0.325616
Si Si2 0.355045 0.750000 0.079446
Si Si3 0.848547 0.047173 0.678623
Si Si4 0.145763 0.060427 0.830161
Si Si5 0.354992 0.750000 0.921843
Si Si6 0.145816 0.060964 0.170679
Si Si7 0.500539 0.049066 0.579821
O O1 0.750000 0.468127 0.339563
O O2 0.659510 0.750000 0.332606
O O3 0.619334 0.502617 0.247910
O O4 0.584759 0.469753 0.381565
O O5 0.250000 0.750000 0.080613
O O6 0.392628 0.581062 0.118033
O O7 0.390212 0.750000 0.000615
O O8 0.750000 0.979935 0.663374
O O9 0.848794 0.250000 0.684910
O O10 0.910780 0.980003 0.616336
O O11 0.886750 0.973390 0.750819
O O12 0.250000 0.068989 0.834846
O O13 0.107638 0.250000 0.847936
O O14 0.107936 0.920082 0.883781
O O15 0.250000 0.750000 0.919129
O O16 0.250000 0.046813 0.170467
O O17 0.114951 0.250000 0.146534
O O18 0.497455 0.250000 0.588617
O O19 0.500000 0.000000 0.500000
#
# Coordination Sequence:
#
# PCOD8244764 Si02
#       7
#     8   4   8   8   4   8   8
#     4   8  15  31  53  72  97 136 177 216 262 313
#     4   9  16  26  40  68 109 139 166 217 269 309
#     4   9  17  32  52  71 100 139 176 218 266 313
#     4   8  14  26  44  66  95 131 172 215 255 308
#     4   9  16  24  40  70 105 137 170 211 265 317
#     4   9  16  27  46  70  97 135 180 218 257 313
#     4  10  21  35  51  75 106 134 169 217 267 321
#
# _framework density 20.981836999999999
#
# number of rings (size 3 to 8) (size 9 to 14) (size 15 to 20)
#    0.000    3.167    0.833    1.000    0.000    2.000 
#    1.500    3.333    0.000    0.000    0.000    1.167 
#    0.000    0.000    0.000    0.000    0.000    0.000 
#
# Total GULP energy -594933.148213 kJ/mol
# GULP energy per Si atom -12394.440588 kJ/mol
# Density = 2.093408 g / cm^3
# Si number density = 20.981837 Si / 1000 Ang^3
#
#
#
# Elastic Constant Matrix: (Units=GPa)
#
#
# Indices 1 2 3 4 5 6 
#
# 1 68.4723 26.4877 59.6394 0.0000 0.0000 0.0000
# 2 26.4877 95.6647 73.4136 0.0000 0.0000 0.0000
# 3 59.6394 73.4136 200.5387 0.0000 0.0000 0.0000
# 4 0.0000 0.0000 0.0000 31.4901 0.0000 0.0000
# 5 0.0000 0.0000 0.0000 0.0000 10.5080 0.0000
# 6 0.0000 0.0000 0.0000 0.0000 0.0000 6.7557
#
#
#
# Elastic Compliance Matrix: (Units=1/GPa)
#
#
# Indices 1 2 3 4 5 6 
#
# 1 0.019833 -0.001342 -0.005407 0.000000 0.000000 0.000000
# 2 -0.001342 0.014628 -0.004956 0.000000 0.000000 0.000000
# 3 -0.005407 -0.004956 0.008409 0.000000 0.000000 0.000000
# 4 0.000000 0.000000 0.000000 0.031756 0.000000 0.000000
# 5 0.000000 0.000000 0.000000 0.000000 0.095166 0.000000
# 6 0.000000 0.000000 0.000000 0.000000 0.000000 0.148022
#
#
# Mechanical properties :
#
#
# Convention : Reuss Voigt Hill
#
# Bulk Modulus (GPa) = 51.38743 75.97301 63.68022
# Shear Modulus (GPa) = 14.37977 23.42642 18.90310
#
# Velocity S-wave (km/s) = 2.62075 3.34505 3.00480
# Velocity P-wave (km/s) = 5.80537 7.15588 6.51571
#
# Compressibility (1/GPa) = 0.01946001
#
# Stress axis : x y z
#
# Youngs Moduli (GPa) = 50.42085 68.36224 118.92223
#
# Poissons Ratio (x) = 0.09174 0.64301
# Poissons Ratio (y) = 0.06767 0.58937
# Poissons Ratio (z) = 0.27262 0.33880
#
# Static dielectric constant tensor:
#      x y z
#    x 3.677930 0.000000 0.000000 
#    y 0.000000 3.859970 0.000000 
#    z 0.000000 0.000000 3.482170 
# 
# 
# High freq. dielectric constant tensor:
#      x y z
#    x 1.791610 0.000000 0.000000 
#    y 0.000000 1.810330 0.000000 
#    z 0.000000 0.000000 1.812380 
# 
# From -- ./inp_files/27482.got.cif
#   From: 2010.03.12/outbox.cif.g09.slc.cpg/sg59_14_cif.got.tgz:27482.got - 2010.04.16 16:29:54.
