data_PCOD8244519
_publ_section_title
;
Structure prediction by ZEFSAII (Michael W. Deem and Ramdas Pophale) SiO2 
 PCOD8244519
Probable space group: P M M N
;
_chemical_formula_sum "Si O2"
_cell_formula_units_Z 48
_cell_length_a 8.477810
_cell_length_b 16.185226
_cell_length_c 18.136982
_cell_angle_alpha 90.000000
_cell_angle_beta 90.000000
_cell_angle_gamma 90.000000
_cell_volume 2488.670897
_symmetry_space_group_name_H-M "P M M N"
_symmetry_group_IT_number 59
_space_group.IT_coordinate_system_code '2'
_symmetry_cell_setting 'orthorhombic'
loop_
_space_group_symop_operation_xyz
x,y,z
1/2-x,1/2-y,z
1/2+x,-y,-z
-x,1/2+y,-z
-x,-y,-z
1/2+x,1/2+y,-z
1/2-x,y,z
x,1/2-y,z
loop_
_atom_site_type_symbol
_atom_site_label
_atom_site_fract_x
_atom_site_fract_y
_atom_site_fract_z
Si Si1 0.937782 0.504625 0.081914
Si Si2 0.064008 0.085341 0.530943
Si Si3 0.567346 0.250000 0.289492
Si Si4 0.934280 0.838971 0.166472
Si Si5 0.065974 0.409774 0.216564
Si Si6 0.935602 0.750000 0.548367
Si Si7 0.433315 0.441252 0.696138
O O1 0.750000 0.498422 0.085042
O O2 0.003264 0.592210 0.111793
O O3 0.008148 0.433685 0.134414
O O4 0.000000 0.500000 0.000000
O O5 0.250000 0.084745 0.521740
O O6 0.993531 0.166332 0.489280
O O7 0.012548 0.088979 0.616128
O O8 0.000000 0.000000 0.500000
O O9 0.750000 0.250000 0.310486
O O10 0.527310 0.171045 0.240531
O O11 0.470345 0.250000 0.365235
O O12 0.750000 0.831798 0.151761
O O13 0.015394 0.750000 0.151517
O O14 0.966555 0.864017 0.250783
O O15 0.250000 0.389867 0.214254
O O16 0.033705 0.480585 0.276850
O O17 0.750000 0.750000 0.535498
O O18 0.250000 0.467765 0.698319
#
# Coordination Sequence:
#
# PCOD8244519 Si02
#       7
#     8   8   4   8   8   4   8
#     4  10  20  37  59  85 118 152 187 230 281 336
#     4  10  21  35  53  79 112 149 191 237 289 343
#     4  12  24  40  60  82 111 146 193 246 290 342
#     4   8  15  29  53  82 107 138 182 228 272 322
#     4  11  22  38  60  85 112 150 192 235 287 345
#     4  10  22  38  56  84 117 154 195 242 294 352
#     4   9  18  33  55  81 110 146 189 234 282 338
#
# _framework density 19.287402
#
# number of rings (size 3 to 8) (size 9 to 14) (size 15 to 20)
#    0.000    2.167    0.000    4.750    1.167    4.000 
#    1.500    0.000    0.000   12.000    0.000    0.000 
#    0.000    0.000    0.000    0.000    0.000    0.000 
#
# Total GULP energy -595098.387636 kJ/mol
# GULP energy per Si atom -12397.883076 kJ/mol
# Density = 1.924350 g / cm^3
# Si number density = 19.287402 Si / 1000 Ang^3
#
#
#
# Elastic Constant Matrix: (Units=GPa)
#
#
# Indices 1 2 3 4 5 6 
#
# 1 43.0599 9.7937 11.6863 0.0000 0.0000 0.0000
# 2 9.7937 136.5041 68.1776 0.0000 0.0000 0.0000
# 3 11.6863 68.1776 157.1104 0.0000 0.0000 0.0000
# 4 0.0000 0.0000 0.0000 -63.1341 0.0000 0.0000
# 5 0.0000 0.0000 0.0000 0.0000 28.5921 0.0000
# 6 0.0000 0.0000 0.0000 0.0000 0.0000 21.8038
#
#
#
# Elastic Compliance Matrix: (Units=1/GPa)
#
#
# Indices 1 2 3 4 5 6 
#
# 1 0.023820 -0.001052 -0.001315 0.000000 0.000000 0.000000
# 2 -0.001052 0.009399 -0.004001 0.000000 0.000000 0.000000
# 3 -0.001315 -0.004001 0.008199 0.000000 0.000000 0.000000
# 4 0.000000 0.000000 0.000000 -0.015839 0.000000 0.000000
# 5 0.000000 0.000000 0.000000 0.000000 0.034975 0.000000
# 6 0.000000 0.000000 0.000000 0.000000 0.000000 0.045864
#
#
# Mechanical properties :
#
#
# Convention : Reuss Voigt Hill
#
# Bulk Modulus (GPa) = 34.86492 57.33217 46.09854
# Shear Modulus (GPa) = 38.84603 13.92015 26.38309
#
# Velocity S-wave (km/s) = 4.49270 2.68940 3.70251
# Velocity P-wave (km/s) = 6.71031 6.27962 6.49853
#
# Compressibility (1/GPa) = 0.02868213
#
# Stress axis : x y z
#
# Youngs Moduli (GPa) = 41.98208 106.39001 121.96882
#
# Poissons Ratio (x) = 0.11193 0.16042
# Poissons Ratio (y) = 0.04417 0.48795
# Poissons Ratio (z) = 0.05522 0.42562
#
# Static dielectric constant tensor:
#      x y z
#    x 3.316390 0.000000 0.000000 
#    y 0.000000 3.890270 0.000000 
#    z 0.000000 0.000000 3.091790 
# 
# 
# High freq. dielectric constant tensor:
#      x y z
#    x 1.730970 0.000000 0.000000 
#    y 0.000000 1.759500 0.000000 
#    z 0.000000 0.000000 1.755660 
# 
# From -- ./inp_files/25609.got.cif
#   From: 2010.03.12/outbox.cif.g09.slc.cpg/sg59_13_cif.got.tgz:25609.got - 2010.04.16 16:29:54.
