data_PCOD8244337
_publ_section_title
;
Structure prediction by ZEFSAII (Michael W. Deem and Ramdas Pophale) SiO2 
 PCOD8244337
Probable space group: P M M N
;
_chemical_formula_sum "Si O2"
_cell_formula_units_Z 64
_cell_length_a 23.944419
_cell_length_b 8.912793
_cell_length_c 15.421118
_cell_angle_alpha 90.000000
_cell_angle_beta 90.000000
_cell_angle_gamma 90.000000
_cell_volume 3291.046238
_symmetry_space_group_name_H-M "P M M N"
_symmetry_group_IT_number 59
_space_group.IT_coordinate_system_code '2'
_symmetry_cell_setting 'orthorhombic'
loop_
_space_group_symop_operation_xyz
x,y,z
1/2-x,1/2-y,z
1/2+x,-y,-z
-x,1/2+y,-z
-x,-y,-z
1/2+x,1/2+y,-z
1/2-x,y,z
x,1/2-y,z
loop_
_atom_site_type_symbol
_atom_site_label
_atom_site_fract_x
_atom_site_fract_y
_atom_site_fract_z
Si Si1 0.387524 0.923799 0.596318
Si Si2 0.504604 0.574979 0.342076
Si Si3 0.883875 0.573461 0.902439
Si Si4 0.003237 0.572313 0.843553
Si Si5 0.314632 0.426084 0.741984
Si Si6 0.187662 0.072169 0.255240
Si Si7 0.381812 0.579660 0.400437
Si Si8 0.612793 0.925601 0.094433
O O1 0.399781 0.750000 0.616663
O O2 0.363188 0.944357 0.499697
O O3 0.444803 0.016211 0.599550
O O4 0.341866 0.984730 0.663117
O O5 0.513183 0.750000 0.323077
O O6 0.506842 0.486301 0.253234
O O7 0.447200 0.540761 0.391570
O O8 0.885213 0.750000 0.888318
O O9 0.842356 0.503820 0.830412
O O10 0.946379 0.511151 0.887167
O O11 0.862539 0.533481 0.999309
O O12 0.005907 0.750000 0.842243
O O13 0.054762 0.511477 0.898240
O O14 0.250000 0.470432 0.748274
O O15 0.322807 0.250000 0.725452
O O16 0.343384 0.475981 0.832206
O O17 0.250000 0.005082 0.258997
O O18 0.189621 0.250000 0.250366
O O19 0.154659 0.028682 0.341468
O O20 0.370884 0.750000 0.370539
O O21 0.599991 0.750000 0.101609
#
# Coordination Sequence:
#
# PCOD8244337 Si02
#       8
#     8   8   8   8   8   8   8   8
#     4  11  23  39  60  86 115 149 187 234 289 343
#     4  11  21  36  59  86 115 149 185 229 284 345
#     4   9  19  35  56  85 117 150 188 232 285 337
#     4  11  20  33  56  85 118 152 183 228 285 342
#     4  10  22  39  58  82 113 151 196 240 281 331
#     4  10  21  38  60  85 114 151 196 242 283 328
#     4  10  23  40  59  85 116 150 188 231 287 346
#     4  10  20  36  58  83 115 152 190 234 282 339
#
# _framework density 19.446704
#
# number of rings (size 3 to 8) (size 9 to 14) (size 15 to 20)
#    0.000    1.750    2.500    1.875    0.000    3.000 
#    0.000    6.250    0.000    0.000    0.000    1.750 
#    0.000    0.000    0.000    0.000    0.000    0.000 
#
# Total GULP energy -793698.991030 kJ/mol
# GULP energy per Si atom -12401.546735 kJ/mol
# Density = 1.940244 g / cm^3
# Si number density = 19.446704 Si / 1000 Ang^3
#
#
#
# Elastic Constant Matrix: (Units=GPa)
#
#
# Indices 1 2 3 4 5 6 
#
# 1 138.1517 29.6198 62.2313 0.0000 0.0000 0.0000
# 2 29.6198 28.6038 26.2430 0.0000 0.0000 0.0000
# 3 62.2313 26.2430 136.2549 0.0000 0.0000 0.0000
# 4 0.0000 0.0000 0.0000 24.7965 0.0000 0.0000
# 5 0.0000 0.0000 0.0000 0.0000 18.3717 0.0000
# 6 0.0000 0.0000 0.0000 0.0000 0.0000 25.7477
#
#
#
# Elastic Compliance Matrix: (Units=1/GPa)
#
#
# Indices 1 2 3 4 5 6 
#
# 1 0.010360 -0.007758 -0.003238 0.000000 0.000000 0.000000
# 2 -0.007758 0.048273 -0.005754 0.000000 0.000000 0.000000
# 3 -0.003238 -0.005754 0.009926 0.000000 0.000000 0.000000
# 4 0.000000 0.000000 0.000000 0.040328 0.000000 0.000000
# 5 0.000000 0.000000 0.000000 0.000000 0.054431 0.000000
# 6 0.000000 0.000000 0.000000 0.000000 0.000000 0.038838
#
#
# Mechanical properties :
#
#
# Convention : Reuss Voigt Hill
#
# Bulk Modulus (GPa) = 28.52245 59.91093 44.21669
# Shear Modulus (GPa) = 20.21481 26.11093 23.16287
#
# Velocity S-wave (km/s) = 3.22762 3.66825 3.45497
# Velocity P-wave (km/s) = 5.34686 6.98685 6.22113
#
# Compressibility (1/GPa) = 0.03506011
#
# Stress axis : x y z
#
# Youngs Moduli (GPa) = 96.52465 20.71548 100.74382
#
# Poissons Ratio (x) = 0.16070 0.32616
# Poissons Ratio (y) = 0.74881 0.57972
# Poissons Ratio (z) = 0.31251 0.11920
#
# Static dielectric constant tensor:
#      x y z
#    x 3.838370 0.000000 0.000000 
#    y 0.000000 3.402180 0.000000 
#    z 0.000000 0.000000 3.721540 
# 
# 
# High freq. dielectric constant tensor:
#      x y z
#    x 1.755850 0.000000 0.000000 
#    y 0.000000 1.741280 0.000000 
#    z 0.000000 0.000000 1.771090 
# 
# From -- ./inp_files/21546.got.cif
#   From: 2010.03.12/outbox.cif.g09.slc.cpg/sg59_11_cif.got.tgz:21546.got - 2010.04.16 16:29:54.
