data_PCOD8244271
_publ_section_title
;
Structure prediction by ZEFSAII (Michael W. Deem and Ramdas Pophale) SiO2 
 PCOD8244271
Probable space group: P M M N
;
_chemical_formula_sum "Si O2"
_cell_formula_units_Z 40
_cell_length_a 15.432772
_cell_length_b 9.408589
_cell_length_c 14.516016
_cell_angle_alpha 90.000000
_cell_angle_beta 90.000000
_cell_angle_gamma 90.000000
_cell_volume 2107.734362
_symmetry_space_group_name_H-M "P M M N"
_symmetry_group_IT_number 59
_space_group.IT_coordinate_system_code '2'
_symmetry_cell_setting 'orthorhombic'
loop_
_space_group_symop_operation_xyz
x,y,z
1/2-x,1/2-y,z
1/2+x,-y,-z
-x,1/2+y,-z
-x,-y,-z
1/2+x,1/2+y,-z
1/2-x,y,z
x,1/2-y,z
loop_
_atom_site_type_symbol
_atom_site_label
_atom_site_fract_x
_atom_site_fract_y
_atom_site_fract_z
Si Si1 0.147111 0.589084 0.910672
Si Si2 0.750000 0.419108 0.409082
Si Si3 0.650755 0.587524 0.917895
Si Si4 0.905033 0.082969 0.285564
Si Si5 0.401245 0.414276 0.284134
Si Si6 0.250000 0.919677 0.381073
O O1 0.250000 0.580364 0.906037
O O2 0.114125 0.750000 0.922325
O O3 0.110355 0.519301 0.816599
O O4 0.111216 0.503797 0.998695
O O5 0.750000 0.250000 0.407465
O O6 0.664138 0.480364 0.358305
O O7 0.750000 0.472425 0.513711
O O8 0.750000 0.545366 0.897284
O O9 0.643050 0.750000 0.948284
O O10 0.597467 0.556761 0.825217
O O11 0.888322 0.250000 0.277010
O O12 0.002215 0.050871 0.320872
O O13 0.375022 0.250000 0.303236
O O14 0.335740 0.519014 0.334214
O O15 0.250000 0.750000 0.371120
#
# Coordination Sequence:
#
# PCOD8244271 Si02
#       6
#     8   4   8   8   8   4
#     4   9  16  28  50  79 106 136 177 217 251 299
#     4   9  18  35  56  81 108 134 169 221 278 319
#     4   9  17  30  47  70 105 144 176 210 255 306
#     4   9  17  32  56  81 107 140 178 216 258 316
#     4  10  20  36  57  79 105 143 183 214 255 318
#     4  11  23  37  56  79 106 136 171 225 282 317
#
# _framework density 18.977723999999998
#
# number of rings (size 3 to 8) (size 9 to 14) (size 15 to 20)
#    0.000    2.600    2.000    0.300    0.000    2.400 
#    0.000    1.000    0.000    3.600    0.000    0.000 
#    0.000    0.000    0.000    0.000    0.000    0.000 
#
# Total GULP energy -495921.161952 kJ/mol
# GULP energy per Si atom -12398.029049 kJ/mol
# Density = 1.893453 g / cm^3
# Si number density = 18.977724 Si / 1000 Ang^3
#
#
#
# Elastic Constant Matrix: (Units=GPa)
#
#
# Indices 1 2 3 4 5 6 
#
# 1 99.6228 35.3387 56.1425 0.0000 0.0000 0.0000
# 2 35.3387 56.1541 50.8744 0.0000 0.0000 0.0000
# 3 56.1425 50.8744 129.7928 0.0000 0.0000 0.0000
# 4 0.0000 0.0000 0.0000 18.1507 0.0000 0.0000
# 5 0.0000 0.0000 0.0000 0.0000 5.6251 0.0000
# 6 0.0000 0.0000 0.0000 0.0000 0.0000 10.2565
#
#
#
# Elastic Compliance Matrix: (Units=1/GPa)
#
#
# Indices 1 2 3 4 5 6 
#
# 1 0.014199 -0.005228 -0.004093 0.000000 0.000000 0.000000
# 2 -0.005228 0.029539 -0.009317 0.000000 0.000000 0.000000
# 3 -0.004093 -0.009317 0.013127 0.000000 0.000000 0.000000
# 4 0.000000 0.000000 0.000000 0.055094 0.000000 0.000000
# 5 0.000000 0.000000 0.000000 0.000000 0.177774 0.000000
# 6 0.000000 0.000000 0.000000 0.000000 0.000000 0.097499
#
#
# Mechanical properties :
#
#
# Convention : Reuss Voigt Hill
#
# Bulk Modulus (GPa) = 51.04671 63.36453 57.20562
# Shear Modulus (GPa) = 11.59995 16.35407 13.97701
#
# Velocity S-wave (km/s) = 2.47501 2.93874 2.71679
# Velocity P-wave (km/s) = 5.92657 6.70644 6.32853
#
# Compressibility (1/GPa) = 0.01958990
#
# Stress axis : x y z
#
# Youngs Moduli (GPa) = 70.42935 33.85348 76.17957
#
# Poissons Ratio (x) = 0.17697 0.31178
# Poissons Ratio (y) = 0.36817 0.70977
# Poissons Ratio (z) = 0.28824 0.31542
#
# Static dielectric constant tensor:
#      x y z
#    x 3.465050 0.000000 0.000000 
#    y 0.000000 3.179660 0.000000 
#    z 0.000000 0.000000 3.592020 
# 
# 
# High freq. dielectric constant tensor:
#      x y z
#    x 1.742400 0.000000 0.000000 
#    y 0.000000 1.694030 0.000000 
#    z 0.000000 0.000000 1.738470 
# 
# From -- ./inp_files/23019.got.cif
#   From: 2010.03.12/outbox.cif.g09.slc.cpg/sg59_12_cif.got.tgz:23019.got - 2010.04.16 16:29:54.
