data_PCOD8244078
_publ_section_title
;
Structure prediction by ZEFSAII (Michael W. Deem and Ramdas Pophale) SiO2 
 PCOD8244078
Probable space group: P M M N
;
_chemical_formula_sum "Si O2"
_cell_formula_units_Z 48
_cell_length_a 23.372053
_cell_length_b 9.268498
_cell_length_c 11.051680
_cell_angle_alpha 90.000000
_cell_angle_beta 90.000000
_cell_angle_gamma 90.000000
_cell_volume 2394.057211
_symmetry_space_group_name_H-M "P M M N"
_symmetry_group_IT_number 59
_space_group.IT_coordinate_system_code '2'
_symmetry_cell_setting 'orthorhombic'
loop_
_space_group_symop_operation_xyz
x,y,z
1/2-x,1/2-y,z
1/2+x,-y,-z
-x,1/2+y,-z
-x,-y,-z
1/2+x,1/2+y,-z
1/2-x,y,z
x,1/2-y,z
loop_
_atom_site_type_symbol
_atom_site_label
_atom_site_fract_x
_atom_site_fract_y
_atom_site_fract_z
Si Si1 0.525181 0.919874 0.703945
Si Si2 0.813631 0.415567 0.827744
Si Si3 0.684306 0.584756 0.369250
Si Si4 0.877674 0.417394 0.579431
Si Si5 0.907918 0.582857 0.944763
Si Si6 0.077938 0.415163 0.785263
O O1 0.524008 0.750000 0.678301
O O2 0.548383 0.958726 0.838031
O O3 0.563139 0.995857 0.600165
O O4 0.461097 0.984070 0.699162
O O5 0.750000 0.478490 0.827418
O O6 0.814988 0.250000 0.865627
O O7 0.838606 0.439574 0.695510
O O8 0.848646 0.500457 0.928260
O O9 0.750000 0.541407 0.338557
O O10 0.681601 0.750000 0.415355
O O11 0.658896 0.480772 0.470424
O O12 0.644691 0.565308 0.250238
O O13 0.892009 0.250000 0.554877
O O14 0.893066 0.750000 0.941613
O O15 0.932225 0.537900 0.075584
O O16 0.058375 0.250000 0.766114
#
# Coordination Sequence:
#
# PCOD8244078 Si02
#       6
#     8   8   8   8   8   8
#     4  10  20  35  57  85 112 138 175 223 272 320
#     4   9  18  32  51  77 107 138 175 222 273 320
#     4  10  22  39  57  78 107 143 181 221 264 313
#     4  10  20  36  58  81 107 140 179 224 273 323
#     4   9  19  34  53  79 109 142 180 220 265 319
#     4  10  21  37  56  79 109 145 181 217 263 319
#
# _framework density 20.049647
#
# number of rings (size 3 to 8) (size 9 to 14) (size 15 to 20)
#    0.000    2.333    0.000    2.000    0.000    5.333 
#    0.000    1.667    0.000    0.000    0.000    0.000 
#    0.000    0.000    0.000    0.000    0.000    0.000 
#
# Total GULP energy -595221.313541 kJ/mol
# GULP energy per Si atom -12400.444032 kJ/mol
# Density = 2.000401 g / cm^3
# Si number density = 20.049647 Si / 1000 Ang^3
#
#
#
# Elastic Constant Matrix: (Units=GPa)
#
#
# Indices 1 2 3 4 5 6 
#
# 1 115.2992 37.7094 15.7284 0.0000 0.0000 0.0000
# 2 37.7094 71.0408 26.8717 0.0000 0.0000 0.0000
# 3 15.7284 26.8717 41.6249 0.0000 0.0000 0.0000
# 4 0.0000 0.0000 0.0000 27.4339 0.0000 0.0000
# 5 0.0000 0.0000 0.0000 0.0000 21.7445 0.0000
# 6 0.0000 0.0000 0.0000 0.0000 0.0000 36.3748
#
#
#
# Elastic Compliance Matrix: (Units=1/GPa)
#
#
# Indices 1 2 3 4 5 6 
#
# 1 0.010503 -0.005390 -0.000489 0.000000 0.000000 0.000000
# 2 -0.005390 0.021390 -0.011772 0.000000 0.000000 0.000000
# 3 -0.000489 -0.011772 0.031809 0.000000 0.000000 0.000000
# 4 0.000000 0.000000 0.000000 0.036451 0.000000 0.000000
# 5 0.000000 0.000000 0.000000 0.000000 0.045989 0.000000
# 6 0.000000 0.000000 0.000000 0.000000 0.000000 0.027492
#
#
# Mechanical properties :
#
#
# Convention : Reuss Voigt Hill
#
# Bulk Modulus (GPa) = 35.21219 43.17598 39.19408
# Shear Modulus (GPa) = 22.89355 26.95432 24.92393
#
# Velocity S-wave (km/s) = 3.38278 3.67055 3.52960
# Velocity P-wave (km/s) = 5.73221 6.28850 6.01679
#
# Compressibility (1/GPa) = 0.02839926
#
# Stress axis : x y z
#
# Youngs Moduli (GPa) = 95.21428 46.74977 31.43802
#
# Poissons Ratio (x) = 0.25198 0.01537
# Poissons Ratio (y) = 0.51321 0.37010
# Poissons Ratio (z) = 0.04655 0.55035
#
# Static dielectric constant tensor:
#      x y z
#    x 3.859710 0.000000 0.000000 
#    y 0.000000 3.613900 0.000000 
#    z 0.000000 0.000000 3.554150 
# 
# 
# High freq. dielectric constant tensor:
#      x y z
#    x 1.788390 0.000000 0.000000 
#    y 0.000000 1.780690 0.000000 
#    z 0.000000 0.000000 1.772710 
# 
# From -- ./inp_files/14299.got.cif
#   From: 2010.03.12/outbox.cif.g09.slc.cpg/sg59_8_cif.got.tgz:14299.got - 2010.04.16 16:29:54.
