data_PCOD8244281
_publ_section_title
;
Structure prediction by ZEFSAII (Michael W. Deem and Ramdas Pophale) SiO2 
 PCOD8244281
Probable space group: P M M N
;
_chemical_formula_sum "Si O2"
_cell_formula_units_Z 40
_cell_length_a 25.392855
_cell_length_b 9.054042
_cell_length_c 9.509885
_cell_angle_alpha 90.000000
_cell_angle_beta 90.000000
_cell_angle_gamma 90.000000
_cell_volume 2186.398409
_symmetry_space_group_name_H-M "P M M N"
_symmetry_group_IT_number 59
_space_group.IT_coordinate_system_code '2'
_symmetry_cell_setting 'orthorhombic'
loop_
_space_group_symop_operation_xyz
x,y,z
1/2-x,1/2-y,z
1/2+x,-y,-z
-x,1/2+y,-z
-x,-y,-z
1/2+x,1/2+y,-z
1/2-x,y,z
x,1/2-y,z
loop_
_atom_site_type_symbol
_atom_site_label
_atom_site_fract_x
_atom_site_fract_y
_atom_site_fract_z
Si Si1 0.154915 0.074977 0.603408
Si Si2 0.954556 0.079266 0.415185
Si Si3 0.042398 0.583229 0.910122
Si Si4 0.250000 0.922991 0.103991
Si Si5 0.659478 0.425041 0.107102
Si Si6 0.250000 0.421777 0.401539
O O1 0.147339 0.250000 0.618369
O O2 0.198169 0.032860 0.487575
O O3 0.100550 0.001031 0.554239
O O4 0.175314 0.009641 0.750948
O O5 0.949462 0.250000 0.460779
O O6 0.970609 0.065228 0.253237
O O7 0.000000 0.000000 0.500000
O O8 0.038849 0.750000 0.960393
O O9 0.101257 0.523769 0.940550
O O10 0.000000 0.500000 0.000000
O O11 0.250000 0.750000 0.129026
O O12 0.250000 0.997818 0.253672
O O13 0.301243 0.971875 0.016355
O O14 0.660885 0.250000 0.139820
O O15 0.250000 0.250000 0.369466
#
# Coordination Sequence:
#
# PCOD8244281 Si02
#       6
#     8   8   8   4   8   4
#     4  10  20  36  57  80 106 142 183 221 266 323
#     4  10  21  37  56  81 110 141 179 223 267 317
#     4   9  19  34  52  76 106 136 171 213 258 309
#     4  10  21  36  56  80 106 138 179 224 272 320
#     4   9  19  36  55  78 105 135 176 223 264 314
#     4  10  23  38  52  78 114 142 175 224 272 318
#
# _framework density 18.294927999999999
#
# number of rings (size 3 to 8) (size 9 to 14) (size 15 to 20)
#    0.000    2.400    0.000    3.000    0.000    8.000 
#    0.000    4.000    0.000    0.000    0.000    0.000 
#    0.000    0.000    0.000    0.000    0.000    0.000 
#
# Total GULP energy -496035.444258 kJ/mol
# GULP energy per Si atom -12400.886106 kJ/mol
# Density = 1.825329 g / cm^3
# Si number density = 18.294928 Si / 1000 Ang^3
#
#
#
# Elastic Constant Matrix: (Units=GPa)
#
#
# Indices 1 2 3 4 5 6 
#
# 1 144.0978 64.5425 99.9329 0.0000 0.0000 0.0000
# 2 64.5425 85.8341 64.9160 0.0000 0.0000 0.0000
# 3 99.9329 64.9160 131.2309 0.0000 0.0000 0.0000
# 4 0.0000 0.0000 0.0000 38.7340 0.0000 0.0000
# 5 0.0000 0.0000 0.0000 0.0000 37.4394 0.0000
# 6 0.0000 0.0000 0.0000 0.0000 0.0000 32.9466
#
#
#
# Elastic Compliance Matrix: (Units=1/GPa)
#
#
# Indices 1 2 3 4 5 6 
#
# 1 0.015686 -0.004412 -0.009763 0.000000 0.000000 0.000000
# 2 -0.004412 0.019855 -0.006462 0.000000 0.000000 0.000000
# 3 -0.009763 -0.006462 0.018251 0.000000 0.000000 0.000000
# 4 0.000000 0.000000 0.000000 0.025817 0.000000 0.000000
# 5 0.000000 0.000000 0.000000 0.000000 0.026710 0.000000
# 6 0.000000 0.000000 0.000000 0.000000 0.000000 0.030352
#
#
# Mechanical properties :
#
#
# Convention : Reuss Voigt Hill
#
# Bulk Modulus (GPa) = 79.87743 91.10506 85.49124
# Shear Modulus (GPa) = 27.45464 30.60877 29.03171
#
# Velocity S-wave (km/s) = 3.87805 4.09476 3.98788
# Velocity P-wave (km/s) = 7.98800 8.50072 8.24834
#
# Compressibility (1/GPa) = 0.01251918
#
# Stress axis : x y z
#
# Youngs Moduli (GPa) = 63.74938 50.36511 54.79040
#
# Poissons Ratio (x) = 0.22219 0.53492
# Poissons Ratio (y) = 0.28124 0.35407
# Poissons Ratio (z) = 0.62238 0.32547
#
# Static dielectric constant tensor:
#      x y z
#    x 3.644380 0.000000 0.000000 
#    y 0.000000 3.911220 0.000000 
#    z 0.000000 0.000000 3.315120 
# 
# 
# High freq. dielectric constant tensor:
#      x y z
#    x 1.724150 0.000000 0.000000 
#    y 0.000000 1.712000 0.000000 
#    z 0.000000 0.000000 1.704300 
# 
# From -- ./inp_files/5950.got.cif
#   From: 2010.03.12/outbox.cif.g09.slc.cpg/sg59_3_cif.got.tgz:5950.got - 2010.04.16 16:29:54.
