data_PCOD8244041
_publ_section_title
;
Structure prediction by ZEFSAII (Michael W. Deem and Ramdas Pophale) SiO2 
 PCOD8244041
Probable space group: P M M N
;
_chemical_formula_sum "Si O2"
_cell_formula_units_Z 40
_cell_length_a 7.728419
_cell_length_b 9.120600
_cell_length_c 29.266014
_cell_angle_alpha 90.000000
_cell_angle_beta 90.000000
_cell_angle_gamma 90.000000
_cell_volume 2062.897478
_symmetry_space_group_name_H-M "P M M N"
_symmetry_group_IT_number 59
_space_group.IT_coordinate_system_code '2'
_symmetry_cell_setting 'orthorhombic'
loop_
_space_group_symop_operation_xyz
x,y,z
1/2-x,1/2-y,z
1/2+x,-y,-z
-x,1/2+y,-z
-x,-y,-z
1/2+x,1/2+y,-z
1/2-x,y,z
x,1/2-y,z
loop_
_atom_site_type_symbol
_atom_site_label
_atom_site_fract_x
_atom_site_fract_y
_atom_site_fract_z
Si Si1 0.750000 0.424178 0.302896
Si Si2 0.250000 0.576338 0.798858
Si Si3 0.057336 0.418062 0.366272
Si Si4 0.547198 0.087457 0.955061
Si Si5 0.051031 0.422375 0.134885
Si Si6 0.548681 0.581752 0.454072
O O1 0.750000 0.250000 0.299558
O O2 0.750000 0.492574 0.252009
O O3 0.578934 0.479977 0.329346
O O4 0.250000 0.750000 0.795681
O O5 0.425254 0.524616 0.824364
O O6 0.250000 0.430378 0.345106
O O7 0.012003 0.250000 0.378658
O O8 0.054380 0.511019 0.412406
O O9 0.750000 0.101808 0.951534
O O10 0.462887 0.250000 0.956689
O O11 0.480664 0.001373 0.910601
O O12 0.500000 0.000000 0.000000
O O13 0.250000 0.464312 0.147004
O O14 0.033983 0.250000 0.126012
O O15 0.500000 0.500000 0.500000
O O16 0.750000 0.565004 0.443632
O O17 0.492426 0.750000 0.459091
#
# Coordination Sequence:
#
# PCOD8244041 Si02
#       6
#     4   4   8   8   8   8
#     4   9  18  34  55  83 115 143 181 237 282 321
#     4   9  18  32  55  83 109 143 185 227 278 329
#     4  10  20  35  57  83 112 148 187 227 276 329
#     4  10  21  35  52  76 107 142 180 223 272 328
#     4   9  18  33  52  76 108 142 180 228 274 322
#     4  11  23  37  55  81 113 149 188 228 275 332
#
# _framework density 19.390203
#
# number of rings (size 3 to 8) (size 9 to 14) (size 15 to 20)
#    0.000    2.200    1.000    1.800    1.400    6.000 
#    0.000    4.000    0.000    2.400    0.000    2.800 
#    0.000    0.000    0.000    0.000    0.000    0.000 
#
# Total GULP energy -495992.052151 kJ/mol
# GULP energy per Si atom -12399.801304 kJ/mol
# Density = 1.934607 g / cm^3
# Si number density = 19.390203 Si / 1000 Ang^3
#
#
#
# Elastic Constant Matrix: (Units=GPa)
#
#
# Indices 1 2 3 4 5 6 
#
# 1 109.1486 32.6074 67.9824 0.0000 0.0000 0.0000
# 2 32.6074 80.9372 50.5290 0.0000 0.0000 0.0000
# 3 67.9824 50.5290 176.8671 0.0000 0.0000 0.0000
# 4 0.0000 0.0000 0.0000 23.3618 0.0000 0.0000
# 5 0.0000 0.0000 0.0000 0.0000 33.1074 0.0000
# 6 0.0000 0.0000 0.0000 0.0000 0.0000 18.2264
#
#
#
# Elastic Compliance Matrix: (Units=1/GPa)
#
#
# Indices 1 2 3 4 5 6 
#
# 1 0.012437 -0.002466 -0.004076 0.000000 0.000000 0.000000
# 2 -0.002466 0.015526 -0.003488 0.000000 0.000000 0.000000
# 3 -0.004076 -0.003488 0.008217 0.000000 0.000000 0.000000
# 4 0.000000 0.000000 0.000000 0.042805 0.000000 0.000000
# 5 0.000000 0.000000 0.000000 0.000000 0.030205 0.000000
# 6 0.000000 0.000000 0.000000 0.000000 0.000000 0.054866
#
#
# Mechanical properties :
#
#
# Convention : Reuss Voigt Hill
#
# Bulk Modulus (GPa) = 62.03122 74.35449 68.19286
# Shear Modulus (GPa) = 26.38678 29.32806 27.85742
#
# Velocity S-wave (km/s) = 3.69295 3.89333 3.79446
# Velocity P-wave (km/s) = 7.08832 7.65770 7.37850
#
# Compressibility (1/GPa) = 0.01612091
#
# Stress axis : x y z
#
# Youngs Moduli (GPa) = 80.40382 64.40740 121.69771
#
# Poissons Ratio (x) = 0.15883 0.49604
# Poissons Ratio (y) = 0.19827 0.42446
# Poissons Ratio (z) = 0.32773 0.22464
#
# Static dielectric constant tensor:
#      x y z
#    x 3.817150 0.000000 0.000000 
#    y 0.000000 3.503150 0.000000 
#    z 0.000000 0.000000 3.569650 
# 
# 
# High freq. dielectric constant tensor:
#      x y z
#    x 1.765580 0.000000 0.000000 
#    y 0.000000 1.732040 0.000000 
#    z 0.000000 0.000000 1.750560 
# 
# From -- ./inp_files/32384.got.cif
#   From: 2010.03.12/outbox.cif.g09.slc.cpg/sg59_17_cif.got.tgz:32384.got - 2010.04.16 16:29:54.
