data_PCOD8244117
_publ_section_title
;
Structure prediction by ZEFSAII (Michael W. Deem and Ramdas Pophale) SiO2 
 PCOD8244117
Probable space group: P M M N
;
_chemical_formula_sum "Si O2"
_cell_formula_units_Z 56
_cell_length_a 21.859418
_cell_length_b 8.704177
_cell_length_c 14.852770
_cell_angle_alpha 90.000000
_cell_angle_beta 90.000000
_cell_angle_gamma 90.000000
_cell_volume 2826.010457
_symmetry_space_group_name_H-M "P M M N"
_symmetry_group_IT_number 59
_space_group.IT_coordinate_system_code '2'
_symmetry_cell_setting 'orthorhombic'
loop_
_space_group_symop_operation_xyz
x,y,z
1/2-x,1/2-y,z
1/2+x,-y,-z
-x,1/2+y,-z
-x,-y,-z
1/2+x,1/2+y,-z
1/2-x,y,z
x,1/2-y,z
loop_
_atom_site_type_symbol
_atom_site_label
_atom_site_fract_x
_atom_site_fract_y
_atom_site_fract_z
Si Si1 0.320742 0.928384 0.724714
Si Si2 0.250000 0.075319 0.270865
Si Si3 0.250000 0.422461 0.058180
Si Si4 0.377798 0.931799 0.033784
Si Si5 0.820493 0.927796 0.464072
Si Si6 0.950722 0.068591 0.794514
Si Si7 0.417976 0.069121 0.853710
Si Si8 0.865275 0.431050 0.639027
O O1 0.250000 0.966406 0.743372
O O2 0.335281 0.750000 0.737751
O O3 0.338279 0.976112 0.623671
O O4 0.359506 0.025332 0.794997
O O5 0.250000 0.250000 0.310447
O O6 0.250000 0.077886 0.164739
O O7 0.191879 0.980970 0.302005
O O8 0.250000 0.250000 0.019887
O O9 0.190596 0.507216 0.020780
O O10 0.375474 0.750000 0.035722
O O11 0.417924 0.986473 0.949703
O O12 0.409061 0.999627 0.124463
O O13 0.750000 0.958873 0.492938
O O14 0.831720 0.750000 0.442792
O O15 0.865222 0.981661 0.543826
O O16 0.946838 0.250000 0.802934
O O17 0.925001 0.018504 0.696564
O O18 0.020573 0.012431 0.802763
O O19 0.418574 0.250000 0.869920
O O20 0.862923 0.250000 0.620995
#
# Coordination Sequence:
#
# PCOD8244117 Si02
#       8
#     8   4   4   8   8   8   8   8
#     4  10  22  41  63  87 114 148 195 245 295 350
#     4  11  21  33  51  82 121 154 191 241 291 340
#     4  11  23  37  55  86 121 154 193 243 297 342
#     4  11  22  39  61  86 118 156 199 242 291 347
#     4  10  20  35  57  88 122 151 187 240 297 347
#     4   9  21  39  59  85 118 158 198 240 286 343
#     4  11  23  41  62  85 116 153 198 245 294 345
#     4  11  20  34  58  86 118 158 197 233 286 348
#
# _framework density 19.815919999999998
#
# number of rings (size 3 to 8) (size 9 to 14) (size 15 to 20)
#    0.000    1.571    2.143    3.000    1.000    2.000 
#    0.000    5.714    0.000    0.000    0.000    0.000 
#    0.000    0.000    0.000    0.000    0.000    0.000 
#
# Total GULP energy -694566.829568 kJ/mol
# GULP energy per Si atom -12402.979099 kJ/mol
# Density = 1.977082 g / cm^3
# Si number density = 19.815920 Si / 1000 Ang^3
#
#
#
# Elastic Constant Matrix: (Units=GPa)
#
#
# Indices 1 2 3 4 5 6 
#
# 1 84.7675 24.0908 29.3204 0.0000 0.0000 0.0000
# 2 24.0908 61.7659 13.2022 0.0000 0.0000 0.0000
# 3 29.3204 13.2022 79.8030 0.0000 0.0000 0.0000
# 4 0.0000 0.0000 0.0000 35.2918 0.0000 0.0000
# 5 0.0000 0.0000 0.0000 0.0000 29.6054 0.0000
# 6 0.0000 0.0000 0.0000 0.0000 0.0000 3.7334
#
#
#
# Elastic Compliance Matrix: (Units=1/GPa)
#
#
# Indices 1 2 3 4 5 6 
#
# 1 0.014753 -0.004764 -0.004632 0.000000 0.000000 0.000000
# 2 -0.004764 0.018322 -0.001281 0.000000 0.000000 0.000000
# 3 -0.004632 -0.001281 0.014445 0.000000 0.000000 0.000000
# 4 0.000000 0.000000 0.000000 0.028335 0.000000 0.000000
# 5 0.000000 0.000000 0.000000 0.000000 0.033778 0.000000
# 6 0.000000 0.000000 0.000000 0.000000 0.000000 0.267853
#
#
# Mechanical properties :
#
#
# Convention : Reuss Voigt Hill
#
# Bulk Modulus (GPa) = 38.21804 39.95146 39.08475
# Shear Modulus (GPa) = 12.26807 24.37431 18.32119
#
# Velocity S-wave (km/s) = 2.49087 3.51099 3.04397
# Velocity P-wave (km/s) = 5.25367 6.05319 5.66755
#
# Compressibility (1/GPa) = 0.02616565
#
# Stress axis : x y z
#
# Youngs Moduli (GPa) = 67.78187 54.57893 69.22957
#
# Poissons Ratio (x) = 0.26002 0.32069
# Poissons Ratio (y) = 0.32292 0.08866
# Poissons Ratio (z) = 0.31399 0.06990
#
# Static dielectric constant tensor:
#      x y z
#    x 3.613440 0.000000 0.000000 
#    y 0.000000 3.585050 0.000000 
#    z 0.000000 0.000000 3.694620 
# 
# 
# High freq. dielectric constant tensor:
#      x y z
#    x 1.762610 0.000000 0.000000 
#    y 0.000000 1.771890 0.000000 
#    z 0.000000 0.000000 1.779870 
# 
# From -- ./inp_files/24378.got.cif
#   From: 2010.03.12/outbox.cif.g09.slc.cpg/sg59_13_cif.got.tgz:24378.got - 2010.04.16 16:29:54.
