data_PCOD8244151
_publ_section_title
;
Structure prediction by ZEFSAII (Michael W. Deem and Ramdas Pophale) SiO2 
 PCOD8244151
Probable space group: P M M N
;
_chemical_formula_sum "Si O2"
_cell_formula_units_Z 48
_cell_length_a 8.748937
_cell_length_b 18.959711
_cell_length_c 15.052622
_cell_angle_alpha 90.000000
_cell_angle_beta 90.000000
_cell_angle_gamma 90.000000
_cell_volume 2496.888552
_symmetry_space_group_name_H-M "P M M N"
_symmetry_group_IT_number 59
_space_group.IT_coordinate_system_code '2'
_symmetry_cell_setting 'orthorhombic'
loop_
_space_group_symop_operation_xyz
x,y,z
1/2-x,1/2-y,z
1/2+x,-y,-z
-x,1/2+y,-z
-x,-y,-z
1/2+x,1/2+y,-z
1/2-x,y,z
x,1/2-y,z
loop_
_atom_site_type_symbol
_atom_site_label
_atom_site_fract_x
_atom_site_fract_y
_atom_site_fract_z
Si Si1 0.431235 0.672049 0.936919
Si Si2 0.075245 0.666930 0.134239
Si Si3 0.070657 0.571545 0.463281
Si Si4 0.073565 0.429882 0.724572
Si Si5 0.929266 0.669031 0.604508
Si Si6 0.928533 0.411245 0.232560
O O1 0.250000 0.676600 0.938341
O O2 0.497407 0.750000 0.914842
O O3 0.488104 0.617285 0.862485
O O4 0.484242 0.647643 0.034987
O O5 0.250000 0.641906 0.148184
O O6 0.062011 0.750000 0.150357
O O7 0.965003 0.628236 0.202527
O O8 0.250000 0.565206 0.474448
O O9 0.000000 0.500000 0.500000
O O10 0.028778 0.583771 0.361345
O O11 0.012763 0.638348 0.518451
O O12 0.250000 0.423602 0.696943
O O13 0.036951 0.506099 0.765603
O O14 0.750000 0.660776 0.589906
O O15 0.978769 0.750000 0.615649
O O16 0.976613 0.626743 0.691487
O O17 0.750000 0.394586 0.247223
#
# Coordination Sequence:
#
# PCOD8244151 Si02
#       6
#     8   8   8   8   8   8
#     4   8  15  31  56  83 112 150 197 244 288 339
#     4   9  19  37  59  82 111 152 201 248 293 345
#     4  12  24  41  64  86 114 154 195 238 291 351
#     4  11  23  37  57  87 119 153 192 239 293 350
#     4  11  24  40  60  89 122 154 193 242 291 343
#     4  10  20  35  58  86 117 155 196 238 289 351
#
# _framework density 19.223925000000001
#
# number of rings (size 3 to 8) (size 9 to 14) (size 15 to 20)
#    0.000    1.833    1.667    4.000    0.000    4.333 
#    0.000    0.833    0.000    1.000    0.000    0.000 
#    0.000    0.000    0.000    0.000    0.000    0.000 
#
# Total GULP energy -595329.630210 kJ/mol
# GULP energy per Si atom -12402.700629 kJ/mol
# Density = 1.918017 g / cm^3
# Si number density = 19.223925 Si / 1000 Ang^3
#
#
#
# Elastic Constant Matrix: (Units=GPa)
#
#
# Indices 1 2 3 4 5 6 
#
# 1 74.5022 37.3450 28.5657 0.0000 0.0000 0.0000
# 2 37.3450 85.6494 51.4840 0.0000 0.0000 0.0000
# 3 28.5657 51.4840 131.6186 0.0000 0.0000 0.0000
# 4 0.0000 0.0000 0.0000 39.3342 0.0000 0.0000
# 5 0.0000 0.0000 0.0000 0.0000 29.0311 0.0000
# 6 0.0000 0.0000 0.0000 0.0000 0.0000 16.4708
#
#
#
# Elastic Compliance Matrix: (Units=1/GPa)
#
#
# Indices 1 2 3 4 5 6 
#
# 1 0.017287 -0.006906 -0.001050 0.000000 0.000000 0.000000
# 2 -0.006906 0.018024 -0.005551 0.000000 0.000000 0.000000
# 3 -0.001050 -0.005551 0.009997 0.000000 0.000000 0.000000
# 4 0.000000 0.000000 0.000000 0.025423 0.000000 0.000000
# 5 0.000000 0.000000 0.000000 0.000000 0.034446 0.000000
# 6 0.000000 0.000000 0.000000 0.000000 0.000000 0.060713
#
#
# Mechanical properties :
#
#
# Convention : Reuss Voigt Hill
#
# Bulk Modulus (GPa) = 54.66852 58.50664 56.58758
# Shear Modulus (GPa) = 25.12525 28.59225 26.85875
#
# Velocity S-wave (km/s) = 3.61914 3.86077 3.74191
# Velocity P-wave (km/s) = 6.77965 7.09749 6.94039
#
# Compressibility (1/GPa) = 0.01829206
#
# Stress axis : x y z
#
# Youngs Moduli (GPa) = 57.84719 55.48293 100.02870
#
# Poissons Ratio (x) = 0.38317 0.10508
# Poissons Ratio (y) = 0.39950 0.55529
# Poissons Ratio (z) = 0.06077 0.30800
#
# Static dielectric constant tensor:
#      x y z
#    x 3.418120 0.000000 0.000000 
#    y 0.000000 3.694890 0.000000 
#    z 0.000000 0.000000 3.834400 
# 
# 
# High freq. dielectric constant tensor:
#      x y z
#    x 1.734760 0.000000 0.000000 
#    y 0.000000 1.750140 0.000000 
#    z 0.000000 0.000000 1.760800 
# 
# From -- ./inp_files/20343.got.cif
#   From: 2010.03.12/outbox.cif.g09.slc.cpg/sg59_11_cif.got.tgz:20343.got - 2010.04.16 16:29:54.
