data_PCOD8244592
_publ_section_title
;
Structure prediction by ZEFSAII (Michael W. Deem and Ramdas Pophale) SiO2 
 PCOD8244592
Probable space group: P M M N
;
_chemical_formula_sum "Si O2"
_cell_formula_units_Z 40
_cell_length_a 20.495002
_cell_length_b 8.520207
_cell_length_c 11.435167
_cell_angle_alpha 90.000000
_cell_angle_beta 90.000000
_cell_angle_gamma 90.000000
_cell_volume 1996.827838
_symmetry_space_group_name_H-M "P M M N"
_symmetry_group_IT_number 59
_space_group.IT_coordinate_system_code '2'
_symmetry_cell_setting 'orthorhombic'
loop_
_space_group_symop_operation_xyz
x,y,z
1/2-x,1/2-y,z
1/2+x,-y,-z
-x,1/2+y,-z
-x,-y,-z
1/2+x,1/2+y,-z
1/2-x,y,z
x,1/2-y,z
loop_
_atom_site_type_symbol
_atom_site_label
_atom_site_fract_x
_atom_site_fract_y
_atom_site_fract_z
Si Si1 0.826326 0.935471 0.507456
Si Si2 0.250000 0.569410 0.877222
Si Si3 0.132225 0.933460 0.257252
Si Si4 0.870902 0.564502 0.255194
Si Si5 0.500259 0.564955 0.130470
Si Si6 0.250000 0.070288 0.122003
O O1 0.750000 0.981063 0.511625
O O2 0.835394 0.750000 0.523759
O O3 0.857020 0.996737 0.385834
O O4 0.867143 0.028332 0.605226
O O5 0.250000 0.750000 0.841828
O O6 0.314040 0.487729 0.829929
O O7 0.250000 0.550857 0.015998
O O8 0.146269 0.750000 0.236200
O O9 0.064018 0.985705 0.200654
O O10 0.186924 0.041041 0.199903
O O11 0.872462 0.750000 0.257350
O O12 0.938562 0.496309 0.203854
O O13 0.505861 0.750000 0.121156
O O14 0.500000 0.500000 0.000000
O O15 0.250000 0.250000 0.078099
#
# Coordination Sequence:
#
# PCOD8244592 Si02
#       6
#     8   4   8   8   8   4
#     4  10  20  37  62  90 120 157 204 248 292 356
#     4  12  24  37  58  91 122 151 197 255 307 352
#     4  11  23  39  60  90 124 155 194 252 308 352
#     4  10  21  41  64  86 118 163 205 244 292 359
#     4  10  23  41  62  88 121 159 200 246 302 359
#     4  12  24  39  60  85 114 159 209 245 293 362
#
# _framework density 20.031772
#
# number of rings (size 3 to 8) (size 9 to 14) (size 15 to 20)
#    0.000    1.400    2.000    3.600    0.000    7.200 
#    0.000    0.000    0.000    0.000    0.000    0.000 
#    0.000    0.000    0.000    0.000    0.000    0.000 
#
# Total GULP energy -496153.320095 kJ/mol
# GULP energy per Si atom -12403.833002 kJ/mol
# Density = 1.998618 g / cm^3
# Si number density = 20.031772 Si / 1000 Ang^3
#
#
#
# Elastic Constant Matrix: (Units=GPa)
#
#
# Indices 1 2 3 4 5 6 
#
# 1 169.8494 23.8012 76.9727 0.0000 0.0000 0.0000
# 2 23.8012 21.3567 15.7501 0.0000 0.0000 0.0000
# 3 76.9727 15.7501 159.0525 0.0000 0.0000 0.0000
# 4 0.0000 0.0000 0.0000 35.1933 0.0000 0.0000
# 5 0.0000 0.0000 0.0000 0.0000 55.0440 0.0000
# 6 0.0000 0.0000 0.0000 0.0000 0.0000 -265.2409
#
#
#
# Elastic Compliance Matrix: (Units=1/GPa)
#
#
# Indices 1 2 3 4 5 6 
#
# 1 0.008377 -0.006846 -0.003376 0.000000 0.000000 0.000000
# 2 -0.006846 0.056107 -0.002243 0.000000 0.000000 0.000000
# 3 -0.003376 -0.002243 0.008143 0.000000 0.000000 0.000000
# 4 0.000000 0.000000 0.000000 0.028414 0.000000 0.000000
# 5 0.000000 0.000000 0.000000 0.000000 0.018167 0.000000
# 6 0.000000 0.000000 0.000000 0.000000 0.000000 -0.003770
#
#
# Mechanical properties :
#
#
# Convention : Reuss Voigt Hill
#
# Bulk Modulus (GPa) = 20.96539 64.81182 42.88860
# Shear Modulus (GPa) = 31.99630 -19.41839 6.28895
#
# Velocity S-wave (km/s) = 4.00093 -3.11686 1.77378
# Velocity P-wave (km/s) = 5.64199 4.41267 5.06476
#
# Compressibility (1/GPa) = 0.04769765
#
# Stress axis : x y z
#
# Youngs Moduli (GPa) = 119.37669 17.82294 122.80266
#
# Poissons Ratio (x) = 0.12201 0.41458
# Poissons Ratio (y) = 0.81724 0.27544
# Poissons Ratio (z) = 0.40302 0.03998
#
# Static dielectric constant tensor:
#      x y z
#    x 3.840110 0.000000 0.000000 
#    y 0.000000 3.453070 0.000000 
#    z 0.000000 0.000000 3.851690 
# 
# 
# High freq. dielectric constant tensor:
#      x y z
#    x 1.787750 0.000000 0.000000 
#    y 0.000000 1.771100 0.000000 
#    z 0.000000 0.000000 1.799180 
# 
# From -- ./inp_files/18157.got.cif
#   From: 2010.03.12/outbox.cif.g09.slc.cpg/sg59_10_cif.got.tgz:18157.got - 2010.04.16 16:29:54.
