data_PCOD8244145
_publ_section_title
;
Structure prediction by ZEFSAII (Michael W. Deem and Ramdas Pophale) SiO2 
 PCOD8244145
Probable space group: P M M N
;
_chemical_formula_sum "Si O2"
_cell_formula_units_Z 64
_cell_length_a 30.636931
_cell_length_b 8.867225
_cell_length_c 12.014078
_cell_angle_alpha 90.000000
_cell_angle_beta 90.000000
_cell_angle_gamma 90.000000
_cell_volume 3263.799220
_symmetry_space_group_name_H-M "P M M N"
_symmetry_group_IT_number 59
_space_group.IT_coordinate_system_code '2'
_symmetry_cell_setting 'orthorhombic'
loop_
_space_group_symop_operation_xyz
x,y,z
1/2-x,1/2-y,z
1/2+x,-y,-z
-x,1/2+y,-z
-x,-y,-z
1/2+x,1/2+y,-z
1/2-x,y,z
x,1/2-y,z
loop_
_atom_site_type_symbol
_atom_site_label
_atom_site_fract_x
_atom_site_fract_y
_atom_site_fract_z
Si Si1 0.455830 0.429482 0.957128
Si Si2 0.298691 0.071663 0.509033
Si Si3 0.423915 0.922056 0.739033
Si Si4 0.298790 0.576892 0.976124
Si Si5 0.876197 0.928674 0.644335
Si Si6 0.822674 0.080210 0.264710
Si Si7 0.546891 0.928250 0.484304
Si Si8 0.375260 0.071687 0.105779
O O1 0.458764 0.250000 0.956593
O O2 0.449909 0.489069 0.832948
O O3 0.500000 0.500000 0.000000
O O4 0.416466 0.488565 0.035483
O O5 0.250000 0.014357 0.476238
O O6 0.300662 0.250000 0.504208
O O7 0.334658 0.003270 0.423782
O O8 0.309674 0.026876 0.634784
O O9 0.441117 0.750000 0.731978
O O10 0.373241 0.928298 0.766101
O O11 0.431017 0.007013 0.624629
O O12 0.250000 0.556573 0.023605
O O13 0.314532 0.750000 0.983629
O O14 0.298436 0.525600 0.847017
O O15 0.330191 0.475317 0.049664
O O16 0.871501 0.750000 0.647178
O O17 0.921702 0.974802 0.586460
O O18 0.876891 0.995737 0.769096
O O19 0.808890 0.250000 0.297537
O O20 0.542150 0.750000 0.474183
O O21 0.500000 0.000000 0.500000
O O22 0.376969 0.250000 0.110620
#
# Coordination Sequence:
#
# PCOD8244145 Si02
#       8
#     8   8   8   8   8   8   8   8
#     4  11  24  40  62  91 122 157 200 250 303 358
#     4  10  20  35  58  86 115 150 193 239 291 354
#     4  11  22  39  64  90 120 158 201 245 297 356
#     4  10  21  38  59  85 118 155 194 241 299 354
#     4   9  20  39  59  82 116 155 191 239 294 345
#     4  10  20  36  59  85 118 155 192 240 295 351
#     4  11  23  40  63  90 122 157 198 246 299 355
#     4  10  22  40  61  85 115 155 200 244 291 349
#
# _framework density 19.609051000000001
#
# number of rings (size 3 to 8) (size 9 to 14) (size 15 to 20)
#    0.000    1.750    2.500    1.500    1.750    3.000 
#    0.000    3.125    0.000    0.000    0.000    0.000 
#    0.000    0.000    0.000    0.000    0.000    0.000 
#
# Total GULP energy -793695.204690 kJ/mol
# GULP energy per Si atom -12401.487573 kJ/mol
# Density = 1.956442 g / cm^3
# Si number density = 19.609051 Si / 1000 Ang^3
#
#
#
# Elastic Constant Matrix: (Units=GPa)
#
#
# Indices 1 2 3 4 5 6 
#
# 1 112.5268 26.5484 32.6272 0.0000 0.0000 0.0000
# 2 26.5484 44.6149 20.7512 0.0000 0.0000 0.0000
# 3 32.6272 20.7512 107.9451 0.0000 0.0000 0.0000
# 4 0.0000 0.0000 0.0000 26.5021 0.0000 0.0000
# 5 0.0000 0.0000 0.0000 0.0000 28.1277 0.0000
# 6 0.0000 0.0000 0.0000 0.0000 0.0000 29.3528
#
#
#
# Elastic Compliance Matrix: (Units=1/GPa)
#
#
# Indices 1 2 3 4 5 6 
#
# 1 0.010806 -0.005393 -0.002229 0.000000 0.000000 0.000000
# 2 -0.005393 0.027307 -0.003619 0.000000 0.000000 0.000000
# 3 -0.002229 -0.003619 0.010634 0.000000 0.000000 0.000000
# 4 0.000000 0.000000 0.000000 0.037733 0.000000 0.000000
# 5 0.000000 0.000000 0.000000 0.000000 0.035552 0.000000
# 6 0.000000 0.000000 0.000000 0.000000 0.000000 0.034068
#
#
# Mechanical properties :
#
#
# Convention : Reuss Voigt Hill
#
# Bulk Modulus (GPa) = 38.07720 47.21562 42.64641
# Shear Modulus (GPa) = 26.68996 29.14052 27.91524
#
# Velocity S-wave (km/s) = 3.69332 3.85915 3.77714
# Velocity P-wave (km/s) = 6.13578 6.63235 6.38889
#
# Compressibility (1/GPa) = 0.02626244
#
# Stress axis : x y z
#
# Youngs Moduli (GPa) = 92.54519 36.62122 94.04193
#
# Poissons Ratio (x) = 0.19750 0.20965
# Poissons Ratio (y) = 0.49910 0.34036
# Poissons Ratio (z) = 0.20631 0.13254
#
# Static dielectric constant tensor:
#      x y z
#    x 2.919070 0.000000 0.000000 
#    y 0.000000 3.404290 0.000000 
#    z 0.000000 0.000000 3.715540 
# 
# 
# High freq. dielectric constant tensor:
#      x y z
#    x 1.779100 0.000000 0.000000 
#    y 0.000000 1.746300 0.000000 
#    z 0.000000 0.000000 1.769770 
# 
# From -- ./inp_files/14884.got.cif
#   From: 2010.03.12/outbox.cif.g09.slc.cpg/sg59_8_cif.got.tgz:14884.got - 2010.04.16 16:29:54.
