data_PCOD8244269
_publ_section_title
;
Structure prediction by ZEFSAII (Michael W. Deem and Ramdas Pophale) SiO2 
 PCOD8244269
Probable space group: P M M N
;
_chemical_formula_sum "Si O2"
_cell_formula_units_Z 64
_cell_length_a 9.211970
_cell_length_b 28.983439
_cell_length_c 12.667809
_cell_angle_alpha 90.000000
_cell_angle_beta 90.000000
_cell_angle_gamma 90.000000
_cell_volume 3382.236224
_symmetry_space_group_name_H-M "P M M N"
_symmetry_group_IT_number 59
_space_group.IT_coordinate_system_code '2'
_symmetry_cell_setting 'orthorhombic'
loop_
_space_group_symop_operation_xyz
x,y,z
1/2-x,1/2-y,z
1/2+x,-y,-z
-x,1/2+y,-z
-x,-y,-z
1/2+x,1/2+y,-z
1/2-x,y,z
x,1/2-y,z
loop_
_atom_site_type_symbol
_atom_site_label
_atom_site_fract_x
_atom_site_fract_y
_atom_site_fract_z
Si Si1 0.416964 0.301519 0.375791
Si Si2 0.915428 0.698802 0.030274
Si Si3 0.921273 0.454445 0.039802
Si Si4 0.081144 0.396960 0.456579
Si Si5 0.422271 0.442748 0.668738
Si Si6 0.580218 0.045731 0.285528
Si Si7 0.417922 0.105928 0.878075
Si Si8 0.090025 0.695559 0.828843
O O1 0.250000 0.299383 0.341322
O O2 0.466419 0.250000 0.414960
O O3 0.441349 0.341130 0.464237
O O4 0.505762 0.319410 0.275362
O O5 0.750000 0.701318 0.991339
O O6 0.966805 0.750000 0.067905
O O7 0.932292 0.661816 0.124859
O O8 0.007292 0.679050 0.932785
O O9 0.750000 0.459438 0.020421
O O10 0.955287 0.446108 0.162895
O O11 0.000000 0.500000 0.000000
O O12 0.985884 0.411929 0.974900
O O13 0.250000 0.409262 0.445868
O O14 0.014282 0.420032 0.561948
O O15 0.002235 0.416265 0.353509
O O16 0.250000 0.439713 0.667831
O O17 0.476180 0.495197 0.679022
O O18 0.480748 0.413792 0.768687
O O19 0.750000 0.050247 0.308153
O O20 0.250000 0.090718 0.894514
O O21 0.250000 0.672503 0.827221
O O22 0.102763 0.750000 0.831602
#
# Coordination Sequence:
#
# PCOD8244269 Si02
#       8
#     8   8   8   8   8   8   8   8
#     4   9  18  33  50  72 104 137 171 215 265 314
#     4   9  18  32  51  77 107 141 181 221 263 316
#     4  11  22  37  57  83 112 143 178 218 269 328
#     4  10  21  35  56  81 103 137 183 222 261 316
#     4   9  18  37  57  76 105 141 178 220 271 315
#     4  10  21  37  56  78 110 142 171 219 273 317
#     4  10  20  36  57  78 110 150 182 220 270 322
#     4   9  17  29  47  70  98 135 173 212 262 314
#
# _framework density 18.922391000000001
#
# number of rings (size 3 to 8) (size 9 to 14) (size 15 to 20)
#    0.000    2.375    1.250    1.125    1.750    3.500 
#    0.000    1.250    0.000    3.750    0.000    0.000 
#    0.000    6.000    0.000    0.000    0.000    0.000 
#
# Total GULP energy -793353.184929 kJ/mol
# GULP energy per Si atom -12396.143515 kJ/mol
# Density = 1.887932 g / cm^3
# Si number density = 18.922391 Si / 1000 Ang^3
#
#
#
# Elastic Constant Matrix: (Units=GPa)
#
#
# Indices 1 2 3 4 5 6 
#
# 1 58.0898 31.6731 36.6380 0.0000 0.0000 0.0000
# 2 31.6731 120.5582 59.5145 0.0000 0.0000 0.0000
# 3 36.6380 59.5145 110.6517 0.0000 0.0000 0.0000
# 4 0.0000 0.0000 0.0000 25.0099 0.0000 0.0000
# 5 0.0000 0.0000 0.0000 0.0000 19.9887 0.0000
# 6 0.0000 0.0000 0.0000 0.0000 0.0000 21.6416
#
#
#
# Elastic Compliance Matrix: (Units=1/GPa)
#
#
# Indices 1 2 3 4 5 6 
#
# 1 0.022552 -0.003048 -0.005828 0.000000 0.000000 0.000000
# 2 -0.003048 0.011705 -0.005287 0.000000 0.000000 0.000000
# 3 -0.005828 -0.005287 0.013810 0.000000 0.000000 0.000000
# 4 0.000000 0.000000 0.000000 0.039984 0.000000 0.000000
# 5 0.000000 0.000000 0.000000 0.000000 0.050028 0.000000
# 6 0.000000 0.000000 0.000000 0.000000 0.000000 0.046207
#
#
# Mechanical properties :
#
#
# Convention : Reuss Voigt Hill
#
# Bulk Modulus (GPa) = 50.65036 60.55010 55.60023
# Shear Modulus (GPa) = 22.81086 24.09297 23.45192
#
# Velocity S-wave (km/s) = 3.47579 3.57214 3.52429
# Velocity P-wave (km/s) = 6.55238 7.00587 6.78292
#
# Compressibility (1/GPa) = 0.01974320
#
# Stress axis : x y z
#
# Youngs Moduli (GPa) = 44.34118 85.43192 72.40896
#
# Poissons Ratio (x) = 0.26039 0.42200
# Poissons Ratio (y) = 0.13515 0.38279
# Poissons Ratio (z) = 0.25842 0.45164
#
# Static dielectric constant tensor:
#      x y z
#    x 3.448930 0.000000 0.000000 
#    y 0.000000 3.643930 0.000000 
#    z 0.000000 0.000000 3.425710 
# 
# 
# High freq. dielectric constant tensor:
#      x y z
#    x 1.718010 0.000000 0.000000 
#    y 0.000000 1.748840 0.000000 
#    z 0.000000 0.000000 1.714830 
# 
# From -- ./inp_files/14963.got.cif
#   From: 2010.03.12/outbox.cif.g09.slc.cpg/sg59_8_cif.got.tgz:14963.got - 2010.04.16 16:29:54.
