data_PCOD8244134
_publ_section_title
;
Structure prediction by ZEFSAII (Michael W. Deem and Ramdas Pophale) SiO2 
 PCOD8244134
Probable space group: P M M N
;
_chemical_formula_sum "Si O2"
_cell_formula_units_Z 64
_cell_length_a 8.948603
_cell_length_b 28.719823
_cell_length_c 12.364027
_cell_angle_alpha 90.000000
_cell_angle_beta 90.000000
_cell_angle_gamma 90.000000
_cell_volume 3177.583305
_symmetry_space_group_name_H-M "P M M N"
_symmetry_group_IT_number 59
_space_group.IT_coordinate_system_code '2'
_symmetry_cell_setting 'orthorhombic'
loop_
_space_group_symop_operation_xyz
x,y,z
1/2-x,1/2-y,z
1/2+x,-y,-z
-x,1/2+y,-z
-x,-y,-z
1/2+x,1/2+y,-z
1/2-x,y,z
x,1/2-y,z
loop_
_atom_site_type_symbol
_atom_site_label
_atom_site_fract_x
_atom_site_fract_y
_atom_site_fract_z
Si Si1 0.425899 0.132899 0.875429
Si Si2 0.919832 0.501278 0.336765
Si Si3 0.080564 0.570680 0.487212
Si Si4 0.576697 0.803439 0.924983
Si Si5 0.575933 0.526825 0.098294
Si Si6 0.924286 0.664386 0.497820
Si Si7 0.082257 0.804891 0.707651
Si Si8 0.575656 0.198203 0.705360
O O1 0.250000 0.133749 0.855310
O O2 0.483998 0.079997 0.890200
O O3 0.499884 0.156903 0.772090
O O4 0.473200 0.163165 0.978476
O O5 0.750000 0.520500 0.352044
O O6 0.933142 0.450420 0.391473
O O7 0.958593 0.498989 0.209382
O O8 0.040416 0.533306 0.395904
O O9 0.250000 0.588054 0.467157
O O10 0.962554 0.611360 0.470989
O O11 0.750000 0.809729 0.895622
O O12 0.542396 0.750000 0.957417
O O13 0.478864 0.819897 0.824054
O O14 0.750000 0.528208 0.071912
O O15 0.500000 0.500000 0.000000
O O16 0.750000 0.673709 0.485285
O O17 0.973960 0.673635 0.619498
O O18 0.011526 0.698039 0.416060
O O19 0.250000 0.824602 0.693486
O O20 0.079780 0.750000 0.695894
O O21 0.750000 0.187940 0.701000
O O22 0.543841 0.250000 0.753718
#
# Coordination Sequence:
#
# PCOD8244134 Si02
#       8
#     8   8   8   8   8   8   8   8
#     4  10  21  38  61  88 118 154 196 241 289 346
#     4   9  19  37  58  82 113 147 185 230 283 342
#     4  10  20  35  58  85 112 145 186 234 284 335
#     4   9  18  34  56  82 113 149 190 234 282 342
#     4  10  22  39  58  82 114 151 192 239 290 344
#     4  12  24  37  56  82 114 151 190 232 283 343
#     4  10  21  37  56  78 107 143 183 230 282 333
#     4  11  24  40  60  89 123 156 192 237 290 350
#
# _framework density 20.141093000000001
#
# number of rings (size 3 to 8) (size 9 to 14) (size 15 to 20)
#    0.000    1.875    0.000    3.750    0.000    7.750 
#    0.000    3.750    0.000    0.000    0.000    0.000 
#    0.000    0.000    0.000    0.000    0.000    0.000 
#
# Total GULP energy -793703.387164 kJ/mol
# GULP energy per Si atom -12401.615424 kJ/mol
# Density = 2.009525 g / cm^3
# Si number density = 20.141093 Si / 1000 Ang^3
#
#
#
# Elastic Constant Matrix: (Units=GPa)
#
#
# Indices 1 2 3 4 5 6 
#
# 1 65.5200 31.2573 42.7512 0.0000 0.0000 0.0000
# 2 31.2573 80.2946 42.3786 0.0000 0.0000 0.0000
# 3 42.7512 42.3786 108.3206 0.0000 0.0000 0.0000
# 4 0.0000 0.0000 0.0000 28.7760 0.0000 0.0000
# 5 0.0000 0.0000 0.0000 0.0000 33.8445 0.0000
# 6 0.0000 0.0000 0.0000 0.0000 0.0000 26.1157
#
#
#
# Elastic Compliance Matrix: (Units=1/GPa)
#
#
# Indices 1 2 3 4 5 6 
#
# 1 0.022059 -0.005031 -0.006738 0.000000 0.000000 0.000000
# 2 -0.005031 0.016842 -0.004604 0.000000 0.000000 0.000000
# 3 -0.006738 -0.004604 0.013692 0.000000 0.000000 0.000000
# 4 0.000000 0.000000 0.000000 0.034751 0.000000 0.000000
# 5 0.000000 0.000000 0.000000 0.000000 0.029547 0.000000
# 6 0.000000 0.000000 0.000000 0.000000 0.000000 0.038291
#
#
# Mechanical properties :
#
#
# Convention : Reuss Voigt Hill
#
# Bulk Modulus (GPa) = 50.38148 54.10103 52.24126
# Shear Modulus (GPa) = 25.70112 26.93045 26.31578
#
# Velocity S-wave (km/s) = 3.57606 3.66059 3.61857
# Velocity P-wave (km/s) = 6.48996 6.69223 6.59187
#
# Compressibility (1/GPa) = 0.01984856
#
# Stress axis : x y z
#
# Youngs Moduli (GPa) = 45.33293 59.37392 73.03438
#
# Poissons Ratio (x) = 0.29871 0.49209
# Poissons Ratio (y) = 0.22807 0.33623
# Poissons Ratio (z) = 0.30544 0.27334
#
# Static dielectric constant tensor:
#      x y z
#    x 3.631750 0.000000 0.000000 
#    y 0.000000 3.709610 0.000000 
#    z 0.000000 0.000000 3.750880 
# 
# 
# High freq. dielectric constant tensor:
#      x y z
#    x 1.785280 0.000000 0.000000 
#    y 0.000000 1.783360 0.000000 
#    z 0.000000 0.000000 1.792320 
# 
# From -- ./inp_files/14938.got.cif
#   From: 2010.03.12/outbox.cif.g09.slc.cpg/sg59_8_cif.got.tgz:14938.got - 2010.04.16 16:29:54.
