data_PCOD8244808
_publ_section_title
;
Structure prediction by ZEFSAII (Michael W. Deem and Ramdas Pophale) SiO2 
 PCOD8244808
Probable space group: P M M N
;
_chemical_formula_sum "Si O2"
_cell_formula_units_Z 48
_cell_length_a 16.085938
_cell_length_b 8.945406
_cell_length_c 17.875948
_cell_angle_alpha 90.000000
_cell_angle_beta 90.000000
_cell_angle_gamma 90.000000
_cell_volume 2572.263940
_symmetry_space_group_name_H-M "P M M N"
_symmetry_group_IT_number 59
_space_group.IT_coordinate_system_code '2'
_symmetry_cell_setting 'orthorhombic'
loop_
_space_group_symop_operation_xyz
x,y,z
1/2-x,1/2-y,z
1/2+x,-y,-z
-x,1/2+y,-z
-x,-y,-z
1/2+x,1/2+y,-z
1/2-x,y,z
x,1/2-y,z
loop_
_atom_site_type_symbol
_atom_site_label
_atom_site_fract_x
_atom_site_fract_y
_atom_site_fract_z
Si Si1 0.553782 0.920545 0.805396
Si Si2 0.915983 0.575669 0.972664
Si Si3 0.983799 0.075805 0.578174
Si Si4 0.250000 0.927510 0.779980
Si Si5 0.250000 0.428342 0.942825
Si Si6 0.655716 0.578715 0.661632
Si Si7 0.087913 0.425761 0.722107
O O1 0.520589 0.750000 0.803592
O O2 0.593503 0.960589 0.885048
O O3 0.627265 0.945596 0.746605
O O4 0.476755 0.028928 0.787128
O O5 0.925132 0.750000 0.988375
O O6 0.833034 0.515236 0.014057
O O7 0.000000 0.500000 0.000000
O O8 0.984566 0.250000 0.564928
O O9 0.051767 0.029781 0.640696
O O10 0.893422 0.026520 0.605286
O O11 0.000000 0.000000 0.500000
O O12 0.250000 0.750000 0.787968
O O13 0.250000 0.000731 0.861327
O O14 0.328793 0.980927 0.732566
O O15 0.250000 0.250000 0.936038
O O16 0.750000 0.527808 0.656089
O O17 0.642788 0.750000 0.636923
O O18 0.106020 0.250000 0.728851
#
# Coordination Sequence:
#
# PCOD8244808 Si02
#       7
#     8   8   8   4   4   8   8
#     4   9  18  33  55  81 110 145 188 233 273 326
#     4  10  21  35  53  78 110 147 189 234 284 334
#     4  10  21  38  60  84 114 147 180 222 271 326
#     4  12  24  38  58  82 109 142 189 240 279 328
#     4  10  22  38  56  80 113 154 191 234 287 342
#     4   9  18  33  56  84 112 146 184 223 270 324
#     4  10  21  38  59  83 110 147 186 226 278 332
#
# _framework density 18.660605
#
# number of rings (size 3 to 8) (size 9 to 14) (size 15 to 20)
#    0.000    2.167    0.000    2.750    1.167    6.333 
#    1.500    0.000    0.000    0.000    0.000    0.000 
#    0.000    0.000    0.000    0.000    0.000    0.000 
#
# Total GULP energy -595272.498733 kJ/mol
# GULP energy per Si atom -12401.510390 kJ/mol
# Density = 1.861813 g / cm^3
# Si number density = 18.660605 Si / 1000 Ang^3
#
#
#
# Elastic Constant Matrix: (Units=GPa)
#
#
# Indices 1 2 3 4 5 6 
#
# 1 156.1570 49.7582 73.1169 0.0000 0.0000 0.0000
# 2 49.7582 56.9857 47.1213 0.0000 0.0000 0.0000
# 3 73.1169 47.1213 131.4166 0.0000 0.0000 0.0000
# 4 0.0000 0.0000 0.0000 29.5849 0.0000 0.0000
# 5 0.0000 0.0000 0.0000 0.0000 18.4015 0.0000
# 6 0.0000 0.0000 0.0000 0.0000 0.0000 32.9788
#
#
#
# Elastic Compliance Matrix: (Units=1/GPa)
#
#
# Indices 1 2 3 4 5 6 
#
# 1 0.009837 -0.005777 -0.003402 0.000000 0.000000 0.000000
# 2 -0.005777 0.028336 -0.006946 0.000000 0.000000 0.000000
# 3 -0.003402 -0.006946 0.011993 0.000000 0.000000 0.000000
# 4 0.000000 0.000000 0.000000 0.033801 0.000000 0.000000
# 5 0.000000 0.000000 0.000000 0.000000 0.054343 0.000000
# 6 0.000000 0.000000 0.000000 0.000000 0.000000 0.030323
#
#
# Mechanical properties :
#
#
# Convention : Reuss Voigt Hill
#
# Bulk Modulus (GPa) = 55.81448 76.06133 65.93791
# Shear Modulus (GPa) = 24.17147 27.83057 26.00102
#
# Velocity S-wave (km/s) = 3.60296 3.86606 3.73683
# Velocity P-wave (km/s) = 6.87631 7.79599 7.35055
#
# Compressibility (1/GPa) = 0.01791650
#
# Stress axis : x y z
#
# Youngs Moduli (GPa) = 101.65297 35.29056 83.38275
#
# Poissons Ratio (x) = 0.20386 0.28367
# Poissons Ratio (y) = 0.58721 0.57921
# Poissons Ratio (z) = 0.34582 0.24514
#
# Static dielectric constant tensor:
#      x y z
#    x 2.458500 0.000000 0.000000 
#    y 0.000000 3.581990 0.000000 
#    z 0.000000 0.000000 3.390160 
# 
# 
# High freq. dielectric constant tensor:
#      x y z
#    x 1.728670 0.000000 0.000000 
#    y 0.000000 1.722160 0.000000 
#    z 0.000000 0.000000 1.729470 
# 
# From -- ./inp_files/25580.got.cif
#   From: 2010.03.12/outbox.cif.g09.slc.cpg/sg59_13_cif.got.tgz:25580.got - 2010.04.16 16:29:54.
