data_PCOD8244241
_publ_section_title
;
Structure prediction by ZEFSAII (Michael W. Deem and Ramdas Pophale) SiO2 
 PCOD8244241
Probable space group: P M M N
;
_chemical_formula_sum "Si O2"
_cell_formula_units_Z 48
_cell_length_a 9.887307
_cell_length_b 9.709304
_cell_length_c 28.546014
_cell_angle_alpha 90.000000
_cell_angle_beta 90.000000
_cell_angle_gamma 90.000000
_cell_volume 2740.385070
_symmetry_space_group_name_H-M "P M M N"
_symmetry_group_IT_number 59
_space_group.IT_coordinate_system_code '2'
_symmetry_cell_setting 'orthorhombic'
loop_
_space_group_symop_operation_xyz
x,y,z
1/2-x,1/2-y,z
1/2+x,-y,-z
-x,1/2+y,-z
-x,-y,-z
1/2+x,1/2+y,-z
1/2-x,y,z
x,1/2-y,z
loop_
_atom_site_type_symbol
_atom_site_label
_atom_site_fract_x
_atom_site_fract_y
_atom_site_fract_z
Si Si1 0.903139 0.407575 0.806304
Si Si2 0.250000 0.908640 0.938200
Si Si3 0.531266 0.591375 0.894277
Si Si4 0.593020 0.589846 0.277667
Si Si5 0.250000 0.408242 0.029653
Si Si6 0.910257 0.098236 0.361494
Si Si7 0.906495 0.411316 0.466568
O O1 0.750000 0.421555 0.787438
O O2 0.936430 0.250000 0.819630
O O3 0.919788 0.498409 0.852064
O O4 0.005909 0.460485 0.766577
O O5 0.250000 0.750000 0.954347
O O6 0.377124 0.943631 0.905796
O O7 0.250000 0.998743 0.984298
O O8 0.552124 0.750000 0.879618
O O9 0.617660 0.556631 0.940249
O O10 0.750000 0.556401 0.267318
O O11 0.570056 0.750000 0.287812
O O12 0.537001 0.509989 0.323161
O O13 0.250000 0.250000 0.013396
O O14 0.750000 0.105059 0.360354
O O15 0.968949 0.250000 0.349624
O O16 0.954122 0.053314 0.413634
O O17 0.750000 0.452437 0.474327
O O18 0.927151 0.250000 0.476886
O O19 0.000000 0.500000 0.500000
#
# Coordination Sequence:
#
# PCOD8244241 Si02
#       7
#     8   4   8   8   4   8   8
#     4  10  21  36  53  74 101 134 168 202 248 302
#     4  10  22  36  54  80 106 130 164 206 245 288
#     4  10  21  37  54  76 105 133 164 204 246 292
#     4   9  18  32  51  75 100 126 163 210 253 298
#     4  10  20  36  56  76 102 136 168 200 241 292
#     4   8  15  30  50  72  99 131 168 210 255 303
#     4   9  18  32  50  74 105 139 177 219 261 310
#
# _framework density 17.515785000000001
#
# number of rings (size 3 to 8) (size 9 to 14) (size 15 to 20)
#    0.000    2.667    0.833    1.500    1.167    3.000 
#    0.000    2.500    0.000    3.000    0.000    0.000 
#    0.000    0.000    0.000    0.000    0.000    0.000 
#
# Total GULP energy -595184.576266 kJ/mol
# GULP energy per Si atom -12399.678672 kJ/mol
# Density = 1.747592 g / cm^3
# Si number density = 17.515785 Si / 1000 Ang^3
#
#
#
# Elastic Constant Matrix: (Units=GPa)
#
#
# Indices 1 2 3 4 5 6 
#
# 1 81.7185 32.4393 35.3096 0.0000 0.0000 0.0000
# 2 32.4393 70.8476 62.2153 0.0000 0.0000 0.0000
# 3 35.3096 62.2153 105.8145 0.0000 0.0000 0.0000
# 4 0.0000 0.0000 0.0000 36.7858 0.0000 0.0000
# 5 0.0000 0.0000 0.0000 0.0000 30.0247 0.0000
# 6 0.0000 0.0000 0.0000 0.0000 0.0000 20.0597
#
#
#
# Elastic Compliance Matrix: (Units=1/GPa)
#
#
# Indices 1 2 3 4 5 6 
#
# 1 0.015162 -0.005167 -0.002021 0.000000 0.000000 0.000000
# 2 -0.005167 0.030943 -0.016469 0.000000 0.000000 0.000000
# 3 -0.002021 -0.016469 0.019808 0.000000 0.000000 0.000000
# 4 0.000000 0.000000 0.000000 0.027184 0.000000 0.000000
# 5 0.000000 0.000000 0.000000 0.000000 0.033306 0.000000
# 6 0.000000 0.000000 0.000000 0.000000 0.000000 0.049851
#
#
# Mechanical properties :
#
#
# Convention : Reuss Voigt Hill
#
# Bulk Modulus (GPa) = 53.76960 57.58989 55.67974
# Shear Modulus (GPa) = 21.76089 25.93514 23.84801
#
# Velocity S-wave (km/s) = 3.52853 3.85212 3.69388
# Velocity P-wave (km/s) = 6.88224 7.26191 7.07462
#
# Compressibility (1/GPa) = 0.01859787
#
# Stress axis : x y z
#
# Youngs Moduli (GPa) = 65.95576 32.31699 50.48361
#
# Poissons Ratio (x) = 0.16699 0.10204
# Poissons Ratio (y) = 0.34081 0.83144
# Poissons Ratio (z) = 0.13331 0.53224
#
# Static dielectric constant tensor:
#      x y z
#    x 3.560370 0.000000 0.000000 
#    y 0.000000 3.240700 0.000000 
#    z 0.000000 0.000000 3.264020 
# 
# 
# High freq. dielectric constant tensor:
#      x y z
#    x 1.669960 0.000000 0.000000 
#    y 0.000000 1.676930 0.000000 
#    z 0.000000 0.000000 1.675410 
# 
# From -- ./inp_files/33052.got.cif
#   From: 2010.03.12/outbox.cif.g09.slc.cpg/sg59_17_cif.got.tgz:33052.got - 2010.04.16 16:29:54.
