data_PCOD8244860
_publ_section_title
;
Structure prediction by ZEFSAII (Michael W. Deem and Ramdas Pophale) SiO2 
 PCOD8244860
Probable space group: P M M N
;
_chemical_formula_sum "Si O2"
_cell_formula_units_Z 40
_cell_length_a 8.708879
_cell_length_b 16.032186
_cell_length_c 14.559702
_cell_angle_alpha 90.000000
_cell_angle_beta 90.000000
_cell_angle_gamma 90.000000
_cell_volume 2032.860070
_symmetry_space_group_name_H-M "P M M N"
_symmetry_group_IT_number 59
_space_group.IT_coordinate_system_code '2'
_symmetry_cell_setting 'orthorhombic'
loop_
_space_group_symop_operation_xyz
x,y,z
1/2-x,1/2-y,z
1/2+x,-y,-z
-x,1/2+y,-z
-x,-y,-z
1/2+x,1/2+y,-z
1/2-x,y,z
x,1/2-y,z
loop_
_atom_site_type_symbol
_atom_site_label
_atom_site_fract_x
_atom_site_fract_y
_atom_site_fract_z
Si Si1 0.067295 0.589668 0.524563
Si Si2 0.927655 0.596178 0.090539
Si Si3 0.429735 0.659000 0.714577
Si Si4 0.576477 0.578092 0.884972
Si Si5 0.931501 0.750000 0.209588
Si Si6 0.566732 0.750000 0.420634
O O1 0.250000 0.589235 0.511636
O O2 0.014511 0.602450 0.629938
O O3 0.000000 0.500000 0.500000
O O4 0.999198 0.665509 0.464819
O O5 0.750000 0.573722 0.112186
O O6 0.992200 0.668785 0.155958
O O7 0.035927 0.518558 0.109434
O O8 0.944513 0.622572 0.983769
O O9 0.250000 0.669190 0.707120
O O10 0.507958 0.750000 0.705891
O O11 0.466710 0.620685 0.812393
O O12 0.750000 0.586948 0.850045
O O13 0.750000 0.750000 0.203372
O O14 0.987427 0.750000 0.314471
O O15 0.750000 0.750000 0.429448
#
# Coordination Sequence:
#
# PCOD8244860 Si02
#       6
#     8   8   8   8   4   4
#     4  11  24  44  66  90 122 161 203 253 310 367
#     4   9  19  38  59  81 117 159 196 235 287 352
#     4  10  22  41  62  84 116 158 195 235 298 365
#     4  10  21  35  58  89 119 150 193 246 291 337
#     4   9  20  37  60  83 110 156 199 231 284 353
#     4  11  23  41  64  93 122 158 207 253 300 365
#
# _framework density 19.67671
#
# number of rings (size 3 to 8) (size 9 to 14) (size 15 to 20)
#    0.000    2.000    1.000    1.500    4.200    2.800 
#    0.000    1.500    0.000    0.000    0.000    0.000 
#    0.000    0.000    0.000    0.000    0.000    0.000 
#
# Total GULP energy -495934.802036 kJ/mol
# GULP energy per Si atom -12398.370051 kJ/mol
# Density = 1.963193 g / cm^3
# Si number density = 19.676710 Si / 1000 Ang^3
#
#
#
# Elastic Constant Matrix: (Units=GPa)
#
#
# Indices 1 2 3 4 5 6 
#
# 1 35.8622 24.9609 38.3429 0.0000 0.0000 0.0000
# 2 24.9609 127.1321 72.7682 0.0000 0.0000 0.0000
# 3 38.3429 72.7682 141.0542 0.0000 0.0000 0.0000
# 4 0.0000 0.0000 0.0000 32.8451 0.0000 0.0000
# 5 0.0000 0.0000 0.0000 0.0000 29.1085 0.0000
# 6 0.0000 0.0000 0.0000 0.0000 0.0000 31.3004
#
#
#
# Elastic Compliance Matrix: (Units=1/GPa)
#
#
# Indices 1 2 3 4 5 6 
#
# 1 0.039778 -0.002300 -0.009626 0.000000 0.000000 0.000000
# 2 -0.002300 0.011295 -0.005202 0.000000 0.000000 0.000000
# 3 -0.009626 -0.005202 0.012390 0.000000 0.000000 0.000000
# 4 0.000000 0.000000 0.000000 0.030446 0.000000 0.000000
# 5 0.000000 0.000000 0.000000 0.000000 0.034354 0.000000
# 6 0.000000 0.000000 0.000000 0.000000 0.000000 0.031948
#
#
# Mechanical properties :
#
#
# Convention : Reuss Voigt Hill
#
# Bulk Modulus (GPa) = 34.23925 64.02140 49.13033
# Shear Modulus (GPa) = 24.48562 29.84924 27.16743
#
# Velocity S-wave (km/s) = 3.53143 3.89907 3.71979
# Velocity P-wave (km/s) = 5.83666 7.27170 6.59334
#
# Compressibility (1/GPa) = 0.02920625
#
# Stress axis : x y z
#
# Youngs Moduli (GPa) = 25.13982 88.53701 80.71255
#
# Poissons Ratio (x) = 0.20363 0.77696
# Poissons Ratio (y) = 0.05782 0.41984
# Poissons Ratio (z) = 0.24200 0.46054
#
# Static dielectric constant tensor:
#      x y z
#    x 3.483060 0.000000 0.000000 
#    y 0.000000 3.734820 0.000000 
#    z 0.000000 0.000000 3.850660 
# 
# 
# High freq. dielectric constant tensor:
#      x y z
#    x 1.755970 0.000000 0.000000 
#    y 0.000000 1.773540 0.000000 
#    z 0.000000 0.000000 1.780320 
# 
# From -- ./inp_files/19910.got.cif
#   From: 2010.03.12/outbox.cif.g09.slc.cpg/sg59_10_cif.got.tgz:19910.got - 2010.04.16 16:29:54.
