data_PCOD8244826
_publ_section_title
;
Structure prediction by ZEFSAII (Michael W. Deem and Ramdas Pophale) SiO2 
 PCOD8244826
Probable space group: P M M N
;
_chemical_formula_sum "Si O2"
_cell_formula_units_Z 48
_cell_length_a 10.111326
_cell_length_b 16.652967
_cell_length_c 15.031766
_cell_angle_alpha 90.000000
_cell_angle_beta 90.000000
_cell_angle_gamma 90.000000
_cell_volume 2531.102546
_symmetry_space_group_name_H-M "P M M N"
_symmetry_group_IT_number 59
_space_group.IT_coordinate_system_code '2'
_symmetry_cell_setting 'orthorhombic'
loop_
_space_group_symop_operation_xyz
x,y,z
1/2-x,1/2-y,z
1/2+x,-y,-z
-x,1/2+y,-z
-x,-y,-z
1/2+x,1/2+y,-z
1/2-x,y,z
x,1/2-y,z
loop_
_atom_site_type_symbol
_atom_site_label
_atom_site_fract_x
_atom_site_fract_y
_atom_site_fract_z
Si Si1 0.097893 0.085910 0.597277
Si Si2 0.392338 0.156102 0.132619
Si Si3 0.403241 0.432786 0.960189
Si Si4 0.093604 0.158992 0.785836
Si Si5 0.893180 0.158177 0.260405
Si Si6 0.599366 0.098405 0.445814
O O1 0.250000 0.111142 0.578069
O O2 0.050786 0.118073 0.693075
O O3 0.001145 0.123999 0.523465
O O4 0.079158 0.990865 0.592021
O O5 0.250000 0.120240 0.161892
O O6 0.393640 0.250000 0.150122
O O7 0.503391 0.114068 0.194756
O O8 0.414974 0.140891 0.028786
O O9 0.250000 0.463373 0.953091
O O10 0.457236 0.397832 0.866421
O O11 0.500000 0.500000 0.000000
O O12 0.250000 0.164028 0.793045
O O13 0.035223 0.250000 0.791651
O O14 0.750000 0.114798 0.249171
O O15 0.880091 0.250000 0.231463
O O16 0.936754 0.155136 0.363018
O O17 0.750000 0.111094 0.479548
#
# Coordination Sequence:
#
# PCOD8244826 Si02
#       6
#     8   8   8   8   8   8
#     4   9  18  32  51  74  97 130 173 214 254 298
#     4   9  18  33  51  73 102 134 168 207 252 298
#     4  10  21  35  54  79 105 135 170 212 259 308
#     4   9  18  34  56  79 103 136 179 221 259 306
#     4   9  18  31  49  73 100 133 168 202 247 304
#     4   9  18  32  49  71 103 136 167 208 256 307
#
# _framework density 18.964068000000001
#
# number of rings (size 3 to 8) (size 9 to 14) (size 15 to 20)
#    0.000    2.833    0.000    0.500    2.333    4.000 
#    0.000    0.833    0.000    2.500    0.000    0.000 
#    0.000    0.000    0.000    0.000    0.000    0.000 
#
# Total GULP energy -594816.981623 kJ/mol
# GULP energy per Si atom -12392.020450 kJ/mol
# Density = 1.892090 g / cm^3
# Si number density = 18.964068 Si / 1000 Ang^3
#
#
#
# Elastic Constant Matrix: (Units=GPa)
#
#
# Indices 1 2 3 4 5 6 
#
# 1 97.0868 25.5589 86.1822 0.0000 0.0000 0.0000
# 2 25.5589 43.9970 36.2970 0.0000 0.0000 0.0000
# 3 86.1822 36.2970 163.7420 0.0000 0.0000 0.0000
# 4 0.0000 0.0000 0.0000 31.7817 0.0000 0.0000
# 5 0.0000 0.0000 0.0000 0.0000 32.9287 0.0000
# 6 0.0000 0.0000 0.0000 0.0000 0.0000 11.2843
#
#
#
# Elastic Compliance Matrix: (Units=1/GPa)
#
#
# Indices 1 2 3 4 5 6 
#
# 1 0.019775 -0.003551 -0.009621 0.000000 0.000000 0.000000
# 2 -0.003551 0.028453 -0.004438 0.000000 0.000000 0.000000
# 3 -0.009621 -0.004438 0.012155 0.000000 0.000000 0.000000
# 4 0.000000 0.000000 0.000000 0.031465 0.000000 0.000000
# 5 0.000000 0.000000 0.000000 0.000000 0.030369 0.000000
# 6 0.000000 0.000000 0.000000 0.000000 0.000000 0.088619
#
#
# Mechanical properties :
#
#
# Convention : Reuss Voigt Hill
#
# Bulk Modulus (GPa) = 39.74113 66.76688 53.25400
# Shear Modulus (GPa) = 19.65069 25.65147 22.65108
#
# Velocity S-wave (km/s) = 3.22251 3.68181 3.45979
# Velocity P-wave (km/s) = 5.90318 7.30464 6.64098
#
# Compressibility (1/GPa) = 0.02516285
#
# Stress axis : x y z
#
# Youngs Moduli (GPa) = 50.56768 35.14555 82.27028
#
# Poissons Ratio (x) = 0.12479 0.79155
# Poissons Ratio (y) = 0.17954 0.36516
# Poissons Ratio (z) = 0.48653 0.15599
#
# Static dielectric constant tensor:
#      x y z
#    x 3.766280 0.000000 0.000000 
#    y 0.000000 3.257200 0.000000 
#    z 0.000000 0.000000 3.648660 
# 
# 
# High freq. dielectric constant tensor:
#      x y z
#    x 1.721070 0.000000 0.000000 
#    y 0.000000 1.718080 0.000000 
#    z 0.000000 0.000000 1.743020 
# 
# From -- ./inp_files/15807.got.cif
#   From: 2010.03.12/outbox.cif.g09.slc.cpg/sg59_8_cif.got.tgz:15807.got - 2010.04.16 16:29:54.
