data_PCOD8244842
_publ_section_title
;
Structure prediction by ZEFSAII (Michael W. Deem and Ramdas Pophale) SiO2 
 PCOD8244842
Probable space group: P M M N
;
_chemical_formula_sum "Si O2"
_cell_formula_units_Z 64
_cell_length_a 26.860377
_cell_length_b 13.396054
_cell_length_c 9.635654
_cell_angle_alpha 90.000000
_cell_angle_beta 90.000000
_cell_angle_gamma 90.000000
_cell_volume 3467.130515
_symmetry_space_group_name_H-M "P M M N"
_symmetry_group_IT_number 59
_space_group.IT_coordinate_system_code '2'
_symmetry_cell_setting 'orthorhombic'
loop_
_space_group_symop_operation_xyz
x,y,z
1/2-x,1/2-y,z
1/2+x,-y,-z
-x,1/2+y,-z
-x,-y,-z
1/2+x,1/2+y,-z
1/2-x,y,z
x,1/2-y,z
loop_
_atom_site_type_symbol
_atom_site_label
_atom_site_fract_x
_atom_site_fract_y
_atom_site_fract_z
Si Si1 0.196957 0.635848 0.222781
Si Si2 0.882104 0.862874 0.178783
Si Si3 0.054277 0.514554 0.346168
Si Si4 0.460066 0.135140 0.583438
Si Si5 0.442092 0.485754 0.026442
Si Si6 0.135622 0.636120 0.976959
Si Si7 0.640605 0.134740 0.505896
Si Si8 0.809275 0.466582 0.247516
O O1 0.250000 0.581179 0.200960
O O2 0.201650 0.750000 0.173908
O O3 0.184413 0.629964 0.383213
O O4 0.155212 0.589555 0.123040
O O5 0.863920 0.750000 0.155785
O O6 0.910934 0.873315 0.323851
O O7 0.832367 0.930391 0.188529
O O8 0.918623 0.888798 0.048863
O O9 0.049720 0.411994 0.432164
O O10 0.070105 0.484638 0.190610
O O11 0.091547 0.589042 0.425184
O O12 0.002457 0.573441 0.336770
O O13 0.476306 0.250000 0.563205
O O14 0.500000 0.500000 0.000000
O O15 0.415298 0.577734 0.946498
O O16 0.119910 0.750000 0.984992
O O17 0.179161 0.619563 0.864466
O O18 0.630318 0.250000 0.460019
O O19 0.660461 0.066248 0.382913
O O20 0.750000 0.476700 0.272930
#
# Coordination Sequence:
#
# PCOD8244842 Si02
#       8
#     8   8   8   8   8   8   8   8
#     4   9  17  30  49  75 107 145 184 218 269 338
#     4  10  22  41  61  85 115 153 201 249 295 346
#     4  11  21  37  59  86 120 151 195 240 292 355
#     4  10  21  37  60  84 116 157 194 238 289 348
#     4  11  22  37  58  86 118 154 197 242 292 347
#     4  10  21  35  55  83 116 152 188 233 288 350
#     4  11  21  34  54  86 120 153 187 229 289 352
#     4  11  23  39  59  86 116 152 197 246 296 348
#
# _framework density 18.459069
#
# number of rings (size 3 to 8) (size 9 to 14) (size 15 to 20)
#    0.000    1.625    3.750    1.500    0.000    3.750 
#    0.000    1.250    0.000    0.000    0.000    0.000 
#    0.000    0.000    0.000    0.000    0.000    0.000 
#
# Total GULP energy -793275.453493 kJ/mol
# GULP energy per Si atom -12394.928961 kJ/mol
# Density = 1.841706 g / cm^3
# Si number density = 18.459069 Si / 1000 Ang^3
#
#
#
# Elastic Constant Matrix: (Units=GPa)
#
#
# Indices 1 2 3 4 5 6 
#
# 1 81.0294 27.7970 18.4519 0.0000 0.0000 0.0000
# 2 27.7970 89.6751 31.9115 0.0000 0.0000 0.0000
# 3 18.4519 31.9115 93.1759 0.0000 0.0000 0.0000
# 4 0.0000 0.0000 0.0000 23.2311 0.0000 0.0000
# 5 0.0000 0.0000 0.0000 0.0000 17.4979 0.0000
# 6 0.0000 0.0000 0.0000 0.0000 0.0000 20.2490
#
#
#
# Elastic Compliance Matrix: (Units=1/GPa)
#
#
# Indices 1 2 3 4 5 6 
#
# 1 0.013983 -0.003814 -0.001463 0.000000 0.000000 0.000000
# 2 -0.003814 0.013739 -0.003950 0.000000 0.000000 0.000000
# 3 -0.001463 -0.003950 0.012375 0.000000 0.000000 0.000000
# 4 0.000000 0.000000 0.000000 0.043046 0.000000 0.000000
# 5 0.000000 0.000000 0.000000 0.000000 0.057150 0.000000
# 6 0.000000 0.000000 0.000000 0.000000 0.000000 0.049385
#
#
# Mechanical properties :
#
#
# Convention : Reuss Voigt Hill
#
# Bulk Modulus (GPa) = 46.20392 46.68902 46.44647
# Shear Modulus (GPa) = 23.21851 24.57694 23.89773
#
# Velocity S-wave (km/s) = 3.55045 3.65283 3.60200
# Velocity P-wave (km/s) = 6.47243 6.56804 6.52041
#
# Compressibility (1/GPa) = 0.02164319
#
# Stress axis : x y z
#
# Youngs Moduli (GPa) = 71.51751 72.78425 80.80801
#
# Poissons Ratio (x) = 0.27757 0.11821
# Poissons Ratio (y) = 0.27274 0.31921
# Poissons Ratio (z) = 0.10462 0.28752
#
# Static dielectric constant tensor:
#      x y z
#    x 3.396950 0.000000 0.000000 
#    y 0.000000 3.319040 0.000000 
#    z 0.000000 0.000000 3.496190 
# 
# 
# High freq. dielectric constant tensor:
#      x y z
#    x 1.718380 0.000000 0.000000 
#    y 0.000000 1.698320 0.000000 
#    z 0.000000 0.000000 1.725550 
# 
# From -- ./inp_files/12204.got.cif
#   From: 2010.03.12/outbox.cif.g09.slc.cpg/sg59_7_cif.got.tgz:12204.got - 2010.04.16 16:29:54.
