data_PCOD8244127
_publ_section_title
;
Structure prediction by ZEFSAII (Michael W. Deem and Ramdas Pophale) SiO2 
 PCOD8244127
Probable space group: P M M N
;
_chemical_formula_sum "Si O2"
_cell_formula_units_Z 56
_cell_length_a 8.717390
_cell_length_b 19.311043
_cell_length_c 17.261916
_cell_angle_alpha 90.000000
_cell_angle_beta 90.000000
_cell_angle_gamma 90.000000
_cell_volume 2905.903619
_symmetry_space_group_name_H-M "P M M N"
_symmetry_group_IT_number 59
_space_group.IT_coordinate_system_code '2'
_symmetry_cell_setting 'orthorhombic'
loop_
_space_group_symop_operation_xyz
x,y,z
1/2-x,1/2-y,z
1/2+x,-y,-z
-x,1/2+y,-z
-x,-y,-z
1/2+x,1/2+y,-z
1/2-x,y,z
x,1/2-y,z
loop_
_atom_site_type_symbol
_atom_site_label
_atom_site_fract_x
_atom_site_fract_y
_atom_site_fract_z
Si Si1 0.927574 0.949314 0.609933
Si Si2 0.072423 0.670595 0.040146
Si Si3 0.072990 0.328416 0.674231
Si Si4 0.930314 0.084840 0.810637
Si Si5 0.072488 0.169573 0.120953
Si Si6 0.070857 0.942429 0.774160
Si Si7 0.072567 0.598293 0.460387
O O1 0.750000 0.937109 0.629064
O O2 0.026358 0.931861 0.685035
O O3 0.978584 0.898901 0.540421
O O4 0.961830 0.027876 0.585864
O O5 0.250000 0.658801 0.019446
O O6 0.041814 0.750000 0.064533
O O7 0.971970 0.649046 0.966467
O O8 0.019150 0.621765 0.110196
O O9 0.250000 0.344382 0.658440
O O10 0.045353 0.250000 0.701957
O O11 0.014610 0.379560 0.739656
O O12 0.982439 0.339361 0.594024
O O13 0.750000 0.091685 0.796390
O O14 0.977823 0.004885 0.814087
O O15 0.250000 0.151914 0.134137
O O16 0.036702 0.250000 0.135430
O O17 0.969769 0.127576 0.181038
O O18 0.250000 0.958076 0.780758
O O19 0.250000 0.606270 0.480932
#
# Coordination Sequence:
#
# PCOD8244127 Si02
#       7
#     8   8   8   8   8   8   8
#     4  10  20  36  59  85 115 148 187 238 288 340
#     4   9  19  37  60  85 115 153 196 240 289 346
#     4  11  23  37  55  83 121 161 199 243 293 345
#     4  11  22  37  58  86 119 156 198 243 291 345
#     4  10  22  41  64  87 113 148 191 240 295 353
#     4  12  24  38  60  88 120 154 192 241 292 347
#     4  10  20  35  58  84 112 151 193 236 285 341
#
# _framework density 19.271113
#
# number of rings (size 3 to 8) (size 9 to 14) (size 15 to 20)
#    0.000    1.571    1.429    3.857    0.000    5.429 
#    0.000    2.143    0.000    4.286    0.000    0.000 
#    0.000    0.000    0.000    0.000    0.000    0.000 
#
# Total GULP energy -694744.745334 kJ/mol
# GULP energy per Si atom -12406.156167 kJ/mol
# Density = 1.922725 g / cm^3
# Si number density = 19.271113 Si / 1000 Ang^3
#
#
#
# Elastic Constant Matrix: (Units=GPa)
#
#
# Indices 1 2 3 4 5 6 
#
# 1 48.1682 23.9440 26.9221 0.0000 0.0000 0.0000
# 2 23.9440 69.6510 45.1976 0.0000 0.0000 0.0000
# 3 26.9221 45.1976 105.7698 0.0000 0.0000 0.0000
# 4 0.0000 0.0000 0.0000 21.7181 0.0000 0.0000
# 5 0.0000 0.0000 0.0000 0.0000 38.2500 0.0000
# 6 0.0000 0.0000 0.0000 0.0000 0.0000 26.8275
#
#
#
# Elastic Compliance Matrix: (Units=1/GPa)
#
#
# Indices 1 2 3 4 5 6 
#
# 1 0.026150 -0.006462 -0.003895 0.000000 0.000000 0.000000
# 2 -0.006462 0.021463 -0.007527 0.000000 0.000000 0.000000
# 3 -0.003895 -0.007527 0.013662 0.000000 0.000000 0.000000
# 4 0.000000 0.000000 0.000000 0.046044 0.000000 0.000000
# 5 0.000000 0.000000 0.000000 0.000000 0.026144 0.000000
# 6 0.000000 0.000000 0.000000 0.000000 0.000000 0.037275
#
#
# Mechanical properties :
#
#
# Convention : Reuss Voigt Hill
#
# Bulk Modulus (GPa) = 39.20376 46.19071 42.69724
# Shear Modulus (GPa) = 23.25495 25.86079 24.55787
#
# Velocity S-wave (km/s) = 3.47756 3.66723 3.57366
# Velocity P-wave (km/s) = 6.04252 6.47707 6.26356
#
# Compressibility (1/GPa) = 0.02550776
#
# Stress axis : x y z
#
# Youngs Moduli (GPa) = 38.24141 46.59174 73.19512
#
# Poissons Ratio (x) = 0.30109 0.28506
# Poissons Ratio (y) = 0.24713 0.55092
# Poissons Ratio (z) = 0.14893 0.35068
#
# Static dielectric constant tensor:
#      x y z
#    x 3.564500 0.000000 0.000000 
#    y 0.000000 3.442650 0.000000 
#    z 0.000000 0.000000 3.582580 
# 
# 
# High freq. dielectric constant tensor:
#      x y z
#    x 1.761630 0.000000 0.000000 
#    y 0.000000 1.736260 0.000000 
#    z 0.000000 0.000000 1.755850 
# 
# From -- ./inp_files/20893.got.cif
#   From: 2010.03.12/outbox.cif.g09.slc.cpg/sg59_11_cif.got.tgz:20893.got - 2010.04.16 16:29:54.
