data_PCOD8244101
_publ_section_title
;
Structure prediction by ZEFSAII (Michael W. Deem and Ramdas Pophale) SiO2 
 PCOD8244101
Probable space group: P M M N
;
_chemical_formula_sum "Si O2"
_cell_formula_units_Z 64
_cell_length_a 8.764631
_cell_length_b 18.475589
_cell_length_c 21.164089
_cell_angle_alpha 90.000000
_cell_angle_beta 90.000000
_cell_angle_gamma 90.000000
_cell_volume 3427.137336
_symmetry_space_group_name_H-M "P M M N"
_symmetry_group_IT_number 59
_space_group.IT_coordinate_system_code '2'
_symmetry_cell_setting 'orthorhombic'
loop_
_space_group_symop_operation_xyz
x,y,z
1/2-x,1/2-y,z
1/2+x,-y,-z
-x,1/2+y,-z
-x,-y,-z
1/2+x,1/2+y,-z
1/2-x,y,z
x,1/2-y,z
loop_
_atom_site_type_symbol
_atom_site_label
_atom_site_fract_x
_atom_site_fract_y
_atom_site_fract_z
Si Si1 0.929197 0.960854 0.559656
Si Si2 0.429361 0.666173 0.879282
Si Si3 0.929460 0.611144 0.751003
Si Si4 0.931296 0.578296 0.993579
Si Si5 0.926154 0.167410 0.374025
Si Si6 0.930109 0.830597 0.248997
Si Si7 0.931176 0.830224 0.109375
Si Si8 0.574774 0.463145 0.689551
O O1 0.750000 0.948993 0.550326
O O2 0.007223 0.882763 0.570113
O O3 0.965995 0.010761 0.619622
O O4 0.000000 0.000000 0.500000
O O5 0.250000 0.655192 0.887443
O O6 0.476204 0.750000 0.887115
O O7 0.476867 0.638492 0.810627
O O8 0.515768 0.618746 0.930824
O O9 0.750000 0.623129 0.761867
O O10 0.967651 0.526474 0.739248
O O11 0.979489 0.657036 0.690262
O O12 0.750000 0.574407 0.992881
O O13 0.997763 0.618694 0.055189
O O14 0.000000 0.500000 0.000000
O O15 0.750000 0.147465 0.361412
O O16 0.943839 0.250000 0.396694
O O17 0.750000 0.827659 0.249233
O O18 0.992688 0.750000 0.266148
O O19 0.988643 0.853872 0.179013
O O20 0.982805 0.889842 0.298947
O O21 0.750000 0.831781 0.107514
O O22 0.991500 0.750000 0.094632
O O23 0.750000 0.442842 0.695841
#
# Coordination Sequence:
#
# PCOD8244101 Si02
#       8
#     8   8   8   8   8   8   8   8
#     4  10  21  38  59  83 114 151 192 234 277 329
#     4  11  24  40  57  80 111 146 187 234 283 338
#     4  10  21  36  56  84 115 148 186 230 281 339
#     4  11  23  38  56  79 108 144 185 231 282 337
#     4  10  20  35  57  86 118 151 189 232 279 333
#     4   9  18  33  55  82 107 136 180 228 271 323
#     4   8  16  33  55  76  99 133 178 224 272 326
#     4   9  20  36  54  81 113 143 177 221 273 327
#
# _framework density 18.674478000000001
#
# number of rings (size 3 to 8) (size 9 to 14) (size 15 to 20)
#    0.000    2.250    0.000    4.125    1.750    7.250 
#    0.000    1.250    0.000    2.250    0.000    0.000 
#    0.000    0.000    0.000    0.000    0.000    0.000 
#
# Total GULP energy -793558.743443 kJ/mol
# GULP energy per Si atom -12399.355366 kJ/mol
# Density = 1.863197 g / cm^3
# Si number density = 18.674478 Si / 1000 Ang^3
#
#
#
# Elastic Constant Matrix: (Units=GPa)
#
#
# Indices 1 2 3 4 5 6 
#
# 1 55.9953 45.1015 29.1470 0.0000 0.0000 0.0000
# 2 45.1015 139.2305 64.7867 0.0000 0.0000 0.0000
# 3 29.1470 64.7867 86.7923 0.0000 0.0000 0.0000
# 4 0.0000 0.0000 0.0000 31.6734 0.0000 0.0000
# 5 0.0000 0.0000 0.0000 0.0000 30.9260 0.0000
# 6 0.0000 0.0000 0.0000 0.0000 0.0000 33.6778
#
#
#
# Elastic Compliance Matrix: (Units=1/GPa)
#
#
# Indices 1 2 3 4 5 6 
#
# 1 0.024870 -0.006389 -0.003583 0.000000 0.000000 0.000000
# 2 -0.006389 0.012646 -0.007294 0.000000 0.000000 0.000000
# 3 -0.003583 -0.007294 0.018170 0.000000 0.000000 0.000000
# 4 0.000000 0.000000 0.000000 0.031572 0.000000 0.000000
# 5 0.000000 0.000000 0.000000 0.000000 0.032335 0.000000
# 6 0.000000 0.000000 0.000000 0.000000 0.000000 0.029693
#
#
# Mechanical properties :
#
#
# Convention : Reuss Voigt Hill
#
# Bulk Modulus (GPa) = 47.27327 62.23206 54.75267
# Shear Modulus (GPa) = 26.19598 28.78762 27.49180
#
# Velocity S-wave (km/s) = 3.74942 3.93052 3.84103
# Velocity P-wave (km/s) = 6.64180 7.34817 7.00390
#
# Compressibility (1/GPa) = 0.02115360
#
# Stress axis : x y z
#
# Youngs Moduli (GPa) = 40.20974 79.07593 55.03667
#
# Poissons Ratio (x) = 0.50522 0.19718
# Poissons Ratio (y) = 0.25690 0.40145
# Poissons Ratio (z) = 0.14406 0.57679
#
# Static dielectric constant tensor:
#      x y z
#    x 3.371270 0.000000 0.000000 
#    y 0.000000 3.681540 0.000000 
#    z 0.000000 0.000000 3.525880 
# 
# 
# High freq. dielectric constant tensor:
#      x y z
#    x 1.721790 0.000000 0.000000 
#    y 0.000000 1.734310 0.000000 
#    z 0.000000 0.000000 1.719340 
# 
# From -- ./inp_files/29464.got.cif
#   From: 2010.03.12/outbox.cif.g09.slc.cpg/sg59_15_cif.got.tgz:29464.got - 2010.04.16 16:29:54.
