data_PCOD8244654
_publ_section_title
;
Structure prediction by ZEFSAII (Michael W. Deem and Ramdas Pophale) SiO2 
 PCOD8244654
Probable space group: P M M N
;
_chemical_formula_sum "Si O2"
_cell_formula_units_Z 56
_cell_length_a 16.041039
_cell_length_b 8.751968
_cell_length_c 19.581252
_cell_angle_alpha 90.000000
_cell_angle_beta 90.000000
_cell_angle_gamma 90.000000
_cell_volume 2749.024892
_symmetry_space_group_name_H-M "P M M N"
_symmetry_group_IT_number 59
_space_group.IT_coordinate_system_code '2'
_symmetry_cell_setting 'orthorhombic'
loop_
_space_group_symop_operation_xyz
x,y,z
1/2-x,1/2-y,z
1/2+x,-y,-z
-x,1/2+y,-z
-x,-y,-z
1/2+x,1/2+y,-z
1/2-x,y,z
x,1/2-y,z
loop_
_atom_site_type_symbol
_atom_site_label
_atom_site_fract_x
_atom_site_fract_y
_atom_site_fract_z
Si Si1 0.412033 0.430133 0.977931
Si Si2 0.651726 0.924038 0.417410
Si Si3 0.250000 0.932352 0.051256
Si Si4 0.250000 0.931770 0.207161
Si Si5 0.571256 0.426314 0.288862
Si Si6 0.651537 0.076277 0.555446
Si Si7 0.154254 0.574057 0.850009
Si Si8 0.600091 0.430514 0.701815
O O1 0.412784 0.250000 0.990976
O O2 0.334278 0.504759 0.017439
O O3 0.500000 0.500000 0.000000
O O4 0.401703 0.465884 0.897593
O O5 0.750000 0.946753 0.412108
O O6 0.624484 0.750000 0.405480
O O7 0.609630 0.027662 0.360779
O O8 0.619886 0.975861 0.491826
O O9 0.250000 0.750000 0.044117
O O10 0.250000 0.989338 0.129459
O O11 0.250000 0.750000 0.208317
O O12 0.330902 0.997421 0.246440
O O13 0.547135 0.250000 0.291842
O O14 0.636964 0.462435 0.229159
O O15 0.489134 0.520702 0.270435
O O16 0.750000 0.067419 0.564016
O O17 0.622538 0.250000 0.542841
O O18 0.612012 0.006952 0.624596
O O19 0.250000 0.537340 0.865267
O O20 0.133236 0.750000 0.866806
O O21 0.609083 0.250000 0.699505
#
# Coordination Sequence:
#
# PCOD8244654 Si02
#       8
#     8   8   4   4   8   8   8   8
#     4  12  26  44  68  99 133 173 217 264 318 381
#     4  10  21  37  58  85 116 153 199 250 302 362
#     4  11  23  43  69 101 136 171 212 263 319 384
#     4   9  20  39  65  91 120 159 200 243 299 362
#     4  11  24  39  58  89 123 158 199 249 307 362
#     4   9  17  33  59  84 112 153 200 249 301 359
#     4  10  22  43  68  91 123 164 206 257 313 372
#     4  10  20  38  61  88 119 157 203 249 300 362
#
# _framework density 20.370857999999998
#
# number of rings (size 3 to 8) (size 9 to 14) (size 15 to 20)
#    0.000    1.714    1.429    2.786    2.000    3.714 
#    0.000    1.071    0.000    0.000    0.000    0.000 
#    0.000    0.000    0.000    0.000    0.000    0.000 
#
# Total GULP energy -694534.484470 kJ/mol
# GULP energy per Si atom -12402.401508 kJ/mol
# Density = 2.032449 g / cm^3
# Si number density = 20.370858 Si / 1000 Ang^3
#
#
#
# Elastic Constant Matrix: (Units=GPa)
#
#
# Indices 1 2 3 4 5 6 
#
# 1 97.4635 37.3600 53.2141 0.0000 0.0000 0.0000
# 2 37.3600 55.1431 42.4049 0.0000 0.0000 0.0000
# 3 53.2141 42.4049 124.9879 0.0000 0.0000 0.0000
# 4 0.0000 0.0000 0.0000 27.3989 0.0000 0.0000
# 5 0.0000 0.0000 0.0000 0.0000 30.3282 0.0000
# 6 0.0000 0.0000 0.0000 0.0000 0.0000 30.7114
#
#
#
# Elastic Compliance Matrix: (Units=1/GPa)
#
#
# Indices 1 2 3 4 5 6 
#
# 1 0.015229 -0.007214 -0.004036 0.000000 0.000000 0.000000
# 2 -0.007214 0.027953 -0.006412 0.000000 0.000000 0.000000
# 3 -0.004036 -0.006412 0.011895 0.000000 0.000000 0.000000
# 4 0.000000 0.000000 0.000000 0.036498 0.000000 0.000000
# 5 0.000000 0.000000 0.000000 0.000000 0.032973 0.000000
# 6 0.000000 0.000000 0.000000 0.000000 0.000000 0.032561
#
#
# Mechanical properties :
#
#
# Convention : Reuss Voigt Hill
#
# Bulk Modulus (GPa) = 50.62825 60.39475 55.51150
# Shear Modulus (GPa) = 25.12324 27.32874 26.22599
#
# Velocity S-wave (km/s) = 3.51564 3.66671 3.59197
# Velocity P-wave (km/s) = 6.43326 6.90205 6.67177
#
# Compressibility (1/GPa) = 0.01975182
#
# Stress axis : x y z
#
# Youngs Moduli (GPa) = 65.66232 35.77392 84.06999
#
# Poissons Ratio (x) = 0.25808 0.33935
# Poissons Ratio (y) = 0.47369 0.53909
# Poissons Ratio (z) = 0.26504 0.22940
#
# Static dielectric constant tensor:
#      x y z
#    x 3.692400 0.000000 0.000000 
#    y 0.000000 3.580320 0.000000 
#    z 0.000000 0.000000 3.927790 
# 
# 
# High freq. dielectric constant tensor:
#      x y z
#    x 1.798580 0.000000 0.000000 
#    y 0.000000 1.782460 0.000000 
#    z 0.000000 0.000000 1.811280 
# 
# From -- ./inp_files/30504.got.cif
#   From: 2010.03.12/outbox.cif.g09.slc.cpg/sg59_16_cif.got.tgz:30504.got - 2010.04.16 16:29:54.
