data_PCOD8244720
_publ_section_title
;
Structure prediction by ZEFSAII (Michael W. Deem and Ramdas Pophale) SiO2 
 PCOD8244720
Probable space group: P M M N
;
_chemical_formula_sum "Si O2"
_cell_formula_units_Z 64
_cell_length_a 9.582191
_cell_length_b 14.230472
_cell_length_c 24.023240
_cell_angle_alpha 90.000000
_cell_angle_beta 90.000000
_cell_angle_gamma 90.000000
_cell_volume 3275.787403
_symmetry_space_group_name_H-M "P M M N"
_symmetry_group_IT_number 59
_space_group.IT_coordinate_system_code '2'
_symmetry_cell_setting 'orthorhombic'
loop_
_space_group_symop_operation_xyz
x,y,z
1/2-x,1/2-y,z
1/2+x,-y,-z
-x,1/2+y,-z
-x,-y,-z
1/2+x,1/2+y,-z
1/2-x,y,z
x,1/2-y,z
loop_
_atom_site_type_symbol
_atom_site_label
_atom_site_fract_x
_atom_site_fract_y
_atom_site_fract_z
Si Si1 0.089079 0.542120 0.636455
Si Si2 0.092322 0.852641 0.231065
Si Si3 0.587119 0.638604 0.856382
Si Si4 0.909231 0.140648 0.475659
Si Si5 0.588924 0.023944 0.054019
Si Si6 0.410636 0.144430 0.580957
Si Si7 0.408669 0.445794 0.262964
Si Si8 0.097624 0.353241 0.868903
O O1 0.250000 0.565798 0.647703
O O2 0.036915 0.587394 0.579005
O O3 0.064748 0.429036 0.631335
O O4 0.005059 0.591273 0.687044
O O5 0.250000 0.841741 0.211661
O O6 0.039805 0.750000 0.254734
O O7 0.011235 0.884886 0.176740
O O8 0.077114 0.940992 0.271723
O O9 0.750000 0.615472 0.868768
O O10 0.562505 0.750000 0.852742
O O11 0.490111 0.598066 0.905781
O O12 0.541294 0.592203 0.797276
O O13 0.750000 0.112980 0.489192
O O14 0.925533 0.250000 0.463528
O O15 0.001639 0.109983 0.527976
O O16 0.750000 0.058203 0.042187
O O17 0.593469 0.922062 0.080168
O O18 0.500000 0.000000 0.000000
O O19 0.250000 0.142790 0.562296
O O20 0.455177 0.250000 0.600285
O O21 0.250000 0.412480 0.272543
O O22 0.250000 0.354215 0.840263
O O23 0.061342 0.250000 0.892389
#
# Coordination Sequence:
#
# PCOD8244720 Si02
#       8
#     8   8   8   8   8   8   8   8
#     4  10  21  34  50  75 107 141 178 223 273 325
#     4   9  17  31  53  78 103 133 171 218 270 323
#     4  10  22  42  64  84 113 154 196 240 289 335
#     4   9  18  33  52  74 101 134 175 224 276 326
#     4  11  23  38  60  89 120 151 188 232 280 336
#     4   9  18  33  52  75 104 138 176 219 270 329
#     4  10  21  36  54  79 110 144 185 230 278 332
#     4   9  18  33  54  80 108 138 173 215 265 322
#
# _framework density 19.537286999999999
#
# number of rings (size 3 to 8) (size 9 to 14) (size 15 to 20)
#    0.000    2.375    1.250    0.750    0.000    4.250 
#    0.000    1.250    0.000    0.000    0.000    0.000 
#    0.000    0.000    0.000    0.000    0.000    0.000 
#
# Total GULP energy -793022.605831 kJ/mol
# GULP energy per Si atom -12390.978216 kJ/mol
# Density = 1.949282 g / cm^3
# Si number density = 19.537287 Si / 1000 Ang^3
#
#
#
# Elastic Constant Matrix: (Units=GPa)
#
#
# Indices 1 2 3 4 5 6 
#
# 1 79.2303 28.4110 57.1777 0.0000 0.0000 0.0000
# 2 28.4110 61.5826 23.8654 0.0000 0.0000 0.0000
# 3 57.1777 23.8654 91.9558 0.0000 0.0000 0.0000
# 4 0.0000 0.0000 0.0000 14.4594 0.0000 0.0000
# 5 0.0000 0.0000 0.0000 0.0000 34.1172 0.0000
# 6 0.0000 0.0000 0.0000 0.0000 0.0000 24.2198
#
#
#
# Elastic Compliance Matrix: (Units=1/GPa)
#
#
# Indices 1 2 3 4 5 6 
#
# 1 0.024782 -0.006072 -0.013833 0.000000 0.000000 0.000000
# 2 -0.006072 0.019542 -0.001296 0.000000 0.000000 0.000000
# 3 -0.013833 -0.001296 0.019813 0.000000 0.000000 0.000000
# 4 0.000000 0.000000 0.000000 0.069159 0.000000 0.000000
# 5 0.000000 0.000000 0.000000 0.000000 0.029311 0.000000
# 6 0.000000 0.000000 0.000000 0.000000 0.000000 0.041289
#
#
# Mechanical properties :
#
#
# Convention : Reuss Voigt Hill
#
# Bulk Modulus (GPa) = 46.01230 50.18633 48.09932
# Shear Modulus (GPa) = 19.72054 22.78024 21.25039
#
# Velocity S-wave (km/s) = 3.18052 3.41836 3.30158
# Velocity P-wave (km/s) = 6.09014 6.42833 6.26152
#
# Compressibility (1/GPa) = 0.02173332
#
# Stress axis : x y z
#
# Youngs Moduli (GPa) = 40.35208 51.17177 50.47270
#
# Poissons Ratio (x) = 0.31072 0.69821
# Poissons Ratio (y) = 0.24502 0.06542
# Poissons Ratio (z) = 0.55820 0.06633
#
# Static dielectric constant tensor:
#      x y z
#    x 3.725780 0.000000 0.000000 
#    y 0.000000 3.828770 0.000000 
#    z 0.000000 0.000000 3.282790 
# 
# 
# High freq. dielectric constant tensor:
#      x y z
#    x 1.761500 0.000000 0.000000 
#    y 0.000000 1.770590 0.000000 
#    z 0.000000 0.000000 1.739590 
# 
# From -- ./inp_files/31405.got.cif
#   From: 2010.03.12/outbox.cif.g09.slc.cpg/sg59_16_cif.got.tgz:31405.got - 2010.04.16 16:29:54.
