data_PCOD8244598
_publ_section_title
;
Structure prediction by ZEFSAII (Michael W. Deem and Ramdas Pophale) SiO2 
 PCOD8244598
Probable space group: P M M N
;
_chemical_formula_sum "Si O2"
_cell_formula_units_Z 32
_cell_length_a 18.883669
_cell_length_b 11.098040
_cell_length_c 7.531767
_cell_angle_alpha 90.000000
_cell_angle_beta 90.000000
_cell_angle_gamma 90.000000
_cell_volume 1578.445319
_symmetry_space_group_name_H-M "P M M N"
_symmetry_group_IT_number 59
_space_group.IT_coordinate_system_code '2'
_symmetry_cell_setting 'orthorhombic'
loop_
_space_group_symop_operation_xyz
x,y,z
1/2-x,1/2-y,z
1/2+x,-y,-z
-x,1/2+y,-z
-x,-y,-z
1/2+x,1/2+y,-z
1/2-x,y,z
x,1/2-y,z
loop_
_atom_site_type_symbol
_atom_site_label
_atom_site_fract_x
_atom_site_fract_y
_atom_site_fract_z
Si Si1 0.042439 0.616307 0.311222
Si Si2 0.610291 0.386477 0.031800
Si Si3 0.392537 0.463630 0.611722
Si Si4 0.750000 0.614508 0.539939
Si Si5 0.750000 0.386354 0.805877
O O1 0.074066 0.750000 0.310266
O O2 0.094934 0.546554 0.441280
O O3 0.961219 0.621583 0.373973
O O4 0.050698 0.566359 0.109301
O O5 0.594556 0.250000 0.091240
O O6 0.611091 0.462744 0.208511
O O7 0.684164 0.400801 0.934051
O O8 0.320030 0.390547 0.583903
O O9 0.750000 0.750000 0.629802
O O10 0.750000 0.498814 0.668914
O O11 0.750000 0.250000 0.717726
#
# Coordination Sequence:
#
# PCOD8244598 Si02
#       5
#     8   8   8   4   4
#     4  10  21  38  60  90 123 158 209 264 304 361
#     4  10  20  37  62  92 120 156 211 264 308 362
#     4  11  22  38  63  86 125 166 205 246 319 374
#     4  12  25  42  62  91 131 166 206 252 315 383
#     4  10  21  40  64  91 125 162 212 266 305 359
#
# _framework density 20.273114
#
# number of rings (size 3 to 8) (size 9 to 14) (size 15 to 20)
#    0.000    1.500    2.500    3.000    0.000    1.000 
#    0.000    3.750    0.000    0.000    0.000    0.000 
#    0.000    0.000    0.000    0.000    0.000    0.000 
#
# Total GULP energy -396497.126233 kJ/mol
# GULP energy per Si atom -12390.535195 kJ/mol
# Density = 2.022697 g / cm^3
# Si number density = 20.273114 Si / 1000 Ang^3
#
#
#
# Elastic Constant Matrix: (Units=GPa)
#
#
# Indices 1 2 3 4 5 6 
#
# 1 109.1890 16.5220 15.1240 0.0000 0.0000 0.0000
# 2 16.5220 108.2157 62.4706 0.0000 0.0000 0.0000
# 3 15.1240 62.4706 106.2458 0.0000 0.0000 0.0000
# 4 0.0000 0.0000 0.0000 32.3453 0.0000 0.0000
# 5 0.0000 0.0000 0.0000 0.0000 24.7067 0.0000
# 6 0.0000 0.0000 0.0000 0.0000 0.0000 26.3722
#
#
#
# Elastic Compliance Matrix: (Units=1/GPa)
#
#
# Indices 1 2 3 4 5 6 
#
# 1 0.009414 -0.001005 -0.000749 0.000000 0.000000 0.000000
# 2 -0.001005 0.014096 -0.008145 0.000000 0.000000 0.000000
# 3 -0.000749 -0.008145 0.014308 0.000000 0.000000 0.000000
# 4 0.000000 0.000000 0.000000 0.030916 0.000000 0.000000
# 5 0.000000 0.000000 0.000000 0.000000 0.040475 0.000000
# 6 0.000000 0.000000 0.000000 0.000000 0.000000 0.037919
#
#
# Mechanical properties :
#
#
# Convention : Reuss Voigt Hill
#
# Bulk Modulus (GPa) = 55.49444 56.87595 56.18520
# Shear Modulus (GPa) = 28.91273 31.98711 30.44992
#
# Velocity S-wave (km/s) = 3.78055 3.97647 3.87975
# Velocity P-wave (km/s) = 6.81833 7.01419 6.91695
#
# Compressibility (1/GPa) = 0.01801982
#
# Stress axis : x y z
#
# Youngs Moduli (GPa) = 106.22183 70.94029 69.89033
#
# Poissons Ratio (x) = 0.07128 0.05237
# Poissons Ratio (y) = 0.10673 0.56928
# Poissons Ratio (z) = 0.07959 0.57784
#
# Static dielectric constant tensor:
#      x y z
#    x 3.982980 0.000000 0.000000 
#    y 0.000000 3.628280 0.000000 
#    z 0.000000 0.000000 3.647100 
# 
# 
# High freq. dielectric constant tensor:
#      x y z
#    x 1.813510 0.000000 0.000000 
#    y 0.000000 1.781970 0.000000 
#    z 0.000000 0.000000 1.790250 
# 
# From -- ./inp_files/9961.got.cif
#   From: 2010.03.12/outbox.cif.g09.slc.cpg/sg59_5_cif.got.tgz:9961.got - 2010.04.16 16:29:54.
