data_PCOD8244240
_publ_section_title
;
Structure prediction by ZEFSAII (Michael W. Deem and Ramdas Pophale) SiO2 
 PCOD8244240
Probable space group: P M M N
;
_chemical_formula_sum "Si O2"
_cell_formula_units_Z 48
_cell_length_a 17.070799
_cell_length_b 8.768056
_cell_length_c 16.450170
_cell_angle_alpha 90.000000
_cell_angle_beta 90.000000
_cell_angle_gamma 90.000000
_cell_volume 2462.223965
_symmetry_space_group_name_H-M "P M M N"
_symmetry_group_IT_number 59
_space_group.IT_coordinate_system_code '2'
_symmetry_cell_setting 'orthorhombic'
loop_
_space_group_symop_operation_xyz
x,y,z
1/2-x,1/2-y,z
1/2+x,-y,-z
-x,1/2+y,-z
-x,-y,-z
1/2+x,1/2+y,-z
1/2-x,y,z
x,1/2-y,z
loop_
_atom_site_type_symbol
_atom_site_label
_atom_site_fract_x
_atom_site_fract_y
_atom_site_fract_z
Si Si1 0.446966 0.568914 0.224728
Si Si2 0.250000 0.928149 0.976005
Si Si3 0.395956 0.427575 0.694268
Si Si4 0.250000 0.425476 0.804772
Si Si5 0.918292 0.429706 0.476417
Si Si6 0.921333 0.067913 0.957516
Si Si7 0.164360 0.931403 0.363155
O O1 0.443272 0.750000 0.224196
O O2 0.531797 0.511165 0.252710
O O3 0.425788 0.509430 0.135315
O O4 0.388448 0.498686 0.291580
O O5 0.250000 0.750000 0.992598
O O6 0.250000 0.964790 0.881399
O O7 0.334570 0.990839 0.011266
O O8 0.405052 0.250000 0.673666
O O9 0.322995 0.465257 0.749612
O O10 0.386445 0.514000 0.609593
O O11 0.250000 0.250000 0.834268
O O12 0.926777 0.250000 0.473870
O O13 0.859886 0.485069 0.547041
O O14 0.000000 0.500000 0.500000
O O15 0.926668 0.250000 0.966011
O O16 0.000000 0.000000 0.000000
O O17 0.250000 0.995824 0.346271
O O18 0.160829 0.750000 0.358945
#
# Coordination Sequence:
#
# PCOD8244240 Si02
#       7
#     8   4   8   4   8   8   8
#     4   9  17  32  55  78 105 140 181 224 270 330
#     4  10  22  38  58  89 122 146 187 248 301 345
#     4  10  20  36  55  81 111 144 188 230 273 331
#     4  10  22  38  60  83 112 154 193 230 281 347
#     4  11  21  35  55  79 109 145 185 229 276 329
#     4  10  21  37  59  86 115 150 188 237 294 348
#     4   9  18  31  51  79 106 136 179 224 263 318
#
# _framework density 19.494572999999999
#
# number of rings (size 3 to 8) (size 9 to 14) (size 15 to 20)
#    0.000    2.167    1.667    1.500    2.333    2.667 
#    0.000    0.833    0.000    0.000    0.000    0.000 
#    0.000    0.000    0.000    0.000    0.000    0.000 
#
# Total GULP energy -594841.558339 kJ/mol
# GULP energy per Si atom -12392.532465 kJ/mol
# Density = 1.945020 g / cm^3
# Si number density = 19.494573 Si / 1000 Ang^3
#
#
#
# Elastic Constant Matrix: (Units=GPa)
#
#
# Indices 1 2 3 4 5 6 
#
# 1 192.0480 23.4986 86.8859 0.0000 0.0000 0.0000
# 2 23.4986 27.6105 27.7914 0.0000 0.0000 0.0000
# 3 86.8859 27.7914 173.4668 0.0000 0.0000 0.0000
# 4 0.0000 0.0000 0.0000 28.8995 0.0000 0.0000
# 5 0.0000 0.0000 0.0000 0.0000 -26.7705 0.0000
# 6 0.0000 0.0000 0.0000 0.0000 0.0000 13.1780
#
#
#
# Elastic Compliance Matrix: (Units=1/GPa)
#
#
# Indices 1 2 3 4 5 6 
#
# 1 0.006917 -0.002861 -0.003006 0.000000 0.000000 0.000000
# 2 -0.002861 0.044365 -0.005675 0.000000 0.000000 0.000000
# 3 -0.003006 -0.005675 0.008180 0.000000 0.000000 0.000000
# 4 0.000000 0.000000 0.000000 0.034603 0.000000 0.000000
# 5 0.000000 0.000000 0.000000 0.000000 -0.037355 0.000000
# 6 0.000000 0.000000 0.000000 0.000000 0.000000 0.075884
#
#
# Mechanical properties :
#
#
# Convention : Reuss Voigt Hill
#
# Bulk Modulus (GPa) = 27.48937 74.38635 50.93786
# Shear Modulus (GPa) = 29.79656 20.05800 24.92728
#
# Velocity S-wave (km/s) = 3.91379 3.21113 3.57974
# Velocity P-wave (km/s) = 5.87837 7.21032 6.57815
#
# Compressibility (1/GPa) = 0.03637769
#
# Stress axis : x y z
#
# Youngs Moduli (GPa) = 144.56691 22.54032 122.25303
#
# Poissons Ratio (x) = 0.06449 0.36753
# Poissons Ratio (y) = 0.41361 0.69376
# Poissons Ratio (z) = 0.43461 0.12791
#
# Static dielectric constant tensor:
#      x y z
#    x -38.661210 0.000000 0.000000 
#    y 0.000000 3.349050 0.000000 
#    z 0.000000 0.000000 -1.701620 
# 
# 
# High freq. dielectric constant tensor:
#      x y z
#    x 1.778920 0.000000 0.000000 
#    y 0.000000 1.713850 0.000000 
#    z 0.000000 0.000000 1.776170 
# 
# From -- ./inp_files/20577.got.cif
#   From: 2010.03.12/outbox.cif.g09.slc.cpg/sg59_11_cif.got.tgz:20577.got - 2010.04.16 16:29:54.
