data_PCOD8244883
_publ_section_title
;
Structure prediction by ZEFSAII (Michael W. Deem and Ramdas Pophale) SiO2 
 PCOD8244883
Probable space group: P M M N
;
_chemical_formula_sum "Si O2"
_cell_formula_units_Z 56
_cell_length_a 19.759619
_cell_length_b 8.986821
_cell_length_c 16.138210
_cell_angle_alpha 90.000000
_cell_angle_beta 90.000000
_cell_angle_gamma 90.000000
_cell_volume 2865.761345
_symmetry_space_group_name_H-M "P M M N"
_symmetry_group_IT_number 59
_space_group.IT_coordinate_system_code '2'
_symmetry_cell_setting 'orthorhombic'
loop_
_space_group_symop_operation_xyz
x,y,z
1/2-x,1/2-y,z
1/2+x,-y,-z
-x,1/2+y,-z
-x,-y,-z
1/2+x,1/2+y,-z
1/2-x,y,z
x,1/2-y,z
loop_
_atom_site_type_symbol
_atom_site_label
_atom_site_fract_x
_atom_site_fract_y
_atom_site_fract_z
Si Si1 0.826044 0.925282 0.342906
Si Si2 0.327340 0.921558 0.181506
Si Si3 0.176583 0.573981 0.999789
Si Si4 0.039698 0.574186 0.924744
Si Si5 0.544661 0.923542 0.245414
Si Si6 0.089007 0.575685 0.330868
Si Si7 0.827367 0.423956 0.515419
O O1 0.750000 0.972914 0.314538
O O2 0.831211 0.750000 0.354397
O O3 0.881241 0.979043 0.275136
O O4 0.845218 0.996352 0.430095
O O5 0.250000 0.940738 0.208686
O O6 0.348471 0.750000 0.175956
O O7 0.373356 0.998861 0.251708
O O8 0.340149 0.994568 0.090901
O O9 0.250000 0.513813 0.968729
O O10 0.181075 0.750000 0.010755
O O11 0.118808 0.530029 0.935081
O O12 0.027394 0.750000 0.927644
O O13 0.018797 0.510609 0.835706
O O14 0.000000 0.500000 0.000000
O O15 0.545467 0.750000 0.222513
O O16 0.491172 0.955068 0.320040
O O17 0.105598 0.750000 0.332578
O O18 0.120571 0.510121 0.415745
O O19 0.750000 0.457541 0.542867
O O20 0.838378 0.250000 0.500842
#
# Coordination Sequence:
#
# PCOD8244883 Si02
#       7
#     8   8   8   8   8   8   8
#     4   9  19  36  54  72 100 138 174 208 254 311
#     4   8  12  20  38  64  93 122 151 189 240 293
#     4   8  15  28  47  72  98 126 166 214 257 297
#     4  11  22  36  55  78 106 138 172 213 261 313
#     4  10  21  36  53  73  98 133 174 212 254 304
#     4   9  16  27  45  71 101 129 161 202 247 296
#     4   9  17  30  51  78 103 128 163 208 254 299
#
# _framework density 19.541055
#
# number of rings (size 3 to 8) (size 9 to 14) (size 15 to 20)
#    0.000    2.857    0.000    2.571    0.000    5.714 
#    0.000    0.714    0.000    1.286    0.000    0.000 
#    0.000    0.000    0.000    0.000    0.000    0.000 
#
# Total GULP energy -693988.522233 kJ/mol
# GULP energy per Si atom -12392.652183 kJ/mol
# Density = 1.949658 g / cm^3
# Si number density = 19.541055 Si / 1000 Ang^3
#
#
#
# Elastic Constant Matrix: (Units=GPa)
#
#
# Indices 1 2 3 4 5 6 
#
# 1 94.7663 27.9717 52.7860 0.0000 0.0000 0.0000
# 2 27.9717 32.4622 28.9481 0.0000 0.0000 0.0000
# 3 52.7860 28.9481 100.8910 0.0000 0.0000 0.0000
# 4 0.0000 0.0000 0.0000 25.8765 0.0000 0.0000
# 5 0.0000 0.0000 0.0000 0.0000 37.8073 0.0000
# 6 0.0000 0.0000 0.0000 0.0000 0.0000 15.0027
#
#
#
# Elastic Compliance Matrix: (Units=1/GPa)
#
#
# Indices 1 2 3 4 5 6 
#
# 1 0.016573 -0.008800 -0.006146 0.000000 0.000000 0.000000
# 2 -0.008800 0.046069 -0.008614 0.000000 0.000000 0.000000
# 3 -0.006146 -0.008614 0.015599 0.000000 0.000000 0.000000
# 4 0.000000 0.000000 0.000000 0.038645 0.000000 0.000000
# 5 0.000000 0.000000 0.000000 0.000000 0.026450 0.000000
# 6 0.000000 0.000000 0.000000 0.000000 0.000000 0.066655
#
#
# Mechanical properties :
#
#
# Convention : Reuss Voigt Hill
#
# Bulk Modulus (GPa) = 32.13275 49.72569 40.92922
# Shear Modulus (GPa) = 18.69259 23.63155 21.16207
#
# Velocity S-wave (km/s) = 3.09622 3.48131 3.29440
# Velocity P-wave (km/s) = 5.40939 6.45456 5.95495
#
# Compressibility (1/GPa) = 0.03112089
#
# Stress axis : x y z
#
# Youngs Moduli (GPa) = 60.33864 21.70640 64.10645
#
# Poissons Ratio (x) = 0.19101 0.39401
# Poissons Ratio (y) = 0.53096 0.55224
# Poissons Ratio (z) = 0.37085 0.18699
#
# Static dielectric constant tensor:
#      x y z
#    x 3.998220 0.000000 0.000000 
#    y 0.000000 3.048570 0.000000 
#    z 0.000000 0.000000 3.620090 
# 
# 
# High freq. dielectric constant tensor:
#      x y z
#    x 1.774490 0.000000 0.000000 
#    y 0.000000 1.703380 0.000000 
#    z 0.000000 0.000000 1.758370 
# 
# From -- ./inp_files/24286.got.cif
#   From: 2010.03.12/outbox.cif.g09.slc.cpg/sg59_13_cif.got.tgz:24286.got - 2010.04.16 16:29:54.
