data_PCOD8244282
_publ_section_title
;
Structure prediction by ZEFSAII (Michael W. Deem and Ramdas Pophale) SiO2 
 PCOD8244282
Probable space group: P M M N
;
_chemical_formula_sum "Si O2"
_cell_formula_units_Z 40
_cell_length_a 8.622301
_cell_length_b 15.087398
_cell_length_c 15.363826
_cell_angle_alpha 90.000000
_cell_angle_beta 90.000000
_cell_angle_gamma 90.000000
_cell_volume 1998.650731
_symmetry_space_group_name_H-M "P M M N"
_symmetry_group_IT_number 59
_space_group.IT_coordinate_system_code '2'
_symmetry_cell_setting 'orthorhombic'
loop_
_space_group_symop_operation_xyz
x,y,z
1/2-x,1/2-y,z
1/2+x,-y,-z
-x,1/2+y,-z
-x,-y,-z
1/2+x,1/2+y,-z
1/2-x,y,z
x,1/2-y,z
loop_
_atom_site_type_symbol
_atom_site_label
_atom_site_fract_x
_atom_site_fract_y
_atom_site_fract_z
Si Si1 0.069490 0.383459 0.179974
Si Si2 0.567314 0.071880 0.761157
Si Si3 0.429331 0.750000 0.691561
Si Si4 0.932407 0.250000 0.845962
Si Si5 0.931847 0.750000 0.505867
Si Si6 0.072159 0.250000 0.031389
Si Si7 0.066704 0.928571 0.434544
O O1 0.250000 0.369396 0.204394
O O2 0.024548 0.487454 0.178060
O O3 0.034231 0.338462 0.087064
O O4 0.966157 0.337673 0.253561
O O5 0.750000 0.084954 0.757603
O O6 0.493571 0.161628 0.801916
O O7 0.505647 0.053792 0.663571
O O8 0.250000 0.750000 0.663637
O O9 0.538147 0.750000 0.608105
O O10 0.750000 0.250000 0.831644
O O11 0.963509 0.250000 0.948293
O O12 0.750000 0.750000 0.488073
O O13 0.010512 0.832924 0.461307
O O14 0.250000 0.250000 0.001061
O O15 0.250000 0.934184 0.439303
O O16 0.000000 0.000000 0.500000
#
# Coordination Sequence:
#
# PCOD8244282 Si02
#       7
#     8   8   4   4   4   4   8
#     4   9  18  36  59  80 109 147 182 219 279 351
#     4   9  19  36  58  80 106 146 187 226 276 335
#     4  11  21  34  55  85 113 139 183 240 289 330
#     4  10  20  36  57  80 108 145 190 229 266 321
#     4  12  24  38  55  78 114 159 198 233 284 343
#     4   9  19  34  53  81 113 143 179 226 279 336
#     4  11  22  38  60  87 116 147 192 244 292 344
#
# _framework density 20.013500000000001
#
# number of rings (size 3 to 8) (size 9 to 14) (size 15 to 20)
#    0.000    2.000    0.000    4.800    0.000    5.600 
#    0.000    5.000    0.000    0.000    0.000    0.000 
#    0.000    0.000    0.000    0.000    0.000    0.000 
#
# Total GULP energy -496001.616302 kJ/mol
# GULP energy per Si atom -12400.040408 kJ/mol
# Density = 1.996795 g / cm^3
# Si number density = 20.013500 Si / 1000 Ang^3
#
#
#
# Elastic Constant Matrix: (Units=GPa)
#
#
# Indices 1 2 3 4 5 6 
#
# 1 43.3504 24.5972 23.8840 0.0000 0.0000 0.0000
# 2 24.5972 192.4852 78.1449 0.0000 0.0000 0.0000
# 3 23.8840 78.1449 128.9590 0.0000 0.0000 0.0000
# 4 0.0000 0.0000 0.0000 114.1817 0.0000 0.0000
# 5 0.0000 0.0000 0.0000 0.0000 31.0710 0.0000
# 6 0.0000 0.0000 0.0000 0.0000 0.0000 26.8913
#
#
#
# Elastic Compliance Matrix: (Units=1/GPa)
#
#
# Indices 1 2 3 4 5 6 
#
# 1 0.026164 -0.001825 -0.003740 0.000000 0.000000 0.000000
# 2 -0.001825 0.007018 -0.003914 0.000000 0.000000 0.000000
# 3 -0.003740 -0.003914 0.010819 0.000000 0.000000 0.000000
# 4 0.000000 0.000000 0.000000 0.008758 0.000000 0.000000
# 5 0.000000 0.000000 0.000000 0.000000 0.032184 0.000000
# 6 0.000000 0.000000 0.000000 0.000000 0.000000 0.037187
#
#
# Mechanical properties :
#
#
# Convention : Reuss Voigt Hill
#
# Bulk Modulus (GPa) = 39.93308 68.67185 54.30247
# Shear Modulus (GPa) = 33.45926 50.30670 41.88298
#
# Velocity S-wave (km/s) = 4.09324 5.01906 4.57961
# Velocity P-wave (km/s) = 6.50660 8.24471 7.42668
#
# Compressibility (1/GPa) = 0.02504189
#
# Stress axis : x y z
#
# Youngs Moduli (GPa) = 38.22070 142.49883 92.42982
#
# Poissons Ratio (x) = 0.26008 0.34566
# Poissons Ratio (y) = 0.06976 0.36181
# Poissons Ratio (z) = 0.14293 0.55780
#
# Static dielectric constant tensor:
#      x y z
#    x 3.379630 0.000000 0.000000 
#    y 0.000000 3.937190 0.000000 
#    z 0.000000 0.000000 3.693970 
# 
# 
# High freq. dielectric constant tensor:
#      x y z
#    x 1.756490 0.000000 0.000000 
#    y 0.000000 1.797950 0.000000 
#    z 0.000000 0.000000 1.781060 
# 
# From -- ./inp_files/20063.got.cif
#   From: 2010.03.12/outbox.cif.g09.slc.cpg/sg59_11_cif.got.tgz:20063.got - 2010.04.16 16:29:54.
