data_PCOD8244661
_publ_section_title
;
Structure prediction by ZEFSAII (Michael W. Deem and Ramdas Pophale) SiO2 
 PCOD8244661
Probable space group: P M M N
;
_chemical_formula_sum "Si O2"
_cell_formula_units_Z 48
_cell_length_a 10.036592
_cell_length_b 8.925515
_cell_length_c 27.518979
_cell_angle_alpha 90.000000
_cell_angle_beta 90.000000
_cell_angle_gamma 90.000000
_cell_volume 2465.198364
_symmetry_space_group_name_H-M "P M M N"
_symmetry_group_IT_number 59
_space_group.IT_coordinate_system_code '2'
_symmetry_cell_setting 'orthorhombic'
loop_
_space_group_symop_operation_xyz
x,y,z
1/2-x,1/2-y,z
1/2+x,-y,-z
-x,1/2+y,-z
-x,-y,-z
1/2+x,1/2+y,-z
1/2-x,y,z
x,1/2-y,z
loop_
_atom_site_type_symbol
_atom_site_label
_atom_site_fract_x
_atom_site_fract_y
_atom_site_fract_z
Si Si1 0.750000 0.427161 0.184398
Si Si2 0.532518 0.075659 0.354534
Si Si3 0.250000 0.427620 0.710483
Si Si4 0.250000 0.420706 0.311745
Si Si5 0.399608 0.574601 0.036949
Si Si6 0.492410 0.926401 0.144841
Si Si7 0.750000 0.426462 0.790214
Si Si8 0.401087 0.925978 0.537579
O O1 0.750000 0.250000 0.192179
O O2 0.750000 0.507705 0.235904
O O3 0.876772 0.476938 0.153469
O O4 0.570837 0.250000 0.348914
O O5 0.377423 0.045500 0.344988
O O6 0.565457 0.017037 0.408354
O O7 0.617420 0.981529 0.316434
O O8 0.250000 0.250000 0.713443
O O9 0.250000 0.250000 0.293224
O O10 0.250000 0.525495 0.265286
O O11 0.250000 0.514055 0.027646
O O12 0.404935 0.750000 0.028074
O O13 0.440422 0.535226 0.091538
O O14 0.500000 0.500000 0.000000
O O15 0.522724 0.750000 0.151202
O O16 0.382285 0.985147 0.183055
O O17 0.750000 0.250000 0.793817
O O18 0.250000 0.971712 0.524496
O O19 0.422396 0.750000 0.534654
O O20 0.500000 0.000000 0.500000
#
# Coordination Sequence:
#
# PCOD8244661 Si02
#       8
#     4   8   4   4   8   8   4   8
#     4  12  26  40  59  90 125 161 200 249 299 356
#     4  10  21  41  63  86 122 161 197 243 301 357
#     4  12  24  40  63  90 119 159 206 249 297 356
#     4  10  22  36  59  90 117 153 196 239 291 354
#     4  10  22  41  64  90 122 159 199 246 300 358
#     4  10  21  41  64  87 119 160 202 246 300 356
#     4  10  20  38  63  86 115 155 196 243 295 350
#     4  10  22  40  63  89 119 158 200 246 300 357
#
# _framework density 19.471049000000001
#
# number of rings (size 3 to 8) (size 9 to 14) (size 15 to 20)
#    0.000    1.667    1.667    2.500    2.333    6.000 
#    0.000    0.000    0.000    0.000    0.000    0.000 
#    0.000    0.000    0.000    0.000    0.000    0.000 
#
# Total GULP energy -595401.346008 kJ/mol
# GULP energy per Si atom -12404.194709 kJ/mol
# Density = 1.942673 g / cm^3
# Si number density = 19.471049 Si / 1000 Ang^3
#
#
#
# Elastic Constant Matrix: (Units=GPa)
#
#
# Indices 1 2 3 4 5 6 
#
# 1 170.4493 50.6097 62.4271 0.0000 0.0000 0.0000
# 2 50.6097 64.1964 37.9025 0.0000 0.0000 0.0000
# 3 62.4271 37.9025 111.7254 0.0000 0.0000 0.0000
# 4 0.0000 0.0000 0.0000 36.6794 0.0000 0.0000
# 5 0.0000 0.0000 0.0000 0.0000 40.9562 0.0000
# 6 0.0000 0.0000 0.0000 0.0000 0.0000 26.5456
#
#
#
# Elastic Compliance Matrix: (Units=1/GPa)
#
#
# Indices 1 2 3 4 5 6 
#
# 1 0.008425 -0.004830 -0.003069 0.000000 0.000000 0.000000
# 2 -0.004830 0.022248 -0.004849 0.000000 0.000000 0.000000
# 3 -0.003069 -0.004849 0.012310 0.000000 0.000000 0.000000
# 4 0.000000 0.000000 0.000000 0.027263 0.000000 0.000000
# 5 0.000000 0.000000 0.000000 0.000000 0.024416 0.000000
# 6 0.000000 0.000000 0.000000 0.000000 0.000000 0.037671
#
#
# Mechanical properties :
#
#
# Convention : Reuss Voigt Hill
#
# Bulk Modulus (GPa) = 57.18319 72.02776 64.60547
# Shear Modulus (GPa) = 30.55156 33.86503 32.20829
#
# Velocity S-wave (km/s) = 3.96545 4.17496 4.07155
# Velocity P-wave (km/s) = 7.09919 7.76614 7.44014
#
# Compressibility (1/GPa) = 0.01748766
#
# Stress axis : x y z
#
# Youngs Moduli (GPa) = 118.69515 44.94861 81.23338
#
# Poissons Ratio (x) = 0.21710 0.24930
# Poissons Ratio (y) = 0.57329 0.39388
# Poissons Ratio (z) = 0.36427 0.21794
#
# Static dielectric constant tensor:
#      x y z
#    x 3.832480 0.000000 0.000000 
#    y 0.000000 3.434510 0.000000 
#    z 0.000000 0.000000 3.664370 
# 
# 
# High freq. dielectric constant tensor:
#      x y z
#    x 1.779580 0.000000 0.000000 
#    y 0.000000 1.744080 0.000000 
#    z 0.000000 0.000000 1.768300 
# 
# From -- ./inp_files/33122.got.cif
#   From: 2010.03.12/outbox.cif.g09.slc.cpg/sg59_17_cif.got.tgz:33122.got - 2010.04.16 16:29:54.
