data_PCOD8244925
_publ_section_title
;
Structure prediction by ZEFSAII (Michael W. Deem and Ramdas Pophale) SiO2 
 PCOD8244925
Probable space group: P M M N
;
_chemical_formula_sum "Si O2"
_cell_formula_units_Z 48
_cell_length_a 14.991113
_cell_length_b 9.321734
_cell_length_c 17.362758
_cell_angle_alpha 90.000000
_cell_angle_beta 90.000000
_cell_angle_gamma 90.000000
_cell_volume 2426.326804
_symmetry_space_group_name_H-M "P M M N"
_symmetry_group_IT_number 59
_space_group.IT_coordinate_system_code '2'
_symmetry_cell_setting 'orthorhombic'
loop_
_space_group_symop_operation_xyz
x,y,z
1/2-x,1/2-y,z
1/2+x,-y,-z
-x,1/2+y,-z
-x,-y,-z
1/2+x,1/2+y,-z
1/2-x,y,z
x,1/2-y,z
loop_
_atom_site_type_symbol
_atom_site_label
_atom_site_fract_x
_atom_site_fract_y
_atom_site_fract_z
Si Si1 0.356205 0.587956 0.346696
Si Si2 0.998916 0.082550 0.079269
Si Si3 0.349194 0.579064 0.805183
Si Si4 0.647876 0.915120 0.801029
Si Si5 0.144032 0.909666 0.635558
Si Si6 0.143407 0.411749 0.492344
O O1 0.250000 0.587036 0.349230
O O2 0.393195 0.750000 0.348908
O O3 0.389020 0.511071 0.268827
O O4 0.394137 0.500721 0.419656
O O5 0.986111 0.250000 0.062384
O O6 0.917452 0.021774 0.130762
O O7 0.091324 0.051470 0.122900
O O8 0.000000 0.000000 0.000000
O O9 0.250000 0.519557 0.824091
O O10 0.347601 0.750000 0.803985
O O11 0.381600 0.528722 0.720149
O O12 0.750000 0.952136 0.821127
O O13 0.636976 0.750000 0.775506
O O14 0.250000 0.900649 0.629832
O O15 0.104275 0.750000 0.622513
O O16 0.105724 0.015234 0.570208
O O17 0.250000 0.412598 0.492098
O O18 0.106824 0.250000 0.487801
#
# Coordination Sequence:
#
# PCOD8244925 Si02
#       6
#     8   8   8   8   8   8
#     4   9  16  26  43  68  96 128 168 208 242 280
#     4  10  21  36  54  76 100 127 160 199 246 299
#     4   8  15  30  52  75  98 127 164 204 245 289
#     4   9  18  33  51  71  99 133 164 197 243 295
#     4   8  13  23  41  64  90 122 160 199 237 279
#     4   9  15  22  36  63  99 133 163 197 238 285
#
# _framework density 19.782989000000001
#
# number of rings (size 3 to 8) (size 9 to 14) (size 15 to 20)
#    0.000    3.167    0.000    2.000    0.000    5.333 
#    0.000    0.833    0.000    2.000    0.000    0.000 
#    0.000    0.000    0.000    0.000    0.000    0.000 
#
# Total GULP energy -595075.437379 kJ/mol
# GULP energy per Si atom -12397.404945 kJ/mol
# Density = 1.973796 g / cm^3
# Si number density = 19.782989 Si / 1000 Ang^3
#
#
#
# Elastic Constant Matrix: (Units=GPa)
#
#
# Indices 1 2 3 4 5 6 
#
# 1 57.1230 31.1895 53.5319 0.0000 0.0000 0.0000
# 2 31.1895 113.6267 89.3667 0.0000 0.0000 0.0000
# 3 53.5319 89.3667 196.0396 0.0000 0.0000 0.0000
# 4 0.0000 0.0000 0.0000 40.2203 0.0000 0.0000
# 5 0.0000 0.0000 0.0000 0.0000 2.9495 0.0000
# 6 0.0000 0.0000 0.0000 0.0000 0.0000 10.1178
#
#
#
# Elastic Compliance Matrix: (Units=1/GPa)
#
#
# Indices 1 2 3 4 5 6 
#
# 1 0.023882 -0.002224 -0.005508 0.000000 0.000000 0.000000
# 2 -0.002224 0.013927 -0.005741 0.000000 0.000000 0.000000
# 3 -0.005508 -0.005741 0.009222 0.000000 0.000000 0.000000
# 4 0.000000 0.000000 0.000000 0.024863 0.000000 0.000000
# 5 0.000000 0.000000 0.000000 0.000000 0.339040 0.000000
# 6 0.000000 0.000000 0.000000 0.000000 0.000000 0.098835
#
#
# Mechanical properties :
#
#
# Convention : Reuss Voigt Hill
#
# Bulk Modulus (GPa) = 49.78782 79.44063 64.61422
# Shear Modulus (GPa) = 9.20117 23.50427 16.35272
#
# Velocity S-wave (km/s) = 2.15897 3.45063 2.87819
# Velocity P-wave (km/s) = 5.60682 7.49126 6.61647
#
# Compressibility (1/GPa) = 0.02008523
#
# Stress axis : x y z
#
# Youngs Moduli (GPa) = 41.87335 71.80441 108.43326
#
# Poissons Ratio (x) = 0.15966 0.59721
# Poissons Ratio (y) = 0.09311 0.62257
# Poissons Ratio (z) = 0.23062 0.41226
#
# Static dielectric constant tensor:
#      x y z
#    x 3.430170 0.000000 0.000000 
#    y 0.000000 3.547180 0.000000 
#    z 0.000000 0.000000 3.675760 
# 
# 
# High freq. dielectric constant tensor:
#      x y z
#    x 1.747990 0.000000 0.000000 
#    y 0.000000 1.748850 0.000000 
#    z 0.000000 0.000000 1.772140 
# 
# From -- ./inp_files/27373.got.cif
#   From: 2010.03.12/outbox.cif.g09.slc.cpg/sg59_14_cif.got.tgz:27373.got - 2010.04.16 16:29:54.
