data_PCOD8244485
_publ_section_title
;
Structure prediction by ZEFSAII (Michael W. Deem and Ramdas Pophale) SiO2 
 PCOD8244485
Probable space group: P M M N
;
_chemical_formula_sum "Si O2"
_cell_formula_units_Z 56
_cell_length_a 11.137143
_cell_length_b 23.071572
_cell_length_c 11.350521
_cell_angle_alpha 90.000000
_cell_angle_beta 90.000000
_cell_angle_gamma 90.000000
_cell_volume 2916.532223
_symmetry_space_group_name_H-M "P M M N"
_symmetry_group_IT_number 59
_space_group.IT_coordinate_system_code '2'
_symmetry_cell_setting 'orthorhombic'
loop_
_space_group_symop_operation_xyz
x,y,z
1/2-x,1/2-y,z
1/2+x,-y,-z
-x,1/2+y,-z
-x,-y,-z
1/2+x,1/2+y,-z
1/2-x,y,z
x,1/2-y,z
loop_
_atom_site_type_symbol
_atom_site_label
_atom_site_fract_x
_atom_site_fract_y
_atom_site_fract_z
Si Si1 0.888638 0.818317 0.515904
Si Si2 0.386846 0.812830 0.123486
Si Si3 0.387497 0.865870 0.366521
Si Si4 0.616971 0.977144 0.145252
Si Si5 0.880667 0.609307 0.738386
Si Si6 0.534471 0.409316 0.037526
Si Si7 0.543799 0.492227 0.632187
O O1 0.750000 0.835372 0.474454
O O2 0.905488 0.750000 0.504928
O O3 0.905679 0.837511 0.650762
O O4 0.001852 0.848310 0.451020
O O5 0.250000 0.800448 0.147462
O O6 0.451279 0.750000 0.103139
O O7 0.435664 0.842921 0.241442
O O8 0.395745 0.853582 0.009526
O O9 0.250000 0.843579 0.400090
O O10 0.374107 0.935241 0.361381
O O11 0.750000 0.954327 0.163723
O O12 0.564371 0.985207 0.275271
O O13 0.620127 0.037413 0.072087
O O14 0.552045 0.928750 0.067833
O O15 0.750000 0.615610 0.795383
O O16 0.881897 0.548756 0.667689
O O17 0.970898 0.612384 0.845359
O O18 0.500000 0.500000 0.500000
#
# Coordination Sequence:
#
# PCOD8244485 Si02
#       7
#     8   8   8   8   8   8   8
#     4  10  22  41  61  83 117 160 199 241 299 360
#     4  10  21  38  60  84 114 151 191 242 297 346
#     4  11  22  39  63  91 120 154 202 250 300 357
#     4  10  21  35  57  83 116 154 190 238 295 350
#     4  10  21  37  58  85 118 153 194 241 295 354
#     4  10  20  37  56  83 114 148 198 236 288 348
#     4  11  21  37  57  89 120 153 190 244 302 359
#
# _framework density 19.200885
#
# number of rings (size 3 to 8) (size 9 to 14) (size 15 to 20)
#    0.000    1.714    2.857    1.714    0.000    3.143 
#    0.000    0.714    0.000    2.143    0.000    0.000 
#    0.000    0.000    0.000    0.000    0.000    0.000 
#
# Total GULP energy -693801.945238 kJ/mol
# GULP energy per Si atom -12389.320451 kJ/mol
# Density = 1.915718 g / cm^3
# Si number density = 19.200885 Si / 1000 Ang^3
#
#
#
# Elastic Constant Matrix: (Units=GPa)
#
#
# Indices 1 2 3 4 5 6 
#
# 1 88.7988 7.1547 29.2989 0.0000 0.0000 0.0000
# 2 7.1547 79.5328 17.9940 0.0000 0.0000 0.0000
# 3 29.2989 17.9940 94.1948 0.0000 0.0000 0.0000
# 4 0.0000 0.0000 0.0000 25.3618 0.0000 0.0000
# 5 0.0000 0.0000 0.0000 0.0000 16.7082 0.0000
# 6 0.0000 0.0000 0.0000 0.0000 0.0000 18.4566
#
#
#
# Elastic Compliance Matrix: (Units=1/GPa)
#
#
# Indices 1 2 3 4 5 6 
#
# 1 0.012554 -0.000257 -0.003856 0.000000 0.000000 0.000000
# 2 -0.000257 0.013147 -0.002431 0.000000 0.000000 0.000000
# 3 -0.003856 -0.002431 0.012280 0.000000 0.000000 0.000000
# 4 0.000000 0.000000 0.000000 0.039429 0.000000 0.000000
# 5 0.000000 0.000000 0.000000 0.000000 0.059851 0.000000
# 6 0.000000 0.000000 0.000000 0.000000 0.000000 0.054181
#
#
# Mechanical properties :
#
#
# Convention : Reuss Voigt Hill
#
# Bulk Modulus (GPa) = 40.17282 41.26908 40.72095
# Shear Modulus (GPa) = 23.49308 25.97725 24.73516
#
# Velocity S-wave (km/s) = 3.50171 3.68220 3.59309
# Velocity P-wave (km/s) = 6.10877 6.29429 6.20222
#
# Compressibility (1/GPa) = 0.02489245
#
# Stress axis : x y z
#
# Youngs Moduli (GPa) = 79.65363 76.06496 81.43233
#
# Poissons Ratio (x) = 0.01955 0.31399
# Poissons Ratio (y) = 0.02047 0.19800
# Poissons Ratio (z) = 0.30714 0.18495
#
# Static dielectric constant tensor:
#      x y z
#    x 3.455000 0.000000 0.000000 
#    y 0.000000 3.862510 0.000000 
#    z 0.000000 0.000000 3.496970 
# 
# 
# High freq. dielectric constant tensor:
#      x y z
#    x 1.739220 0.000000 0.000000 
#    y 0.000000 1.751570 0.000000 
#    z 0.000000 0.000000 1.747020 
# 
# From -- ./inp_files/15992.got.cif
#   From: 2010.03.12/outbox.cif.g09.slc.cpg/sg59_8_cif.got.tgz:15992.got - 2010.04.16 16:29:54.
