data_PCOD8244987
_publ_section_title
;
Structure prediction by ZEFSAII (Michael W. Deem and Ramdas Pophale) SiO2 
 PCOD8244987
Probable space group: P M M N
;
_chemical_formula_sum "Si O2"
_cell_formula_units_Z 64
_cell_length_a 19.357190
_cell_length_b 17.980324
_cell_length_c 9.346084
_cell_angle_alpha 90.000000
_cell_angle_beta 90.000000
_cell_angle_gamma 90.000000
_cell_volume 3252.890965
_symmetry_space_group_name_H-M "P M M N"
_symmetry_group_IT_number 59
_space_group.IT_coordinate_system_code '2'
_symmetry_cell_setting 'orthorhombic'
loop_
_space_group_symop_operation_xyz
x,y,z
1/2-x,1/2-y,z
1/2+x,-y,-z
-x,1/2+y,-z
-x,-y,-z
1/2+x,1/2+y,-z
1/2-x,y,z
x,1/2-y,z
loop_
_atom_site_type_symbol
_atom_site_label
_atom_site_fract_x
_atom_site_fract_y
_atom_site_fract_z
Si Si1 0.924941 0.983653 0.685338
Si Si2 0.674135 0.457791 0.453036
Si Si3 0.326897 0.970028 0.084146
Si Si4 0.325490 0.059758 0.806135
Si Si5 0.529672 0.667838 0.548717
Si Si6 0.890923 0.168255 0.287705
Si Si7 0.587218 0.164974 0.964387
Si Si8 0.528142 0.607868 0.239699
O O1 0.931238 0.900157 0.626195
O O2 0.884684 0.036623 0.573165
O O3 0.878719 0.976986 0.827587
O O4 0.998428 0.024734 0.718795
O O5 0.750000 0.451599 0.525113
O O6 0.670747 0.530835 0.355618
O O7 0.665802 0.388146 0.346433
O O8 0.250000 0.977404 0.147233
O O9 0.350724 0.884483 0.099012
O O10 0.329692 0.992591 0.918648
O O11 0.250000 0.100828 0.827152
O O12 0.394077 0.108990 0.824694
O O13 0.562565 0.750000 0.584012
O O14 0.451659 0.667241 0.598590
O O15 0.528864 0.659032 0.378644
O O16 0.856560 0.250000 0.279127
O O17 0.921885 0.146993 0.132405
O O18 0.606744 0.250000 0.935029
O O19 0.516450 0.144308 0.885594
#
# Coordination Sequence:
#
# PCOD8244987 Si02
#       8
#     8   8   8   8   8   8   8   8
#     4  11  22  36  61  87 115 152 203 240 296 342
#     4  11  20  36  58  83 118 155 197 241 284 340
#     4  10  22  38  57  85 120 156 194 239 289 349
#     4  10  21  36  57  84 112 145 194 245 291 343
#     4  11  22  37  58  85 117 148 186 242 298 347
#     4  10  21  36  54  85 123 154 191 233 287 350
#     4  10  22  36  57  88 119 154 195 237 287 351
#     4  11  21  37  63  85 117 153 195 247 296 342
#
# _framework density 19.674807999999999
#
# number of rings (size 3 to 8) (size 9 to 14) (size 15 to 20)
#    0.000    1.500    3.750    1.875    1.750    1.500 
#    0.000    1.250    0.000    6.000    0.000    3.500 
#    0.000    0.000    0.000    0.000    0.000    0.000 
#
# Total GULP energy -793225.894791 kJ/mol
# GULP energy per Si atom -12394.154606 kJ/mol
# Density = 1.963003 g / cm^3
# Si number density = 19.674808 Si / 1000 Ang^3
#
#
#
# Elastic Constant Matrix: (Units=GPa)
#
#
# Indices 1 2 3 4 5 6 
#
# 1 106.0385 25.8599 25.6911 0.0000 0.0000 0.0000
# 2 25.8599 88.8681 19.7442 0.0000 0.0000 0.0000
# 3 25.6911 19.7442 62.0232 0.0000 0.0000 0.0000
# 4 0.0000 0.0000 0.0000 23.2143 0.0000 0.0000
# 5 0.0000 0.0000 0.0000 0.0000 23.2684 0.0000
# 6 0.0000 0.0000 0.0000 0.0000 0.0000 16.1597
#
#
#
# Elastic Compliance Matrix: (Units=1/GPa)
#
#
# Indices 1 2 3 4 5 6 
#
# 1 0.010916 -0.002337 -0.003777 0.000000 0.000000 0.000000
# 2 -0.002337 0.012609 -0.003046 0.000000 0.000000 0.000000
# 3 -0.003777 -0.003046 0.018657 0.000000 0.000000 0.000000
# 4 0.000000 0.000000 0.000000 0.043077 0.000000 0.000000
# 5 0.000000 0.000000 0.000000 0.000000 0.042977 0.000000
# 6 0.000000 0.000000 0.000000 0.000000 0.000000 0.061882
#
#
# Mechanical properties :
#
#
# Convention : Reuss Voigt Hill
#
# Bulk Modulus (GPa) = 41.90876 44.39113 43.14994
# Shear Modulus (GPa) = 23.10607 24.90413 24.00510
#
# Velocity S-wave (km/s) = 3.43067 3.56165 3.49677
# Velocity P-wave (km/s) = 6.08602 6.28691 6.18728
#
# Compressibility (1/GPa) = 0.02386136
#
# Stress axis : x y z
#
# Youngs Moduli (GPa) = 91.61112 79.30566 53.59818
#
# Poissons Ratio (x) = 0.18535 0.20247
# Poissons Ratio (y) = 0.21411 0.16326
# Poissons Ratio (z) = 0.34606 0.24156
#
# Static dielectric constant tensor:
#      x y z
#    x 3.628280 0.000000 0.000000 
#    y 0.000000 3.548230 0.000000 
#    z 0.000000 0.000000 3.660590 
# 
# 
# High freq. dielectric constant tensor:
#      x y z
#    x 1.760470 0.000000 0.000000 
#    y 0.000000 1.741500 0.000000 
#    z 0.000000 0.000000 1.778710 
# 
# From -- ./inp_files/11604.got.cif
#   From: 2010.03.12/outbox.cif.g09.slc.cpg/sg59_6_cif.got.tgz:11604.got - 2010.04.16 16:29:54.
