data_PCOD8244099
_publ_section_title
;
Structure prediction by ZEFSAII (Michael W. Deem and Ramdas Pophale) SiO2 
 PCOD8244099
Probable space group: P M M N
;
_chemical_formula_sum "Si O2"
_cell_formula_units_Z 64
_cell_length_a 8.808015
_cell_length_b 14.388552
_cell_length_c 25.187228
_cell_angle_alpha 90.000000
_cell_angle_beta 90.000000
_cell_angle_gamma 90.000000
_cell_volume 3192.092808
_symmetry_space_group_name_H-M "P M M N"
_symmetry_group_IT_number 59
_space_group.IT_coordinate_system_code '2'
_symmetry_cell_setting 'orthorhombic'
loop_
_space_group_symop_operation_xyz
x,y,z
1/2-x,1/2-y,z
1/2+x,-y,-z
-x,1/2+y,-z
-x,-y,-z
1/2+x,1/2+y,-z
1/2-x,y,z
x,1/2-y,z
loop_
_atom_site_type_symbol
_atom_site_label
_atom_site_fract_x
_atom_site_fract_y
_atom_site_fract_z
Si Si1 0.076350 0.646078 0.377033
Si Si2 0.921052 0.351115 0.413438
Si Si3 0.075022 0.407628 0.017466
Si Si4 0.428804 0.043280 0.128795
Si Si5 0.571043 0.355911 0.228393
Si Si6 0.072636 0.148611 0.906215
Si Si7 0.570510 0.901697 0.486039
Si Si8 0.074925 0.461192 0.324633
O O1 0.250000 0.632993 0.396363
O O2 0.049296 0.750000 0.354190
O O3 0.043023 0.572110 0.329651
O O4 0.966625 0.630190 0.426667
O O5 0.750000 0.393158 0.416423
O O6 0.915150 0.250000 0.385409
O O7 0.991228 0.333823 0.471672
O O8 0.030819 0.419291 0.381508
O O9 0.250000 0.428246 0.021964
O O10 0.022938 0.389513 0.078592
O O11 0.038863 0.336006 0.969990
O O12 0.000000 0.500000 0.000000
O O13 0.250000 0.042658 0.139286
O O14 0.508585 0.087849 0.178763
O O15 0.478954 0.935496 0.119986
O O16 0.750000 0.352688 0.224406
O O17 0.506314 0.250000 0.230259
O O18 0.527547 0.413600 0.280376
O O19 0.250000 0.125919 0.897803
O O20 0.030930 0.250000 0.880866
O O21 0.750000 0.901235 0.493543
O O22 0.500000 0.000000 0.500000
O O23 0.250000 0.440408 0.311603
#
# Coordination Sequence:
#
# PCOD8244099 Si02
#       8
#     8   8   8   8   8   8   8   8
#     4  10  22  41  63  88 120 155 189 231 287 347
#     4  11  23  38  58  85 119 156 190 232 286 340
#     4   8  15  28  48  76 111 151 193 236 283 335
#     4  10  20  35  57  85 117 153 195 246 297 348
#     4  11  25  44  64  85 112 148 190 241 299 354
#     4   9  17  31  53  82 119 162 201 237 285 346
#     4  12  23  36  57  86 120 158 197 237 282 336
#     4  11  23  40  64  89 114 148 190 239 289 342
#
# _framework density 20.049543
#
# number of rings (size 3 to 8) (size 9 to 14) (size 15 to 20)
#    0.000    1.750    1.250    3.375    0.000    7.000 
#    0.000    1.875    0.000    2.250    0.000    0.000 
#    0.000    0.000    0.000    0.000    0.000    0.000 
#
# Total GULP energy -792893.100044 kJ/mol
# GULP energy per Si atom -12388.954688 kJ/mol
# Density = 2.000391 g / cm^3
# Si number density = 20.049543 Si / 1000 Ang^3
#
#
#
# Elastic Constant Matrix: (Units=GPa)
#
#
# Indices 1 2 3 4 5 6 
#
# 1 72.5612 37.5127 29.4522 0.0000 0.0000 0.0000
# 2 37.5127 131.5360 47.5972 0.0000 0.0000 0.0000
# 3 29.4522 47.5972 98.1645 0.0000 0.0000 0.0000
# 4 0.0000 0.0000 0.0000 24.0432 0.0000 0.0000
# 5 0.0000 0.0000 0.0000 0.0000 31.3140 0.0000
# 6 0.0000 0.0000 0.0000 0.0000 0.0000 24.3456
#
#
#
# Elastic Compliance Matrix: (Units=1/GPa)
#
#
# Indices 1 2 3 4 5 6 
#
# 1 0.017022 -0.003646 -0.003339 0.000000 0.000000 0.000000
# 2 -0.003646 0.010001 -0.003755 0.000000 0.000000 0.000000
# 3 -0.003339 -0.003755 0.013010 0.000000 0.000000 0.000000
# 4 0.000000 0.000000 0.000000 0.041592 0.000000 0.000000
# 5 0.000000 0.000000 0.000000 0.000000 0.031935 0.000000
# 6 0.000000 0.000000 0.000000 0.000000 0.000000 0.041075
#
#
# Mechanical properties :
#
#
# Convention : Reuss Voigt Hill
#
# Bulk Modulus (GPa) = 53.90417 59.04287 56.47352
# Shear Modulus (GPa) = 27.42741 28.45386 27.94064
#
# Velocity S-wave (km/s) = 3.70264 3.77128 3.73712
# Velocity P-wave (km/s) = 6.72482 6.96246 6.84467
#
# Compressibility (1/GPa) = 0.01855144
#
# Stress axis : x y z
#
# Youngs Moduli (GPa) = 58.74828 99.98770 76.86584
#
# Poissons Ratio (x) = 0.36457 0.25666
# Poissons Ratio (y) = 0.21421 0.28866
# Poissons Ratio (z) = 0.19617 0.37549
#
# Static dielectric constant tensor:
#      x y z
#    x 3.654170 0.000000 0.000000 
#    y 0.000000 3.826220 0.000000 
#    z 0.000000 0.000000 3.340690 
# 
# 
# High freq. dielectric constant tensor:
#      x y z
#    x 1.785010 0.000000 0.000000 
#    y 0.000000 1.789660 0.000000 
#    z 0.000000 0.000000 1.766530 
# 
# From -- ./inp_files/31628.got.cif
#   From: 2010.03.12/outbox.cif.g09.slc.cpg/sg59_16_cif.got.tgz:31628.got - 2010.04.16 16:29:54.
