data_PCOD8244588
_publ_section_title
;
Structure prediction by ZEFSAII (Michael W. Deem and Ramdas Pophale) SiO2 
 PCOD8244588
Probable space group: P M M N
;
_chemical_formula_sum "Si O2"
_cell_formula_units_Z 48
_cell_length_a 9.067764
_cell_length_b 27.730981
_cell_length_c 9.674749
_cell_angle_alpha 90.000000
_cell_angle_beta 90.000000
_cell_angle_gamma 90.000000
_cell_volume 2432.792949
_symmetry_space_group_name_H-M "P M M N"
_symmetry_group_IT_number 59
_space_group.IT_coordinate_system_code '2'
_symmetry_cell_setting 'orthorhombic'
loop_
_space_group_symop_operation_xyz
x,y,z
1/2-x,1/2-y,z
1/2+x,-y,-z
-x,1/2+y,-z
-x,-y,-z
1/2+x,1/2+y,-z
1/2-x,y,z
x,1/2-y,z
loop_
_atom_site_type_symbol
_atom_site_label
_atom_site_fract_x
_atom_site_fract_y
_atom_site_fract_z
Si Si1 0.922402 0.804180 0.773243
Si Si2 0.575083 0.041107 0.910760
Si Si3 0.578716 0.638035 0.043534
Si Si4 0.924261 0.459090 0.590098
Si Si5 0.083722 0.805265 0.264199
Si Si6 0.417345 0.857930 0.537147
O O1 0.750000 0.802214 0.746093
O O2 0.989365 0.750000 0.758286
O O3 0.987871 0.842755 0.667861
O O4 0.959109 0.823501 0.925198
O O5 0.750000 0.037926 0.925919
O O6 0.518834 0.090682 0.977346
O O7 0.526273 0.037061 0.750182
O O8 0.500000 0.000000 0.000000
O O9 0.750000 0.623588 0.044836
O O10 0.536069 0.662647 0.187267
O O11 0.750000 0.465136 0.578863
O O12 0.976098 0.407665 0.529445
O O13 0.000000 0.500000 0.500000
O O14 0.250000 0.819031 0.215307
O O15 0.048265 0.750000 0.235393
O O16 0.068816 0.815170 0.426417
O O17 0.250000 0.864639 0.586972
#
# Coordination Sequence:
#
# PCOD8244588 Si02
#       6
#     8   8   8   8   8   8
#     4  10  23  41  59  86 125 164 203 249 299 352
#     4  11  24  44  66  92 124 158 200 251 306 365
#     4  11  23  40  62  89 123 162 203 250 302 361
#     4  10  23  42  64  90 123 157 198 248 303 361
#     4  10  20  37  62  89 119 156 199 250 305 360
#     4  10  21  40  62  88 120 158 201 249 301 359
#
# _framework density 19.730409000000002
#
# number of rings (size 3 to 8) (size 9 to 14) (size 15 to 20)
#    0.000    1.667    1.667    2.000    2.333    6.000 
#    0.000    0.000    0.000    0.000    0.000    0.000 
#    0.000    0.000    0.000    0.000    0.000    0.000 
#
# Total GULP energy -595325.572192 kJ/mol
# GULP energy per Si atom -12402.616087 kJ/mol
# Density = 1.968550 g / cm^3
# Si number density = 19.730409 Si / 1000 Ang^3
#
#
#
# Elastic Constant Matrix: (Units=GPa)
#
#
# Indices 1 2 3 4 5 6 
#
# 1 58.5647 47.5598 42.7535 0.0000 0.0000 0.0000
# 2 47.5598 115.3878 42.8476 0.0000 0.0000 0.0000
# 3 42.7535 42.8476 78.4040 0.0000 0.0000 0.0000
# 4 0.0000 0.0000 0.0000 36.9122 0.0000 0.0000
# 5 0.0000 0.0000 0.0000 0.0000 37.6338 0.0000
# 6 0.0000 0.0000 0.0000 0.0000 0.0000 37.1087
#
#
#
# Elastic Compliance Matrix: (Units=1/GPa)
#
#
# Indices 1 2 3 4 5 6 
#
# 1 0.034619 -0.009107 -0.013900 0.000000 0.000000 0.000000
# 2 -0.009107 0.013269 -0.002285 0.000000 0.000000 0.000000
# 3 -0.013900 -0.002285 0.021583 0.000000 0.000000 0.000000
# 4 0.000000 0.000000 0.000000 0.027091 0.000000 0.000000
# 5 0.000000 0.000000 0.000000 0.000000 0.026572 0.000000
# 6 0.000000 0.000000 0.000000 0.000000 0.000000 0.026948
#
#
# Mechanical properties :
#
#
# Convention : Reuss Voigt Hill
#
# Bulk Modulus (GPa) = 52.95221 57.63091 55.29156
# Shear Modulus (GPa) = 24.15904 30.27733 27.21819
#
# Velocity S-wave (km/s) = 3.50302 3.92159 3.71820
# Velocity P-wave (km/s) = 6.57706 7.05533 6.82039
#
# Compressibility (1/GPa) = 0.01888495
#
# Stress axis : x y z
#
# Youngs Moduli (GPa) = 28.88628 75.36517 46.33237
#
# Poissons Ratio (x) = 0.68636 0.64404
# Poissons Ratio (y) = 0.26307 0.10588
# Poissons Ratio (z) = 0.40153 0.17223
#
# Static dielectric constant tensor:
#      x y z
#    x 3.532890 0.000000 0.000000 
#    y 0.000000 3.934760 0.000000 
#    z 0.000000 0.000000 3.576560 
# 
# 
# High freq. dielectric constant tensor:
#      x y z
#    x 1.762610 0.000000 0.000000 
#    y 0.000000 1.784140 0.000000 
#    z 0.000000 0.000000 1.773130 
# 
# From -- ./inp_files/6299.got.cif
#   From: 2010.03.12/outbox.cif.g09.slc.cpg/sg59_4_cif.got.tgz:6299.got - 2010.04.16 16:29:54.
