data_PCOD8244250
_publ_section_title
;
Structure prediction by ZEFSAII (Michael W. Deem and Ramdas Pophale) SiO2 
 PCOD8244250
Probable space group: P M M N
;
_chemical_formula_sum "Si O2"
_cell_formula_units_Z 56
_cell_length_a 9.288880
_cell_length_b 16.827339
_cell_length_c 19.433611
_cell_angle_alpha 90.000000
_cell_angle_beta 90.000000
_cell_angle_gamma 90.000000
_cell_volume 3037.612013
_symmetry_space_group_name_H-M "P M M N"
_symmetry_group_IT_number 59
_space_group.IT_coordinate_system_code '2'
_symmetry_cell_setting 'orthorhombic'
loop_
_space_group_symop_operation_xyz
x,y,z
1/2-x,1/2-y,z
1/2+x,-y,-z
-x,1/2+y,-z
-x,-y,-z
1/2+x,1/2+y,-z
1/2-x,y,z
x,1/2-y,z
loop_
_atom_site_type_symbol
_atom_site_label
_atom_site_fract_x
_atom_site_fract_y
_atom_site_fract_z
Si Si1 0.917379 0.158642 0.027571
Si Si2 0.416566 0.886840 0.126852
Si Si3 0.418603 0.431162 0.146073
Si Si4 0.578962 0.660954 0.719831
Si Si5 0.921058 0.750000 0.204014
Si Si6 0.081726 0.094004 0.564350
Si Si7 0.420402 0.250000 0.638622
Si Si8 0.917915 0.561714 0.590590
O O1 0.750000 0.151134 0.045133
O O2 0.968024 0.250000 0.030344
O O3 0.004768 0.107383 0.081418
O O4 0.952535 0.122930 0.953181
O O5 0.250000 0.865299 0.140941
O O6 0.516912 0.828879 0.169895
O O7 0.454165 0.975763 0.150299
O O8 0.250000 0.416581 0.136383
O O9 0.477161 0.390214 0.215587
O O10 0.750000 0.664074 0.720051
O O11 0.515107 0.750000 0.724832
O O12 0.524430 0.621346 0.649101
O O13 0.750000 0.750000 0.196082
O O14 0.971196 0.750000 0.282931
O O15 0.250000 0.082502 0.578615
O O16 0.018538 0.172518 0.600186
O O17 0.049534 0.101141 0.483141
O O18 0.001075 0.020541 0.598831
O O19 0.250000 0.250000 0.632264
O O20 0.750000 0.543442 0.600166
#
# Coordination Sequence:
#
# PCOD8244250 Si02
#       8
#     8   8   8   8   4   8   4   8
#     4  10  20  36  56  78 109 144 177 217 264 319
#     4  10  21  39  58  78 109 145 177 217 276 326
#     4  10  21  35  56  82 108 141 180 222 268 317
#     4   9  18  32  51  79 110 136 172 223 264 303
#     4  11  23  37  55  81 108 139 184 228 265 321
#     4   9  18  34  54  76 106 141 176 220 268 317
#     4   9  20  35  53  79 110 143 180 218 269 323
#     4   9  18  32  54  80 104 137 182 221 263 317
#
# _framework density 18.435534000000001
#
# number of rings (size 3 to 8) (size 9 to 14) (size 15 to 20)
#    0.000    2.429    0.714    1.071    3.000    2.000 
#    0.000    1.786    0.000    1.286    0.000    0.000 
#    0.000    0.000    0.000    0.000    0.000    0.000 
#
# Total GULP energy -694526.330016 kJ/mol
# GULP energy per Si atom -12402.255893 kJ/mol
# Density = 1.839357 g / cm^3
# Si number density = 18.435534 Si / 1000 Ang^3
#
#
#
# Elastic Constant Matrix: (Units=GPa)
#
#
# Indices 1 2 3 4 5 6 
#
# 1 42.0100 51.7815 46.1752 0.0000 0.0000 0.0000
# 2 51.7815 171.7143 103.0247 0.0000 0.0000 0.0000
# 3 46.1752 103.0247 143.3360 0.0000 0.0000 0.0000
# 4 0.0000 0.0000 0.0000 25.6066 0.0000 0.0000
# 5 0.0000 0.0000 0.0000 0.0000 15.5683 0.0000
# 6 0.0000 0.0000 0.0000 0.0000 0.0000 28.8984
#
#
#
# Elastic Compliance Matrix: (Units=1/GPa)
#
#
# Indices 1 2 3 4 5 6 
#
# 1 0.042381 -0.008068 -0.007854 0.000000 0.000000 0.000000
# 2 -0.008068 0.011775 -0.005864 0.000000 0.000000 0.000000
# 3 -0.007854 -0.005864 0.013722 0.000000 0.000000 0.000000
# 4 0.000000 0.000000 0.000000 0.039052 0.000000 0.000000
# 5 0.000000 0.000000 0.000000 0.000000 0.064233 0.000000
# 6 0.000000 0.000000 0.000000 0.000000 0.000000 0.034604
#
#
# Mechanical properties :
#
#
# Convention : Reuss Voigt Hill
#
# Bulk Modulus (GPa) = 41.14322 84.33589 62.73955
# Shear Modulus (GPa) = 19.42180 24.41991 21.92085
#
# Velocity S-wave (km/s) = 3.24928 3.64347 3.45201
# Velocity P-wave (km/s) = 6.03680 7.97154 7.07066
#
# Compressibility (1/GPa) = 0.02430534
#
# Stress axis : x y z
#
# Youngs Moduli (GPa) = 23.59530 84.92460 72.87652
#
# Poissons Ratio (x) = 0.68519 0.57236
# Poissons Ratio (y) = 0.19037 0.42738
# Poissons Ratio (z) = 0.18531 0.49803
#
# Static dielectric constant tensor:
#      x y z
#    x 3.122660 0.000000 0.000000 
#    y 0.000000 3.627380 0.000000 
#    z 0.000000 0.000000 3.530360 
# 
# 
# High freq. dielectric constant tensor:
#      x y z
#    x 1.685820 0.000000 0.000000 
#    y 0.000000 1.728910 0.000000 
#    z 0.000000 0.000000 1.726300 
# 
# From -- ./inp_files/29210.got.cif
#   From: 2010.03.12/outbox.cif.g09.slc.cpg/sg59_15_cif.got.tgz:29210.got - 2010.04.16 16:29:54.
