data_PCOD8244805
_publ_section_title
;
Structure prediction by ZEFSAII (Michael W. Deem and Ramdas Pophale) SiO2 
 PCOD8244805
Probable space group: P M M N
;
_chemical_formula_sum "Si O2"
_cell_formula_units_Z 56
_cell_length_a 14.266957
_cell_length_b 9.510480
_cell_length_c 21.538958
_cell_angle_alpha 90.000000
_cell_angle_beta 90.000000
_cell_angle_gamma 90.000000
_cell_volume 2922.526638
_symmetry_space_group_name_H-M "P M M N"
_symmetry_group_IT_number 59
_space_group.IT_coordinate_system_code '2'
_symmetry_cell_setting 'orthorhombic'
loop_
_space_group_symop_operation_xyz
x,y,z
1/2-x,1/2-y,z
1/2+x,-y,-z
-x,1/2+y,-z
-x,-y,-z
1/2+x,1/2+y,-z
1/2-x,y,z
x,1/2-y,z
loop_
_atom_site_type_symbol
_atom_site_label
_atom_site_fract_x
_atom_site_fract_y
_atom_site_fract_z
Si Si1 0.358780 0.911883 0.840369
Si Si2 0.138803 0.906312 0.068660
Si Si3 0.857383 0.085682 0.793058
Si Si4 0.356686 0.086722 0.492118
Si Si5 0.467451 0.586938 0.588093
Si Si6 0.491832 0.913000 0.728436
Si Si7 0.361548 0.409068 0.956598
O O1 0.250000 0.942278 0.828653
O O2 0.375731 0.750000 0.859270
O O3 0.410265 0.952107 0.776738
O O4 0.398305 0.009398 0.895761
O O5 0.250000 0.899271 0.064788
O O6 0.098662 0.750000 0.055250
O O7 0.109528 0.957189 0.137415
O O8 0.097672 0.014258 0.017963
O O9 0.750000 0.044266 0.782921
O O10 0.873407 0.250000 0.782493
O O11 0.915372 0.999909 0.742942
O O12 0.250000 0.044867 0.473590
O O13 0.362495 0.250000 0.509605
O O14 0.427037 0.050684 0.435377
O O15 0.388637 0.000827 0.552434
O O16 0.445083 0.750000 0.577002
O O17 0.457883 0.545428 0.659975
O O18 0.518856 0.750000 0.731743
O O19 0.250000 0.412515 0.958474
O O20 0.399580 0.250000 0.954796
#
# Coordination Sequence:
#
# PCOD8244805 Si02
#       7
#     8   8   8   8   8   8   8
#     4   9  18  33  50  68  96 134 172 210 256 311
#     4   8  14  27  47  68  92 126 166 207 256 311
#     4   9  19  35  53  74 102 137 174 211 256 311
#     4   9  18  34  56  81 109 140 173 209 251 300
#     4   9  19  35  54  79 110 140 172 212 255 299
#     4  10  21  35  53  78 105 136 174 213 253 298
#     4   9  16  26  44  71  97 122 161 214 266 311
#
# _framework density 19.161503
#
# number of rings (size 3 to 8) (size 9 to 14) (size 15 to 20)
#    0.000    3.000    0.000    1.286    0.000    5.143 
#    0.000    5.000    0.000    1.714    0.000    0.000 
#    0.000    0.000    0.000    0.000    0.000    0.000 
#
# Total GULP energy -694339.321783 kJ/mol
# GULP energy per Si atom -12398.916460 kJ/mol
# Density = 1.911789 g / cm^3
# Si number density = 19.161503 Si / 1000 Ang^3
#
#
#
# Elastic Constant Matrix: (Units=GPa)
#
#
# Indices 1 2 3 4 5 6 
#
# 1 37.4626 5.0362 -12.3754 0.0000 0.0000 0.0000
# 2 5.0362 59.2620 25.0113 0.0000 0.0000 0.0000
# 3 -12.3754 25.0113 65.8860 0.0000 0.0000 0.0000
# 4 0.0000 0.0000 0.0000 30.5023 0.0000 0.0000
# 5 0.0000 0.0000 0.0000 0.0000 43.6445 0.0000
# 6 0.0000 0.0000 0.0000 0.0000 0.0000 18.8670
#
#
#
# Elastic Compliance Matrix: (Units=1/GPa)
#
#
# Indices 1 2 3 4 5 6 
#
# 1 0.030089 -0.005885 0.007886 0.000000 0.000000 0.000000
# 2 -0.005885 0.021245 -0.009170 0.000000 0.000000 0.000000
# 3 0.007886 -0.009170 0.020140 0.000000 0.000000 0.000000
# 4 0.000000 0.000000 0.000000 0.032784 0.000000 0.000000
# 5 0.000000 0.000000 0.000000 0.000000 0.022912 0.000000
# 6 0.000000 0.000000 0.000000 0.000000 0.000000 0.053003
#
#
# Mechanical properties :
#
#
# Convention : Reuss Voigt Hill
#
# Bulk Modulus (GPa) = 17.50244 21.99499 19.74871
# Shear Modulus (GPa) = 23.41287 28.26533 25.83910
#
# Velocity S-wave (km/s) = 3.49932 3.84488 3.67616
# Velocity P-wave (km/s) = 5.04787 5.58699 5.32426
#
# Compressibility (1/GPa) = 0.05713489
#
# Stress axis : x y z
#
# Youngs Moduli (GPa) = 33.23426 47.07075 49.65228
#
# Poissons Ratio (x) = 0.27702 -0.39155
# Poissons Ratio (y) = 0.19559 0.45532
# Poissons Ratio (z) = -0.26208 0.43165
#
# Static dielectric constant tensor:
#      x y z
#    x 3.346160 0.000000 0.000000 
#    y 0.000000 3.529090 0.000000 
#    z 0.000000 0.000000 3.534740 
# 
# 
# High freq. dielectric constant tensor:
#      x y z
#    x 1.740470 0.000000 0.000000 
#    y 0.000000 1.740320 0.000000 
#    z 0.000000 0.000000 1.739240 
# 
# From -- ./inp_files/29135.got.cif
#   From: 2010.03.12/outbox.cif.g09.slc.cpg/sg59_15_cif.got.tgz:29135.got - 2010.04.16 16:29:54.
