data_PCOD8244699
_publ_section_title
;
Structure prediction by ZEFSAII (Michael W. Deem and Ramdas Pophale) SiO2 
 PCOD8244699
Probable space group: P M M N
;
_chemical_formula_sum "Si O2"
_cell_formula_units_Z 48
_cell_length_a 9.795500
_cell_length_b 19.970207
_cell_length_c 13.274623
_cell_angle_alpha 90.000000
_cell_angle_beta 90.000000
_cell_angle_gamma 90.000000
_cell_volume 2596.757361
_symmetry_space_group_name_H-M "P M M N"
_symmetry_group_IT_number 59
_space_group.IT_coordinate_system_code '2'
_symmetry_cell_setting 'orthorhombic'
loop_
_space_group_symop_operation_xyz
x,y,z
1/2-x,1/2-y,z
1/2+x,-y,-z
-x,1/2+y,-z
-x,-y,-z
1/2+x,1/2+y,-z
1/2-x,y,z
x,1/2-y,z
loop_
_atom_site_type_symbol
_atom_site_label
_atom_site_fract_x
_atom_site_fract_y
_atom_site_fract_z
Si Si1 0.409347 0.066728 0.508843
Si Si2 0.750000 0.037700 0.813930
Si Si3 0.250000 0.591275 0.970225
Si Si4 0.966392 0.327140 0.146341
Si Si5 0.902665 0.103798 0.344802
Si Si6 0.250000 0.111529 0.101551
Si Si7 0.463334 0.045057 0.723750
Si Si8 0.250000 0.442415 0.886580
O O1 0.250000 0.056667 0.478376
O O2 0.483134 0.118072 0.431565
O O3 0.420535 0.089117 0.625589
O O4 0.500000 0.000000 0.500000
O O5 0.622702 0.052978 0.742868
O O6 0.750000 0.961330 0.849294
O O7 0.750000 0.087106 0.909225
O O8 0.384970 0.629553 0.935302
O O9 0.250000 0.518258 0.922838
O O10 0.943707 0.250000 0.120065
O O11 0.123076 0.346641 0.140293
O O12 0.914100 0.339904 0.259505
O O13 0.750000 0.106158 0.391786
O O14 0.923975 0.032122 0.292351
O O15 0.250000 0.107543 0.980636
O O16 0.383958 0.072690 0.820710
#
# Coordination Sequence:
#
# PCOD8244699 Si02
#       8
#     8   4   4   8   8   4   8   4
#     4  10  21  31  51  77 114 147 176 218 270 330
#     4  11  22  30  58  82 116 149 182 233 281 345
#     4  11  21  38  53  83 108 153 191 227 280 329
#     4  12  23  38  57  79 114 150 188 236 279 336
#     4  11  21  35  52  78 111 149 187 224 276 340
#     4  11  23  36  53  85 114 149 189 231 284 339
#     4  11  18  33  51  82 113 148 176 219 285 339
#     4  11  18  36  58  76 118 149 182 229 285 349
#
# _framework density 18.484591999999999
#
# number of rings (size 3 to 8) (size 9 to 14) (size 15 to 20)
#    0.000    1.000    5.833    3.000    7.000    2.667 
#    0.000    0.000    0.000    0.000    0.000    7.000 
#    0.000    0.000    0.000    0.000    0.000    0.000 
#
# Total GULP energy -595173.432377 kJ/mol
# GULP energy per Si atom -12399.446508 kJ/mol
# Density = 1.844252 g / cm^3
# Si number density = 18.484592 Si / 1000 Ang^3
#
#
#
# Elastic Constant Matrix: (Units=GPa)
#
#
# Indices 1 2 3 4 5 6 
#
# 1 171.8379 13.7036 41.5197 0.0000 0.0000 0.0000
# 2 13.7036 45.7885 18.5136 0.0000 0.0000 0.0000
# 3 41.5197 18.5136 90.9342 0.0000 0.0000 0.0000
# 4 0.0000 0.0000 0.0000 15.5751 0.0000 0.0000
# 5 0.0000 0.0000 0.0000 0.0000 34.4444 0.0000
# 6 0.0000 0.0000 0.0000 0.0000 0.0000 -28.7072
#
#
#
# Elastic Compliance Matrix: (Units=1/GPa)
#
#
# Indices 1 2 3 4 5 6 
#
# 1 0.006569 -0.000821 -0.002832 0.000000 0.000000 0.000000
# 2 -0.000821 0.023901 -0.004491 0.000000 0.000000 0.000000
# 3 -0.002832 -0.004491 0.013205 0.000000 0.000000 0.000000
# 4 0.000000 0.000000 0.000000 0.064205 0.000000 0.000000
# 5 0.000000 0.000000 0.000000 0.000000 0.029032 0.000000
# 6 0.000000 0.000000 0.000000 0.000000 0.000000 -0.034835
#
#
# Mechanical properties :
#
#
# Convention : Reuss Voigt Hill
#
# Bulk Modulus (GPa) = 36.51504 50.67049 43.59276
# Shear Modulus (GPa) = 39.21699 19.91737 29.56718
#
# Velocity S-wave (km/s) = 4.61108 3.28611 4.00379
# Velocity P-wave (km/s) = 6.93878 6.47069 6.70882
#
# Compressibility (1/GPa) = 0.02738598
#
# Stress axis : x y z
#
# Youngs Moduli (GPa) = 152.22441 41.83893 75.73122
#
# Poissons Ratio (x) = 0.03434 0.21450
# Poissons Ratio (y) = 0.12495 0.34013
# Poissons Ratio (z) = 0.43115 0.18791
#
# Static dielectric constant tensor:
#      x y z
#    x 3.732220 0.000000 0.000000 
#    y 0.000000 2.927820 0.000000 
#    z 0.000000 0.000000 4.000000 
# 
# 
# High freq. dielectric constant tensor:
#      x y z
#    x 1.744410 0.000000 0.000000 
#    y 0.000000 1.647490 0.000000 
#    z 0.000000 0.000000 1.729930 
# 
# From -- ./inp_files/20627.got.cif
#   From: 2010.03.12/outbox.cif.g09.slc.cpg/sg59_11_cif.got.tgz:20627.got - 2010.04.16 16:29:54.
