data_PCOD8244578
_publ_section_title
;
Structure prediction by ZEFSAII (Michael W. Deem and Ramdas Pophale) SiO2 
 PCOD8244578
Probable space group: P M M N
;
_chemical_formula_sum "Si O2"
_cell_formula_units_Z 48
_cell_length_a 29.962477
_cell_length_b 8.642491
_cell_length_c 9.365446
_cell_angle_alpha 90.000000
_cell_angle_beta 90.000000
_cell_angle_gamma 90.000000
_cell_volume 2425.186342
_symmetry_space_group_name_H-M "P M M N"
_symmetry_group_IT_number 59
_space_group.IT_coordinate_system_code '2'
_symmetry_cell_setting 'orthorhombic'
loop_
_space_group_symop_operation_xyz
x,y,z
1/2-x,1/2-y,z
1/2+x,-y,-z
-x,1/2+y,-z
-x,-y,-z
1/2+x,1/2+y,-z
1/2-x,y,z
x,1/2-y,z
loop_
_atom_site_type_symbol
_atom_site_label
_atom_site_fract_x
_atom_site_fract_y
_atom_site_fract_z
Si Si1 0.548669 0.928782 0.832950
Si Si2 0.373075 0.069900 0.642452
Si Si3 0.372169 0.570728 0.336141
Si Si4 0.801968 0.071313 0.160342
Si Si5 0.455796 0.429396 0.839138
Si Si6 0.698990 0.929156 0.862435
O O1 0.557814 0.750000 0.798341
O O2 0.581527 0.032246 0.740234
O O3 0.498077 0.969891 0.790453
O O4 0.557544 0.967681 0.998412
O O5 0.373947 0.250000 0.602659
O O6 0.414633 0.022500 0.741010
O O7 0.376360 0.968811 0.501483
O O8 0.327686 0.032125 0.725278
O O9 0.361290 0.750000 0.317474
O O10 0.331413 0.473919 0.270871
O O11 0.750000 0.036281 0.183012
O O12 0.813704 0.250000 0.184855
O O13 0.816390 0.025455 0.000475
O O14 0.468512 0.250000 0.823481
O O15 0.750000 0.966480 0.820847
O O16 0.692328 0.750000 0.899673
#
# Coordination Sequence:
#
# PCOD8244578 Si02
#       6
#     8   8   8   8   8   8
#     4  10  20  37  62  88 114 146 188 236 286 344
#     4  11  23  39  59  83 116 156 196 238 285 341
#     4  12  25  39  57  83 118 155 192 238 291 345
#     4  10  21  38  61  89 119 151 190 236 285 338
#     4   9  20  38  60  86 113 145 188 236 285 338
#     4  10  21  39  63  88 114 148 192 238 284 339
#
# _framework density 19.792293000000001
#
# number of rings (size 3 to 8) (size 9 to 14) (size 15 to 20)
#    0.000    1.667    0.000    4.500    0.000    6.667 
#    0.000    0.000    0.000    0.000    0.000    0.000 
#    0.000    0.000    0.000    0.000    0.000    0.000 
#
# Total GULP energy -595546.947548 kJ/mol
# GULP energy per Si atom -12407.228074 kJ/mol
# Density = 1.974725 g / cm^3
# Si number density = 19.792293 Si / 1000 Ang^3
#
#
#
# Elastic Constant Matrix: (Units=GPa)
#
#
# Indices 1 2 3 4 5 6 
#
# 1 97.9026 31.0631 56.9314 0.0000 0.0000 0.0000
# 2 31.0631 55.4892 19.7301 0.0000 0.0000 0.0000
# 3 56.9314 19.7301 100.0992 0.0000 0.0000 0.0000
# 4 0.0000 0.0000 0.0000 33.5719 0.0000 0.0000
# 5 0.0000 0.0000 0.0000 0.0000 8.5766 0.0000
# 6 0.0000 0.0000 0.0000 0.0000 0.0000 36.2946
#
#
#
# Elastic Compliance Matrix: (Units=1/GPa)
#
#
# Indices 1 2 3 4 5 6 
#
# 1 0.017273 -0.006642 -0.008515 0.000000 0.000000 0.000000
# 2 -0.006642 0.021934 -0.000546 0.000000 0.000000 0.000000
# 3 -0.008515 -0.000546 0.014941 0.000000 0.000000 0.000000
# 4 0.000000 0.000000 0.000000 0.029787 0.000000 0.000000
# 5 0.000000 0.000000 0.000000 0.000000 0.116597 0.000000
# 6 0.000000 0.000000 0.000000 0.000000 0.000000 0.027552
#
#
# Mechanical properties :
#
#
# Convention : Reuss Voigt Hill
#
# Bulk Modulus (GPa) = 43.97089 52.10448 48.03768
# Shear Modulus (GPa) = 18.72175 25.40638 22.06406
#
# Velocity S-wave (km/s) = 3.07890 3.58669 3.34246
# Velocity P-wave (km/s) = 5.90795 6.59813 6.26256
#
# Compressibility (1/GPa) = 0.02274232
#
# Stress axis : x y z
#
# Youngs Moduli (GPa) = 57.89331 45.59183 66.93215
#
# Poissons Ratio (x) = 0.30282 0.56992
# Poissons Ratio (y) = 0.38453 0.03652
# Poissons Ratio (z) = 0.49296 0.02488
#
# Static dielectric constant tensor:
#      x y z
#    x 3.638980 0.000000 0.000000 
#    y 0.000000 3.611740 0.000000 
#    z 0.000000 0.000000 3.533760 
# 
# 
# High freq. dielectric constant tensor:
#      x y z
#    x 1.781190 0.000000 0.000000 
#    y 0.000000 1.780550 0.000000 
#    z 0.000000 0.000000 1.767410 
# 
# From -- ./inp_files/6188.got.cif
#   From: 2010.03.12/outbox.cif.g09.slc.cpg/sg59_4_cif.got.tgz:6188.got - 2010.04.16 16:29:54.
