data_PCOD8244391
_publ_section_title
;
Structure prediction by ZEFSAII (Michael W. Deem and Ramdas Pophale) SiO2 
 PCOD8244391
Probable space group: P M M N
;
_chemical_formula_sum "Si O2"
_cell_formula_units_Z 40
_cell_length_a 18.626588
_cell_length_b 8.452448
_cell_length_c 12.482766
_cell_angle_alpha 90.000000
_cell_angle_beta 90.000000
_cell_angle_gamma 90.000000
_cell_volume 1965.290006
_symmetry_space_group_name_H-M "P M M N"
_symmetry_group_IT_number 59
_space_group.IT_coordinate_system_code '2'
_symmetry_cell_setting 'orthorhombic'
loop_
_space_group_symop_operation_xyz
x,y,z
1/2-x,1/2-y,z
1/2+x,-y,-z
-x,1/2+y,-z
-x,-y,-z
1/2+x,1/2+y,-z
1/2-x,y,z
x,1/2-y,z
loop_
_atom_site_type_symbol
_atom_site_label
_atom_site_fract_x
_atom_site_fract_y
_atom_site_fract_z
Si Si1 0.666803 0.433654 0.523356
Si Si2 0.071056 0.063447 0.053398
Si Si3 0.574517 0.935760 0.705141
Si Si4 0.077817 0.434737 0.667610
Si Si5 0.829689 0.562129 0.133504
O O1 0.750000 0.481561 0.521506
O O2 0.655855 0.250000 0.496414
O O3 0.635419 0.472087 0.640006
O O4 0.625408 0.539182 0.437102
O O5 0.065151 0.250000 0.057113
O O6 0.079710 0.997791 0.173550
O O7 0.138231 0.008352 0.980839
O O8 0.000000 0.000000 0.000000
O O9 0.589979 0.750000 0.698793
O O10 0.496260 0.970722 0.656272
O O11 0.060372 0.250000 0.680073
O O12 0.120695 0.502345 0.770431
O O13 0.750000 0.489114 0.144392
O O14 0.826050 0.750000 0.141574
#
# Coordination Sequence:
#
# PCOD8244391 Si02
#       5
#     8   8   8   8   8
#     4  11  25  43  61  84 119 158 197 247 303 358
#     4  10  20  36  59  86 118 155 194 241 289 345
#     4  11  23  38  61  90 120 158 202 246 293 352
#     4  11  21  37  63  89 118 156 198 248 297 354
#     4   9  18  33  56  87 118 151 192 239 294 349
#
# _framework density 20.35323
#
# number of rings (size 3 to 8) (size 9 to 14) (size 15 to 20)
#    0.000    1.600    2.000    3.000    0.000    4.000 
#    0.000    2.000    0.000    1.800    0.000    0.000 
#    0.000    0.000    0.000    0.000    0.000    0.000 
#
# Total GULP energy -496164.326410 kJ/mol
# GULP energy per Si atom -12404.108160 kJ/mol
# Density = 2.030690 g / cm^3
# Si number density = 20.353230 Si / 1000 Ang^3
#
#
#
# Elastic Constant Matrix: (Units=GPa)
#
#
# Indices 1 2 3 4 5 6 
#
# 1 83.5929 10.6232 29.2357 0.0000 0.0000 0.0000
# 2 10.6232 28.4548 9.2728 0.0000 0.0000 0.0000
# 3 29.2357 9.2728 130.6420 0.0000 0.0000 0.0000
# 4 0.0000 0.0000 0.0000 20.1745 0.0000 0.0000
# 5 0.0000 0.0000 0.0000 0.0000 38.5945 0.0000
# 6 0.0000 0.0000 0.0000 0.0000 0.0000 20.2810
#
#
#
# Elastic Compliance Matrix: (Units=1/GPa)
#
#
# Indices 1 2 3 4 5 6 
#
# 1 0.013437 -0.004132 -0.002714 0.000000 0.000000 0.000000
# 2 -0.004132 0.037246 -0.001719 0.000000 0.000000 0.000000
# 3 -0.002714 -0.001719 0.008384 0.000000 0.000000 0.000000
# 4 0.000000 0.000000 0.000000 0.049568 0.000000 0.000000
# 5 0.000000 0.000000 0.000000 0.000000 0.025910 0.000000
# 6 0.000000 0.000000 0.000000 0.000000 0.000000 0.049307
#
#
# Mechanical properties :
#
#
# Convention : Reuss Voigt Hill
#
# Bulk Modulus (GPa) = 23.84505 37.88368 30.86437
# Shear Modulus (GPa) = 23.26003 28.71386 25.98694
#
# Velocity S-wave (km/s) = 3.38423 3.76011 3.57711
# Velocity P-wave (km/s) = 5.19728 6.12411 5.67963
#
# Compressibility (1/GPa) = 0.04193742
#
# Stress axis : x y z
#
# Youngs Moduli (GPa) = 74.42166 26.84826 119.27763
#
# Poissons Ratio (x) = 0.11094 0.32368
# Poissons Ratio (y) = 0.30752 0.20504
# Poissons Ratio (z) = 0.20196 0.04615
#
# Static dielectric constant tensor:
#      x y z
#    x 3.811660 0.000000 0.000000 
#    y 0.000000 3.410060 0.000000 
#    z 0.000000 0.000000 3.964260 
# 
# 
# High freq. dielectric constant tensor:
#      x y z
#    x 1.800650 0.000000 0.000000 
#    y 0.000000 1.775020 0.000000 
#    z 0.000000 0.000000 1.810030 
# 
# From -- ./inp_files/13849.got.cif
#   From: 2010.03.12/outbox.cif.g09.slc.cpg/sg59_7_cif.got.tgz:13849.got - 2010.04.16 16:29:54.
