data_PCOD8244801
_publ_section_title
;
Structure prediction by ZEFSAII (Michael W. Deem and Ramdas Pophale) SiO2 
 PCOD8244801
Probable space group: P M M N
;
_chemical_formula_sum "Si O2"
_cell_formula_units_Z 48
_cell_length_a 8.749490
_cell_length_b 23.289669
_cell_length_c 12.655547
_cell_angle_alpha 90.000000
_cell_angle_beta 90.000000
_cell_angle_gamma 90.000000
_cell_volume 2578.855311
_symmetry_space_group_name_H-M "P M M N"
_symmetry_group_IT_number 59
_space_group.IT_coordinate_system_code '2'
_symmetry_cell_setting 'orthorhombic'
loop_
_space_group_symop_operation_xyz
x,y,z
1/2-x,1/2-y,z
1/2+x,-y,-z
-x,1/2+y,-z
-x,-y,-z
1/2+x,1/2+y,-z
1/2-x,y,z
x,1/2-y,z
loop_
_atom_site_type_symbol
_atom_site_label
_atom_site_fract_x
_atom_site_fract_y
_atom_site_fract_z
Si Si1 0.068998 0.813517 0.883171
Si Si2 0.073012 0.683086 0.120753
Si Si3 0.925534 0.617516 0.307176
Si Si4 0.929225 0.496508 0.615603
Si Si5 0.570060 0.390823 0.306145
Si Si6 0.926082 0.683961 0.516794
O O1 0.250000 0.809621 0.873762
O O2 0.000707 0.750000 0.859398
O O3 0.004918 0.858553 0.797749
O O4 0.024465 0.833180 0.001189
O O5 0.250000 0.668529 0.141359
O O6 0.041776 0.750000 0.141586
O O7 0.968090 0.645085 0.195711
O O8 0.750000 0.597676 0.305321
O O9 0.954912 0.664965 0.396795
O O10 0.029756 0.562470 0.327378
O O11 0.750000 0.502018 0.601969
O O12 0.000000 0.500000 0.500000
O O13 0.988505 0.548004 0.688626
O O14 0.750000 0.400871 0.299607
O O15 0.534233 0.353254 0.408938
O O16 0.750000 0.674070 0.549224
O O17 0.974094 0.750000 0.527317
#
# Coordination Sequence:
#
# PCOD8244801 Si02
#       6
#     8   8   8   8   8   8
#     4   8  16  33  57  85 116 149 186 230 278 329
#     4   9  18  35  59  85 115 151 189 230 278 332
#     4  11  22  37  57  82 113 149 189 234 282 332
#     4  12  24  40  59  81 110 149 191 232 282 338
#     4  11  21  35  58  85 112 147 190 233 280 337
#     4  10  21  35  52  78 114 149 180 226 284 335
#
# _framework density 18.612908000000001
#
# number of rings (size 3 to 8) (size 9 to 14) (size 15 to 20)
#    0.000    1.833    1.667    4.500    0.000    2.667 
#    0.000    2.500    0.000    2.000    0.000    0.000 
#    0.000    0.000    0.000    0.000    0.000    0.000 
#
# Total GULP energy -595336.021679 kJ/mol
# GULP energy per Si atom -12402.833785 kJ/mol
# Density = 1.857054 g / cm^3
# Si number density = 18.612908 Si / 1000 Ang^3
#
#
#
# Elastic Constant Matrix: (Units=GPa)
#
#
# Indices 1 2 3 4 5 6 
#
# 1 77.6012 32.3226 31.0688 0.0000 0.0000 0.0000
# 2 32.3226 92.1994 38.7402 0.0000 0.0000 0.0000
# 3 31.0688 38.7402 112.1394 0.0000 0.0000 0.0000
# 4 0.0000 0.0000 0.0000 27.0654 0.0000 0.0000
# 5 0.0000 0.0000 0.0000 0.0000 21.1069 0.0000
# 6 0.0000 0.0000 0.0000 0.0000 0.0000 30.8007
#
#
#
# Elastic Compliance Matrix: (Units=1/GPa)
#
#
# Indices 1 2 3 4 5 6 
#
# 1 0.015853 -0.004342 -0.002892 0.000000 0.000000 0.000000
# 2 -0.004342 0.013877 -0.003591 0.000000 0.000000 0.000000
# 3 -0.002892 -0.003591 0.010959 0.000000 0.000000 0.000000
# 4 0.000000 0.000000 0.000000 0.036947 0.000000 0.000000
# 5 0.000000 0.000000 0.000000 0.000000 0.047378 0.000000
# 6 0.000000 0.000000 0.000000 0.000000 0.000000 0.032467
#
#
# Mechanical properties :
#
#
# Convention : Reuss Voigt Hill
#
# Bulk Modulus (GPa) = 52.52484 54.02259 53.27371
# Shear Modulus (GPa) = 26.95726 27.78183 27.36954
#
# Velocity S-wave (km/s) = 3.80980 3.86762 3.83882
# Velocity P-wave (km/s) = 6.90171 7.00228 6.95218
#
# Compressibility (1/GPa) = 0.01903861
#
# Stress axis : x y z
#
# Youngs Moduli (GPa) = 63.07957 72.06023 91.24684
#
# Poissons Ratio (x) = 0.31292 0.26388
# Poissons Ratio (y) = 0.27392 0.32767
# Poissons Ratio (z) = 0.18243 0.25877
#
# Static dielectric constant tensor:
#      x y z
#    x 3.298520 0.000000 0.000000 
#    y 0.000000 3.689310 0.000000 
#    z 0.000000 0.000000 3.508870 
# 
# 
# High freq. dielectric constant tensor:
#      x y z
#    x 1.712190 0.000000 0.000000 
#    y 0.000000 1.725800 0.000000 
#    z 0.000000 0.000000 1.723280 
# 
# From -- ./inp_files/14325.got.cif
#   From: 2010.03.12/outbox.cif.g09.slc.cpg/sg59_8_cif.got.tgz:14325.got - 2010.04.16 16:29:54.
