data_PCOD8244291
_publ_section_title
;
Structure prediction by ZEFSAII (Michael W. Deem and Ramdas Pophale) SiO2 
 PCOD8244291
Probable space group: P M M N
;
_chemical_formula_sum "Si O2"
_cell_formula_units_Z 48
_cell_length_a 18.105044
_cell_length_b 8.692691
_cell_length_c 15.822131
_cell_angle_alpha 90.000000
_cell_angle_beta 90.000000
_cell_angle_gamma 90.000000
_cell_volume 2490.111549
_symmetry_space_group_name_H-M "P M M N"
_symmetry_group_IT_number 59
_space_group.IT_coordinate_system_code '2'
_symmetry_cell_setting 'orthorhombic'
loop_
_space_group_symop_operation_xyz
x,y,z
1/2-x,1/2-y,z
1/2+x,-y,-z
-x,1/2+y,-z
-x,-y,-z
1/2+x,1/2+y,-z
1/2-x,y,z
x,1/2-y,z
loop_
_atom_site_type_symbol
_atom_site_label
_atom_site_fract_x
_atom_site_fract_y
_atom_site_fract_z
Si Si1 0.250000 0.071052 0.714236
Si Si2 0.602359 0.073248 0.014482
Si Si3 0.167133 0.567536 0.430425
Si Si4 0.250000 0.574500 0.890080
Si Si5 0.033064 0.568889 0.316591
Si Si6 0.470431 0.071446 0.134638
Si Si7 0.116348 0.932323 0.613627
O O1 0.250000 0.250000 0.693029
O O2 0.250000 0.044917 0.814081
O O3 0.175934 0.995703 0.678890
O O4 0.588683 0.250000 0.989319
O O5 0.682204 0.041094 0.049665
O O6 0.546006 0.023778 0.088210
O O7 0.594987 0.970639 0.930228
O O8 0.250000 0.501757 0.412842
O O9 0.170889 0.750000 0.432098
O O10 0.109741 0.510964 0.359016
O O11 0.137906 0.507225 0.520715
O O12 0.250000 0.750000 0.855341
O O13 0.023342 0.750000 0.327939
O O14 0.036508 0.527874 0.218636
O O15 0.965016 0.488671 0.363173
O O16 0.467942 0.250000 0.159294
O O17 0.117710 0.750000 0.619078
#
# Coordination Sequence:
#
# PCOD8244291 Si02
#       7
#     4   8   8   4   8   8   8
#     4  12  24  36  56  89 124 153 192 243 294 343
#     4   9  19  36  58  81 108 146 190 235 283 340
#     4   9  19  38  61  84 113 155 198 239 289 343
#     4  10  20  36  58  85 114 149 190 231 288 353
#     4  11  22  36  59  89 118 149 197 247 287 343
#     4  10  20  36  57  81 113 151 190 232 287 345
#     4  11  21  38  62  84 116 156 196 239 294 351
#
# _framework density 19.276243999999998
#
# number of rings (size 3 to 8) (size 9 to 14) (size 15 to 20)
#    0.000    1.833    0.833    3.750    0.000    2.667 
#    1.500    2.500    0.000    0.000    0.000    0.000 
#    0.000    0.000    0.000    0.000    0.000    0.000 
#
# Total GULP energy -595303.916629 kJ/mol
# GULP energy per Si atom -12402.164930 kJ/mol
# Density = 1.923237 g / cm^3
# Si number density = 19.276244 Si / 1000 Ang^3
#
#
#
# Elastic Constant Matrix: (Units=GPa)
#
#
# Indices 1 2 3 4 5 6 
#
# 1 158.8097 36.1043 78.3131 0.0000 0.0000 0.0000
# 2 36.1043 62.4372 26.1400 0.0000 0.0000 0.0000
# 3 78.3131 26.1400 104.5734 0.0000 0.0000 0.0000
# 4 0.0000 0.0000 0.0000 26.2707 0.0000 0.0000
# 5 0.0000 0.0000 0.0000 0.0000 30.4149 0.0000
# 6 0.0000 0.0000 0.0000 0.0000 0.0000 17.5627
#
#
#
# Elastic Compliance Matrix: (Units=1/GPa)
#
#
# Indices 1 2 3 4 5 6 
#
# 1 0.010496 -0.003103 -0.007084 0.000000 0.000000 0.000000
# 2 -0.003103 0.018806 -0.002377 0.000000 0.000000 0.000000
# 3 -0.007084 -0.002377 0.015462 0.000000 0.000000 0.000000
# 4 0.000000 0.000000 0.000000 0.038065 0.000000 0.000000
# 5 0.000000 0.000000 0.000000 0.000000 0.032879 0.000000
# 6 0.000000 0.000000 0.000000 0.000000 0.000000 0.056939
#
#
# Mechanical properties :
#
#
# Convention : Reuss Voigt Hill
#
# Bulk Modulus (GPa) = 50.93037 67.43720 59.18379
# Shear Modulus (GPa) = 24.47137 27.20052 25.83595
#
# Velocity S-wave (km/s) = 3.56688 3.76052 3.66498
# Velocity P-wave (km/s) = 6.59107 7.34275 6.97704
#
# Compressibility (1/GPa) = 0.01963465
#
# Stress axis : x y z
#
# Youngs Moduli (GPa) = 95.27555 53.17553 64.67381
#
# Poissons Ratio (x) = 0.16502 0.45818
# Poissons Ratio (y) = 0.29566 0.15372
# Poissons Ratio (z) = 0.67498 0.12639
#
# Static dielectric constant tensor:
#      x y z
#    x 3.641490 0.000000 0.000000 
#    y 0.000000 3.426230 0.000000 
#    z 0.000000 0.000000 3.552680 
# 
# 
# High freq. dielectric constant tensor:
#      x y z
#    x 1.758710 0.000000 0.000000 
#    y 0.000000 1.738630 0.000000 
#    z 0.000000 0.000000 1.755160 
# 
# From -- ./inp_files/23683.got.cif
#   From: 2010.03.12/outbox.cif.g09.slc.cpg/sg59_12_cif.got.tgz:23683.got - 2010.04.16 16:29:54.
