data_PCOD8244957
_publ_section_title
;
Structure prediction by ZEFSAII (Michael W. Deem and Ramdas Pophale) SiO2 
 PCOD8244957
Probable space group: P M M N
;
_chemical_formula_sum "Si O2"
_cell_formula_units_Z 40
_cell_length_a 9.071721
_cell_length_b 9.309394
_cell_length_c 25.209063
_cell_angle_alpha 90.000000
_cell_angle_beta 90.000000
_cell_angle_gamma 90.000000
_cell_volume 2128.961462
_symmetry_space_group_name_H-M "P M M N"
_symmetry_group_IT_number 59
_space_group.IT_coordinate_system_code '2'
_symmetry_cell_setting 'orthorhombic'
loop_
_space_group_symop_operation_xyz
x,y,z
1/2-x,1/2-y,z
1/2+x,-y,-z
-x,1/2+y,-z
-x,-y,-z
1/2+x,1/2+y,-z
1/2-x,y,z
x,1/2-y,z
loop_
_atom_site_type_symbol
_atom_site_label
_atom_site_fract_x
_atom_site_fract_y
_atom_site_fract_z
Si Si1 0.079270 0.914906 0.136675
Si Si2 0.580161 0.416814 0.347106
Si Si3 0.923417 0.083401 0.047401
Si Si4 0.421110 0.081798 0.453024
Si Si5 0.583619 0.416881 0.741108
O O1 0.250000 0.945496 0.123885
O O2 0.041831 0.750000 0.122527
O O3 0.044156 0.946565 0.197884
O O4 0.977541 0.020445 0.103139
O O5 0.750000 0.450516 0.358581
O O6 0.551130 0.250000 0.337211
O O7 0.487734 0.472400 0.397432
O O8 0.530996 0.497672 0.294417
O O9 0.750000 0.061343 0.042582
O O10 0.967210 0.250000 0.044227
O O11 0.000000 0.000000 0.000000
O O12 0.250000 0.042802 0.453554
O O13 0.450301 0.250000 0.460648
O O14 0.500000 0.000000 0.500000
O O15 0.750000 0.469074 0.729116
O O16 0.568425 0.250000 0.727935
#
# Coordination Sequence:
#
# PCOD8244957 Si02
#       5
#     8   8   8   8   8
#     4   9  19  37  59  82 109 141 179 222 266 315
#     4  10  21  36  54  78 109 143 179 221 267 315
#     4  11  24  39  56  81 111 142 179 222 267 318
#     4  10  21  37  57  80 106 139 179 221 268 322
#     4   9  19  36  57  81 109 142 180 221 265 314
#
# _framework density 18.788504
#
# number of rings (size 3 to 8) (size 9 to 14) (size 15 to 20)
#    0.000    2.200    0.000    3.600    0.000    9.600 
#    0.000    6.000    0.000    0.000    0.000    0.000 
#    0.000    0.000    0.000    0.000    0.000    0.000 
#
# Total GULP energy -496159.058158 kJ/mol
# GULP energy per Si atom -12403.976454 kJ/mol
# Density = 1.874574 g / cm^3
# Si number density = 18.788504 Si / 1000 Ang^3
#
#
#
# Elastic Constant Matrix: (Units=GPa)
#
#
# Indices 1 2 3 4 5 6 
#
# 1 106.5288 67.2713 71.9502 0.0000 0.0000 0.0000
# 2 67.2713 90.9012 71.6643 0.0000 0.0000 0.0000
# 3 71.9502 71.6643 127.0644 0.0000 0.0000 0.0000
# 4 0.0000 0.0000 0.0000 40.1424 0.0000 0.0000
# 5 0.0000 0.0000 0.0000 0.0000 42.1705 0.0000
# 6 0.0000 0.0000 0.0000 0.0000 0.0000 34.9407
#
#
#
# Elastic Compliance Matrix: (Units=1/GPa)
#
#
# Indices 1 2 3 4 5 6 
#
# 1 0.019352 -0.010232 -0.005187 0.000000 0.000000 0.000000
# 2 -0.010232 0.025219 -0.008430 0.000000 0.000000 0.000000
# 3 -0.005187 -0.008430 0.015562 0.000000 0.000000 0.000000
# 4 0.000000 0.000000 0.000000 0.024911 0.000000 0.000000
# 5 0.000000 0.000000 0.000000 0.000000 0.023713 0.000000
# 6 0.000000 0.000000 0.000000 0.000000 0.000000 0.028620
#
#
# Mechanical properties :
#
#
# Convention : Reuss Voigt Hill
#
# Bulk Modulus (GPa) = 80.41910 82.91841 81.66876
# Shear Modulus (GPa) = 26.42446 31.02464 28.72455
#
# Velocity S-wave (km/s) = 3.75429 4.06797 3.91428
# Velocity P-wave (km/s) = 7.85418 8.14204 7.99941
#
# Compressibility (1/GPa) = 0.01243486
#
# Stress axis : x y z
#
# Youngs Moduli (GPa) = 51.67463 39.65325 64.26094
#
# Poissons Ratio (x) = 0.40572 0.33334
# Poissons Ratio (y) = 0.52872 0.54169
# Poissons Ratio (z) = 0.26805 0.33426
#
# Static dielectric constant tensor:
#      x y z
#    x 3.854910 0.000000 0.000000 
#    y 0.000000 3.390580 0.000000 
#    z 0.000000 0.000000 3.511090 
# 
# 
# High freq. dielectric constant tensor:
#      x y z
#    x 1.736170 0.000000 0.000000 
#    y 0.000000 1.725500 0.000000 
#    z 0.000000 0.000000 1.741880 
# 
# From -- ./inp_files/31112.got.cif
#   From: 2010.03.12/outbox.cif.g09.slc.cpg/sg59_16_cif.got.tgz:31112.got - 2010.04.16 16:29:54.
