data_PCOD8244602
_publ_section_title
;
Structure prediction by ZEFSAII (Michael W. Deem and Ramdas Pophale) SiO2 
 PCOD8244602
Probable space group: P M M N
;
_chemical_formula_sum "Si O2"
_cell_formula_units_Z 64
_cell_length_a 24.517045
_cell_length_b 26.301878
_cell_length_c 5.319270
_cell_angle_alpha 90.000000
_cell_angle_beta 90.000000
_cell_angle_gamma 90.000000
_cell_volume 3430.101081
_symmetry_space_group_name_H-M "P M M N"
_symmetry_group_IT_number 59
_space_group.IT_coordinate_system_code '2'
_symmetry_cell_setting 'orthorhombic'
loop_
_space_group_symop_operation_xyz
x,y,z
1/2-x,1/2-y,z
1/2+x,-y,-z
-x,1/2+y,-z
-x,-y,-z
1/2+x,1/2+y,-z
1/2-x,y,z
x,1/2-y,z
loop_
_atom_site_type_symbol
_atom_site_label
_atom_site_fract_x
_atom_site_fract_y
_atom_site_fract_z
Si Si1 0.596711 0.894918 0.760484
Si Si2 0.380549 0.192202 0.596031
Si Si3 0.871722 0.428684 0.199262
Si Si4 0.497763 0.692215 0.300770
Si Si5 0.310418 0.113331 0.860483
Si Si6 0.350084 0.027880 0.554275
Si Si7 0.686977 0.067753 0.688882
Si Si8 0.979403 0.133310 0.182068
O O1 0.610021 0.838278 0.661133
O O2 0.598879 0.938957 0.548700
O O3 0.536207 0.895823 0.874871
O O4 0.644814 0.908751 0.950742
O O5 0.364590 0.250000 0.529704
O O6 0.437141 0.189423 0.751593
O O7 0.331286 0.167107 0.751438
O O8 0.872994 0.490201 0.227823
O O9 0.840067 0.405123 0.443013
O O10 0.932980 0.408845 0.192620
O O11 0.841132 0.412785 0.943955
O O12 0.478645 0.750000 0.338606
O O13 0.481203 0.662397 0.552654
O O14 0.467807 0.670521 0.053330
O O15 0.250000 0.121983 0.976656
O O16 0.305880 0.068917 0.651837
O O17 0.320826 0.993405 0.340064
O O18 0.750000 0.082507 0.702292
#
# Coordination Sequence:
#
# PCOD8244602 Si02
#       8
#     8   8   8   8   8   8   8   8
#     4  10  21  36  54  79 110 154 196 240 310 351
#     4   9  20  37  54  76 106 145 196 248 303 353
#     4  10  22  36  57  88 117 156 190 247 286 339
#     4  10  20  37  63  86 114 155 192 236 295 351
#     4  11  21  36  54  78 108 148 203 253 296 350
#     4   9  22  36  54  82 106 156 197 240 297 340
#     4  10  20  38  58  82 115 154 195 234 281 333
#     4  11  21  38  59  87 125 147 193 243 289 359
#
# _framework density 18.658342000000001
#
# number of rings (size 3 to 8) (size 9 to 14) (size 15 to 20)
#    0.750    1.250    1.250    2.625    0.000    5.250 
#    0.000    1.250    0.000    0.000    0.000    0.000 
#    0.000   35.000    0.000    0.000    0.000    0.000 
#
# Total GULP energy -793117.619461 kJ/mol
# GULP energy per Si atom -12392.462804 kJ/mol
# Density = 1.861588 g / cm^3
# Si number density = 18.658342 Si / 1000 Ang^3
#
#
#
# Elastic Constant Matrix: (Units=GPa)
#
#
# Indices 1 2 3 4 5 6 
#
# 1 127.9285 44.2558 46.4680 0.0000 0.0000 0.0000
# 2 44.2558 51.9464 18.7358 0.0000 0.0000 0.0000
# 3 46.4680 18.7358 112.7387 0.0000 0.0000 0.0000
# 4 0.0000 0.0000 0.0000 18.3216 0.0000 0.0000
# 5 0.0000 0.0000 0.0000 0.0000 25.2893 0.0000
# 6 0.0000 0.0000 0.0000 0.0000 0.0000 14.8320
#
#
#
# Elastic Compliance Matrix: (Units=1/GPa)
#
#
# Indices 1 2 3 4 5 6 
#
# 1 0.012278 -0.009186 -0.003534 0.000000 0.000000 0.000000
# 2 -0.009186 0.027350 -0.000759 0.000000 0.000000 0.000000
# 3 -0.003534 -0.000759 0.010453 0.000000 0.000000 0.000000
# 4 0.000000 0.000000 0.000000 0.054580 0.000000 0.000000
# 5 0.000000 0.000000 0.000000 0.000000 0.039542 0.000000
# 6 0.000000 0.000000 0.000000 0.000000 0.000000 0.067422
#
#
# Mechanical properties :
#
#
# Convention : Reuss Voigt Hill
#
# Bulk Modulus (GPa) = 43.24666 56.83696 50.04181
# Shear Modulus (GPa) = 20.30105 23.89884 22.09995
#
# Velocity S-wave (km/s) = 3.30213 3.58280 3.44532
# Velocity P-wave (km/s) = 6.14550 6.90242 6.53493
#
# Compressibility (1/GPa) = 0.02312317
#
# Stress axis : x y z
#
# Youngs Moduli (GPa) = 81.44382 36.56270 95.66676
#
# Poissons Ratio (x) = 0.33586 0.33811
# Poissons Ratio (y) = 0.74813 0.07262
# Poissons Ratio (z) = 0.28784 0.02776
#
# Static dielectric constant tensor:
#      x y z
#    x 3.195850 0.000000 0.000000 
#    y 0.000000 3.187850 0.000000 
#    z 0.000000 0.000000 3.490440 
# 
# 
# High freq. dielectric constant tensor:
#      x y z
#    x 1.703800 0.000000 0.000000 
#    y 0.000000 1.701040 0.000000 
#    z 0.000000 0.000000 1.730710 
# 
# From -- ./inp_files/3965.got.cif
#   From: 2010.03.12/outbox.cif.g09.slc.cpg/sg59_2_cif.got.tgz:3965.got - 2010.04.16 16:29:54.
