data_PCOD8244258
_publ_section_title
;
Structure prediction by ZEFSAII (Michael W. Deem and Ramdas Pophale) SiO2 
 PCOD8244258
Probable space group: P M M N
;
_chemical_formula_sum "Si O2"
_cell_formula_units_Z 64
_cell_length_a 31.096064
_cell_length_b 8.988082
_cell_length_c 12.007719
_cell_angle_alpha 90.000000
_cell_angle_beta 90.000000
_cell_angle_gamma 90.000000
_cell_volume 3356.085091
_symmetry_space_group_name_H-M "P M M N"
_symmetry_group_IT_number 59
_space_group.IT_coordinate_system_code '2'
_symmetry_cell_setting 'orthorhombic'
loop_
_space_group_symop_operation_xyz
x,y,z
1/2-x,1/2-y,z
1/2+x,-y,-z
-x,1/2+y,-z
-x,-y,-z
1/2+x,1/2+y,-z
1/2-x,y,z
x,1/2-y,z
loop_
_atom_site_type_symbol
_atom_site_label
_atom_site_fract_x
_atom_site_fract_y
_atom_site_fract_z
Si Si1 0.376268 0.922486 0.388678
Si Si2 0.200721 0.425715 0.515306
Si Si3 0.937000 0.419778 0.260114
Si Si4 0.516911 0.581614 0.891893
Si Si5 0.602881 0.079064 0.857046
Si Si6 0.953049 0.927606 0.484832
Si Si7 0.864730 0.075230 0.089945
Si Si8 0.799872 0.584827 0.233431
O O1 0.381809 0.750000 0.422614
O O2 0.370030 0.939925 0.255772
O O3 0.332367 0.985925 0.439025
O O4 0.418951 0.011636 0.425199
O O5 0.250000 0.465549 0.482285
O O6 0.193175 0.250000 0.502465
O O7 0.191630 0.476469 0.642220
O O8 0.926243 0.250000 0.296283
O O9 0.933754 0.528634 0.365062
O O10 0.903931 0.479514 0.167325
O O11 0.984227 0.428900 0.209956
O O12 0.525413 0.750000 0.927712
O O13 0.559481 0.511076 0.843036
O O14 0.500000 0.500000 0.000000
O O15 0.590240 0.250000 0.878723
O O16 0.629224 0.016448 0.963550
O O17 0.956999 0.750000 0.496140
O O18 0.000000 0.000000 0.500000
O O19 0.862449 0.250000 0.089105
O O20 0.820495 0.016795 0.139373
O O21 0.750000 0.587101 0.207381
O O22 0.819294 0.750000 0.223889
#
# Coordination Sequence:
#
# PCOD8244258 Si02
#       8
#     8   8   8   8   8   8   8   8
#     4  11  23  39  61  86 116 154 197 244 294 350
#     4   9  19  38  63  89 118 151 189 236 292 352
#     4  10  21  37  57  82 112 144 184 234 280 329
#     4  11  21  35  56  81 111 148 189 234 279 330
#     4  10  22  40  56  78 113 152 192 235 279 331
#     4  12  25  40  58  82 116 153 193 240 291 349
#     4  10  20  36  56  80 110 142 180 225 272 325
#     4   9  19  36  57  83 113 142 176 223 277 334
#
# _framework density 19.069838000000001
#
# number of rings (size 3 to 8) (size 9 to 14) (size 15 to 20)
#    0.000    1.750    1.250    4.125    0.000    8.000 
#    0.000    1.875    0.000    3.750    0.000    0.000 
#    0.000    0.000    0.000    0.000    0.000    0.000 
#
# Total GULP energy -793651.884332 kJ/mol
# GULP energy per Si atom -12400.810693 kJ/mol
# Density = 1.902643 g / cm^3
# Si number density = 19.069838 Si / 1000 Ang^3
#
#
#
# Elastic Constant Matrix: (Units=GPa)
#
#
# Indices 1 2 3 4 5 6 
#
# 1 97.8217 42.9696 55.7605 0.0000 0.0000 0.0000
# 2 42.9696 83.3041 50.2033 0.0000 0.0000 0.0000
# 3 55.7605 50.2033 127.3671 0.0000 0.0000 0.0000
# 4 0.0000 0.0000 0.0000 28.4358 0.0000 0.0000
# 5 0.0000 0.0000 0.0000 0.0000 28.9293 0.0000
# 6 0.0000 0.0000 0.0000 0.0000 0.0000 36.0848
#
#
#
# Elastic Compliance Matrix: (Units=1/GPa)
#
#
# Indices 1 2 3 4 5 6 
#
# 1 0.015044 -0.004972 -0.004626 0.000000 0.000000 0.000000
# 2 -0.004972 0.017387 -0.004677 0.000000 0.000000 0.000000
# 3 -0.004626 -0.004677 0.011720 0.000000 0.000000 0.000000
# 4 0.000000 0.000000 0.000000 0.035167 0.000000 0.000000
# 5 0.000000 0.000000 0.000000 0.000000 0.034567 0.000000
# 6 0.000000 0.000000 0.000000 0.000000 0.000000 0.027713
#
#
# Mechanical properties :
#
#
# Convention : Reuss Voigt Hill
#
# Bulk Modulus (GPa) = 64.09731 67.37329 65.73530
# Shear Modulus (GPa) = 28.51477 29.32727 28.92102
#
# Velocity S-wave (km/s) = 3.87108 3.92585 3.89856
# Velocity P-wave (km/s) = 7.32565 7.48038 7.40342
#
# Compressibility (1/GPa) = 0.01560128
#
# Stress axis : x y z
#
# Youngs Moduli (GPa) = 66.47291 57.51371 85.32319
#
# Poissons Ratio (x) = 0.28594 0.39474
# Poissons Ratio (y) = 0.33048 0.39904
# Poissons Ratio (z) = 0.30753 0.26898
#
# Static dielectric constant tensor:
#      x y z
#    x 3.856420 0.000000 0.000000 
#    y 0.000000 3.722310 0.000000 
#    z 0.000000 0.000000 3.635540 
# 
# 
# High freq. dielectric constant tensor:
#      x y z
#    x 1.736280 0.000000 0.000000 
#    y 0.000000 1.740400 0.000000 
#    z 0.000000 0.000000 1.747700 
# 
# From -- ./inp_files/19226.got.cif
#   From: 2010.03.12/outbox.cif.g09.slc.cpg/sg59_10_cif.got.tgz:19226.got - 2010.04.16 16:29:54.
