data_PCOD8244194
_publ_section_title
;
Structure prediction by ZEFSAII (Michael W. Deem and Ramdas Pophale) SiO2 
 PCOD8244194
Probable space group: P M M N
;
_chemical_formula_sum "Si O2"
_cell_formula_units_Z 64
_cell_length_a 8.789777
_cell_length_b 23.549623
_cell_length_c 15.313437
_cell_angle_alpha 90.000000
_cell_angle_beta 90.000000
_cell_angle_gamma 90.000000
_cell_volume 3169.819204
_symmetry_space_group_name_H-M "P M M N"
_symmetry_group_IT_number 59
_space_group.IT_coordinate_system_code '2'
_symmetry_cell_setting 'orthorhombic'
loop_
_space_group_symop_operation_xyz
x,y,z
1/2-x,1/2-y,z
1/2+x,-y,-z
-x,1/2+y,-z
-x,-y,-z
1/2+x,1/2+y,-z
1/2-x,y,z
x,1/2-y,z
loop_
_atom_site_type_symbol
_atom_site_label
_atom_site_fract_x
_atom_site_fract_y
_atom_site_fract_z
Si Si1 0.074822 0.815757 0.493064
Si Si2 0.071210 0.886548 0.156603
Si Si3 0.070603 0.125024 0.666075
Si Si4 0.426861 0.494222 0.593330
Si Si5 0.570537 0.000113 0.095296
Si Si6 0.427620 0.884413 0.662027
Si Si7 0.925364 0.684311 0.006128
Si Si8 0.426040 0.387717 0.162328
O O1 0.250000 0.830986 0.472893
O O2 0.053367 0.750000 0.515084
O O3 0.015739 0.851171 0.576275
O O4 0.974191 0.831172 0.409482
O O5 0.250000 0.896248 0.158959
O O6 0.013886 0.856404 0.245136
O O7 0.988636 0.946976 0.150111
O O8 0.031605 0.846933 0.075132
O O9 0.250000 0.127507 0.681630
O O10 0.012051 0.061908 0.641454
O O11 0.500000 0.500000 0.500000
O O12 0.250000 0.488118 0.576276
O O13 0.464355 0.548866 0.651885
O O14 0.750000 0.995293 0.086429
O O15 0.527868 0.057222 0.145066
O O16 0.500000 0.000000 0.000000
O O17 0.250000 0.872866 0.677837
O O18 0.522315 0.861695 0.744894
O O19 0.750000 0.674837 0.032848
O O20 0.969708 0.750000 0.004460
O O21 0.957820 0.659593 0.910417
O O22 0.250000 0.405407 0.164165
#
# Coordination Sequence:
#
# PCOD8244194 Si02
#       8
#     8   8   8   8   8   8   8   8
#     4  10  22  41  63  87 119 163 213 260 306 361
#     4  12  25  41  65  95 125 163 206 255 310 371
#     4  11  23  39  62  92 124 161 201 251 311 372
#     4  10  20  35  59  88 118 155 195 240 299 360
#     4  12  23  39  64  94 129 165 202 249 307 372
#     4  10  21  38  60  88 124 162 200 252 310 366
#     4  10  23  44  66  88 121 164 209 261 313 362
#     4  11  23  39  63  94 126 164 207 253 307 370
#
# _framework density 20.190425999999999
#
# number of rings (size 3 to 8) (size 9 to 14) (size 15 to 20)
#    0.000    1.250    2.500    3.750    0.000    4.500 
#    0.000    0.000    0.000    0.000    0.000    0.000 
#    0.000    0.000    0.000    0.000    0.000    0.000 
#
# Total GULP energy -794005.283309 kJ/mol
# GULP energy per Si atom -12406.332552 kJ/mol
# Density = 2.014447 g / cm^3
# Si number density = 20.190426 Si / 1000 Ang^3
#
#
#
# Elastic Constant Matrix: (Units=GPa)
#
#
# Indices 1 2 3 4 5 6 
#
# 1 105.8179 28.0665 45.7270 0.0000 0.0000 0.0000
# 2 28.0665 73.5970 3.0333 0.0000 0.0000 0.0000
# 3 45.7270 3.0333 109.7318 0.0000 0.0000 0.0000
# 4 0.0000 0.0000 0.0000 11.4375 0.0000 0.0000
# 5 0.0000 0.0000 0.0000 0.0000 32.4651 0.0000
# 6 0.0000 0.0000 0.0000 0.0000 0.0000 25.9881
#
#
#
# Elastic Compliance Matrix: (Units=1/GPa)
#
#
# Indices 1 2 3 4 5 6 
#
# 1 0.012989 -0.004736 -0.005282 0.000000 0.000000 0.000000
# 2 -0.004736 0.015330 0.001550 0.000000 0.000000 0.000000
# 3 -0.005282 0.001550 0.011271 0.000000 0.000000 0.000000
# 4 0.000000 0.000000 0.000000 0.087431 0.000000 0.000000
# 5 0.000000 0.000000 0.000000 0.000000 0.030802 0.000000
# 6 0.000000 0.000000 0.000000 0.000000 0.000000 0.038479
#
#
# Mechanical properties :
#
#
# Convention : Reuss Voigt Hill
#
# Bulk Modulus (GPa) = 44.14188 49.20006 46.67097
# Shear Modulus (GPa) = 22.64608 28.13280 25.38944
#
# Velocity S-wave (km/s) = 3.35270 3.73684 3.54997
# Velocity P-wave (km/s) = 6.07435 6.56045 6.32207
#
# Compressibility (1/GPa) = 0.02265422
#
# Stress axis : x y z
#
# Youngs Moduli (GPa) = 76.99068 65.23342 88.72140
#
# Poissons Ratio (x) = 0.30892 0.46860
# Poissons Ratio (y) = 0.36459 -0.13749
# Poissons Ratio (z) = 0.40664 -0.10109
#
# Static dielectric constant tensor:
#      x y z
#    x 3.589270 0.000000 0.000000 
#    y 0.000000 3.695080 0.000000 
#    z 0.000000 0.000000 3.761490 
# 
# 
# High freq. dielectric constant tensor:
#      x y z
#    x 1.787260 0.000000 0.000000 
#    y 0.000000 1.783340 0.000000 
#    z 0.000000 0.000000 1.803860 
# 
# From -- ./inp_files/21519.got.cif
#   From: 2010.03.12/outbox.cif.g09.slc.cpg/sg59_11_cif.got.tgz:21519.got - 2010.04.16 16:29:54.
