data_PCOD8244611
_publ_section_title
;
Structure prediction by ZEFSAII (Michael W. Deem and Ramdas Pophale) SiO2 
 PCOD8244611
Probable space group: P M M N
;
_chemical_formula_sum "Si O2"
_cell_formula_units_Z 40
_cell_length_a 17.642510
_cell_length_b 14.440183
_cell_length_c 7.704445
_cell_angle_alpha 90.000000
_cell_angle_beta 90.000000
_cell_angle_gamma 90.000000
_cell_volume 1962.792675
_symmetry_space_group_name_H-M "P M M N"
_symmetry_group_IT_number 59
_space_group.IT_coordinate_system_code '2'
_symmetry_cell_setting 'orthorhombic'
loop_
_space_group_symop_operation_xyz
x,y,z
1/2-x,1/2-y,z
1/2+x,-y,-z
-x,1/2+y,-z
-x,-y,-z
1/2+x,1/2+y,-z
1/2-x,y,z
x,1/2-y,z
loop_
_atom_site_type_symbol
_atom_site_label
_atom_site_fract_x
_atom_site_fract_y
_atom_site_fract_z
Si Si1 0.160045 0.648931 0.492549
Si Si2 0.837722 0.858856 0.298421
Si Si3 0.839159 0.542405 0.655162
Si Si4 0.660723 0.350911 0.118757
Si Si5 0.086924 0.027088 0.002695
O O1 0.250000 0.647410 0.501768
O O2 0.132833 0.750000 0.420245
O O3 0.132513 0.563326 0.376742
O O4 0.128363 0.634241 0.687083
O O5 0.750000 0.883208 0.257196
O O6 0.852816 0.750000 0.289723
O O7 0.859145 0.894282 0.490078
O O8 0.891363 0.908887 0.159721
O O9 0.750000 0.548349 0.697295
O O10 0.887434 0.579106 0.819993
O O11 0.750000 0.356528 0.121146
O O12 0.634590 0.250000 0.048669
O O13 0.631305 0.430284 0.993978
O O14 0.000000 0.000000 0.000000
#
# Coordination Sequence:
#
# PCOD8244611 Si02
#       5
#     8   8   8   8   8
#     4   8  14  28  55  87 114 140 180 240 297 344
#     4  10  22  43  67  87 114 158 216 274 312 345
#     4  10  20  37  64  90 113 151 210 260 299 355
#     4   9  17  34  60  86 114 152 198 244 294 353
#     4  12  25  38  59  89 133 166 196 240 312 385
#
# _framework density 20.379128000000001
#
# number of rings (size 3 to 8) (size 9 to 14) (size 15 to 20)
#    0.000    2.200    2.000    3.000    0.000    3.200 
#    0.000    4.000    0.000    0.000    0.000    0.000 
#    0.000    0.000    0.000    0.000    0.000    0.000 
#
# Total GULP energy -495799.091413 kJ/mol
# GULP energy per Si atom -12394.977285 kJ/mol
# Density = 2.033274 g / cm^3
# Si number density = 20.379128 Si / 1000 Ang^3
#
#
#
# Elastic Constant Matrix: (Units=GPa)
#
#
# Indices 1 2 3 4 5 6 
#
# 1 67.2140 35.7586 60.9576 0.0000 0.0000 0.0000
# 2 35.7586 108.1483 49.8434 0.0000 0.0000 0.0000
# 3 60.9576 49.8434 136.9307 0.0000 0.0000 0.0000
# 4 0.0000 0.0000 0.0000 12.9897 0.0000 0.0000
# 5 0.0000 0.0000 0.0000 0.0000 15.7331 0.0000
# 6 0.0000 0.0000 0.0000 0.0000 0.0000 12.5078
#
#
#
# Elastic Compliance Matrix: (Units=1/GPa)
#
#
# Indices 1 2 3 4 5 6 
#
# 1 0.026294 -0.003964 -0.010262 0.000000 0.000000 0.000000
# 2 -0.003964 0.011708 -0.002497 0.000000 0.000000 0.000000
# 3 -0.010262 -0.002497 0.012780 0.000000 0.000000 0.000000
# 4 0.000000 0.000000 0.000000 0.076984 0.000000 0.000000
# 5 0.000000 0.000000 0.000000 0.000000 0.063560 0.000000
# 6 0.000000 0.000000 0.000000 0.000000 0.000000 0.079950
#
#
# Mechanical properties :
#
#
# Convention : Reuss Voigt Hill
#
# Bulk Modulus (GPa) = 57.68586 67.26804 62.47695
# Shear Modulus (GPa) = 16.10292 19.29501 17.69896
#
# Velocity S-wave (km/s) = 2.81404 3.08035 2.95020
# Velocity P-wave (km/s) = 6.23909 6.76250 6.50606
#
# Compressibility (1/GPa) = 0.01733527
#
# Stress axis : x y z
#
# Youngs Moduli (GPa) = 38.03159 85.41051 78.24495
#
# Poissons Ratio (x) = 0.33859 0.80297
# Poissons Ratio (y) = 0.15077 0.19538
# Poissons Ratio (z) = 0.39029 0.21327
#
# Static dielectric constant tensor:
#      x y z
#    x 3.178960 0.000000 0.000000 
#    y 0.000000 3.539190 0.000000 
#    z 0.000000 0.000000 9.994960 
# 
# 
# High freq. dielectric constant tensor:
#      x y z
#    x 1.747630 0.000000 0.000000 
#    y 0.000000 1.803730 0.000000 
#    z 0.000000 0.000000 1.801100 
# 
# From -- ./inp_files/8626.got.cif
#   From: 2010.03.12/outbox.cif.g09.slc.cpg/sg59_5_cif.got.tgz:8626.got - 2010.04.16 16:29:54.
