data_PCOD8244395
_publ_section_title
;
Structure prediction by ZEFSAII (Michael W. Deem and Ramdas Pophale) SiO2 
 PCOD8244395
Probable space group: P M M N
;
_chemical_formula_sum "Si O2"
_cell_formula_units_Z 48
_cell_length_a 8.587614
_cell_length_b 21.662459
_cell_length_c 12.427114
_cell_angle_alpha 90.000000
_cell_angle_beta 90.000000
_cell_angle_gamma 90.000000
_cell_volume 2311.801555
_symmetry_space_group_name_H-M "P M M N"
_symmetry_group_IT_number 59
_space_group.IT_coordinate_system_code '2'
_symmetry_cell_setting 'orthorhombic'
loop_
_space_group_symop_operation_xyz
x,y,z
1/2-x,1/2-y,z
1/2+x,-y,-z
-x,1/2+y,-z
-x,-y,-z
1/2+x,1/2+y,-z
1/2-x,y,z
x,1/2-y,z
loop_
_atom_site_type_symbol
_atom_site_label
_atom_site_fract_x
_atom_site_fract_y
_atom_site_fract_z
Si Si1 0.430232 0.181168 0.916001
Si Si2 0.925297 0.990649 0.884240
Si Si3 0.425006 0.152049 0.147966
Si Si4 0.067064 0.931026 0.485035
Si Si5 0.432609 0.086996 0.741621
Si Si6 0.567046 0.318318 0.370306
O O1 0.250000 0.162493 0.928144
O O2 0.454735 0.250000 0.873292
O O3 0.502877 0.136824 0.825875
O O4 0.503953 0.173161 0.034818
O O5 0.750000 0.018153 0.884555
O O6 0.920721 0.920806 0.849092
O O7 0.034335 0.020921 0.794001
O O8 0.000000 0.000000 0.000000
O O9 0.250000 0.179119 0.158958
O O10 0.527102 0.177631 0.244740
O O11 0.250000 0.937204 0.501472
O O12 0.996722 0.877911 0.565397
O O13 0.027395 0.905692 0.367546
O O14 0.000000 0.000000 0.500000
O O15 0.250000 0.095466 0.718140
O O16 0.750000 0.321028 0.385011
O O17 0.508321 0.250000 0.411843
#
# Coordination Sequence:
#
# PCOD8244395 Si02
#       6
#     8   8   8   8   8   8
#     4   9  18  34  55  81 116 155 192 235 289 347
#     4  11  21  35  57  87 121 157 197 242 295 356
#     4  10  20  36  59  87 118 155 199 245 293 354
#     4  11  24  43  65  89 119 159 204 256 310 365
#     4  11  22  38  59  87 120 154 194 242 297 357
#     4  10  23  42  62  87 121 161 204 254 313 369
#
# _framework density 20.763029
#
# number of rings (size 3 to 8) (size 9 to 14) (size 15 to 20)
#    0.000    1.667    1.667    3.000    0.000    7.000 
#    0.000    0.000    0.000    2.500    0.000    0.000 
#    0.000    0.000    0.000    0.000    0.000    0.000 
#
# Total GULP energy -594997.480097 kJ/mol
# GULP energy per Si atom -12395.780835 kJ/mol
# Density = 2.071577 g / cm^3
# Si number density = 20.763029 Si / 1000 Ang^3
#
#
#
# Elastic Constant Matrix: (Units=GPa)
#
#
# Indices 1 2 3 4 5 6 
#
# 1 35.2962 25.1579 12.8804 0.0000 0.0000 0.0000
# 2 25.1579 144.2363 59.5986 0.0000 0.0000 0.0000
# 3 12.8804 59.5986 136.3392 0.0000 0.0000 0.0000
# 4 0.0000 0.0000 0.0000 20.5630 0.0000 0.0000
# 5 0.0000 0.0000 0.0000 0.0000 33.6869 0.0000
# 6 0.0000 0.0000 0.0000 0.0000 0.0000 21.9585
#
#
#
# Elastic Compliance Matrix: (Units=1/GPa)
#
#
# Indices 1 2 3 4 5 6 
#
# 1 0.032412 -0.005355 -0.000721 0.000000 0.000000 0.000000
# 2 -0.005355 0.009346 -0.003580 0.000000 0.000000 0.000000
# 3 -0.000721 -0.003580 0.008968 0.000000 0.000000 0.000000
# 4 0.000000 0.000000 0.000000 0.048631 0.000000 0.000000
# 5 0.000000 0.000000 0.000000 0.000000 0.029685 0.000000
# 6 0.000000 0.000000 0.000000 0.000000 0.000000 0.045540
#
#
# Mechanical properties :
#
#
# Convention : Reuss Voigt Hill
#
# Bulk Modulus (GPa) = 31.83329 56.79392 44.31360
# Shear Modulus (GPa) = 24.46594 29.79067 27.12831
#
# Velocity S-wave (km/s) = 3.43642 3.79198 3.61857
# Velocity P-wave (km/s) = 5.57766 6.82531 6.23279
#
# Compressibility (1/GPa) = 0.03141366
#
# Stress axis : x y z
#
# Youngs Moduli (GPa) = 30.85281 106.99457 111.51326
#
# Poissons Ratio (x) = 0.57300 0.08040
# Poissons Ratio (y) = 0.16523 0.39918
# Poissons Ratio (z) = 0.02225 0.38300
#
# Static dielectric constant tensor:
#      x y z
#    x 3.622120 0.000000 0.000000 
#    y 0.000000 4.055930 0.000000 
#    z 0.000000 0.000000 3.903500 
# 
# 
# High freq. dielectric constant tensor:
#      x y z
#    x 1.785960 0.000000 0.000000 
#    y 0.000000 1.828820 0.000000 
#    z 0.000000 0.000000 1.816760 
# 
# From -- ./inp_files/14315.got.cif
#   From: 2010.03.12/outbox.cif.g09.slc.cpg/sg59_8_cif.got.tgz:14315.got - 2010.04.16 16:29:54.
