data_PCOD8244475
_publ_section_title
;
Structure prediction by ZEFSAII (Michael W. Deem and Ramdas Pophale) SiO2 
 PCOD8244475
Probable space group: P M M N
;
_chemical_formula_sum "Si O2"
_cell_formula_units_Z 48
_cell_length_a 15.558105
_cell_length_b 7.754723
_cell_length_c 18.983905
_cell_angle_alpha 90.000000
_cell_angle_beta 90.000000
_cell_angle_gamma 90.000000
_cell_volume 2290.385257
_symmetry_space_group_name_H-M "P M M N"
_symmetry_group_IT_number 59
_space_group.IT_coordinate_system_code '2'
_symmetry_cell_setting 'orthorhombic'
loop_
_space_group_symop_operation_xyz
x,y,z
1/2-x,1/2-y,z
1/2+x,-y,-z
-x,1/2+y,-z
-x,-y,-z
1/2+x,1/2+y,-z
1/2-x,y,z
x,1/2-y,z
loop_
_atom_site_type_symbol
_atom_site_label
_atom_site_fract_x
_atom_site_fract_y
_atom_site_fract_z
Si Si1 0.848873 0.547522 0.178024
Si Si2 0.750000 0.552959 0.411399
Si Si3 0.148178 0.939919 0.972012
Si Si4 0.148378 0.250000 0.224366
Si Si5 0.099851 0.952024 0.326577
Si Si6 0.147261 0.250000 0.065515
Si Si7 0.750000 0.449894 0.568551
Si Si8 0.091712 0.452073 0.673814
O O1 0.750000 0.497015 0.189673
O O2 0.860235 0.750000 0.168260
O O3 0.887558 0.461316 0.107494
O O4 0.899270 0.475265 0.246540
O O5 0.750000 0.750000 0.387950
O O6 0.750000 0.547750 0.495260
O O7 0.663556 0.465549 0.378545
O O8 0.250000 0.966214 0.968220
O O9 0.123239 0.750000 0.000147
O O10 0.109833 0.081324 0.025601
O O11 0.250000 0.250000 0.225857
O O12 0.116337 0.426598 0.259944
O O13 0.112470 0.250000 0.144971
O O14 0.111213 0.750000 0.304703
O O15 0.165417 0.003747 0.388237
O O16 0.003826 0.991298 0.355091
O O17 0.250000 0.250000 0.064930
O O18 0.750000 0.250000 0.551186
O O19 0.107771 0.250000 0.677857
#
# Coordination Sequence:
#
# PCOD8244475 Si02
#       8
#     8   4   8   4   8   4   4   8
#     4   9  14  26  52  79 113 156 198 239 292 353
#     4  10  20  36  62  94 124 157 198 240 295 365
#     4   9  16  27  45  76 114 152 190 235 298 356
#     4  11  22  38  66  91 111 151 210 252 308 351
#     4  10  22  41  63  87 120 158 202 251 299 355
#     4   9  18  32  50  82 113 143 190 255 296 346
#     4  10  22  40  60  84 120 159 196 247 306 352
#     4   9  18  35  58  90 123 158 201 246 296 355
#
# _framework density 20.957173000000001
#
# number of rings (size 3 to 8) (size 9 to 14) (size 15 to 20)
#    0.000    2.500    2.500    0.000    1.167    1.333 
#    3.000    1.667    0.000    1.000    0.000    0.000 
#    0.000    0.000    0.000    0.000    0.000    0.000 
#
# Total GULP energy -594974.618671 kJ/mol
# GULP energy per Si atom -12395.304556 kJ/mol
# Density = 2.090947 g / cm^3
# Si number density = 20.957173 Si / 1000 Ang^3
#
#
#
# Elastic Constant Matrix: (Units=GPa)
#
#
# Indices 1 2 3 4 5 6 
#
# 1 111.8736 34.6008 67.7920 0.0000 0.0000 0.0000
# 2 34.6008 81.0943 54.8806 0.0000 0.0000 0.0000
# 3 67.7920 54.8806 165.6209 0.0000 0.0000 0.0000
# 4 0.0000 0.0000 0.0000 9.1061 0.0000 0.0000
# 5 0.0000 0.0000 0.0000 0.0000 9.6821 0.0000
# 6 0.0000 0.0000 0.0000 0.0000 0.0000 9.0730
#
#
#
# Elastic Compliance Matrix: (Units=1/GPa)
#
#
# Indices 1 2 3 4 5 6 
#
# 1 0.012227 -0.002359 -0.004223 0.000000 0.000000 0.000000
# 2 -0.002359 0.016351 -0.004453 0.000000 0.000000 0.000000
# 3 -0.004223 -0.004453 0.009242 0.000000 0.000000 0.000000
# 4 0.000000 0.000000 0.000000 0.109816 0.000000 0.000000
# 5 0.000000 0.000000 0.000000 0.000000 0.103284 0.000000
# 6 0.000000 0.000000 0.000000 0.000000 0.000000 0.110217
#
#
# Mechanical properties :
#
#
# Convention : Reuss Voigt Hill
#
# Bulk Modulus (GPa) = 63.48866 74.79285 69.14075
# Shear Modulus (GPa) = 12.87143 18.99328 15.93235
#
# Velocity S-wave (km/s) = 2.48095 3.01373 2.76023
# Velocity P-wave (km/s) = 6.21024 6.91925 6.57431
#
# Compressibility (1/GPa) = 0.01575085
#
# Stress axis : x y z
#
# Youngs Moduli (GPa) = 81.78339 61.15788 108.20222
#
# Poissons Ratio (x) = 0.14427 0.45696
# Poissons Ratio (y) = 0.19293 0.48178
# Poissons Ratio (z) = 0.34539 0.27231
#
# Static dielectric constant tensor:
#      x y z
#    x 3.716770 0.000000 0.000000 
#    y 0.000000 3.628600 0.000000 
#    z 0.000000 0.000000 3.776430 
# 
# 
# High freq. dielectric constant tensor:
#      x y z
#    x 1.803180 0.000000 0.000000 
#    y 0.000000 1.809620 0.000000 
#    z 0.000000 0.000000 1.813810 
# 
# From -- ./inp_files/27516.got.cif
#   From: 2010.03.12/outbox.cif.g09.slc.cpg/sg59_14_cif.got.tgz:27516.got - 2010.04.16 16:29:54.
