data_PCOD8244548
_publ_section_title
;
Structure prediction by ZEFSAII (Michael W. Deem and Ramdas Pophale) SiO2 
 PCOD8244548
Probable space group: P M M N
;
_chemical_formula_sum "Si O2"
_cell_formula_units_Z 48
_cell_length_a 8.563007
_cell_length_b 17.808057
_cell_length_c 15.817446
_cell_angle_alpha 90.000000
_cell_angle_beta 90.000000
_cell_angle_gamma 90.000000
_cell_volume 2412.010514
_symmetry_space_group_name_H-M "P M M N"
_symmetry_group_IT_number 59
_space_group.IT_coordinate_system_code '2'
_symmetry_cell_setting 'orthorhombic'
loop_
_space_group_symop_operation_xyz
x,y,z
1/2-x,1/2-y,z
1/2+x,-y,-z
-x,1/2+y,-z
-x,-y,-z
1/2+x,1/2+y,-z
1/2-x,y,z
x,1/2-y,z
loop_
_atom_site_type_symbol
_atom_site_label
_atom_site_fract_x
_atom_site_fract_y
_atom_site_fract_z
Si Si1 0.425456 0.250000 0.890671
Si Si2 0.074042 0.886826 0.032067
Si Si3 0.431774 0.162956 0.441028
Si Si4 0.071016 0.980543 0.872032
Si Si5 0.068367 0.750000 0.288417
Si Si6 0.432755 0.546510 0.680557
Si Si7 0.433434 0.893512 0.388196
O O1 0.250000 0.250000 0.856238
O O2 0.453319 0.178794 0.949638
O O3 0.539388 0.250000 0.810872
O O4 0.250000 0.858613 0.047516
O O5 0.049839 0.910388 0.934905
O O6 0.042742 0.954064 0.097167
O O7 0.250000 0.154158 0.463252
O O8 0.476602 0.250000 0.427259
O O9 0.472246 0.116690 0.356816
O O10 0.535083 0.127308 0.515106
O O11 0.250000 0.009394 0.873720
O O12 0.019905 0.956481 0.778800
O O13 0.250000 0.750000 0.308390
O O14 0.998386 0.674433 0.330396
O O15 0.250000 0.561140 0.668577
O O16 0.476346 0.469048 0.634944
O O17 0.250000 0.906633 0.374082
#
# Coordination Sequence:
#
# PCOD8244548 Si02
#       7
#     4   8   8   8   4   8   8
#     4  12  24  36  54  85 120 155 194 237 288 347
#     4  10  20  37  61  85 117 154 192 240 293 346
#     4  11  24  42  62  85 117 156 198 245 297 346
#     4   9  20  39  61  87 115 151 195 239 290 346
#     4  10  22  38  60  89 120 155 194 243 300 351
#     4  11  23  39  61  89 119 155 198 241 290 350
#     4  11  22  39  62  89 120 153 195 242 294 351
#
# _framework density 19.900411999999999
#
# number of rings (size 3 to 8) (size 9 to 14) (size 15 to 20)
#    0.000    1.500    0.833    4.250    0.000    7.000 
#    1.500    0.000    0.000    0.000    0.000    0.000 
#    0.000    0.000    0.000    0.000    0.000    0.000 
#
# Total GULP energy -595445.709524 kJ/mol
# GULP energy per Si atom -12405.118948 kJ/mol
# Density = 1.985512 g / cm^3
# Si number density = 19.900412 Si / 1000 Ang^3
#
#
#
# Elastic Constant Matrix: (Units=GPa)
#
#
# Indices 1 2 3 4 5 6 
#
# 1 44.4192 17.6832 18.1349 0.0000 0.0000 0.0000
# 2 17.6832 101.7597 63.8927 0.0000 0.0000 0.0000
# 3 18.1349 63.8927 119.7205 0.0000 0.0000 0.0000
# 4 0.0000 0.0000 0.0000 24.8514 0.0000 0.0000
# 5 0.0000 0.0000 0.0000 0.0000 22.8802 0.0000
# 6 0.0000 0.0000 0.0000 0.0000 0.0000 27.1892
#
#
#
# Elastic Compliance Matrix: (Units=1/GPa)
#
#
# Indices 1 2 3 4 5 6 
#
# 1 0.024555 -0.002905 -0.002169 0.000000 0.000000 0.000000
# 2 -0.002905 0.015123 -0.007631 0.000000 0.000000 0.000000
# 3 -0.002169 -0.007631 0.012754 0.000000 0.000000 0.000000
# 4 0.000000 0.000000 0.000000 0.040239 0.000000 0.000000
# 5 0.000000 0.000000 0.000000 0.000000 0.043706 0.000000
# 6 0.000000 0.000000 0.000000 0.000000 0.000000 0.036779
#
#
# Mechanical properties :
#
#
# Convention : Reuss Voigt Hill
#
# Bulk Modulus (GPa) = 37.00730 51.70235 44.35482
# Shear Modulus (GPa) = 24.08782 26.06339 25.07560
#
# Velocity S-wave (km/s) = 3.48288 3.62289 3.55358
# Velocity P-wave (km/s) = 5.90005 6.59829 6.25891
#
# Compressibility (1/GPa) = 0.02702170
#
# Stress axis : x y z
#
# Youngs Moduli (GPa) = 40.72507 66.12365 78.40776
#
# Poissons Ratio (x) = 0.19209 0.17008
# Poissons Ratio (y) = 0.11831 0.59832
# Poissons Ratio (z) = 0.08834 0.50458
#
# Static dielectric constant tensor:
#      x y z
#    x 3.563440 0.000000 0.000000 
#    y 0.000000 3.711490 0.000000 
#    z 0.000000 0.000000 3.614410 
# 
# 
# High freq. dielectric constant tensor:
#      x y z
#    x 1.779150 0.000000 0.000000 
#    y 0.000000 1.778290 0.000000 
#    z 0.000000 0.000000 1.779840 
# 
# From -- ./inp_files/20522.got.cif
#   From: 2010.03.12/outbox.cif.g09.slc.cpg/sg59_11_cif.got.tgz:20522.got - 2010.04.16 16:29:54.
