data_PCOD8244106
_publ_section_title
;
Structure prediction by ZEFSAII (Michael W. Deem and Ramdas Pophale) SiO2 
 PCOD8244106
Probable space group: P M M N
;
_chemical_formula_sum "Si O2"
_cell_formula_units_Z 64
_cell_length_a 8.891457
_cell_length_b 13.994249
_cell_length_c 25.492778
_cell_angle_alpha 90.000000
_cell_angle_beta 90.000000
_cell_angle_gamma 90.000000
_cell_volume 3172.047584
_symmetry_space_group_name_H-M "P M M N"
_symmetry_group_IT_number 59
_space_group.IT_coordinate_system_code '2'
_symmetry_cell_setting 'orthorhombic'
loop_
_space_group_symop_operation_xyz
x,y,z
1/2-x,1/2-y,z
1/2+x,-y,-z
-x,1/2+y,-z
-x,-y,-z
1/2+x,1/2+y,-z
1/2-x,y,z
x,1/2-y,z
loop_
_atom_site_type_symbol
_atom_site_label
_atom_site_fract_x
_atom_site_fract_y
_atom_site_fract_z
Si Si1 0.427448 0.964542 0.879052
Si Si2 0.079798 0.636250 0.475867
Si Si3 0.923005 0.859822 0.973561
Si Si4 0.572735 0.974522 0.681179
Si Si5 0.573194 0.640780 0.579935
Si Si6 0.072933 0.140912 0.630518
Si Si7 0.575050 0.639185 0.784080
Si Si8 0.925336 0.357888 0.914945
O O1 0.250000 0.976668 0.877598
O O2 0.478126 0.921916 0.934429
O O3 0.478246 0.894304 0.833172
O O4 0.505780 0.068692 0.872354
O O5 0.250000 0.599007 0.472961
O O6 0.069580 0.750000 0.478325
O O7 0.002155 0.593894 0.528211
O O8 0.996179 0.600426 0.423664
O O9 0.750000 0.893972 0.972191
O O10 0.936018 0.750000 0.956238
O O11 0.987699 0.875532 0.031113
O O12 0.750000 0.990247 0.680224
O O13 0.517101 0.912629 0.631791
O O14 0.522305 0.920662 0.733678
O O15 0.491277 0.077393 0.678314
O O16 0.750000 0.632410 0.572502
O O17 0.522114 0.750000 0.586555
O O18 0.250000 0.131429 0.627050
O O19 0.023241 0.250000 0.640860
O O20 0.750000 0.622275 0.796712
O O21 0.542585 0.750000 0.772714
O O22 0.750000 0.378197 0.923718
O O23 0.951968 0.250000 0.894444
#
# Coordination Sequence:
#
# PCOD8244106 Si02
#       8
#     8   8   8   8   8   8   8   8
#     4  12  24  37  57  85 118 155 195 238 284 336
#     4   9  17  30  50  77 108 142 180 221 265 317
#     4  10  20  35  57  86 121 159 197 238 285 337
#     4  10  21  37  59  84 107 138 181 227 277 330
#     4   9  17  31  52  79 111 143 175 215 268 330
#     4  10  21  37  56  78 107 143 181 223 272 325
#     4  10  22  42  65  87 113 145 184 231 280 331
#     4  10  21  38  60  86 118 155 195 239 285 335
#
# _framework density 20.176241999999998
#
# number of rings (size 3 to 8) (size 9 to 14) (size 15 to 20)
#    0.000    2.000    0.000    3.750    0.000    8.500 
#    0.000    0.625    0.000    3.000    0.000    0.000 
#    0.000    0.000    0.000    0.000    0.000    0.000 
#
# Total GULP energy -793819.126940 kJ/mol
# GULP energy per Si atom -12403.423858 kJ/mol
# Density = 2.013032 g / cm^3
# Si number density = 20.176242 Si / 1000 Ang^3
#
#
#
# Elastic Constant Matrix: (Units=GPa)
#
#
# Indices 1 2 3 4 5 6 
#
# 1 77.6421 39.5110 26.7875 0.0000 0.0000 0.0000
# 2 39.5110 89.4655 35.9537 0.0000 0.0000 0.0000
# 3 26.7875 35.9537 53.2730 0.0000 0.0000 0.0000
# 4 0.0000 0.0000 0.0000 35.4898 0.0000 0.0000
# 5 0.0000 0.0000 0.0000 0.0000 27.9983 0.0000
# 6 0.0000 0.0000 0.0000 0.0000 0.0000 29.0566
#
#
#
# Elastic Compliance Matrix: (Units=1/GPa)
#
#
# Indices 1 2 3 4 5 6 
#
# 1 0.017505 -0.005754 -0.004919 0.000000 0.000000 0.000000
# 2 -0.005754 0.017229 -0.008734 0.000000 0.000000 0.000000
# 3 -0.004919 -0.008734 0.027139 0.000000 0.000000 0.000000
# 4 0.000000 0.000000 0.000000 0.028177 0.000000 0.000000
# 5 0.000000 0.000000 0.000000 0.000000 0.035716 0.000000
# 6 0.000000 0.000000 0.000000 0.000000 0.000000 0.034416
#
#
# Mechanical properties :
#
#
# Convention : Reuss Voigt Hill
#
# Bulk Modulus (GPa) = 43.36731 47.20944 45.28838
# Shear Modulus (GPa) = 24.19178 26.38417 25.28797
#
# Velocity S-wave (km/s) = 3.46645 3.62012 3.54411
# Velocity P-wave (km/s) = 6.12883 6.39711 6.26441
#
# Compressibility (1/GPa) = 0.02305884
#
# Stress axis : x y z
#
# Youngs Moduli (GPa) = 57.12742 58.04267 36.84711
#
# Poissons Ratio (x) = 0.33398 0.18124
# Poissons Ratio (y) = 0.32871 0.32183
# Poissons Ratio (z) = 0.28099 0.50696
#
# Static dielectric constant tensor:
#      x y z
#    x 3.614540 0.000000 0.000000 
#    y 0.000000 3.915320 0.000000 
#    z 0.000000 0.000000 3.551980 
# 
# 
# High freq. dielectric constant tensor:
#      x y z
#    x 1.786650 0.000000 0.000000 
#    y 0.000000 1.802720 0.000000 
#    z 0.000000 0.000000 1.768400 
# 
# From -- ./inp_files/31501.got.cif
#   From: 2010.03.12/outbox.cif.g09.slc.cpg/sg59_16_cif.got.tgz:31501.got - 2010.04.16 16:29:54.
