data_PCOD8244971
_publ_section_title
;
Structure prediction by ZEFSAII (Michael W. Deem and Ramdas Pophale) SiO2 
 PCOD8244971
Probable space group: P M M N
;
_chemical_formula_sum "Si O2"
_cell_formula_units_Z 64
_cell_length_a 8.907194
_cell_length_b 14.703826
_cell_length_c 26.160396
_cell_angle_alpha 90.000000
_cell_angle_beta 90.000000
_cell_angle_gamma 90.000000
_cell_volume 3426.222636
_symmetry_space_group_name_H-M "P M M N"
_symmetry_group_IT_number 59
_space_group.IT_coordinate_system_code '2'
_symmetry_cell_setting 'orthorhombic'
loop_
_space_group_symop_operation_xyz
x,y,z
1/2-x,1/2-y,z
1/2+x,-y,-z
-x,1/2+y,-z
-x,-y,-z
1/2+x,1/2+y,-z
1/2-x,y,z
x,1/2-y,z
loop_
_atom_site_type_symbol
_atom_site_label
_atom_site_fract_x
_atom_site_fract_y
_atom_site_fract_z
Si Si1 0.578698 0.856423 0.124379
Si Si2 0.426951 0.510473 0.313737
Si Si3 0.426971 0.504766 0.054908
Si Si4 0.579096 0.643258 0.240005
Si Si5 0.926576 0.514374 0.423452
Si Si6 0.573476 0.354920 0.498533
Si Si7 0.928374 0.850718 0.756962
Si Si8 0.928414 0.648998 0.870557
O O1 0.750000 0.885601 0.113592
O O2 0.559172 0.750000 0.116440
O O3 0.533103 0.883780 0.182186
O O4 0.469133 0.902925 0.083847
O O5 0.250000 0.506547 0.323049
O O6 0.465908 0.597723 0.279726
O O7 0.509277 0.514178 0.367159
O O8 0.490364 0.422056 0.284082
O O9 0.250000 0.498546 0.048423
O O10 0.493424 0.421573 0.088444
O O11 0.500000 0.500000 0.000000
O O12 0.750000 0.612477 0.250960
O O13 0.563406 0.750000 0.247688
O O14 0.750000 0.527456 0.421667
O O15 0.970256 0.418118 0.450042
O O16 0.993422 0.601999 0.452297
O O17 0.750000 0.357910 0.508705
O O18 0.520459 0.250000 0.489646
O O19 0.750000 0.854263 0.757963
O O20 0.983732 0.750000 0.741052
O O21 0.989024 0.875041 0.813724
O O22 0.750000 0.644118 0.870046
O O23 0.982175 0.750000 0.886224
#
# Coordination Sequence:
#
# PCOD8244971 Si02
#       8
#     8   8   8   8   8   8   8   8
#     4   9  19  37  58  77 101 136 175 216 266 321
#     4  11  21  32  51  80 112 142 172 212 257 302
#     4  11  22  34  51  77 105 135 174 218 265 316
#     4   9  19  36  56  77 103 138 177 215 262 319
#     4  10  21  36  54  79 109 140 174 212 259 313
#     4   9  19  38  61  80 101 134 177 223 266 307
#     4   8  15  29  49  74 102 131 166 207 251 301
#     4   8  15  30  51  72  96 129 168 209 254 305
#
# _framework density 18.679462999999998
#
# number of rings (size 3 to 8) (size 9 to 14) (size 15 to 20)
#    0.000    2.625    0.000    3.375    0.000    4.250 
#    0.000    2.500    0.000    2.250    0.000    8.750 
#    0.000    0.000    0.000    0.000    0.000    0.000 
#
# Total GULP energy -793472.002746 kJ/mol
# GULP energy per Si atom -12398.000043 kJ/mol
# Density = 1.863695 g / cm^3
# Si number density = 18.679463 Si / 1000 Ang^3
#
#
#
# Elastic Constant Matrix: (Units=GPa)
#
#
# Indices 1 2 3 4 5 6 
#
# 1 25.2425 28.1012 24.7330 0.0000 0.0000 0.0000
# 2 28.1012 104.2068 60.7872 0.0000 0.0000 0.0000
# 3 24.7330 60.7872 131.4055 0.0000 0.0000 0.0000
# 4 0.0000 0.0000 0.0000 7.5976 0.0000 0.0000
# 5 0.0000 0.0000 0.0000 0.0000 22.7379 0.0000
# 6 0.0000 0.0000 0.0000 0.0000 0.0000 23.8774
#
#
#
# Elastic Compliance Matrix: (Units=1/GPa)
#
#
# Indices 1 2 3 4 5 6 
#
# 1 0.059034 -0.012926 -0.005132 0.000000 0.000000 0.000000
# 2 -0.012926 0.015973 -0.004956 0.000000 0.000000 0.000000
# 3 -0.005132 -0.004956 0.010869 0.000000 0.000000 0.000000
# 4 0.000000 0.000000 0.000000 0.131621 0.000000 0.000000
# 5 0.000000 0.000000 0.000000 0.000000 0.043979 0.000000
# 6 0.000000 0.000000 0.000000 0.000000 0.000000 0.041881
#
#
# Mechanical properties :
#
#
# Convention : Reuss Voigt Hill
#
# Bulk Modulus (GPa) = 25.09554 54.23307 39.66430
# Shear Modulus (GPa) = 13.78676 20.65813 17.22245
#
# Velocity S-wave (km/s) = 2.71969 3.32916 3.03974
# Velocity P-wave (km/s) = 4.82973 6.62377 5.79658
#
# Compressibility (1/GPa) = 0.03984771
#
# Stress axis : x y z
#
# Youngs Moduli (GPa) = 16.93945 62.60532 92.00811
#
# Poissons Ratio (x) = 0.80923 0.47217
# Poissons Ratio (y) = 0.21896 0.45600
# Poissons Ratio (z) = 0.08693 0.31028
#
# Static dielectric constant tensor:
#      x y z
#    x 3.214850 0.000000 0.000000 
#    y 0.000000 3.635330 0.000000 
#    z 0.000000 0.000000 3.497590 
# 
# 
# High freq. dielectric constant tensor:
#      x y z
#    x 1.702620 0.000000 0.000000 
#    y 0.000000 1.733150 0.000000 
#    z 0.000000 0.000000 1.727390 
# 
# From -- ./inp_files/31455.got.cif
#   From: 2010.03.12/outbox.cif.g09.slc.cpg/sg59_16_cif.got.tgz:31455.got - 2010.04.16 16:29:54.
