data_PCOD8244215
_publ_section_title
;
Structure prediction by ZEFSAII (Michael W. Deem and Ramdas Pophale) SiO2 
 PCOD8244215
Probable space group: P M M N
;
_chemical_formula_sum "Si O2"
_cell_formula_units_Z 48
_cell_length_a 14.392987
_cell_length_b 17.732464
_cell_length_c 9.454386
_cell_angle_alpha 90.000000
_cell_angle_beta 90.000000
_cell_angle_gamma 90.000000
_cell_volume 2412.977929
_symmetry_space_group_name_H-M "P M M N"
_symmetry_group_IT_number 59
_space_group.IT_coordinate_system_code '2'
_symmetry_cell_setting 'orthorhombic'
loop_
_space_group_symop_operation_xyz
x,y,z
1/2-x,1/2-y,z
1/2+x,-y,-z
-x,1/2+y,-z
-x,-y,-z
1/2+x,1/2+y,-z
1/2-x,y,z
x,1/2-y,z
loop_
_atom_site_type_symbol
_atom_site_label
_atom_site_fract_x
_atom_site_fract_y
_atom_site_fract_z
Si Si1 0.419352 0.963162 0.091250
Si Si2 0.850694 0.886389 0.967235
Si Si3 0.856144 0.838140 0.283603
Si Si4 0.481693 0.928292 0.404017
Si Si5 0.547294 0.336550 0.107733
Si Si6 0.356259 0.661375 0.604912
O O1 0.445615 0.954722 0.253115
O O2 0.337978 0.025065 0.074282
O O3 0.401078 0.881931 0.018948
O O4 0.500000 0.000000 0.000000
O O5 0.750000 0.848012 0.933398
O O6 0.935410 0.847813 0.882612
O O7 0.873581 0.876751 0.132553
O O8 0.750000 0.849481 0.334350
O O9 0.881512 0.750000 0.273312
O O10 0.923841 0.879152 0.394491
O O11 0.400341 0.878020 0.469383
O O12 0.500000 0.000000 0.500000
O O13 0.571769 0.250000 0.079586
O O14 0.588848 0.365003 0.255594
O O15 0.250000 0.635229 0.619773
O O16 0.364372 0.750000 0.582423
#
# Coordination Sequence:
#
# PCOD8244215 Si02
#       6
#     8   8   8   8   8   8
#     4  10  20  37  56  89 125 161 209 257 308 370
#     4  10  20  35  60  94 128 159 200 257 319 378
#     4  10  21  38  63  94 125 161 205 253 311 379
#     4  12  23  38  63  91 130 169 208 257 317 376
#     4  10  20  38  64  91 122 163 212 269 324 372
#     4  10  24  44  63  86 121 168 217 263 317 377
#
# _framework density 19.892431999999999
#
# number of rings (size 3 to 8) (size 9 to 14) (size 15 to 20)
#    0.000    1.667    3.333    3.000    0.000    3.667 
#    0.000    2.500    0.000    3.000    0.000    0.000 
#    0.000    0.000    0.000    0.000    0.000    0.000 
#
# Total GULP energy -595032.079872 kJ/mol
# GULP energy per Si atom -12396.501664 kJ/mol
# Density = 1.984716 g / cm^3
# Si number density = 19.892432 Si / 1000 Ang^3
#
#
#
# Elastic Constant Matrix: (Units=GPa)
#
#
# Indices 1 2 3 4 5 6 
#
# 1 127.3373 36.3168 59.5789 0.0000 0.0000 0.0000
# 2 36.3168 108.3614 61.3951 0.0000 0.0000 0.0000
# 3 59.5789 61.3951 137.3371 0.0000 0.0000 0.0000
# 4 0.0000 0.0000 0.0000 36.7135 0.0000 0.0000
# 5 0.0000 0.0000 0.0000 0.0000 34.0509 0.0000
# 6 0.0000 0.0000 0.0000 0.0000 0.0000 27.1180
#
#
#
# Elastic Compliance Matrix: (Units=1/GPa)
#
#
# Indices 1 2 3 4 5 6 
#
# 1 0.009967 -0.001193 -0.003791 0.000000 0.000000 0.000000
# 2 -0.001193 0.012501 -0.005071 0.000000 0.000000 0.000000
# 3 -0.003791 -0.005071 0.011193 0.000000 0.000000 0.000000
# 4 0.000000 0.000000 0.000000 0.027238 0.000000 0.000000
# 5 0.000000 0.000000 0.000000 0.000000 0.029368 0.000000
# 6 0.000000 0.000000 0.000000 0.000000 0.000000 0.036876
#
#
# Mechanical properties :
#
#
# Convention : Reuss Voigt Hill
#
# Bulk Modulus (GPa) = 73.78958 76.40196 75.09577
# Shear Modulus (GPa) = 32.94483 33.95947 33.45215
#
# Velocity S-wave (km/s) = 4.07400 4.13626 4.10524
# Velocity P-wave (km/s) = 7.70096 7.82959 7.76554
#
# Compressibility (1/GPa) = 0.01355205
#
# Stress axis : x y z
#
# Youngs Moduli (GPa) = 100.33242 79.99153 89.34315
#
# Poissons Ratio (x) = 0.09540 0.33866
# Poissons Ratio (y) = 0.11966 0.45308
# Poissons Ratio (z) = 0.38032 0.40565
#
# Static dielectric constant tensor:
#      x y z
#    x 3.978990 0.000000 0.000000 
#    y 0.000000 4.653200 0.000000 
#    z 0.000000 0.000000 3.579570 
# 
# 
# High freq. dielectric constant tensor:
#      x y z
#    x 1.774950 0.000000 0.000000 
#    y 0.000000 1.788540 0.000000 
#    z 0.000000 0.000000 1.764040 
# 
# From -- ./inp_files/9003.got.cif
#   From: 2010.03.12/outbox.cif.g09.slc.cpg/sg59_5_cif.got.tgz:9003.got - 2010.04.16 16:29:54.
