data_PCOD8244408
_publ_section_title
;
Structure prediction by ZEFSAII (Michael W. Deem and Ramdas Pophale) SiO2 
 PCOD8244408
Probable space group: P M M N
;
_chemical_formula_sum "Si O2"
_cell_formula_units_Z 48
_cell_length_a 16.897888
_cell_length_b 8.779486
_cell_length_c 16.543477
_cell_angle_alpha 90.000000
_cell_angle_beta 90.000000
_cell_angle_gamma 90.000000
_cell_volume 2454.303744
_symmetry_space_group_name_H-M "P M M N"
_symmetry_group_IT_number 59
_space_group.IT_coordinate_system_code '2'
_symmetry_cell_setting 'orthorhombic'
loop_
_space_group_symop_operation_xyz
x,y,z
1/2-x,1/2-y,z
1/2+x,-y,-z
-x,1/2+y,-z
-x,-y,-z
1/2+x,1/2+y,-z
1/2-x,y,z
x,1/2-y,z
loop_
_atom_site_type_symbol
_atom_site_label
_atom_site_fract_x
_atom_site_fract_y
_atom_site_fract_z
Si Si1 0.250000 0.069004 0.197793
Si Si2 0.921918 0.431840 0.044586
Si Si3 0.159156 0.920493 0.628267
Si Si4 0.250000 0.929526 0.023544
Si Si5 0.416215 0.070443 0.481175
Si Si6 0.395783 0.430723 0.301660
Si Si7 0.943872 0.068937 0.226243
O O1 0.250000 0.250000 0.182672
O O2 0.176440 0.010047 0.249200
O O3 0.250000 0.981285 0.114834
O O4 0.928281 0.250000 0.037529
O O5 0.925404 0.492010 0.136820
O O6 0.834501 0.489112 0.013806
O O7 0.000000 0.500000 0.000000
O O8 0.250000 0.915409 0.649471
O O9 0.125661 0.750000 0.611703
O O10 0.118838 0.991953 0.707909
O O11 0.146156 0.021290 0.548894
O O12 0.250000 0.750000 0.014982
O O13 0.423810 0.250000 0.480619
O O14 0.388308 0.009122 0.393562
O O15 0.500000 0.000000 0.500000
O O16 0.397931 0.250000 0.303252
O O17 0.472676 0.496048 0.256938
O O18 0.942803 0.250000 0.223538
#
# Coordination Sequence:
#
# PCOD8244408 Si02
#       7
#     4   8   8   4   8   8   8
#     4  10  20  36  60  83 104 144 194 231 270 330
#     4  10  21  37  60  86 115 150 190 235 289 344
#     4  10  21  36  56  82 112 146 190 235 276 331
#     4  10  22  38  56  87 122 146 176 235 302 346
#     4  11  21  36  57  81 112 148 188 234 283 332
#     4   9  18  32  54  81 107 138 186 232 265 319
#     4   9  17  33  56  80 106 143 187 227 270 332
#
# _framework density 19.557480000000002
#
# number of rings (size 3 to 8) (size 9 to 14) (size 15 to 20)
#    0.000    2.167    1.667    1.500    2.333    2.333 
#    0.000    2.500    0.000    0.000    0.000    0.000 
#    0.000    0.000    0.000    0.000    0.000    0.000 
#
# Total GULP energy -594891.766732 kJ/mol
# GULP energy per Si atom -12393.578474 kJ/mol
# Density = 1.951297 g / cm^3
# Si number density = 19.557480 Si / 1000 Ang^3
#
#
#
# Elastic Constant Matrix: (Units=GPa)
#
#
# Indices 1 2 3 4 5 6 
#
# 1 158.9766 18.9653 89.1609 0.0000 0.0000 0.0000
# 2 18.9653 21.7976 17.3940 0.0000 0.0000 0.0000
# 3 89.1609 17.3940 196.7186 0.0000 0.0000 0.0000
# 4 0.0000 0.0000 0.0000 28.0847 0.0000 0.0000
# 5 0.0000 0.0000 0.0000 0.0000 34.4277 0.0000
# 6 0.0000 0.0000 0.0000 0.0000 0.0000 20.6322
#
#
#
# Elastic Compliance Matrix: (Units=1/GPa)
#
#
# Indices 1 2 3 4 5 6 
#
# 1 0.008889 -0.004862 -0.003599 0.000000 0.000000 0.000000
# 2 -0.004862 0.052019 -0.002396 0.000000 0.000000 0.000000
# 3 -0.003599 -0.002396 0.006926 0.000000 0.000000 0.000000
# 4 0.000000 0.000000 0.000000 0.035607 0.000000 0.000000
# 5 0.000000 0.000000 0.000000 0.000000 0.029046 0.000000
# 6 0.000000 0.000000 0.000000 0.000000 0.000000 0.048468
#
#
# Mechanical properties :
#
#
# Convention : Reuss Voigt Hill
#
# Bulk Modulus (GPa) = 21.68235 69.83704 45.75970
# Shear Modulus (GPa) = 22.93143 33.42707 28.17925
#
# Velocity S-wave (km/s) = 3.42791 4.13870 3.79996
# Velocity P-wave (km/s) = 5.17475 7.65667 6.53462
#
# Compressibility (1/GPa) = 0.04612045
#
# Stress axis : x y z
#
# Youngs Moduli (GPa) = 112.50383 19.22385 144.37585
#
# Poissons Ratio (x) = 0.09346 0.51958
# Poissons Ratio (y) = 0.54698 0.34591
# Poissons Ratio (z) = 0.40488 0.04606
#
# Static dielectric constant tensor:
#      x y z
#    x 3.903810 0.000000 0.000000 
#    y 0.000000 3.460130 0.000000 
#    z 0.000000 0.000000 3.960550 
# 
# 
# High freq. dielectric constant tensor:
#      x y z
#    x 1.777450 0.000000 0.000000 
#    y 0.000000 1.715460 0.000000 
#    z 0.000000 0.000000 1.780560 
# 
# From -- ./inp_files/20597.got.cif
#   From: 2010.03.12/outbox.cif.g09.slc.cpg/sg59_11_cif.got.tgz:20597.got - 2010.04.16 16:29:54.
