data_PCOD8244852
_publ_section_title
;
Structure prediction by ZEFSAII (Michael W. Deem and Ramdas Pophale) SiO2 
 PCOD8244852
Probable space group: P M M N
;
_chemical_formula_sum "Si O2"
_cell_formula_units_Z 64
_cell_length_a 9.492968
_cell_length_b 28.699252
_cell_length_c 12.085408
_cell_angle_alpha 90.000000
_cell_angle_beta 90.000000
_cell_angle_gamma 90.000000
_cell_volume 3292.561618
_symmetry_space_group_name_H-M "P M M N"
_symmetry_group_IT_number 59
_space_group.IT_coordinate_system_code '2'
_symmetry_cell_setting 'orthorhombic'
loop_
_space_group_symop_operation_xyz
x,y,z
1/2-x,1/2-y,z
1/2+x,-y,-z
-x,1/2+y,-z
-x,-y,-z
1/2+x,1/2+y,-z
1/2-x,y,z
x,1/2-y,z
loop_
_atom_site_type_symbol
_atom_site_label
_atom_site_fract_x
_atom_site_fract_y
_atom_site_fract_z
Si Si1 0.905325 0.302173 0.689046
Si Si2 0.909609 0.126503 0.494333
Si Si3 0.419526 0.038716 0.572831
Si Si4 0.595781 0.804568 0.122731
Si Si5 0.413753 0.697819 0.689585
Si Si6 0.086185 0.164770 0.109273
Si Si7 0.586356 0.519357 0.171790
Si Si8 0.411462 0.059529 0.059596
O O1 0.750000 0.300177 0.740935
O O2 0.955559 0.250000 0.657045
O O3 0.908165 0.333040 0.582452
O O4 0.003839 0.326698 0.779904
O O5 0.750000 0.105705 0.481033
O O6 0.961525 0.154556 0.386699
O O7 0.022749 0.087461 0.525711
O O8 0.250000 0.035626 0.555639
O O9 0.459590 0.035416 0.704107
O O10 0.500000 0.000000 0.500000
O O11 0.750000 0.828261 0.128758
O O12 0.605315 0.750000 0.141836
O O13 0.526805 0.815261 0.005486
O O14 0.250000 0.692661 0.716601
O O15 0.443254 0.750000 0.640313
O O16 0.501046 0.692525 0.800280
O O17 0.250000 0.176647 0.125062
O O18 0.057639 0.109967 0.108417
O O19 0.750000 0.506743 0.175335
O O20 0.504792 0.473108 0.136951
O O21 0.553613 0.556972 0.073342
O O22 0.250000 0.044677 0.076684
#
# Coordination Sequence:
#
# PCOD8244852 Si02
#       8
#     8   8   8   8   8   8   8   8
#     4   9  18  34  57  84 115 150 189 235 284 339
#     4  10  22  40  61  86 115 150 194 240 291 344
#     4  11  25  42  63  88 119 155 193 238 290 346
#     4   9  18  32  51  77 112 150 183 223 280 339
#     4  10  22  40  61  84 115 156 199 244 292 346
#     4  10  21  35  56  84 115 149 190 238 289 342
#     4   9  20  39  60  83 113 149 189 233 285 343
#     4   9  19  36  59  86 114 148 187 233 285 341
#
# _framework density 19.437753000000001
#
# number of rings (size 3 to 8) (size 9 to 14) (size 15 to 20)
#    0.000    2.375    0.000    1.125    3.500    5.250 
#    0.000    1.250    0.000    2.250    0.000    0.000 
#    0.000    0.000    0.000    0.000    0.000    0.000 
#
# Total GULP energy -793112.386345 kJ/mol
# GULP energy per Si atom -12392.381037 kJ/mol
# Density = 1.939351 g / cm^3
# Si number density = 19.437753 Si / 1000 Ang^3
#
#
#
# Elastic Constant Matrix: (Units=GPa)
#
#
# Indices 1 2 3 4 5 6 
#
# 1 56.3783 32.2200 29.8098 0.0000 0.0000 0.0000
# 2 32.2200 71.7795 22.7946 0.0000 0.0000 0.0000
# 3 29.8098 22.7946 78.5092 0.0000 0.0000 0.0000
# 4 0.0000 0.0000 0.0000 25.1931 0.0000 0.0000
# 5 0.0000 0.0000 0.0000 0.0000 34.6078 0.0000
# 6 0.0000 0.0000 0.0000 0.0000 0.0000 46.6849
#
#
#
# Elastic Compliance Matrix: (Units=1/GPa)
#
#
# Indices 1 2 3 4 5 6 
#
# 1 0.027369 -0.009898 -0.007518 0.000000 0.000000 0.000000
# 2 -0.009898 0.018926 -0.001737 0.000000 0.000000 0.000000
# 3 -0.007518 -0.001737 0.016096 0.000000 0.000000 0.000000
# 4 0.000000 0.000000 0.000000 0.039693 0.000000 0.000000
# 5 0.000000 0.000000 0.000000 0.000000 0.028895 0.000000
# 6 0.000000 0.000000 0.000000 0.000000 0.000000 0.021420
#
#
# Mechanical properties :
#
#
# Convention : Reuss Voigt Hill
#
# Bulk Modulus (GPa) = 41.51855 41.81289 41.66572
# Shear Modulus (GPa) = 25.15917 29.41999 27.28958
#
# Velocity S-wave (km/s) = 3.60160 3.89466 3.75099
# Velocity P-wave (km/s) = 6.22105 6.46393 6.34365
#
# Compressibility (1/GPa) = 0.02408562
#
# Stress axis : x y z
#
# Youngs Moduli (GPa) = 36.53751 52.83741 62.12605
#
# Poissons Ratio (x) = 0.52297 0.46708
# Poissons Ratio (y) = 0.36164 0.10790
# Poissons Ratio (z) = 0.27470 0.09177
#
# Static dielectric constant tensor:
#      x y z
#    x 3.716380 0.000000 0.000000 
#    y 0.000000 3.416910 0.000000 
#    z 0.000000 0.000000 3.679490 
# 
# 
# High freq. dielectric constant tensor:
#      x y z
#    x 1.751190 0.000000 0.000000 
#    y 0.000000 1.756880 0.000000 
#    z 0.000000 0.000000 1.763380 
# 
# From -- ./inp_files/14912.got.cif
#   From: 2010.03.12/outbox.cif.g09.slc.cpg/sg59_8_cif.got.tgz:14912.got - 2010.04.16 16:29:54.
