data_PCOD8244335
_publ_section_title
;
Structure prediction by ZEFSAII (Michael W. Deem and Ramdas Pophale) SiO2 
 PCOD8244335
Probable space group: P M M N
;
_chemical_formula_sum "Si O2"
_cell_formula_units_Z 64
_cell_length_a 25.262566
_cell_length_b 9.401732
_cell_length_c 14.233272
_cell_angle_alpha 90.000000
_cell_angle_beta 90.000000
_cell_angle_gamma 90.000000
_cell_volume 3380.571122
_symmetry_space_group_name_H-M "P M M N"
_symmetry_group_IT_number 59
_space_group.IT_coordinate_system_code '2'
_symmetry_cell_setting 'orthorhombic'
loop_
_space_group_symop_operation_xyz
x,y,z
1/2-x,1/2-y,z
1/2+x,-y,-z
-x,1/2+y,-z
-x,-y,-z
1/2+x,1/2+y,-z
1/2-x,y,z
x,1/2-y,z
loop_
_atom_site_type_symbol
_atom_site_label
_atom_site_fract_x
_atom_site_fract_y
_atom_site_fract_z
Si Si1 0.689389 0.085365 0.904311
Si Si2 0.898586 0.917425 0.386305
Si Si3 0.629964 0.413769 0.092299
Si Si4 0.809720 0.585402 0.724780
Si Si5 0.689512 0.086126 0.281036
Si Si6 0.406314 0.415230 0.400226
Si Si7 0.493591 0.587258 0.289922
Si Si8 0.974262 0.914919 0.085000
O O1 0.750000 0.046951 0.926207
O O2 0.682307 0.250000 0.880396
O O3 0.668493 0.998906 0.814850
O O4 0.655450 0.040845 0.993962
O O5 0.888101 0.750000 0.380116
O O6 0.909602 0.966854 0.492753
O O7 0.948777 0.965275 0.324450
O O8 0.846168 0.993986 0.350225
O O9 0.610244 0.250000 0.089530
O O10 0.673231 0.436506 0.172950
O O11 0.581929 0.519092 0.111748
O O12 0.750000 0.537249 0.698168
O O13 0.811368 0.750000 0.751922
O O14 0.847234 0.551444 0.636689
O O15 0.750000 0.035826 0.292026
O O16 0.682873 0.250000 0.309898
O O17 0.420047 0.250000 0.391629
O O18 0.448537 0.495724 0.337364
O O19 0.485516 0.750000 0.320895
O O20 0.489116 0.570694 0.177349
O O21 0.967543 0.750000 0.056748
O O22 0.000000 0.000000 0.000000
#
# Coordination Sequence:
#
# PCOD8244335 Si02
#       8
#     8   8   8   8   8   8   8   8
#     4   9  18  33  54  79 107 142 182 222 268 325
#     4  10  21  40  60  84 115 149 191 240 292 343
#     4  10  20  36  58  83 114 150 188 233 284 338
#     4   9  19  36  54  78 113 146 180 227 279 332
#     4  10  21  37  59  88 120 155 195 240 291 347
#     4  10  22  37  60  87 110 146 193 236 287 347
#     4  10  22  40  60  83 115 149 187 238 288 339
#     4  11  24  40  58  84 118 153 188 231 285 342
#
# _framework density 18.931712000000001
#
# number of rings (size 3 to 8) (size 9 to 14) (size 15 to 20)
#    0.000    2.125    1.250    1.125    1.750    5.250 
#    0.000    1.250    0.000    3.750    0.000    0.000 
#    0.000    0.000    0.000    0.000    0.000    0.000 
#
# Total GULP energy -793800.200837 kJ/mol
# GULP energy per Si atom -12403.128138 kJ/mol
# Density = 1.888862 g / cm^3
# Si number density = 18.931712 Si / 1000 Ang^3
#
#
#
# Elastic Constant Matrix: (Units=GPa)
#
#
# Indices 1 2 3 4 5 6 
#
# 1 104.6735 48.7156 48.2444 0.0000 0.0000 0.0000
# 2 48.7156 67.6910 48.8904 0.0000 0.0000 0.0000
# 3 48.2444 48.8904 116.2978 0.0000 0.0000 0.0000
# 4 0.0000 0.0000 0.0000 32.7207 0.0000 0.0000
# 5 0.0000 0.0000 0.0000 0.0000 31.9717 0.0000
# 6 0.0000 0.0000 0.0000 0.0000 0.0000 34.0434
#
#
#
# Elastic Compliance Matrix: (Units=1/GPa)
#
#
# Indices 1 2 3 4 5 6 
#
# 1 0.014813 -0.008935 -0.002389 0.000000 0.000000 0.000000
# 2 -0.008935 0.026604 -0.007477 0.000000 0.000000 0.000000
# 3 -0.002389 -0.007477 0.012733 0.000000 0.000000 0.000000
# 4 0.000000 0.000000 0.000000 0.030562 0.000000 0.000000
# 5 0.000000 0.000000 0.000000 0.000000 0.031278 0.000000
# 6 0.000000 0.000000 0.000000 0.000000 0.000000 0.029374
#
#
# Mechanical properties :
#
#
# Convention : Reuss Voigt Hill
#
# Bulk Modulus (GPa) = 60.43275 64.48478 62.45876
# Shear Modulus (GPa) = 26.52768 29.26796 27.89782
#
# Velocity S-wave (km/s) = 3.74736 3.93616 3.84292
# Velocity P-wave (km/s) = 7.12140 7.40226 7.26319
#
# Compressibility (1/GPa) = 0.01654732
#
# Stress axis : x y z
#
# Youngs Moduli (GPa) = 67.50824 37.58802 78.53650
#
# Poissons Ratio (x) = 0.33586 0.18759
# Poissons Ratio (y) = 0.60321 0.58725
# Poissons Ratio (z) = 0.16125 0.28106
#
# Static dielectric constant tensor:
#      x y z
#    x 3.505360 0.000000 0.000000 
#    y 0.000000 3.451870 0.000000 
#    z 0.000000 0.000000 3.566930 
# 
# 
# High freq. dielectric constant tensor:
#      x y z
#    x 1.738520 0.000000 0.000000 
#    y 0.000000 1.730460 0.000000 
#    z 0.000000 0.000000 1.743080 
# 
# From -- ./inp_files/24717.got.cif
#   From: 2010.03.12/outbox.cif.g09.slc.cpg/sg59_13_cif.got.tgz:24717.got - 2010.04.16 16:29:54.
