data_PCOD8244477
_publ_section_title
;
Structure prediction by ZEFSAII (Michael W. Deem and Ramdas Pophale) SiO2 
 PCOD8244477
Probable space group: P M M N
;
_chemical_formula_sum "Si O2"
_cell_formula_units_Z 48
_cell_length_a 13.533461
_cell_length_b 16.915735
_cell_length_c 9.775409
_cell_angle_alpha 90.000000
_cell_angle_beta 90.000000
_cell_angle_gamma 90.000000
_cell_volume 2237.869132
_symmetry_space_group_name_H-M "P M M N"
_symmetry_group_IT_number 59
_space_group.IT_coordinate_system_code '2'
_symmetry_cell_setting 'orthorhombic'
loop_
_space_group_symop_operation_xyz
x,y,z
1/2-x,1/2-y,z
1/2+x,-y,-z
-x,1/2+y,-z
-x,-y,-z
1/2+x,1/2+y,-z
1/2-x,y,z
x,1/2-y,z
loop_
_atom_site_type_symbol
_atom_site_label
_atom_site_fract_x
_atom_site_fract_y
_atom_site_fract_z
Si Si1 0.132935 0.750000 0.744298
Si Si2 0.862827 0.942926 0.905826
Si Si3 0.962321 0.844616 0.411420
Si Si4 0.137611 0.888819 0.237403
Si Si5 0.364246 0.041414 0.778470
Si Si6 0.133353 0.750000 0.048909
Si Si7 0.492194 0.895639 0.693489
O O1 0.250000 0.750000 0.730085
O O2 0.089279 0.672369 0.675230
O O3 0.091277 0.750000 0.897766
O O4 0.750000 0.911904 0.900173
O O5 0.935213 0.883368 0.824423
O O6 0.873378 0.025151 0.825903
O O7 0.896599 0.951494 0.062962
O O8 0.953994 0.750000 0.420686
O O9 0.882833 0.875767 0.299657
O O10 0.071887 0.874932 0.370924
O O11 0.940788 0.887542 0.556808
O O12 0.250000 0.869983 0.278867
O O13 0.095922 0.828210 0.124500
O O14 0.250000 0.016119 0.769058
O O15 0.433000 0.977395 0.704608
O O16 0.250000 0.750000 0.039641
#
# Coordination Sequence:
#
# PCOD8244477 Si02
#       7
#     4   8   8   8   8   4   8
#     4  11  24  39  64  98 135 169 213 278 340 390
#     4  10  23  43  69 100 127 167 224 279 331 389
#     4  12  26  43  62  96 136 176 225 262 327 392
#     4  10  20  36  62  94 131 167 213 269 325 393
#     4  11  25  45  70  98 129 172 225 275 330 392
#     4   9  18  33  57  94 127 165 208 256 327 386
#     4  12  24  44  66  98 134 174 216 273 332 397
#
# _framework density 21.448975000000001
#
# number of rings (size 3 to 8) (size 9 to 14) (size 15 to 20)
#    0.000    1.167    3.333    2.500    2.333    5.000 
#    0.000    0.417    0.000    0.000    0.000    0.000 
#    0.000    0.000    0.000    0.000    0.000    0.000 
#
# Total GULP energy -595159.706169 kJ/mol
# GULP energy per Si atom -12399.160545 kJ/mol
# Density = 2.140016 g / cm^3
# Si number density = 21.448975 Si / 1000 Ang^3
#
#
#
# Elastic Constant Matrix: (Units=GPa)
#
#
# Indices 1 2 3 4 5 6 
#
# 1 67.5264 33.3803 21.2255 0.0000 0.0000 0.0000
# 2 33.3803 79.9789 43.0746 0.0000 0.0000 0.0000
# 3 21.2255 43.0746 119.2181 0.0000 0.0000 0.0000
# 4 0.0000 0.0000 0.0000 50.8226 0.0000 0.0000
# 5 0.0000 0.0000 0.0000 0.0000 30.0035 0.0000
# 6 0.0000 0.0000 0.0000 0.0000 0.0000 14.1791
#
#
#
# Elastic Compliance Matrix: (Units=1/GPa)
#
#
# Indices 1 2 3 4 5 6 
#
# 1 0.018697 -0.007463 -0.000632 0.000000 0.000000 0.000000
# 2 -0.007463 0.018503 -0.005357 0.000000 0.000000 0.000000
# 3 -0.000632 -0.005357 0.010436 0.000000 0.000000 0.000000
# 4 0.000000 0.000000 0.000000 0.019676 0.000000 0.000000
# 5 0.000000 0.000000 0.000000 0.000000 0.033329 0.000000
# 6 0.000000 0.000000 0.000000 0.000000 0.000000 0.070526
#
#
# Mechanical properties :
#
#
# Convention : Reuss Voigt Hill
#
# Bulk Modulus (GPa) = 48.23421 51.34267 49.78844
# Shear Modulus (GPa) = 24.39237 30.27057 27.33147
#
# Velocity S-wave (km/s) = 3.37594 3.76078 3.57354
# Velocity P-wave (km/s) = 6.14269 6.54577 6.34743
#
# Compressibility (1/GPa) = 0.02073217
#
# Stress axis : x y z
#
# Youngs Moduli (GPa) = 53.48483 54.04548 95.82246
#
# Poissons Ratio (x) = 0.40333 0.06060
# Poissons Ratio (y) = 0.39915 0.51328
# Poissons Ratio (z) = 0.03382 0.28950
#
# Static dielectric constant tensor:
#      x y z
#    x 3.916740 0.000000 0.000000 
#    y 0.000000 5.257140 0.000000 
#    z 0.000000 0.000000 4.061150 
# 
# 
# High freq. dielectric constant tensor:
#      x y z
#    x 1.837100 0.000000 0.000000 
#    y 0.000000 1.833900 0.000000 
#    z 0.000000 0.000000 1.850190 
# 
# From -- ./inp_files/9077.got.cif
#   From: 2010.03.12/outbox.cif.g09.slc.cpg/sg59_5_cif.got.tgz:9077.got - 2010.04.16 16:29:54.
