data_PCOD8244864
_publ_section_title
;
Structure prediction by ZEFSAII (Michael W. Deem and Ramdas Pophale) SiO2 
 PCOD8244864
Probable space group: P M M N
;
_chemical_formula_sum "Si O2"
_cell_formula_units_Z 56
_cell_length_a 9.199655
_cell_length_b 14.778624
_cell_length_c 21.715582
_cell_angle_alpha 90.000000
_cell_angle_beta 90.000000
_cell_angle_gamma 90.000000
_cell_volume 2952.412357
_symmetry_space_group_name_H-M "P M M N"
_symmetry_group_IT_number 59
_space_group.IT_coordinate_system_code '2'
_symmetry_cell_setting 'orthorhombic'
loop_
_space_group_symop_operation_xyz
x,y,z
1/2-x,1/2-y,z
1/2+x,-y,-z
-x,1/2+y,-z
-x,-y,-z
1/2+x,1/2+y,-z
1/2-x,y,z
x,1/2-y,z
loop_
_atom_site_type_symbol
_atom_site_label
_atom_site_fract_x
_atom_site_fract_y
_atom_site_fract_z
Si Si1 0.077019 0.506845 0.281984
Si Si2 0.422752 0.647006 0.383359
Si Si3 0.419266 0.643008 0.649347
Si Si4 0.581441 0.148090 0.073595
Si Si5 0.580417 0.515588 0.156800
Si Si6 0.577913 0.149614 0.483893
Si Si7 0.080795 0.353494 0.952141
O O1 0.250000 0.502257 0.280288
O O2 0.017155 0.581857 0.330125
O O3 0.014298 0.408852 0.300164
O O4 0.017085 0.535241 0.215874
O O5 0.250000 0.649143 0.380706
O O6 0.481273 0.750000 0.374032
O O7 0.472124 0.605373 0.450784
O O8 0.250000 0.621548 0.660999
O O9 0.447953 0.750000 0.655555
O O10 0.471862 0.606147 0.581322
O O11 0.750000 0.143048 0.056905
O O12 0.532788 0.250000 0.090987
O O13 0.546002 0.084927 0.131751
O O14 0.498845 0.112096 0.013434
O O15 0.750000 0.526484 0.173608
O O16 0.530548 0.587711 0.105803
O O17 0.750000 0.154965 0.481226
O O18 0.513004 0.250000 0.485805
O O19 0.250000 0.366635 0.964569
O O20 0.039522 0.250000 0.937721
#
# Coordination Sequence:
#
# PCOD8244864 Si02
#       7
#     8   8   8   8   8   8   8
#     4  11  23  34  48  75 105 135 173 213 254 296
#     4   8  15  30  50  72 101 133 166 209 258 306
#     4   9  18  34  55  75  97 130 170 209 253 310
#     4   9  18  33  54  78  99 122 158 202 245 291
#     4  10  21  36  51  69 100 139 172 201 237 291
#     4   7  11  24  49  75  94 121 165 209 250 303
#     4   9  18  33  54  79 103 127 158 200 251 298
#
# _framework density 18.96754
#
# number of rings (size 3 to 8) (size 9 to 14) (size 15 to 20)
#    0.000    3.000    0.000    2.571    0.000    3.143 
#    0.000    1.429    0.000    2.143    0.000    4.000 
#    0.000    0.000    0.000    0.000    0.000    0.000 
#
# Total GULP energy -693921.432529 kJ/mol
# GULP energy per Si atom -12391.454152 kJ/mol
# Density = 1.892437 g / cm^3
# Si number density = 18.967540 Si / 1000 Ang^3
#
#
#
# Elastic Constant Matrix: (Units=GPa)
#
#
# Indices 1 2 3 4 5 6 
#
# 1 36.2498 12.7369 24.0541 0.0000 0.0000 0.0000
# 2 12.7369 46.2465 11.7458 0.0000 0.0000 0.0000
# 3 24.0541 11.7458 84.1784 0.0000 0.0000 0.0000
# 4 0.0000 0.0000 0.0000 28.4310 0.0000 0.0000
# 5 0.0000 0.0000 0.0000 0.0000 26.7160 0.0000
# 6 0.0000 0.0000 0.0000 0.0000 0.0000 18.3014
#
#
#
# Elastic Compliance Matrix: (Units=1/GPa)
#
#
# Indices 1 2 3 4 5 6 
#
# 1 0.036491 -0.007674 -0.009357 0.000000 0.000000 0.000000
# 2 -0.007674 0.024031 -0.001160 0.000000 0.000000 0.000000
# 3 -0.009357 -0.001160 0.014715 0.000000 0.000000 0.000000
# 4 0.000000 0.000000 0.000000 0.035173 0.000000 0.000000
# 5 0.000000 0.000000 0.000000 0.000000 0.037431 0.000000
# 6 0.000000 0.000000 0.000000 0.000000 0.000000 0.054640
#
#
# Mechanical properties :
#
#
# Convention : Reuss Voigt Hill
#
# Bulk Modulus (GPa) = 25.73594 29.30539 27.52066
# Shear Modulus (GPa) = 19.85578 22.56556 21.21067
#
# Velocity S-wave (km/s) = 3.23898 3.45294 3.34767
# Velocity P-wave (km/s) = 5.25223 5.60186 5.42986
#
# Compressibility (1/GPa) = 0.03885617
#
# Stress axis : x y z
#
# Youngs Moduli (GPa) = 27.40372 41.61220 67.95714
#
# Poissons Ratio (x) = 0.31932 0.63586
# Poissons Ratio (y) = 0.21029 0.07886
# Poissons Ratio (z) = 0.25641 0.04829
#
# Static dielectric constant tensor:
#      x y z
#    x 3.094280 0.000000 0.000000 
#    y 0.000000 3.550310 0.000000 
#    z 0.000000 0.000000 3.659380 
# 
# 
# High freq. dielectric constant tensor:
#      x y z
#    x 1.700860 0.000000 0.000000 
#    y 0.000000 1.733120 0.000000 
#    z 0.000000 0.000000 1.744700 
# 
# From -- ./inp_files/29157.got.cif
#   From: 2010.03.12/outbox.cif.g09.slc.cpg/sg59_15_cif.got.tgz:29157.got - 2010.04.16 16:29:54.
