data_PCOD8244032
_publ_section_title
;
Structure prediction by ZEFSAII (Michael W. Deem and Ramdas Pophale) SiO2 
 PCOD8244032
Probable space group: P M M N
;
_chemical_formula_sum "Si O2"
_cell_formula_units_Z 64
_cell_length_a 31.625364
_cell_length_b 8.761431
_cell_length_c 11.619340
_cell_angle_alpha 90.000000
_cell_angle_beta 90.000000
_cell_angle_gamma 90.000000
_cell_volume 3219.526750
_symmetry_space_group_name_H-M "P M M N"
_symmetry_group_IT_number 59
_space_group.IT_coordinate_system_code '2'
_symmetry_cell_setting 'orthorhombic'
loop_
_space_group_symop_operation_xyz
x,y,z
1/2-x,1/2-y,z
1/2+x,-y,-z
-x,1/2+y,-z
-x,-y,-z
1/2+x,1/2+y,-z
1/2-x,y,z
x,1/2-y,z
loop_
_atom_site_type_symbol
_atom_site_label
_atom_site_fract_x
_atom_site_fract_y
_atom_site_fract_z
Si Si1 0.201050 0.572160 0.078688
Si Si2 0.299828 0.081809 0.309807
Si Si3 0.378196 0.430995 0.961006
Si Si4 0.481204 0.924524 0.331452
Si Si5 0.038949 0.570441 0.070784
Si Si6 0.439772 0.922146 0.563914
Si Si7 0.629321 0.571461 0.293985
Si Si8 0.796446 0.932331 0.440830
O O1 0.250000 0.522577 0.054276
O O2 0.194854 0.750000 0.055248
O O3 0.188138 0.537319 0.210502
O O4 0.168882 0.477819 0.000000
O O5 0.250000 0.099520 0.321253
O O6 0.319112 0.250000 0.280964
O O7 0.315494 0.019088 0.433952
O O8 0.383046 0.250000 0.969885
O O9 0.415701 0.506329 0.033238
O O10 0.382992 0.494307 0.830617
O O11 0.498403 0.750000 0.331359
O O12 0.465024 0.970752 0.205432
O O13 0.443905 0.941401 0.425847
O O14 0.517209 0.041081 0.369061
O O15 0.038170 0.750000 0.049802
O O16 0.000000 0.500000 0.000000
O O17 0.426869 0.750000 0.595560
O O18 0.405018 0.037497 0.609404
O O19 0.634315 0.750000 0.280442
O O20 0.673659 0.502608 0.339942
O O21 0.750000 0.002512 0.419312
O O22 0.794484 0.750000 0.439331
#
# Coordination Sequence:
#
# PCOD8244032 Si02
#       8
#     8   8   8   8   8   8   8   8
#     4  10  21  37  57  81 112 149 186 229 281 331
#     4   8  14  28  52  79 105 134 172 219 270 326
#     4  11  24  39  56  81 112 148 192 234 275 329
#     4   9  20  38  58  82 111 142 176 217 266 319
#     4  11  23  40  61  84 115 151 187 230 277 326
#     4  10  20  35  57  83 110 140 174 215 266 324
#     4  10  21  36  54  77 107 142 178 223 274 319
#     4   8  15  30  53  79 104 134 176 222 267 317
#
# _framework density 19.878696999999999
#
# number of rings (size 3 to 8) (size 9 to 14) (size 15 to 20)
#    0.000    2.375    0.000    3.000    0.000    7.750 
#    0.000    4.375    0.000    1.125    0.000    0.000 
#    0.000    0.000    0.000    0.000    0.000    0.000 
#
# Total GULP energy -793280.912162 kJ/mol
# GULP energy per Si atom -12395.014253 kJ/mol
# Density = 1.983345 g / cm^3
# Si number density = 19.878697 Si / 1000 Ang^3
#
#
#
# Elastic Constant Matrix: (Units=GPa)
#
#
# Indices 1 2 3 4 5 6 
#
# 1 97.3446 20.5133 62.0478 0.0000 0.0000 0.0000
# 2 20.5133 44.6632 37.2125 0.0000 0.0000 0.0000
# 3 62.0478 37.2125 151.5132 0.0000 0.0000 0.0000
# 4 0.0000 0.0000 0.0000 24.0288 0.0000 0.0000
# 5 0.0000 0.0000 0.0000 0.0000 31.8178 0.0000
# 6 0.0000 0.0000 0.0000 0.0000 0.0000 28.8470
#
#
#
# Elastic Compliance Matrix: (Units=1/GPa)
#
#
# Indices 1 2 3 4 5 6 
#
# 1 0.014054 -0.002087 -0.005243 0.000000 0.000000 0.000000
# 2 -0.002087 0.028460 -0.006135 0.000000 0.000000 0.000000
# 3 -0.005243 -0.006135 0.010254 0.000000 0.000000 0.000000
# 4 0.000000 0.000000 0.000000 0.041617 0.000000 0.000000
# 5 0.000000 0.000000 0.000000 0.000000 0.031429 0.000000
# 6 0.000000 0.000000 0.000000 0.000000 0.000000 0.034666
#
#
# Mechanical properties :
#
#
# Convention : Reuss Voigt Hill
#
# Bulk Modulus (GPa) = 38.70215 59.22982 48.96598
# Shear Modulus (GPa) = 25.50720 28.52189 27.01454
#
# Velocity S-wave (km/s) = 3.58598 3.79198 3.69042
# Velocity P-wave (km/s) = 6.05451 7.00232 6.54559
#
# Compressibility (1/GPa) = 0.02583836
#
# Stress axis : x y z
#
# Youngs Moduli (GPa) = 71.15171 35.13694 97.52146
#
# Poissons Ratio (x) = 0.07332 0.51132
# Poissons Ratio (y) = 0.14847 0.59834
# Poissons Ratio (z) = 0.37306 0.21558
#
# Static dielectric constant tensor:
#      x y z
#    x 3.602410 0.000000 0.000000 
#    y 0.000000 3.421860 0.000000 
#    z 0.000000 0.000000 3.995880 
# 
# 
# High freq. dielectric constant tensor:
#      x y z
#    x 1.765400 0.000000 0.000000 
#    y 0.000000 1.758860 0.000000 
#    z 0.000000 0.000000 1.786610 
# 
# From -- ./inp_files/19325.got.cif
#   From: 2010.03.12/outbox.cif.g09.slc.cpg/sg59_10_cif.got.tgz:19325.got - 2010.04.16 16:29:54.
