data_PCOD8244191
_publ_section_title
;
Structure prediction by ZEFSAII (Michael W. Deem and Ramdas Pophale) SiO2 
 PCOD8244191
Probable space group: P M M N
;
_chemical_formula_sum "Si O2"
_cell_formula_units_Z 64
_cell_length_a 9.146387
_cell_length_b 18.355565
_cell_length_c 19.862531
_cell_angle_alpha 90.000000
_cell_angle_beta 90.000000
_cell_angle_gamma 90.000000
_cell_volume 3334.662750
_symmetry_space_group_name_H-M "P M M N"
_symmetry_group_IT_number 59
_space_group.IT_coordinate_system_code '2'
_symmetry_cell_setting 'orthorhombic'
loop_
_space_group_symop_operation_xyz
x,y,z
1/2-x,1/2-y,z
1/2+x,-y,-z
-x,1/2+y,-z
-x,-y,-z
1/2+x,1/2+y,-z
1/2-x,y,z
x,1/2-y,z
loop_
_atom_site_type_symbol
_atom_site_label
_atom_site_fract_x
_atom_site_fract_y
_atom_site_fract_z
Si Si1 0.919590 0.438401 0.586176
Si Si2 0.580288 0.414662 0.433145
Si Si3 0.418680 0.333693 0.326098
Si Si4 0.417758 0.333702 0.091225
Si Si5 0.581248 0.919152 0.181823
Si Si6 0.082163 0.067666 0.968422
Si Si7 0.419340 0.913617 0.792436
Si Si8 0.077793 0.832839 0.294809
O O1 0.750000 0.459439 0.595651
O O2 0.946853 0.404961 0.512398
O O3 0.972882 0.379248 0.640363
O O4 0.015730 0.510218 0.595720
O O5 0.750000 0.412809 0.414397
O O6 0.498488 0.347988 0.397040
O O7 0.250000 0.355302 0.333053
O O8 0.437935 0.250000 0.305632
O O9 0.490804 0.382388 0.269247
O O10 0.250000 0.342649 0.115470
O O11 0.466892 0.250000 0.094053
O O12 0.521937 0.381059 0.138098
O O13 0.436148 0.361345 0.014919
O O14 0.750000 0.896426 0.184978
O O15 0.520442 0.913206 0.105504
O O16 0.492665 0.862959 0.226979
O O17 0.556583 0.000333 0.208844
O O18 0.250000 0.043421 0.961144
O O19 0.000000 0.000000 0.000000
O O20 0.250000 0.892513 0.785095
O O21 0.250000 0.837659 0.285918
O O22 0.026191 0.750000 0.306408
#
# Coordination Sequence:
#
# PCOD8244191 Si02
#       8
#     8   8   8   8   8   8   8   8
#     4   9  19  37  60  84 114 152 189 233 287 341
#     4  10  20  35  59  88 114 144 190 241 286 338
#     4  11  24  39  54  77 113 153 190 229 279 341
#     4  10  21  36  56  83 113 148 187 227 281 346
#     4  10  22  38  58  85 114 146 186 232 281 335
#     4  10  20  37  59  83 112 147 188 232 279 337
#     4  11  22  37  58  84 112 144 187 235 281 335
#     4  10  22  39  58  83 114 150 194 237 281 338
#
# _framework density 19.192346000000001
#
# number of rings (size 3 to 8) (size 9 to 14) (size 15 to 20)
#    0.000    1.875    1.250    2.250    0.000    8.500 
#    0.000    2.500    0.000    0.000    0.000    0.000 
#    0.000    0.000    0.000    0.000    0.000    0.000 
#
# Total GULP energy -793878.817883 kJ/mol
# GULP energy per Si atom -12404.356529 kJ/mol
# Density = 1.914866 g / cm^3
# Si number density = 19.192346 Si / 1000 Ang^3
#
#
#
# Elastic Constant Matrix: (Units=GPa)
#
#
# Indices 1 2 3 4 5 6 
#
# 1 76.1030 36.5679 43.3451 0.0000 0.0000 0.0000
# 2 36.5679 80.3383 43.2187 0.0000 0.0000 0.0000
# 3 43.3451 43.2187 122.6095 0.0000 0.0000 0.0000
# 4 0.0000 0.0000 0.0000 24.5399 0.0000 0.0000
# 5 0.0000 0.0000 0.0000 0.0000 34.7287 0.0000
# 6 0.0000 0.0000 0.0000 0.0000 0.0000 27.4215
#
#
#
# Elastic Compliance Matrix: (Units=1/GPa)
#
#
# Indices 1 2 3 4 5 6 
#
# 1 0.018581 -0.006076 -0.004427 0.000000 0.000000 0.000000
# 2 -0.006076 0.017347 -0.003967 0.000000 0.000000 0.000000
# 3 -0.004427 -0.003967 0.011119 0.000000 0.000000 0.000000
# 4 0.000000 0.000000 0.000000 0.040750 0.000000 0.000000
# 5 0.000000 0.000000 0.000000 0.000000 0.028795 0.000000
# 6 0.000000 0.000000 0.000000 0.000000 0.000000 0.036468
#
#
# Mechanical properties :
#
#
# Convention : Reuss Voigt Hill
#
# Bulk Modulus (GPa) = 55.22487 58.36826 56.79657
# Shear Modulus (GPa) = 26.59080 27.73264 27.16172
#
# Velocity S-wave (km/s) = 3.72626 3.80542 3.76604
# Velocity P-wave (km/s) = 6.88115 7.05596 6.96910
#
# Compressibility (1/GPa) = 0.01810778
#
# Stress axis : x y z
#
# Youngs Moduli (GPa) = 53.81802 57.64724 89.93431
#
# Poissons Ratio (x) = 0.35027 0.39815
# Poissons Ratio (y) = 0.32700 0.35673
# Poissons Ratio (z) = 0.23826 0.22866
#
# Static dielectric constant tensor:
#      x y z
#    x 3.542320 0.000000 0.000000 
#    y 0.000000 3.505520 0.000000 
#    z 0.000000 0.000000 3.730300 
# 
# 
# High freq. dielectric constant tensor:
#      x y z
#    x 1.746190 0.000000 0.000000 
#    y 0.000000 1.743260 0.000000 
#    z 0.000000 0.000000 1.760360 
# 
# From -- ./inp_files/29544.got.cif
#   From: 2010.03.12/outbox.cif.g09.slc.cpg/sg59_15_cif.got.tgz:29544.got - 2010.04.16 16:29:54.
