data_PCOD8244722
_publ_section_title
;
Structure prediction by ZEFSAII (Michael W. Deem and Ramdas Pophale) SiO2 
 PCOD8244722
Probable space group: P M M N
;
_chemical_formula_sum "Si O2"
_cell_formula_units_Z 48
_cell_length_a 8.693558
_cell_length_b 15.036696
_cell_length_c 19.070598
_cell_angle_alpha 90.000000
_cell_angle_beta 90.000000
_cell_angle_gamma 90.000000
_cell_volume 2492.954126
_symmetry_space_group_name_H-M "P M M N"
_symmetry_group_IT_number 59
_space_group.IT_coordinate_system_code '2'
_symmetry_cell_setting 'orthorhombic'
loop_
_space_group_symop_operation_xyz
x,y,z
1/2-x,1/2-y,z
1/2+x,-y,-z
-x,1/2+y,-z
-x,-y,-z
1/2+x,1/2+y,-z
1/2-x,y,z
x,1/2-y,z
loop_
_atom_site_type_symbol
_atom_site_label
_atom_site_fract_x
_atom_site_fract_y
_atom_site_fract_z
Si Si1 0.426431 0.146855 0.584507
Si Si2 0.568580 0.001701 0.832116
Si Si3 0.071106 0.852798 0.924627
Si Si4 0.430983 0.499386 0.326288
Si Si5 0.571377 0.648131 0.072278
Si Si6 0.933406 0.651570 0.572576
O O1 0.250000 0.117119 0.591485
O O2 0.445867 0.250000 0.602663
O O3 0.488646 0.127009 0.506020
O O4 0.526149 0.093495 0.640448
O O5 0.750000 0.018152 0.835616
O O6 0.482978 0.086137 0.864811
O O7 0.527413 0.910516 0.870945
O O8 0.506823 0.993280 0.752772
O O9 0.250000 0.874616 0.915071
O O10 0.033391 0.750000 0.909182
O O11 0.023967 0.878199 0.003399
O O12 0.250000 0.488726 0.325865
O O13 0.503289 0.419185 0.372585
O O14 0.750000 0.631818 0.056147
O O15 0.539606 0.750000 0.094078
O O16 0.750000 0.651736 0.572839
O O17 0.993560 0.750000 0.593314
#
# Coordination Sequence:
#
# PCOD8244722 Si02
#       6
#     8   8   8   8   8   8
#     4   9  18  33  54  77 101 134 174 216 263 312
#     4  11  23  36  52  78 112 146 178 215 261 314
#     4  10  21  38  60  83 107 137 174 218 265 312
#     4  10  21  34  51  77 106 139 175 213 259 306
#     4  10  21  38  60  82 104 136 179 223 265 312
#     4   8  15  31  54  77 101 132 173 217 260 309
#
# _framework density 19.254266000000001
#
# number of rings (size 3 to 8) (size 9 to 14) (size 15 to 20)
#    0.000    2.333    0.000    3.500    0.000    5.000 
#    0.000    5.000    0.000    1.500    0.000    0.000 
#    0.000    0.000    0.000    0.000    0.000    0.000 
#
# Total GULP energy -595285.330166 kJ/mol
# GULP energy per Si atom -12401.777712 kJ/mol
# Density = 1.921044 g / cm^3
# Si number density = 19.254266 Si / 1000 Ang^3
#
#
#
# Elastic Constant Matrix: (Units=GPa)
#
#
# Indices 1 2 3 4 5 6 
#
# 1 23.5606 18.3474 15.7513 0.0000 0.0000 0.0000
# 2 18.3474 106.3142 70.8341 0.0000 0.0000 0.0000
# 3 15.7513 70.8341 130.8029 0.0000 0.0000 0.0000
# 4 0.0000 0.0000 0.0000 17.4328 0.0000 0.0000
# 5 0.0000 0.0000 0.0000 0.0000 17.4896 0.0000
# 6 0.0000 0.0000 0.0000 0.0000 0.0000 30.4531
#
#
#
# Elastic Compliance Matrix: (Units=1/GPa)
#
#
# Indices 1 2 3 4 5 6 
#
# 1 0.049394 -0.007136 -0.002084 0.000000 0.000000 0.000000
# 2 -0.007136 0.015747 -0.007668 0.000000 0.000000 0.000000
# 3 -0.002084 -0.007668 0.012048 0.000000 0.000000 0.000000
# 4 0.000000 0.000000 0.000000 0.057363 0.000000 0.000000
# 5 0.000000 0.000000 0.000000 0.000000 0.057177 0.000000
# 6 0.000000 0.000000 0.000000 0.000000 0.000000 0.032837
#
#
# Mechanical properties :
#
#
# Convention : Reuss Voigt Hill
#
# Bulk Modulus (GPa) = 23.03427 52.28259 37.65843
# Shear Modulus (GPa) = 18.32763 23.45811 20.89287
#
# Velocity S-wave (km/s) = 3.08859 3.49425 3.29766
# Velocity P-wave (km/s) = 4.97075 6.59488 5.83956
#
# Compressibility (1/GPa) = 0.04341357
#
# Stress axis : x y z
#
# Youngs Moduli (GPa) = 20.24550 63.50606 82.99821
#
# Poissons Ratio (x) = 0.45318 0.17294
# Poissons Ratio (y) = 0.14447 0.63643
# Poissons Ratio (z) = 0.04218 0.48696
#
# Static dielectric constant tensor:
#      x y z
#    x 3.292020 0.000000 0.000000 
#    y 0.000000 3.640610 0.000000 
#    z 0.000000 0.000000 3.623290 
# 
# 
# High freq. dielectric constant tensor:
#      x y z
#    x 1.732090 0.000000 0.000000 
#    y 0.000000 1.760870 0.000000 
#    z 0.000000 0.000000 1.747220 
# 
# From -- ./inp_files/25414.got.cif
#   From: 2010.03.12/outbox.cif.g09.slc.cpg/sg59_13_cif.got.tgz:25414.got - 2010.04.16 16:29:54.
