data_PCOD8244772
_publ_section_title
;
Structure prediction by ZEFSAII (Michael W. Deem and Ramdas Pophale) SiO2 
 PCOD8244772
Probable space group: P M M N
;
_chemical_formula_sum "Si O2"
_cell_formula_units_Z 48
_cell_length_a 24.795475
_cell_length_b 8.886324
_cell_length_c 11.770642
_cell_angle_alpha 90.000000
_cell_angle_beta 90.000000
_cell_angle_gamma 90.000000
_cell_volume 2593.550610
_symmetry_space_group_name_H-M "P M M N"
_symmetry_group_IT_number 59
_space_group.IT_coordinate_system_code '2'
_symmetry_cell_setting 'orthorhombic'
loop_
_space_group_symop_operation_xyz
x,y,z
1/2-x,1/2-y,z
1/2+x,-y,-z
-x,1/2+y,-z
-x,-y,-z
1/2+x,1/2+y,-z
1/2-x,y,z
x,1/2-y,z
loop_
_atom_site_type_symbol
_atom_site_label
_atom_site_fract_x
_atom_site_fract_y
_atom_site_fract_z
Si Si1 0.499215 0.572892 0.378127
Si Si2 0.398268 0.928287 0.229537
Si Si3 0.602413 0.924848 0.237090
Si Si4 0.441624 0.073806 0.008199
Si Si5 0.686886 0.924585 0.617836
Si Si6 0.187820 0.574972 0.615994
O O1 0.500000 0.500000 0.500000
O O2 0.498708 0.750000 0.392710
O O3 0.446499 0.518206 0.311164
O O4 0.550952 0.518495 0.308005
O O5 0.396852 0.750000 0.214910
O O6 0.406162 0.002299 0.107291
O O7 0.342418 0.986473 0.281557
O O8 0.613726 0.750000 0.259430
O O9 0.654287 0.019207 0.275715
O O10 0.591928 0.957752 0.105593
O O11 0.450044 0.250000 0.028720
O O12 0.500000 0.000000 0.000000
O O13 0.750000 0.952776 0.635241
O O14 0.671464 0.750000 0.623528
O O15 0.667888 0.987512 0.496068
O O16 0.250000 0.539731 0.642318
O O17 0.177676 0.750000 0.594171
#
# Coordination Sequence:
#
# PCOD8244772 Si02
#       6
#     8   8   8   8   8   8
#     4  10  21  35  51  79 114 144 179 228 280 336
#     4  11  22  38  58  84 116 149 191 238 287 342
#     4  10  21  38  57  80 113 149 192 234 278 339
#     4  11  22  39  60  83 113 154 196 237 286 341
#     4  10  21  38  60  86 116 152 193 235 284 342
#     4  10  21  37  58  86 117 149 189 236 287 340
#
# _framework density 18.507446999999999
#
# number of rings (size 3 to 8) (size 9 to 14) (size 15 to 20)
#    0.000    1.667    1.667    3.000    0.000    8.000 
#    0.000    0.833    0.000    1.000    0.000    0.000 
#    0.000    0.000    0.000    0.000    0.000    0.000 
#
# Total GULP energy -595481.744584 kJ/mol
# GULP energy per Si atom -12405.869679 kJ/mol
# Density = 1.846532 g / cm^3
# Si number density = 18.507447 Si / 1000 Ang^3
#
#
#
# Elastic Constant Matrix: (Units=GPa)
#
#
# Indices 1 2 3 4 5 6 
#
# 1 88.8412 50.0237 61.4853 0.0000 0.0000 0.0000
# 2 50.0237 87.6087 64.7375 0.0000 0.0000 0.0000
# 3 61.4853 64.7375 144.3776 0.0000 0.0000 0.0000
# 4 0.0000 0.0000 0.0000 36.5112 0.0000 0.0000
# 5 0.0000 0.0000 0.0000 0.0000 28.4753 0.0000
# 6 0.0000 0.0000 0.0000 0.0000 0.0000 33.5400
#
#
#
# Elastic Compliance Matrix: (Units=1/GPa)
#
#
# Indices 1 2 3 4 5 6 
#
# 1 0.018501 -0.007092 -0.004699 0.000000 0.000000 0.000000
# 2 -0.007092 0.019789 -0.005853 0.000000 0.000000 0.000000
# 3 -0.004699 -0.005853 0.011552 0.000000 0.000000 0.000000
# 4 0.000000 0.000000 0.000000 0.027389 0.000000 0.000000
# 5 0.000000 0.000000 0.000000 0.000000 0.035118 0.000000
# 6 0.000000 0.000000 0.000000 0.000000 0.000000 0.029815
#
#
# Mechanical properties :
#
#
# Convention : Reuss Voigt Hill
#
# Bulk Modulus (GPa) = 68.70849 74.81340 71.76095
# Shear Modulus (GPa) = 27.42683 29.34403 28.38543
#
# Velocity S-wave (km/s) = 3.85377 3.98619 3.92054
# Velocity P-wave (km/s) = 7.55032 7.85477 7.70405
#
# Compressibility (1/GPa) = 0.01455424
#
# Stress axis : x y z
#
# Youngs Moduli (GPa) = 54.04991 50.53412 86.56567
#
# Poissons Ratio (x) = 0.35837 0.40680
# Poissons Ratio (y) = 0.38330 0.50666
# Poissons Ratio (z) = 0.25400 0.29577
#
# Static dielectric constant tensor:
#      x y z
#    x 3.440480 0.000000 0.000000 
#    y 0.000000 3.465630 0.000000 
#    z 0.000000 0.000000 3.573280 
# 
# 
# High freq. dielectric constant tensor:
#      x y z
#    x 1.718180 0.000000 0.000000 
#    y 0.000000 1.727130 0.000000 
#    z 0.000000 0.000000 1.721380 
# 
# From -- ./inp_files/14298.got.cif
#   From: 2010.03.12/outbox.cif.g09.slc.cpg/sg59_8_cif.got.tgz:14298.got - 2010.04.16 16:29:54.
