data_PCOD8244059
_publ_section_title
;
Structure prediction by ZEFSAII (Michael W. Deem and Ramdas Pophale) SiO2 
 PCOD8244059
Probable space group: P M M N
;
_chemical_formula_sum "Si O2"
_cell_formula_units_Z 48
_cell_length_a 8.874617
_cell_length_b 17.923076
_cell_length_c 15.411877
_cell_angle_alpha 90.000000
_cell_angle_beta 90.000000
_cell_angle_gamma 90.000000
_cell_volume 2451.419859
_symmetry_space_group_name_H-M "P M M N"
_symmetry_group_IT_number 59
_space_group.IT_coordinate_system_code '2'
_symmetry_cell_setting 'orthorhombic'
loop_
_space_group_symop_operation_xyz
x,y,z
1/2-x,1/2-y,z
1/2+x,-y,-z
-x,1/2+y,-z
-x,-y,-z
1/2+x,1/2+y,-z
1/2-x,y,z
x,1/2-y,z
loop_
_atom_site_type_symbol
_atom_site_label
_atom_site_fract_x
_atom_site_fract_y
_atom_site_fract_z
Si Si1 0.072053 0.666655 0.837533
Si Si2 0.575269 0.579557 0.497067
Si Si3 0.926639 0.400870 0.672071
Si Si4 0.578518 0.924605 0.689084
Si Si5 0.422863 0.163333 0.837095
Si Si6 0.428525 0.919561 0.006281
O O1 0.250000 0.670883 0.841119
O O2 0.003307 0.750000 0.830095
O O3 0.010878 0.629204 0.925620
O O4 0.028198 0.617613 0.755199
O O5 0.500000 0.500000 0.500000
O O6 0.750000 0.571781 0.472308
O O7 0.489877 0.626069 0.422054
O O8 0.557066 0.613465 0.593948
O O9 0.750000 0.384598 0.675985
O O10 0.963931 0.487997 0.687419
O O11 0.012120 0.351359 0.742084
O O12 0.750000 0.915294 0.720407
O O13 0.250000 0.136538 0.841662
O O14 0.437172 0.250000 0.859103
O O15 0.522140 0.118051 0.904790
O O16 0.250000 0.927225 0.005437
O O17 0.500000 0.000000 0.000000
#
# Coordination Sequence:
#
# PCOD8244059 Si02
#       6
#     8   8   8   8   8   8
#     4  10  22  38  55  78 109 145 182 221 269 324
#     4   9  17  31  52  80 113 146 185 233 281 329
#     4  10  20  35  57  84 112 145 188 234 282 337
#     4   9  19  34  54  82 111 142 182 228 276 325
#     4  11  24  40  58  83 115 150 188 231 282 340
#     4  11  23  40  62  86 113 145 185 232 280 333
#
# _framework density 19.580487999999999
#
# number of rings (size 3 to 8) (size 9 to 14) (size 15 to 20)
#    0.000    2.000    0.000    4.500    0.000   10.333 
#    0.000    0.833    0.000    1.000    0.000    0.000 
#    0.000    0.000    0.000    0.000    0.000    0.000 
#
# Total GULP energy -595191.447600 kJ/mol
# GULP energy per Si atom -12399.821825 kJ/mol
# Density = 1.953592 g / cm^3
# Si number density = 19.580488 Si / 1000 Ang^3
#
#
#
# Elastic Constant Matrix: (Units=GPa)
#
#
# Indices 1 2 3 4 5 6 
#
# 1 74.2588 30.8115 33.8768 0.0000 0.0000 0.0000
# 2 30.8115 59.3409 20.7549 0.0000 0.0000 0.0000
# 3 33.8768 20.7549 109.8663 0.0000 0.0000 0.0000
# 4 0.0000 0.0000 0.0000 8.6283 0.0000 0.0000
# 5 0.0000 0.0000 0.0000 0.0000 40.4780 0.0000
# 6 0.0000 0.0000 0.0000 0.0000 0.0000 27.1551
#
#
#
# Elastic Compliance Matrix: (Units=1/GPa)
#
#
# Indices 1 2 3 4 5 6 
#
# 1 0.018847 -0.008302 -0.004243 0.000000 0.000000 0.000000
# 2 -0.008302 0.021701 -0.001540 0.000000 0.000000 0.000000
# 3 -0.004243 -0.001540 0.010701 0.000000 0.000000 0.000000
# 4 0.000000 0.000000 0.000000 0.115897 0.000000 0.000000
# 5 0.000000 0.000000 0.000000 0.000000 0.024705 0.000000
# 6 0.000000 0.000000 0.000000 0.000000 0.000000 0.036826
#
#
# Mechanical properties :
#
#
# Convention : Reuss Voigt Hill
#
# Bulk Modulus (GPa) = 43.32801 46.03913 44.68357
# Shear Modulus (GPa) = 18.90088 25.78714 22.34401
#
# Velocity S-wave (km/s) = 3.11028 3.63296 3.38174
# Velocity P-wave (km/s) = 5.92239 6.41574 6.17399
#
# Compressibility (1/GPa) = 0.02307976
#
# Stress axis : x y z
#
# Youngs Moduli (GPa) = 53.06000 46.08136 93.44788
#
# Poissons Ratio (x) = 0.38255 0.39650
# Poissons Ratio (y) = 0.44049 0.14388
# Poissons Ratio (z) = 0.22513 0.07095
#
# Static dielectric constant tensor:
#      x y z
#    x 3.669720 0.000000 0.000000 
#    y 0.000000 3.380350 0.000000 
#    z 0.000000 0.000000 3.989490 
# 
# 
# High freq. dielectric constant tensor:
#      x y z
#    x 1.769050 0.000000 0.000000 
#    y 0.000000 1.740090 0.000000 
#    z 0.000000 0.000000 1.782760 
# 
# From -- ./inp_files/20356.got.cif
#   From: 2010.03.12/outbox.cif.g09.slc.cpg/sg59_11_cif.got.tgz:20356.got - 2010.04.16 16:29:54.
