data_PCOD8244432
_publ_section_title
;
Structure prediction by ZEFSAII (Michael W. Deem and Ramdas Pophale) SiO2 
 PCOD8244432
Probable space group: P M M N
;
_chemical_formula_sum "Si O2"
_cell_formula_units_Z 48
_cell_length_a 10.108954
_cell_length_b 17.254337
_cell_length_c 13.916883
_cell_angle_alpha 90.000000
_cell_angle_beta 90.000000
_cell_angle_gamma 90.000000
_cell_volume 2427.428645
_symmetry_space_group_name_H-M "P M M N"
_symmetry_group_IT_number 59
_space_group.IT_coordinate_system_code '2'
_symmetry_cell_setting 'orthorhombic'
loop_
_space_group_symop_operation_xyz
x,y,z
1/2-x,1/2-y,z
1/2+x,-y,-z
-x,1/2+y,-z
-x,-y,-z
1/2+x,1/2+y,-z
1/2-x,y,z
x,1/2-y,z
loop_
_atom_site_type_symbol
_atom_site_label
_atom_site_fract_x
_atom_site_fract_y
_atom_site_fract_z
Si Si1 0.750000 0.157270 0.772922
Si Si2 0.250000 0.159817 0.806561
Si Si3 0.489537 0.340155 0.671157
Si Si4 0.250000 0.916862 0.017453
Si Si5 0.594735 0.571860 0.513571
Si Si6 0.250000 0.402725 0.008418
Si Si7 0.014642 0.839683 0.907063
Si Si8 0.900507 0.661036 0.706445
O O1 0.750000 0.250000 0.780323
O O2 0.875056 0.123971 0.713547
O O3 0.750000 0.126371 0.881170
O O4 0.250000 0.250000 0.838229
O O5 0.377614 0.137983 0.746088
O O6 0.250000 0.100917 0.894035
O O7 0.510034 0.250000 0.660819
O O8 0.447777 0.367773 0.566812
O O9 0.377161 0.894782 0.954608
O O10 0.250000 0.007986 0.040460
O O11 0.500000 0.500000 0.500000
O O12 0.750000 0.550181 0.504530
O O13 0.561934 0.607801 0.616918
O O14 0.124187 0.356032 0.044279
O O15 0.053713 0.750000 0.923651
O O16 0.000761 0.858038 0.793461
O O17 0.750000 0.644655 0.740739
O O18 0.914896 0.750000 0.674139
#
# Coordination Sequence:
#
# PCOD8244432 Si02
#       8
#     4   4   8   4   8   4   8   8
#     4  10  22  40  62  88 120 166 208 250 310 380
#     4  10  20  36  60  88 116 156 210 260 302 358
#     4  10  21  40  64  88 116 157 210 257 299 357
#     4  12  26  40  61  94 137 166 203 258 336 374
#     4  11  24  40  62  92 128 163 197 248 317 375
#     4  12  24  38  61  94 125 164 207 266 316 376
#     4  11  22  42  65  89 121 167 218 261 306 372
#     4   9  19  39  67  92 114 157 215 259 297 357
#
# _framework density 19.774011000000002
#
# number of rings (size 3 to 8) (size 9 to 14) (size 15 to 20)
#    0.000    1.500    1.667    3.500    1.167    4.667 
#    1.500    0.000    0.000    0.000    0.000    0.000 
#    0.000    0.000    0.000    0.000    0.000    0.000 
#
# Total GULP energy -595252.755301 kJ/mol
# GULP energy per Si atom -12401.099069 kJ/mol
# Density = 1.972900 g / cm^3
# Si number density = 19.774011 Si / 1000 Ang^3
#
#
#
# Elastic Constant Matrix: (Units=GPa)
#
#
# Indices 1 2 3 4 5 6 
#
# 1 125.3053 9.2204 45.7298 0.0000 0.0000 0.0000
# 2 9.2204 20.0391 20.7235 0.0000 0.0000 0.0000
# 3 45.7298 20.7235 113.2016 0.0000 0.0000 0.0000
# 4 0.0000 0.0000 0.0000 16.4460 0.0000 0.0000
# 5 0.0000 0.0000 0.0000 0.0000 18.5395 0.0000
# 6 0.0000 0.0000 0.0000 0.0000 0.0000 -44.3325
#
#
#
# Elastic Compliance Matrix: (Units=1/GPa)
#
#
# Indices 1 2 3 4 5 6 
#
# 1 0.009364 -0.000489 -0.003693 0.000000 0.000000 0.000000
# 2 -0.000489 0.061582 -0.011076 0.000000 0.000000 0.000000
# 3 -0.003693 -0.011076 0.012353 0.000000 0.000000 0.000000
# 4 0.000000 0.000000 0.000000 0.060805 0.000000 0.000000
# 5 0.000000 0.000000 0.000000 0.000000 0.053939 0.000000
# 6 0.000000 0.000000 0.000000 0.000000 0.000000 -0.022557
#
#
# Mechanical properties :
#
#
# Convention : Reuss Voigt Hill
#
# Bulk Modulus (GPa) = 18.94571 45.54374 32.24473
# Shear Modulus (GPa) = 22.36155 10.32207 16.34181
#
# Velocity S-wave (km/s) = 3.36647 2.28721 2.87789
# Velocity P-wave (km/s) = 4.97119 5.48245 5.23307
#
# Compressibility (1/GPa) = 0.05278238
#
# Stress axis : x y z
#
# Youngs Moduli (GPa) = 106.78754 16.23859 80.94913
#
# Poissons Ratio (x) = 0.00794 0.29897
# Poissons Ratio (y) = 0.05225 0.89659
# Poissons Ratio (z) = 0.39440 0.17986
#
# Static dielectric constant tensor:
#      x y z
#    x 8.686400 0.000000 0.000000 
#    y 0.000000 3.513540 0.000000 
#    z 0.000000 0.000000 4.873120 
# 
# 
# High freq. dielectric constant tensor:
#      x y z
#    x 1.777030 0.000000 0.000000 
#    y 0.000000 1.762730 0.000000 
#    z 0.000000 0.000000 1.786370 
# 
# From -- ./inp_files/20640.got.cif
#   From: 2010.03.12/outbox.cif.g09.slc.cpg/sg59_11_cif.got.tgz:20640.got - 2010.04.16 16:29:54.
