data_PCOD8244002
_publ_section_title
;
Structure prediction by ZEFSAII (Michael W. Deem and Ramdas Pophale) SiO2 
 PCOD8244002
Probable space group: P M M N
;
_chemical_formula_sum "Si O2"
_cell_formula_units_Z 56
_cell_length_a 22.314386
_cell_length_b 8.717464
_cell_length_c 14.488432
_cell_angle_alpha 90.000000
_cell_angle_beta 90.000000
_cell_angle_gamma 90.000000
_cell_volume 2818.360158
_symmetry_space_group_name_H-M "P M M N"
_symmetry_group_IT_number 59
_space_group.IT_coordinate_system_code '2'
_symmetry_cell_setting 'orthorhombic'
loop_
_space_group_symop_operation_xyz
x,y,z
1/2-x,1/2-y,z
1/2+x,-y,-z
-x,1/2+y,-z
-x,-y,-z
1/2+x,1/2+y,-z
1/2-x,y,z
x,1/2-y,z
loop_
_atom_site_type_symbol
_atom_site_label
_atom_site_fract_x
_atom_site_fract_y
_atom_site_fract_z
Si Si1 0.750000 0.567646 0.182607
Si Si2 0.750000 0.566135 0.971978
Si Si3 0.022382 0.430951 0.718299
Si Si4 0.486757 0.078144 0.095033
Si Si5 0.853957 0.579577 0.847052
Si Si6 0.817108 0.425687 0.515850
Si Si7 0.401741 0.431220 0.341478
Si Si8 0.350253 0.571600 0.690621
O O1 0.750000 0.750000 0.186888
O O2 0.750000 0.505287 0.077052
O O3 0.810299 0.507664 0.230928
O O4 0.750000 0.750000 0.977035
O O5 0.806623 0.497286 0.914818
O O6 0.023940 0.250000 0.708300
O O7 0.015213 0.476841 0.824583
O O8 0.084255 0.499165 0.681909
O O9 0.967807 0.494932 0.655980
O O10 0.513755 0.250000 0.100222
O O11 0.415820 0.084116 0.099569
O O12 0.500000 0.000000 0.000000
O O13 0.829118 0.750000 0.828394
O O14 0.864173 0.501111 0.746432
O O15 0.750000 0.465837 0.550386
O O16 0.833223 0.250000 0.538560
O O17 0.865571 0.532633 0.565943
O O18 0.818463 0.455582 0.407035
O O19 0.411100 0.250000 0.329241
O O20 0.355584 0.750000 0.715010
#
# Coordination Sequence:
#
# PCOD8244002 Si02
#       8
#     4   4   8   8   8   8   8   8
#     4  11  23  37  60  91 122 158 205 251 298 365
#     4   9  18  33  54  83 118 154 191 239 292 347
#     4  11  23  40  62  88 120 159 202 254 310 367
#     4  10  20  35  56  85 118 158 203 248 299 361
#     4   8  17  33  53  81 119 152 189 235 289 350
#     4  10  22  41  63  88 120 162 201 243 306 367
#     4  10  21  38  62  93 123 155 199 251 305 367
#     4  11  23  43  65  86 121 162 202 254 308 363
#
# _framework density 19.869712
#
# number of rings (size 3 to 8) (size 9 to 14) (size 15 to 20)
#    0.000    2.000    0.714    3.643    3.000    2.000 
#    0.000    0.000    0.000    2.571    0.000    0.000 
#    0.000    0.000    0.000    0.000    0.000    0.000 
#
# Total GULP energy -694309.116317 kJ/mol
# GULP energy per Si atom -12398.377077 kJ/mol
# Density = 1.982449 g / cm^3
# Si number density = 19.869712 Si / 1000 Ang^3
#
#
#
# Elastic Constant Matrix: (Units=GPa)
#
#
# Indices 1 2 3 4 5 6 
#
# 1 118.3600 45.0111 44.4922 0.0000 0.0000 0.0000
# 2 45.0111 93.5528 33.0200 0.0000 0.0000 0.0000
# 3 44.4922 33.0200 70.5071 0.0000 0.0000 0.0000
# 4 0.0000 0.0000 0.0000 28.0383 0.0000 0.0000
# 5 0.0000 0.0000 0.0000 0.0000 31.0109 0.0000
# 6 0.0000 0.0000 0.0000 0.0000 0.0000 30.5568
#
#
#
# Elastic Compliance Matrix: (Units=1/GPa)
#
#
# Indices 1 2 3 4 5 6 
#
# 1 0.012077 -0.003739 -0.005870 0.000000 0.000000 0.000000
# 2 -0.003739 0.013963 -0.004180 0.000000 0.000000 0.000000
# 3 -0.005870 -0.004180 0.019845 0.000000 0.000000 0.000000
# 4 0.000000 0.000000 0.000000 0.035666 0.000000 0.000000
# 5 0.000000 0.000000 0.000000 0.000000 0.032247 0.000000
# 6 0.000000 0.000000 0.000000 0.000000 0.000000 0.032726
#
#
# Mechanical properties :
#
#
# Convention : Reuss Voigt Hill
#
# Bulk Modulus (GPa) = 54.62265 58.60739 56.61502
# Shear Modulus (GPa) = 27.74630 28.58096 28.16363
#
# Velocity S-wave (km/s) = 3.74091 3.79676 3.76894
# Velocity P-wave (km/s) = 6.79774 6.98430 6.89165
#
# Compressibility (1/GPa) = 0.01830742
#
# Stress axis : x y z
#
# Youngs Moduli (GPa) = 82.80024 71.61585 50.39104
#
# Poissons Ratio (x) = 0.26776 0.29580
# Poissons Ratio (y) = 0.30958 0.21064
# Poissons Ratio (z) = 0.48605 0.29936
#
# Static dielectric constant tensor:
#      x y z
#    x 3.902410 0.000000 0.000000 
#    y 0.000000 3.516320 0.000000 
#    z 0.000000 0.000000 3.619790 
# 
# 
# High freq. dielectric constant tensor:
#      x y z
#    x 1.784460 0.000000 0.000000 
#    y 0.000000 1.759190 0.000000 
#    z 0.000000 0.000000 1.778340 
# 
# From -- ./inp_files/24345.got.cif
#   From: 2010.03.12/outbox.cif.g09.slc.cpg/sg59_13_cif.got.tgz:24345.got - 2010.04.16 16:29:54.
