data_PCOD8244100
_publ_section_title
;
Structure prediction by ZEFSAII (Michael W. Deem and Ramdas Pophale) SiO2 
 PCOD8244100
Probable space group: P M M N
;
_chemical_formula_sum "Si O2"
_cell_formula_units_Z 56
_cell_length_a 8.983902
_cell_length_b 22.663446
_cell_length_c 14.686176
_cell_angle_alpha 90.000000
_cell_angle_beta 90.000000
_cell_angle_gamma 90.000000
_cell_volume 2990.196163
_symmetry_space_group_name_H-M "P M M N"
_symmetry_group_IT_number 59
_space_group.IT_coordinate_system_code '2'
_symmetry_cell_setting 'orthorhombic'
loop_
_space_group_symop_operation_xyz
x,y,z
1/2-x,1/2-y,z
1/2+x,-y,-z
-x,1/2+y,-z
-x,-y,-z
1/2+x,1/2+y,-z
1/2-x,y,z
x,1/2-y,z
loop_
_atom_site_type_symbol
_atom_site_label
_atom_site_fract_x
_atom_site_fract_y
_atom_site_fract_z
Si Si1 0.077436 0.635454 0.616776
Si Si2 0.079890 0.183202 0.558244
Si Si3 0.420354 0.458324 0.887958
Si Si4 0.577639 0.183433 0.188208
Si Si5 0.924591 0.515355 0.594437
Si Si6 0.574719 0.576731 0.913678
Si Si7 0.580210 0.916178 0.303066
O O1 0.250000 0.619054 0.605494
O O2 0.048544 0.676434 0.703954
O O3 0.025625 0.668418 0.525945
O O4 0.983969 0.576619 0.633212
O O5 0.250000 0.172064 0.527497
O O6 0.052821 0.250000 0.588605
O O7 0.039720 0.144876 0.647308
O O8 0.250000 0.478439 0.898370
O O9 0.511330 0.517999 0.865449
O O10 0.440164 0.411212 0.805980
O O11 0.473880 0.426033 0.980041
O O12 0.750000 0.173140 0.166159
O O13 0.528478 0.250000 0.161668
O O14 0.486720 0.136644 0.129325
O O15 0.750000 0.519650 0.579555
O O16 0.000000 0.500000 0.500000
O O17 0.964267 0.465155 0.665685
O O18 0.750000 0.577271 0.900180
O O19 0.750000 0.935068 0.326759
#
# Coordination Sequence:
#
# PCOD8244100 Si02
#       7
#     8   8   8   8   8   8   8
#     4  11  22  37  57  80 108 145 186 229 276 329
#     4  10  21  36  54  76 104 141 184 226 267 318
#     4   9  19  36  58  83 112 146 180 221 280 340
#     4  10  22  39  57  79 111 152 191 227 277 337
#     4  12  23  35  53  81 113 145 180 225 275 324
#     4  10  20  35  57  86 113 140 180 232 280 327
#     4  10  20  36  56  79 110 145 181 223 271 328
#
# _framework density 18.727868000000001
#
# number of rings (size 3 to 8) (size 9 to 14) (size 15 to 20)
#    0.000    1.714    1.429    3.429    0.000    6.857 
#    0.000    0.714    0.000    2.571    0.000    0.000 
#    0.000    0.000    0.000    0.000    0.000    0.000 
#
# Total GULP energy -694460.944905 kJ/mol
# GULP energy per Si atom -12401.088302 kJ/mol
# Density = 1.868524 g / cm^3
# Si number density = 18.727868 Si / 1000 Ang^3
#
#
#
# Elastic Constant Matrix: (Units=GPa)
#
#
# Indices 1 2 3 4 5 6 
#
# 1 98.8696 54.5405 44.4708 0.0000 0.0000 0.0000
# 2 54.5405 133.0150 62.6820 0.0000 0.0000 0.0000
# 3 44.4708 62.6820 112.2123 0.0000 0.0000 0.0000
# 4 0.0000 0.0000 0.0000 26.7579 0.0000 0.0000
# 5 0.0000 0.0000 0.0000 0.0000 27.5873 0.0000
# 6 0.0000 0.0000 0.0000 0.0000 0.0000 27.1878
#
#
#
# Elastic Compliance Matrix: (Units=1/GPa)
#
#
# Indices 1 2 3 4 5 6 
#
# 1 0.013842 -0.004195 -0.003142 0.000000 0.000000 0.000000
# 2 -0.004195 0.011475 -0.004748 0.000000 0.000000 0.000000
# 3 -0.003142 -0.004748 0.012809 0.000000 0.000000 0.000000
# 4 0.000000 0.000000 0.000000 0.037372 0.000000 0.000000
# 5 0.000000 0.000000 0.000000 0.000000 0.036249 0.000000
# 6 0.000000 0.000000 0.000000 0.000000 0.000000 0.036781
#
#
# Mechanical properties :
#
#
# Convention : Reuss Voigt Hill
#
# Bulk Modulus (GPa) = 71.65160 74.16482 72.90821
# Shear Modulus (GPa) = 28.19286 28.46683 28.32985
#
# Velocity S-wave (km/s) = 3.88415 3.90298 3.89358
# Velocity P-wave (km/s) = 7.64578 7.74586 7.69598
#
# Compressibility (1/GPa) = 0.01395642
#
# Stress axis : x y z
#
# Youngs Moduli (GPa) = 72.24509 87.14432 78.06940
#
# Poissons Ratio (x) = 0.36555 0.24533
# Poissons Ratio (y) = 0.30305 0.37065
# Poissons Ratio (z) = 0.22703 0.41373
#
# Static dielectric constant tensor:
#      x y z
#    x 3.534760 0.000000 0.000000 
#    y 0.000000 3.481420 0.000000 
#    z 0.000000 0.000000 3.202350 
# 
# 
# High freq. dielectric constant tensor:
#      x y z
#    x 1.729440 0.000000 0.000000 
#    y 0.000000 1.720670 0.000000 
#    z 0.000000 0.000000 1.728820 
# 
# From -- ./inp_files/20999.got.cif
#   From: 2010.03.12/outbox.cif.g09.slc.cpg/sg59_11_cif.got.tgz:20999.got - 2010.04.16 16:29:54.
