data_PCOD8244939
_publ_section_title
;
Structure prediction by ZEFSAII (Michael W. Deem and Ramdas Pophale) SiO2 
 PCOD8244939
Probable space group: P M M N
;
_chemical_formula_sum "Si O2"
_cell_formula_units_Z 48
_cell_length_a 9.048791
_cell_length_b 9.178622
_cell_length_c 30.870608
_cell_angle_alpha 90.000000
_cell_angle_beta 90.000000
_cell_angle_gamma 90.000000
_cell_volume 2563.971688
_symmetry_space_group_name_H-M "P M M N"
_symmetry_group_IT_number 59
_space_group.IT_coordinate_system_code '2'
_symmetry_cell_setting 'orthorhombic'
loop_
_space_group_symop_operation_xyz
x,y,z
1/2-x,1/2-y,z
1/2+x,-y,-z
-x,1/2+y,-z
-x,-y,-z
1/2+x,1/2+y,-z
1/2-x,y,z
x,1/2-y,z
loop_
_atom_site_type_symbol
_atom_site_label
_atom_site_fract_x
_atom_site_fract_y
_atom_site_fract_z
Si Si1 0.423658 0.083251 0.875874
Si Si2 0.578082 0.418691 0.789724
Si Si3 0.923271 0.079196 0.539700
Si Si4 0.424373 0.917548 0.960930
Si Si5 0.922841 0.080591 0.382738
Si Si6 0.581409 0.580246 0.704882
O O1 0.250000 0.069683 0.869992
O O2 0.472598 0.250000 0.884104
O O3 0.497028 0.020344 0.832306
O O4 0.480236 0.987896 0.916107
O O5 0.750000 0.449776 0.796004
O O6 0.541585 0.250000 0.783343
O O7 0.518145 0.499931 0.747185
O O8 0.750000 0.046037 0.538149
O O9 0.956344 0.250000 0.536564
O O10 0.000000 0.000000 0.500000
O O11 0.988894 0.018282 0.583958
O O12 0.250000 0.936011 0.965793
O O13 0.473366 0.750000 0.961564
O O14 0.500000 0.000000 0.000000
O O15 0.750000 0.046895 0.386489
O O16 0.956524 0.250000 0.392430
O O17 0.978563 0.036226 0.335223
O O18 0.750000 0.532022 0.694781
O O19 0.572540 0.750000 0.714542
#
# Coordination Sequence:
#
# PCOD8244939 Si02
#       6
#     8   8   8   8   8   8
#     4   9  18  33  51  71  99 134 169 208 258 313
#     4   9  18  32  50  73 101 133 171 215 260 307
#     4  11  24  40  59  84 112 143 180 221 266 317
#     4  10  21  36  54  77 104 135 172 214 261 313
#     4  10  21  37  57  82 111 143 181 223 267 316
#     4   9  18  33  52  74 103 139 175 213 261 313
#
# _framework density 18.720956000000001
#
# number of rings (size 3 to 8) (size 9 to 14) (size 15 to 20)
#    0.000    2.333    0.000    2.000    0.000    8.000 
#    0.000    3.333    0.000    0.000    0.000    0.000 
#    0.000    0.000    0.000    0.000    0.000    0.000 
#
# Total GULP energy -595353.707540 kJ/mol
# GULP energy per Si atom -12403.202240 kJ/mol
# Density = 1.867835 g / cm^3
# Si number density = 18.720956 Si / 1000 Ang^3
#
#
#
# Elastic Constant Matrix: (Units=GPa)
#
#
# Indices 1 2 3 4 5 6 
#
# 1 72.6884 56.6891 69.7140 0.0000 0.0000 0.0000
# 2 56.6891 99.7083 91.8202 0.0000 0.0000 0.0000
# 3 69.7140 91.8202 185.5516 0.0000 0.0000 0.0000
# 4 0.0000 0.0000 0.0000 42.5690 0.0000 0.0000
# 5 0.0000 0.0000 0.0000 0.0000 41.1098 0.0000
# 6 0.0000 0.0000 0.0000 0.0000 0.0000 25.7563
#
#
#
# Elastic Compliance Matrix: (Units=1/GPa)
#
#
# Indices 1 2 3 4 5 6 
#
# 1 0.026722 -0.010927 -0.004633 0.000000 0.000000 0.000000
# 2 -0.010927 0.022894 -0.007224 0.000000 0.000000 0.000000
# 3 -0.004633 -0.007224 0.010705 0.000000 0.000000 0.000000
# 4 0.000000 0.000000 0.000000 0.023491 0.000000 0.000000
# 5 0.000000 0.000000 0.000000 0.000000 0.024325 0.000000
# 6 0.000000 0.000000 0.000000 0.000000 0.000000 0.038826
#
#
# Mechanical properties :
#
#
# Convention : Reuss Voigt Hill
#
# Bulk Modulus (GPa) = 67.77683 88.26609 78.02146
# Shear Modulus (GPa) = 25.32325 31.20200 28.26263
#
# Velocity S-wave (km/s) = 3.68185 4.08694 3.88967
# Velocity P-wave (km/s) = 7.37272 8.33795 7.87015
#
# Compressibility (1/GPa) = 0.01475430
#
# Stress axis : x y z
#
# Youngs Moduli (GPa) = 37.42211 43.67989 93.41753
#
# Poissons Ratio (x) = 0.47727 0.43279
# Poissons Ratio (y) = 0.40889 0.67483
# Poissons Ratio (z) = 0.17337 0.31553
#
# Static dielectric constant tensor:
#      x y z
#    x 3.413220 0.000000 0.000000 
#    y 0.000000 3.429850 0.000000 
#    z 0.000000 0.000000 3.680220 
# 
# 
# High freq. dielectric constant tensor:
#      x y z
#    x 1.722830 0.000000 0.000000 
#    y 0.000000 1.724440 0.000000 
#    z 0.000000 0.000000 1.742300 
# 
# From -- ./inp_files/32806.got.cif
#   From: 2010.03.12/outbox.cif.g09.slc.cpg/sg59_17_cif.got.tgz:32806.got - 2010.04.16 16:29:54.
