data_PCOD8244698
_publ_section_title
;
Structure prediction by ZEFSAII (Michael W. Deem and Ramdas Pophale) SiO2 
 PCOD8244698
Probable space group: P M M N
;
_chemical_formula_sum "Si O2"
_cell_formula_units_Z 64
_cell_length_a 15.790276
_cell_length_b 23.778949
_cell_length_c 8.650956
_cell_angle_alpha 90.000000
_cell_angle_beta 90.000000
_cell_angle_gamma 90.000000
_cell_volume 3248.227806
_symmetry_space_group_name_H-M "P M M N"
_symmetry_group_IT_number 59
_space_group.IT_coordinate_system_code '2'
_symmetry_cell_setting 'orthorhombic'
loop_
_space_group_symop_operation_xyz
x,y,z
1/2-x,1/2-y,z
1/2+x,-y,-z
-x,1/2+y,-z
-x,-y,-z
1/2+x,1/2+y,-z
1/2-x,y,z
x,1/2-y,z
loop_
_atom_site_type_symbol
_atom_site_label
_atom_site_fract_x
_atom_site_fract_y
_atom_site_fract_z
Si Si1 0.881169 0.688992 0.115992
Si Si2 0.486024 0.118175 0.237613
Si Si3 0.408424 0.477738 0.033023
Si Si4 0.159843 0.312894 0.244081
Si Si5 0.343131 0.420036 0.728782
Si Si6 0.346607 0.584693 0.207087
Si Si7 0.932281 0.183604 0.967494
Si Si8 0.490115 0.563747 0.459156
O O1 0.855327 0.750000 0.181037
O O2 0.831704 0.643591 0.214321
O O3 0.982310 0.680163 0.132508
O O4 0.856487 0.684677 0.938307
O O5 0.424579 0.075013 0.145099
O O6 0.418090 0.157236 0.327352
O O7 0.537599 0.091484 0.378188
O O8 0.550396 0.154961 0.134680
O O9 0.353390 0.528784 0.101991
O O10 0.500000 0.500000 0.000000
O O11 0.365093 0.459616 0.873876
O O12 0.250000 0.342393 0.281151
O O13 0.162617 0.250000 0.305679
O O14 0.250000 0.438225 0.662712
O O15 0.417098 0.419571 0.602624
O O16 0.250000 0.587838 0.269441
O O17 0.363595 0.643474 0.116044
O O18 0.414157 0.577937 0.343836
O O19 0.903415 0.250000 0.984233
O O20 0.500000 0.500000 0.500000
#
# Coordination Sequence:
#
# PCOD8244698 Si02
#       8
#     8   8   8   8   8   8   8   8
#     4   9  16  31  57  88 123 156 194 250 308 358
#     4  11  20  36  65  85 128 171 208 248 320 387
#     4  12  19  40  65  91 127 162 206 267 323 367
#     4   9  17  30  52  87 124 156 197 244 290 356
#     4  12  23  37  61  95 128 166 211 254 315 378
#     4  12  25  43  68  97 125 168 220 274 333 386
#     4  10  20  41  70  96 119 160 219 277 329 376
#     4  12  25  44  59  87 139 175 206 258 314 397
#
# _framework density 19.703053000000001
#
# number of rings (size 3 to 8) (size 9 to 14) (size 15 to 20)
#    0.000    1.125    7.500    1.875    0.000    2.500 
#    0.000    3.125    0.000    0.000    0.000    0.000 
#    0.000    0.000    0.000    0.000    0.000    0.000 
#
# Total GULP energy -792842.623841 kJ/mol
# GULP energy per Si atom -12388.165998 kJ/mol
# Density = 1.965821 g / cm^3
# Si number density = 19.703053 Si / 1000 Ang^3
#
#
#
# Elastic Constant Matrix: (Units=GPa)
#
#
# Indices 1 2 3 4 5 6 
#
# 1 123.6347 29.5455 27.5212 0.0000 0.0000 0.0000
# 2 29.5455 120.8427 32.7774 0.0000 0.0000 0.0000
# 3 27.5212 32.7774 63.6374 0.0000 0.0000 0.0000
# 4 0.0000 0.0000 0.0000 23.3332 0.0000 0.0000
# 5 0.0000 0.0000 0.0000 0.0000 4.3900 0.0000
# 6 0.0000 0.0000 0.0000 0.0000 0.0000 23.1308
#
#
#
# Elastic Compliance Matrix: (Units=1/GPa)
#
#
# Indices 1 2 3 4 5 6 
#
# 1 0.009136 -0.001351 -0.003255 0.000000 0.000000 0.000000
# 2 -0.001351 0.009819 -0.004473 0.000000 0.000000 0.000000
# 3 -0.003255 -0.004473 0.019426 0.000000 0.000000 0.000000
# 4 0.000000 0.000000 0.000000 0.042857 0.000000 0.000000
# 5 0.000000 0.000000 0.000000 0.000000 0.227790 0.000000
# 6 0.000000 0.000000 0.000000 0.000000 0.000000 0.043232
#
#
# Mechanical properties :
#
#
# Convention : Reuss Voigt Hill
#
# Bulk Modulus (GPa) = 49.45082 54.20033 51.82558
# Shear Modulus (GPa) = 13.25700 24.72218 18.98959
#
# Velocity S-wave (km/s) = 2.59673 3.54607 3.10786
# Velocity P-wave (km/s) = 5.84322 6.65841 6.26409
#
# Compressibility (1/GPa) = 0.02022211
#
# Stress axis : x y z
#
# Youngs Moduli (GPa) = 109.46015 101.84583 51.47795
#
# Poissons Ratio (x) = 0.13756 0.16757
# Poissons Ratio (y) = 0.14785 0.23027
# Poissons Ratio (z) = 0.35632 0.45557
#
# Static dielectric constant tensor:
#      x y z
#    x 3.604610 0.000000 0.000000 
#    y 0.000000 3.854820 0.000000 
#    z 0.000000 0.000000 3.168750 
# 
# 
# High freq. dielectric constant tensor:
#      x y z
#    x 1.758030 0.000000 0.000000 
#    y 0.000000 1.785330 0.000000 
#    z 0.000000 0.000000 1.738690 
# 
# From -- ./inp_files/9549.got.cif
#   From: 2010.03.12/outbox.cif.g09.slc.cpg/sg59_5_cif.got.tgz:9549.got - 2010.04.16 16:29:54.
