data_PCOD8244293
_publ_section_title
;
Structure prediction by ZEFSAII (Michael W. Deem and Ramdas Pophale) SiO2 
 PCOD8244293
Probable space group: P M M N
;
_chemical_formula_sum "Si O2"
_cell_formula_units_Z 48
_cell_length_a 8.623396
_cell_length_b 30.602699
_cell_length_c 9.480779
_cell_angle_alpha 90.000000
_cell_angle_beta 90.000000
_cell_angle_gamma 90.000000
_cell_volume 2501.969919
_symmetry_space_group_name_H-M "P M M N"
_symmetry_group_IT_number 59
_space_group.IT_coordinate_system_code '2'
_symmetry_cell_setting 'orthorhombic'
loop_
_space_group_symop_operation_xyz
x,y,z
1/2-x,1/2-y,z
1/2+x,-y,-z
-x,1/2+y,-z
-x,-y,-z
1/2+x,1/2+y,-z
1/2-x,y,z
x,1/2-y,z
loop_
_atom_site_type_symbol
_atom_site_label
_atom_site_fract_x
_atom_site_fract_y
_atom_site_fract_z
Si Si1 0.432741 0.998994 0.845559
Si Si2 0.931660 0.750000 0.149786
Si Si3 0.932751 0.673067 0.356061
Si Si4 0.433210 0.669920 0.656108
Si Si5 0.932480 0.250000 0.158173
Si Si6 0.932715 0.576895 0.666356
Si Si7 0.567299 0.924676 0.349147
O O1 0.250000 0.003297 0.854961
O O2 0.476953 0.953775 0.773313
O O3 0.505485 0.039705 0.757066
O O4 0.500000 0.000000 0.000000
O O5 0.750000 0.750000 0.120651
O O6 0.982400 0.707029 0.235944
O O7 0.018264 0.750000 0.002964
O O8 0.750000 0.675550 0.389520
O O9 0.980280 0.624452 0.303333
O O10 0.024014 0.684853 0.498134
O O11 0.250000 0.662006 0.666749
O O12 0.494645 0.706968 0.762786
O O13 0.524159 0.626551 0.701972
O O14 0.750000 0.250000 0.168279
O O15 0.750000 0.570145 0.684524
O O16 0.990845 0.565850 0.508028
O O17 0.750000 0.929454 0.347110
#
# Coordination Sequence:
#
# PCOD8244293 Si02
#       7
#     8   4   8   8   4   8   8
#     4  11  22  36  53  78 111 147 182 221 269 324
#     4  10  21  34  54  82 112 146 185 222 264 316
#     4   9  18  35  56  81 107 136 178 226 267 312
#     4  10  20  36  57  82 108 140 179 221 268 323
#     4  10  23  38  52  76 114 148 177 214 264 322
#     4  10  20  37  59  82 105 136 178 227 275 321
#     4   8  17  34  56  78 105 138 176 221 268 313
#
# _framework density 19.184884
#
# number of rings (size 3 to 8) (size 9 to 14) (size 15 to 20)
#    0.000    2.333    0.000    3.500    0.000    3.333 
#    0.000    9.167    0.000    0.000    0.000    0.000 
#    0.000    0.000    0.000    0.000    0.000    0.000 
#
# Total GULP energy -595232.687011 kJ/mol
# GULP energy per Si atom -12400.680979 kJ/mol
# Density = 1.914122 g / cm^3
# Si number density = 19.184884 Si / 1000 Ang^3
#
#
#
# Elastic Constant Matrix: (Units=GPa)
#
#
# Indices 1 2 3 4 5 6 
#
# 1 33.6843 16.9110 16.8770 0.0000 0.0000 0.0000
# 2 16.9110 137.7342 92.2327 0.0000 0.0000 0.0000
# 3 16.8770 92.2327 134.6481 0.0000 0.0000 0.0000
# 4 0.0000 0.0000 0.0000 19.3064 0.0000 0.0000
# 5 0.0000 0.0000 0.0000 0.0000 32.8487 0.0000
# 6 0.0000 0.0000 0.0000 0.0000 0.0000 22.8861
#
#
#
# Elastic Compliance Matrix: (Units=1/GPa)
#
#
# Indices 1 2 3 4 5 6 
#
# 1 0.032067 -0.002301 -0.002443 0.000000 0.000000 0.000000
# 2 -0.002301 0.013578 -0.009012 0.000000 0.000000 0.000000
# 3 -0.002443 -0.009012 0.013906 0.000000 0.000000 0.000000
# 4 0.000000 0.000000 0.000000 0.051796 0.000000 0.000000
# 5 0.000000 0.000000 0.000000 0.000000 0.030443 0.000000
# 6 0.000000 0.000000 0.000000 0.000000 0.000000 0.043695
#
#
# Mechanical properties :
#
#
# Convention : Reuss Voigt Hill
#
# Bulk Modulus (GPa) = 31.21297 62.01200 46.61249
# Shear Modulus (GPa) = 22.35367 27.01130 24.68249
#
# Velocity S-wave (km/s) = 3.41716 3.75633 3.59075
# Velocity P-wave (km/s) = 5.64573 7.15590 6.44520
#
# Compressibility (1/GPa) = 0.03203797
#
# Stress axis : x y z
#
# Youngs Moduli (GPa) = 31.18494 73.64890 71.90974
#
# Poissons Ratio (x) = 0.16948 0.17567
# Poissons Ratio (y) = 0.07176 0.64807
# Poissons Ratio (z) = 0.07618 0.66375
#
# Static dielectric constant tensor:
#      x y z
#    x 3.329000 0.000000 0.000000 
#    y 0.000000 3.822360 0.000000 
#    z 0.000000 0.000000 3.551220 
# 
# 
# High freq. dielectric constant tensor:
#      x y z
#    x 1.731390 0.000000 0.000000 
#    y 0.000000 1.762440 0.000000 
#    z 0.000000 0.000000 1.742310 
# 
# From -- ./inp_files/6425.got.cif
#   From: 2010.03.12/outbox.cif.g09.slc.cpg/sg59_4_cif.got.tgz:6425.got - 2010.04.16 16:29:54.
