data_PCOD8244950
_publ_section_title
;
Structure prediction by ZEFSAII (Michael W. Deem and Ramdas Pophale) SiO2 
 PCOD8244950
Probable space group: P M M N
;
_chemical_formula_sum "Si O2"
_cell_formula_units_Z 56
_cell_length_a 15.207425
_cell_length_b 8.889624
_cell_length_c 21.332643
_cell_angle_alpha 90.000000
_cell_angle_beta 90.000000
_cell_angle_gamma 90.000000
_cell_volume 2883.923534
_symmetry_space_group_name_H-M "P M M N"
_symmetry_group_IT_number 59
_space_group.IT_coordinate_system_code '2'
_symmetry_cell_setting 'orthorhombic'
loop_
_space_group_symop_operation_xyz
x,y,z
1/2-x,1/2-y,z
1/2+x,-y,-z
-x,1/2+y,-z
-x,-y,-z
1/2+x,1/2+y,-z
1/2-x,y,z
x,1/2-y,z
loop_
_atom_site_type_symbol
_atom_site_label
_atom_site_fract_x
_atom_site_fract_y
_atom_site_fract_z
Si Si1 0.849353 0.426523 0.558903
Si Si2 0.993961 0.072888 0.658180
Si Si3 0.502644 0.427276 0.209118
Si Si4 0.849683 0.922311 0.130135
Si Si5 0.849068 0.573869 0.429889
Si Si6 0.652431 0.921839 0.882723
Si Si7 0.405168 0.572343 0.995459
O O1 0.750000 0.477823 0.575653
O O2 0.855512 0.250000 0.549407
O O3 0.913524 0.478747 0.614228
O O4 0.881170 0.498645 0.494042
O O5 0.990561 0.250000 0.672961
O O6 0.086027 0.026667 0.625995
O O7 0.983652 0.979161 0.720988
O O8 0.517927 0.250000 0.206858
O O9 0.589117 0.508768 0.183661
O O10 0.418757 0.476267 0.167747
O O11 0.750000 0.932748 0.154952
O O12 0.877390 0.750000 0.117813
O O13 0.856380 0.014024 0.066001
O O14 0.750000 0.522276 0.412017
O O15 0.854016 0.750000 0.441549
O O16 0.750000 0.936749 0.853083
O O17 0.633165 0.750000 0.903073
O O18 0.649871 0.026580 0.943689
O O19 0.413892 0.750000 0.990966
O O20 0.500000 0.500000 0.000000
#
# Coordination Sequence:
#
# PCOD8244950 Si02
#       7
#     8   8   8   8   8   8   8
#     4   9  18  33  54  81 111 143 181 229 282 333
#     4  10  21  36  54  77 111 150 187 229 280 340
#     4  11  24  40  59  84 115 154 197 243 285 337
#     4  11  24  42  64  88 117 154 192 237 295 351
#     4   9  18  33  54  80 108 140 180 227 280 337
#     4  10  22  41  62  85 116 153 192 239 296 349
#     4  12  23  37  62  92 121 152 190 239 292 345
#
# _framework density 19.41799
#
# number of rings (size 3 to 8) (size 9 to 14) (size 15 to 20)
#    0.000    1.714    1.429    3.000    0.000    6.000 
#    0.000    1.429    0.000    0.000    0.000    0.000 
#    0.000    0.000    0.000    0.000    0.000    0.000 
#
# Total GULP energy -694602.940535 kJ/mol
# GULP energy per Si atom -12403.623938 kJ/mol
# Density = 1.937379 g / cm^3
# Si number density = 19.417990 Si / 1000 Ang^3
#
#
#
# Elastic Constant Matrix: (Units=GPa)
#
#
# Indices 1 2 3 4 5 6 
#
# 1 103.5908 30.7179 36.7667 0.0000 0.0000 0.0000
# 2 30.7179 80.7797 34.2958 0.0000 0.0000 0.0000
# 3 36.7667 34.2958 103.2883 0.0000 0.0000 0.0000
# 4 0.0000 0.0000 0.0000 38.0919 0.0000 0.0000
# 5 0.0000 0.0000 0.0000 0.0000 16.6058 0.0000
# 6 0.0000 0.0000 0.0000 0.0000 0.0000 23.8476
#
#
#
# Elastic Compliance Matrix: (Units=1/GPa)
#
#
# Indices 1 2 3 4 5 6 
#
# 1 0.011687 -0.003117 -0.003125 0.000000 0.000000 0.000000
# 2 -0.003117 0.015242 -0.003951 0.000000 0.000000 0.000000
# 3 -0.003125 -0.003951 0.012106 0.000000 0.000000 0.000000
# 4 0.000000 0.000000 0.000000 0.026252 0.000000 0.000000
# 5 0.000000 0.000000 0.000000 0.000000 0.060220 0.000000
# 6 0.000000 0.000000 0.000000 0.000000 0.000000 0.041933
#
#
# Mechanical properties :
#
#
# Convention : Reuss Voigt Hill
#
# Bulk Modulus (GPa) = 53.62579 54.57997 54.10288
# Shear Modulus (GPa) = 25.76734 28.10094 26.93414
#
# Velocity S-wave (km/s) = 3.64673 3.80828 3.72838
# Velocity P-wave (km/s) = 6.73855 6.89248 6.81595
#
# Compressibility (1/GPa) = 0.01864774
#
# Stress axis : x y z
#
# Youngs Moduli (GPa) = 85.56580 65.60642 82.60343
#
# Poissons Ratio (x) = 0.20452 0.25814
# Poissons Ratio (y) = 0.26674 0.32640
# Poissons Ratio (z) = 0.26739 0.25924
#
# Static dielectric constant tensor:
#      x y z
#    x 3.837020 0.000000 0.000000 
#    y 0.000000 3.562000 0.000000 
#    z 0.000000 0.000000 3.477440 
# 
# 
# High freq. dielectric constant tensor:
#      x y z
#    x 1.772240 0.000000 0.000000 
#    y 0.000000 1.755260 0.000000 
#    z 0.000000 0.000000 1.747820 
# 
# From -- ./inp_files/28994.got.cif
#   From: 2010.03.12/outbox.cif.g09.slc.cpg/sg59_15_cif.got.tgz:28994.got - 2010.04.16 16:29:54.
