data_PCOD8244296
_publ_section_title
;
Structure prediction by ZEFSAII (Michael W. Deem and Ramdas Pophale) SiO2 
 PCOD8244296
Probable space group: P M M N
;
_chemical_formula_sum "Si O2"
_cell_formula_units_Z 40
_cell_length_a 18.225378
_cell_length_b 9.580311
_cell_length_c 12.403559
_cell_angle_alpha 90.000000
_cell_angle_beta 90.000000
_cell_angle_gamma 90.000000
_cell_volume 2165.720806
_symmetry_space_group_name_H-M "P M M N"
_symmetry_group_IT_number 59
_space_group.IT_coordinate_system_code '2'
_symmetry_cell_setting 'orthorhombic'
loop_
_space_group_symop_operation_xyz
x,y,z
1/2-x,1/2-y,z
1/2+x,-y,-z
-x,1/2+y,-z
-x,-y,-z
1/2+x,1/2+y,-z
1/2-x,y,z
x,1/2-y,z
loop_
_atom_site_type_symbol
_atom_site_label
_atom_site_fract_x
_atom_site_fract_y
_atom_site_fract_z
Si Si1 0.415279 0.412050 0.328809
Si Si2 0.566171 0.410066 0.044302
Si Si3 0.833685 0.410429 0.847952
Si Si4 0.835168 0.911093 0.455749
Si Si5 0.582235 0.088635 0.287916
O O1 0.397888 0.250000 0.307742
O O2 0.382094 0.497207 0.230576
O O3 0.379528 0.464017 0.439928
O O4 0.501662 0.440772 0.335258
O O5 0.539200 0.250000 0.047791
O O6 0.587041 0.460008 0.163959
O O7 0.500000 0.500000 0.000000
O O8 0.637325 0.429041 0.969560
O O9 0.750000 0.462084 0.845028
O O10 0.840309 0.250000 0.811027
O O11 0.750000 0.936119 0.479331
O O12 0.852691 0.750000 0.431807
O O13 0.858745 0.999076 0.352459
O O14 0.603737 0.250000 0.300151
#
# Coordination Sequence:
#
# PCOD8244296 Si02
#       5
#     8   8   8   8   8
#     4  10  20  37  59  83 111 144 186 232 279 330
#     4  10  20  36  57  82 112 145 183 227 273 326
#     4  10  21  35  54  83 115 147 183 226 279 332
#     4  10  22  38  55  79 113 150 186 229 281 330
#     4  10  21  36  58  85 110 144 189 230 275 332
#
# _framework density 18.469601000000001
#
# number of rings (size 3 to 8) (size 9 to 14) (size 15 to 20)
#    0.000    2.000    2.000    1.200    0.000    4.800 
#    0.000    2.000    0.000    0.000    0.000    0.000 
#    0.000    0.000    0.000    0.000    0.000    0.000 
#
# Total GULP energy -496188.698513 kJ/mol
# GULP energy per Si atom -12404.717463 kJ/mol
# Density = 1.842756 g / cm^3
# Si number density = 18.469601 Si / 1000 Ang^3
#
#
#
# Elastic Constant Matrix: (Units=GPa)
#
#
# Indices 1 2 3 4 5 6 
#
# 1 47.5685 21.1471 21.5993 0.0000 0.0000 0.0000
# 2 21.1471 48.2294 40.7831 0.0000 0.0000 0.0000
# 3 21.5993 40.7831 124.1604 0.0000 0.0000 0.0000
# 4 0.0000 0.0000 0.0000 34.5351 0.0000 0.0000
# 5 0.0000 0.0000 0.0000 0.0000 27.6687 0.0000
# 6 0.0000 0.0000 0.0000 0.0000 0.0000 25.5290
#
#
#
# Elastic Compliance Matrix: (Units=1/GPa)
#
#
# Indices 1 2 3 4 5 6 
#
# 1 0.026218 -0.010577 -0.001087 0.000000 0.000000 0.000000
# 2 -0.010577 0.032975 -0.008991 0.000000 0.000000 0.000000
# 3 -0.001087 -0.008991 0.011197 0.000000 0.000000 0.000000
# 4 0.000000 0.000000 0.000000 0.028956 0.000000 0.000000
# 5 0.000000 0.000000 0.000000 0.000000 0.036142 0.000000
# 6 0.000000 0.000000 0.000000 0.000000 0.000000 0.039171
#
#
# Mechanical properties :
#
#
# Convention : Reuss Voigt Hill
#
# Bulk Modulus (GPa) = 34.38835 43.00191 38.69513
# Shear Modulus (GPa) = 22.15713 26.64183 24.39948
#
# Velocity S-wave (km/s) = 3.46736 3.80211 3.63858
# Velocity P-wave (km/s) = 5.88977 6.52746 6.21680
#
# Compressibility (1/GPa) = 0.02907961
#
# Stress axis : x y z
#
# Youngs Moduli (GPa) = 38.14209 30.32613 89.31326
#
# Poissons Ratio (x) = 0.32075 0.09706
# Poissons Ratio (y) = 0.40342 0.80305
# Poissons Ratio (z) = 0.04145 0.27267
#
# Static dielectric constant tensor:
#      x y z
#    x 3.404900 0.000000 0.000000 
#    y 0.000000 3.361450 0.000000 
#    z 0.000000 0.000000 3.518210 
# 
# 
# High freq. dielectric constant tensor:
#      x y z
#    x 1.718630 0.000000 0.000000 
#    y 0.000000 1.711630 0.000000 
#    z 0.000000 0.000000 1.726510 
# 
# From -- ./inp_files/13810.got.cif
#   From: 2010.03.12/outbox.cif.g09.slc.cpg/sg59_7_cif.got.tgz:13810.got - 2010.04.16 16:29:54.
