data_PCOD8244156
_publ_section_title
;
Structure prediction by ZEFSAII (Michael W. Deem and Ramdas Pophale) SiO2 
 PCOD8244156
Probable space group: P M M N
;
_chemical_formula_sum "Si O2"
_cell_formula_units_Z 56
_cell_length_a 14.116958
_cell_length_b 8.794596
_cell_length_c 21.916924
_cell_angle_alpha 90.000000
_cell_angle_beta 90.000000
_cell_angle_gamma 90.000000
_cell_volume 2721.050602
_symmetry_space_group_name_H-M "P M M N"
_symmetry_group_IT_number 59
_space_group.IT_coordinate_system_code '2'
_symmetry_cell_setting 'orthorhombic'
loop_
_space_group_symop_operation_xyz
x,y,z
1/2-x,1/2-y,z
1/2+x,-y,-z
-x,1/2+y,-z
-x,-y,-z
1/2+x,1/2+y,-z
1/2-x,y,z
x,1/2-y,z
loop_
_atom_site_type_symbol
_atom_site_label
_atom_site_fract_x
_atom_site_fract_y
_atom_site_fract_z
Si Si1 0.536955 0.572280 0.089989
Si Si2 0.141317 0.428801 0.033417
Si Si3 0.644865 0.419900 0.629746
Si Si4 0.445692 0.575917 0.788731
Si Si5 0.859682 0.570875 0.332295
Si Si6 0.648591 0.580796 0.752226
Si Si7 0.984170 0.073563 0.434736
O O1 0.527163 0.750000 0.099509
O O2 0.430648 0.507817 0.080544
O O3 0.590248 0.503701 0.149606
O O4 0.606318 0.529522 0.034559
O O5 0.250000 0.486323 0.041868
O O6 0.135334 0.250000 0.045053
O O7 0.750000 0.429497 0.601791
O O8 0.602886 0.250000 0.619128
O O9 0.646227 0.451223 0.701343
O O10 0.583039 0.550208 0.599237
O O11 0.411807 0.750000 0.786854
O O12 0.410652 0.497093 0.726998
O O13 0.559446 0.559119 0.795972
O O14 0.750000 0.526629 0.329477
O O15 0.875892 0.750000 0.332245
O O16 0.901272 0.504025 0.395149
O O17 0.750000 0.565956 0.787934
O O18 0.642217 0.750000 0.722292
O O19 0.959895 0.250000 0.441916
O O20 0.000000 0.000000 0.500000
#
# Coordination Sequence:
#
# PCOD8244156 Si02
#       7
#     8   8   8   8   8   8   8
#     4  10  21  36  57  88 122 158 202 253 306 363
#     4   9  19  38  61  83 114 158 206 255 308 364
#     4  10  20  35  58  87 117 149 188 236 290 350
#     4  11  22  37  60  90 125 166 205 248 300 360
#     4  11  25  45  67  91 123 163 206 255 309 362
#     4   9  18  33  54  81 113 151 192 235 290 354
#     4  12  25  42  65  91 121 159 201 250 303 361
#
# _framework density 20.580286000000001
#
# number of rings (size 3 to 8) (size 9 to 14) (size 15 to 20)
#    0.000    1.714    1.429    3.000    0.000    5.143 
#    0.000    2.857    0.000    0.000    0.000    0.000 
#    0.000    0.000    0.000    0.000    0.000    0.000 
#
# Total GULP energy -694128.403600 kJ/mol
# GULP energy per Si atom -12395.150064 kJ/mol
# Density = 2.053344 g / cm^3
# Si number density = 20.580286 Si / 1000 Ang^3
#
#
#
# Elastic Constant Matrix: (Units=GPa)
#
#
# Indices 1 2 3 4 5 6 
#
# 1 97.9820 35.8162 23.2837 0.0000 0.0000 0.0000
# 2 35.8162 100.0231 43.1098 0.0000 0.0000 0.0000
# 3 23.2837 43.1098 105.0891 0.0000 0.0000 0.0000
# 4 0.0000 0.0000 0.0000 36.6228 0.0000 0.0000
# 5 0.0000 0.0000 0.0000 0.0000 12.4569 0.0000
# 6 0.0000 0.0000 0.0000 0.0000 0.0000 30.2700
#
#
#
# Elastic Compliance Matrix: (Units=1/GPa)
#
#
# Indices 1 2 3 4 5 6 
#
# 1 0.011842 -0.003777 -0.001074 0.000000 0.000000 0.000000
# 2 -0.003777 0.013350 -0.004639 0.000000 0.000000 0.000000
# 3 -0.001074 -0.004639 0.011657 0.000000 0.000000 0.000000
# 4 0.000000 0.000000 0.000000 0.027305 0.000000 0.000000
# 5 0.000000 0.000000 0.000000 0.000000 0.080277 0.000000
# 6 0.000000 0.000000 0.000000 0.000000 0.000000 0.033036
#
#
# Mechanical properties :
#
#
# Convention : Reuss Voigt Hill
#
# Bulk Modulus (GPa) = 55.96993 56.39041 56.18017
# Shear Modulus (GPa) = 24.70295 29.26222 26.98258
#
# Velocity S-wave (km/s) = 3.46832 3.77484 3.62482
# Velocity P-wave (km/s) = 6.57981 6.81608 6.69899
#
# Compressibility (1/GPa) = 0.01786674
#
# Stress axis : x y z
#
# Youngs Moduli (GPa) = 84.44512 74.90683 85.78573
#
# Poissons Ratio (x) = 0.28295 0.09215
# Poissons Ratio (y) = 0.31898 0.39800
# Poissons Ratio (z) = 0.09071 0.34753
#
# Static dielectric constant tensor:
#      x y z
#    x 4.755680 0.000000 0.000000 
#    y 0.000000 3.762120 0.000000 
#    z 0.000000 0.000000 5.683490 
# 
# 
# High freq. dielectric constant tensor:
#      x y z
#    x 1.808360 0.000000 0.000000 
#    y 0.000000 1.810710 0.000000 
#    z 0.000000 0.000000 1.796400 
# 
# From -- ./inp_files/30369.got.cif
#   From: 2010.03.12/outbox.cif.g09.slc.cpg/sg59_16_cif.got.tgz:30369.got - 2010.04.16 16:29:54.
