data_PCOD8244398
_publ_section_title
;
Structure prediction by ZEFSAII (Michael W. Deem and Ramdas Pophale) SiO2 
 PCOD8244398
Probable space group: P M M N
;
_chemical_formula_sum "Si O2"
_cell_formula_units_Z 64
_cell_length_a 8.911947
_cell_length_b 29.246786
_cell_length_c 12.431038
_cell_angle_alpha 90.000000
_cell_angle_beta 90.000000
_cell_angle_gamma 90.000000
_cell_volume 3240.097928
_symmetry_space_group_name_H-M "P M M N"
_symmetry_group_IT_number 59
_space_group.IT_coordinate_system_code '2'
_symmetry_cell_setting 'orthorhombic'
loop_
_space_group_symop_operation_xyz
x,y,z
1/2-x,1/2-y,z
1/2+x,-y,-z
-x,1/2+y,-z
-x,-y,-z
1/2+x,1/2+y,-z
1/2-x,y,z
x,1/2-y,z
loop_
_atom_site_type_symbol
_atom_site_label
_atom_site_fract_x
_atom_site_fract_y
_atom_site_fract_z
Si Si1 0.421105 0.700321 0.947769
Si Si2 0.075113 0.582678 0.110195
Si Si3 0.422853 0.603821 0.867464
Si Si4 0.073384 0.035447 0.708661
Si Si5 0.074340 0.057354 0.329028
Si Si6 0.425508 0.112607 0.538386
Si Si7 0.572827 0.823806 0.159620
Si Si8 0.577387 0.199502 0.625715
O O1 0.250000 0.691824 0.986822
O O2 0.436616 0.750000 0.888924
O O3 0.464947 0.658025 0.870913
O O4 0.525554 0.702343 0.051909
O O5 0.250000 0.586547 0.135138
O O6 0.005365 0.539483 0.173718
O O7 0.990524 0.625366 0.161261
O O8 0.045825 0.580045 0.982626
O O9 0.250000 0.596793 0.833009
O O10 0.532275 0.580579 0.783394
O O11 0.250000 0.031706 0.725108
O O12 0.027592 0.077903 0.633143
O O13 0.015006 0.989462 0.652881
O O14 0.250000 0.046490 0.331134
O O15 0.027736 0.091263 0.424522
O O16 0.250000 0.122780 0.544311
O O17 0.510255 0.160770 0.548090
O O18 0.750000 0.825741 0.167892
O O19 0.509381 0.797546 0.261842
O O20 0.750000 0.187635 0.647945
O O21 0.561134 0.250000 0.571716
#
# Coordination Sequence:
#
# PCOD8244398 Si02
#       8
#     8   8   8   8   8   8   8   8
#     4   9  18  34  56  81 111 150 196 243 290 342
#     4  10  20  36  59  87 120 155 190 235 288 341
#     4   9  20  38  58  83 117 155 196 242 291 344
#     4  11  22  38  63  92 118 149 192 240 297 356
#     4  11  24  41  61  85 115 154 198 242 293 350
#     4  10  23  42  62  87 118 152 194 244 293 344
#     4  11  20  31  51  83 121 156 188 230 286 346
#     4  11  23  37  57  86 118 155 196 236 286 347
#
# _framework density 19.752490000000002
#
# number of rings (size 3 to 8) (size 9 to 14) (size 15 to 20)
#    0.000    1.750    1.250    4.125    0.000    7.250 
#    0.000    0.625    0.000    2.250    0.000    0.000 
#    0.000    0.000    0.000    0.000    0.000    0.000 
#
# Total GULP energy -793618.086943 kJ/mol
# GULP energy per Si atom -12400.282608 kJ/mol
# Density = 1.970753 g / cm^3
# Si number density = 19.752490 Si / 1000 Ang^3
#
#
#
# Elastic Constant Matrix: (Units=GPa)
#
#
# Indices 1 2 3 4 5 6 
#
# 1 105.1959 51.5467 41.1479 0.0000 0.0000 0.0000
# 2 51.5467 114.5656 44.2460 0.0000 0.0000 0.0000
# 3 41.1479 44.2460 82.0395 0.0000 0.0000 0.0000
# 4 0.0000 0.0000 0.0000 11.8441 0.0000 0.0000
# 5 0.0000 0.0000 0.0000 0.0000 28.2637 0.0000
# 6 0.0000 0.0000 0.0000 0.0000 0.0000 31.8430
#
#
#
# Elastic Compliance Matrix: (Units=1/GPa)
#
#
# Indices 1 2 3 4 5 6 
#
# 1 0.013323 -0.004312 -0.004357 0.000000 0.000000 0.000000
# 2 -0.004312 0.012421 -0.004536 0.000000 0.000000 0.000000
# 3 -0.004357 -0.004536 0.016821 0.000000 0.000000 0.000000
# 4 0.000000 0.000000 0.000000 0.084430 0.000000 0.000000
# 5 0.000000 0.000000 0.000000 0.000000 0.035381 0.000000
# 6 0.000000 0.000000 0.000000 0.000000 0.000000 0.031404
#
#
# Mechanical properties :
#
#
# Convention : Reuss Voigt Hill
#
# Bulk Modulus (GPa) = 61.90035 63.96468 62.93252
# Shear Modulus (GPa) = 22.16565 25.38086 23.77325
#
# Velocity S-wave (km/s) = 3.35351 3.58850 3.47300
# Velocity P-wave (km/s) = 6.81181 7.04437 6.92907
#
# Compressibility (1/GPa) = 0.01615500
#
# Stress axis : x y z
#
# Youngs Moduli (GPa) = 75.05749 80.51195 59.44983
#
# Poissons Ratio (x) = 0.34715 0.25902
# Poissons Ratio (y) = 0.32364 0.26967
# Poissons Ratio (z) = 0.32702 0.36521
#
# Static dielectric constant tensor:
#      x y z
#    x 3.567900 0.000000 0.000000 
#    y 0.000000 3.741380 0.000000 
#    z 0.000000 0.000000 3.425060 
# 
# 
# High freq. dielectric constant tensor:
#      x y z
#    x 1.774740 0.000000 0.000000 
#    y 0.000000 1.780180 0.000000 
#    z 0.000000 0.000000 1.747450 
# 
# From -- ./inp_files/15045.got.cif
#   From: 2010.03.12/outbox.cif.g09.slc.cpg/sg59_8_cif.got.tgz:15045.got - 2010.04.16 16:29:54.
