data_PCOD8244427
_publ_section_title
;
Structure prediction by ZEFSAII (Michael W. Deem and Ramdas Pophale) SiO2 
 PCOD8244427
Probable space group: P M M N
;
_chemical_formula_sum "Si O2"
_cell_formula_units_Z 48
_cell_length_a 13.973614
_cell_length_b 14.123299
_cell_length_c 12.169679
_cell_angle_alpha 90.000000
_cell_angle_beta 90.000000
_cell_angle_gamma 90.000000
_cell_volume 2401.729093
_symmetry_space_group_name_H-M "P M M N"
_symmetry_group_IT_number 59
_space_group.IT_coordinate_system_code '2'
_symmetry_cell_setting 'orthorhombic'
loop_
_space_group_symop_operation_xyz
x,y,z
1/2-x,1/2-y,z
1/2+x,-y,-z
-x,1/2+y,-z
-x,-y,-z
1/2+x,1/2+y,-z
1/2-x,y,z
x,1/2-y,z
loop_
_atom_site_type_symbol
_atom_site_label
_atom_site_fract_x
_atom_site_fract_y
_atom_site_fract_z
Si Si1 0.646237 0.509443 0.690192
Si Si2 0.048904 0.639292 0.162649
Si Si3 0.895600 0.491275 0.453880
Si Si4 0.035222 0.861792 0.719166
Si Si5 0.855859 0.641607 0.271405
Si Si6 0.358445 0.637635 0.937806
O O1 0.750000 0.538152 0.740695
O O2 0.609081 0.412960 0.744013
O O3 0.669062 0.486614 0.561926
O O4 0.570599 0.593591 0.709917
O O5 0.070915 0.750000 0.175313
O O6 0.935855 0.616483 0.179657
O O7 0.082608 0.601795 0.043834
O O8 0.893628 0.397250 0.377675
O O9 0.868010 0.581658 0.381627
O O10 0.000000 0.500000 0.500000
O O11 0.024452 0.750000 0.712656
O O12 0.083796 0.898025 0.831570
O O13 0.750000 0.623748 0.220357
O O14 0.867886 0.750000 0.308751
O O15 0.250000 0.596504 0.938422
O O16 0.353738 0.750000 0.936138
#
# Coordination Sequence:
#
# PCOD8244427 Si02
#       6
#     8   8   8   8   8   8
#     4  11  23  39  58  87 121 154 194 240 297 353
#     4  10  20  38  61  87 118 148 191 246 296 347
#     4  10  20  38  56  84 117 153 190 242 284 342
#     4  10  22  40  60  85 118 157 201 243 286 342
#     4  10  20  36  60  87 116 152 191 235 296 359
#     4   9  19  37  61  86 115 155 198 240 288 346
#
# _framework density 19.985603000000001
#
# number of rings (size 3 to 8) (size 9 to 14) (size 15 to 20)
#    0.000    2.000    3.333    1.000    0.000    6.667 
#    0.000    0.833    0.000    3.000    0.000    0.000 
#    0.000    0.000    0.000    0.000    0.000    0.000 
#
# Total GULP energy -594870.694998 kJ/mol
# GULP energy per Si atom -12393.139479 kJ/mol
# Density = 1.994011 g / cm^3
# Si number density = 19.985603 Si / 1000 Ang^3
#
#
#
# Elastic Constant Matrix: (Units=GPa)
#
#
# Indices 1 2 3 4 5 6 
#
# 1 168.7044 44.0598 70.5778 0.0000 0.0000 0.0000
# 2 44.0598 82.2851 51.2096 0.0000 0.0000 0.0000
# 3 70.5778 51.2096 148.9949 0.0000 0.0000 0.0000
# 4 0.0000 0.0000 0.0000 29.9268 0.0000 0.0000
# 5 0.0000 0.0000 0.0000 0.0000 22.0669 0.0000
# 6 0.0000 0.0000 0.0000 0.0000 0.0000 18.6725
#
#
#
# Elastic Compliance Matrix: (Units=1/GPa)
#
#
# Indices 1 2 3 4 5 6 
#
# 1 0.007739 -0.002369 -0.002852 0.000000 0.000000 0.000000
# 2 -0.002369 0.016185 -0.004440 0.000000 0.000000 0.000000
# 3 -0.002852 -0.004440 0.009589 0.000000 0.000000 0.000000
# 4 0.000000 0.000000 0.000000 0.033415 0.000000 0.000000
# 5 0.000000 0.000000 0.000000 0.000000 0.045317 0.000000
# 6 0.000000 0.000000 0.000000 0.000000 0.000000 0.053555
#
#
# Mechanical properties :
#
#
# Convention : Reuss Voigt Hill
#
# Bulk Modulus (GPa) = 70.47211 81.29764 75.88487
# Shear Modulus (GPa) = 26.33625 29.74239 28.03932
#
# Velocity S-wave (km/s) = 3.63404 3.86189 3.74970
# Velocity P-wave (km/s) = 7.27642 7.78794 7.53652
#
# Compressibility (1/GPa) = 0.01419001
#
# Stress axis : x y z
#
# Youngs Moduli (GPa) = 129.21009 61.78562 104.28966
#
# Poissons Ratio (x) = 0.14639 0.29741
# Poissons Ratio (y) = 0.30614 0.46310
# Poissons Ratio (z) = 0.36847 0.27436
#
# Static dielectric constant tensor:
#      x y z
#    x 4.014760 0.000000 0.000000 
#    y 0.000000 3.461630 0.000000 
#    z 0.000000 0.000000 4.064020 
# 
# 
# High freq. dielectric constant tensor:
#      x y z
#    x 1.794220 0.000000 0.000000 
#    y 0.000000 1.767140 0.000000 
#    z 0.000000 0.000000 1.778070 
# 
# From -- ./inp_files/16855.got.cif
#   From: 2010.03.12/outbox.cif.g09.slc.cpg/sg59_9_cif.got.tgz:16855.got - 2010.04.16 16:29:54.
