data_PCOD8244516
_publ_section_title
;
Structure prediction by ZEFSAII (Michael W. Deem and Ramdas Pophale) SiO2 
 PCOD8244516
Probable space group: P M M N
;
_chemical_formula_sum "Si O2"
_cell_formula_units_Z 48
_cell_length_a 16.050661
_cell_length_b 8.593145
_cell_length_c 18.069818
_cell_angle_alpha 90.000000
_cell_angle_beta 90.000000
_cell_angle_gamma 90.000000
_cell_volume 2492.291525
_symmetry_space_group_name_H-M "P M M N"
_symmetry_group_IT_number 59
_space_group.IT_coordinate_system_code '2'
_symmetry_cell_setting 'orthorhombic'
loop_
_space_group_symop_operation_xyz
x,y,z
1/2-x,1/2-y,z
1/2+x,-y,-z
-x,1/2+y,-z
-x,-y,-z
1/2+x,1/2+y,-z
1/2-x,y,z
x,1/2-y,z
loop_
_atom_site_type_symbol
_atom_site_label
_atom_site_fract_x
_atom_site_fract_y
_atom_site_fract_z
Si Si1 0.585595 0.933958 0.969026
Si Si2 0.160022 0.567178 0.331909
Si Si3 0.001939 0.564443 0.418183
Si Si4 0.750000 0.568626 0.207941
Si Si5 0.750000 0.433158 0.046243
Si Si6 0.425169 0.069381 0.199690
Si Si7 0.907951 0.432251 0.285025
O O1 0.585130 0.750000 0.978360
O O2 0.587861 0.985498 0.883854
O O3 0.500000 0.000000 0.000000
O O4 0.666472 0.999478 0.009964
O O5 0.250000 0.497840 0.355090
O O6 0.161520 0.750000 0.338985
O O7 0.141992 0.523801 0.247244
O O8 0.089236 0.500365 0.385644
O O9 0.994507 0.750000 0.417121
O O10 0.929067 0.491551 0.367799
O O11 0.000000 0.500000 0.500000
O O12 0.750000 0.750000 0.187654
O O13 0.750000 0.470107 0.132911
O O14 0.829605 0.528068 0.256942
O O15 0.750000 0.250000 0.035026
O O16 0.406256 0.250000 0.209542
O O17 0.518055 0.030193 0.227606
O O18 0.886955 0.250000 0.287914
#
# Coordination Sequence:
#
# PCOD8244516 Si02
#       7
#     8   8   8   4   4   8   8
#     4  11  23  40  60  87 121 158 201 253 310 365
#     4   9  19  35  56  83 111 145 188 232 282 341
#     4  10  20  37  59  84 119 155 193 240 290 345
#     4  12  24  40  62  88 117 150 197 252 300 354
#     4  12  26  42  60  86 121 164 209 256 308 364
#     4   9  20  36  57  82 113 149 190 237 288 347
#     4  10  20  38  62  88 116 155 197 238 294 357
#
# _framework density 19.259384000000001
#
# number of rings (size 3 to 8) (size 9 to 14) (size 15 to 20)
#    0.000    1.833    0.000    4.000    1.167    4.333 
#    1.500    0.000    0.000    0.000    0.000    0.000 
#    0.000    0.000    0.000    0.000    0.000    0.000 
#
# Total GULP energy -595239.777087 kJ/mol
# GULP energy per Si atom -12400.828689 kJ/mol
# Density = 1.921555 g / cm^3
# Si number density = 19.259384 Si / 1000 Ang^3
#
#
#
# Elastic Constant Matrix: (Units=GPa)
#
#
# Indices 1 2 3 4 5 6 
#
# 1 134.3853 29.5670 66.0936 0.0000 0.0000 0.0000
# 2 29.5670 62.7960 29.8387 0.0000 0.0000 0.0000
# 3 66.0936 29.8387 148.6277 0.0000 0.0000 0.0000
# 4 0.0000 0.0000 0.0000 34.7990 0.0000 0.0000
# 5 0.0000 0.0000 0.0000 0.0000 20.0479 0.0000
# 6 0.0000 0.0000 0.0000 0.0000 0.0000 28.5144
#
#
#
# Elastic Compliance Matrix: (Units=1/GPa)
#
#
# Indices 1 2 3 4 5 6 
#
# 1 0.009968 -0.002860 -0.003859 0.000000 0.000000 0.000000
# 2 -0.002860 0.018424 -0.002427 0.000000 0.000000 0.000000
# 3 -0.003859 -0.002427 0.008931 0.000000 0.000000 0.000000
# 4 0.000000 0.000000 0.000000 0.028736 0.000000 0.000000
# 5 0.000000 0.000000 0.000000 0.000000 0.049880 0.000000
# 6 0.000000 0.000000 0.000000 0.000000 0.000000 0.035070
#
#
# Mechanical properties :
#
#
# Convention : Reuss Voigt Hill
#
# Bulk Modulus (GPa) = 52.54123 66.31197 59.42660
# Shear Modulus (GPa) = 28.46621 31.35958 29.91289
#
# Velocity S-wave (km/s) = 3.84870 4.03957 3.94529
# Velocity P-wave (km/s) = 6.86222 7.50088 7.18865
#
# Compressibility (1/GPa) = 0.01903267
#
# Stress axis : x y z
#
# Youngs Moduli (GPa) = 100.31789 54.27568 111.96444
#
# Poissons Ratio (x) = 0.15523 0.43203
# Poissons Ratio (y) = 0.28691 0.27175
# Poissons Ratio (z) = 0.38709 0.13173
#
# Static dielectric constant tensor:
#      x y z
#    x 3.983560 0.000000 0.000000 
#    y 0.000000 3.621380 0.000000 
#    z 0.000000 0.000000 3.579620 
# 
# 
# High freq. dielectric constant tensor:
#      x y z
#    x 1.758740 0.000000 0.000000 
#    y 0.000000 1.755060 0.000000 
#    z 0.000000 0.000000 1.753490 
# 
# From -- ./inp_files/27435.got.cif
#   From: 2010.03.12/outbox.cif.g09.slc.cpg/sg59_14_cif.got.tgz:27435.got - 2010.04.16 16:29:54.
