data_PCOD8244070
_publ_section_title
;
Structure prediction by ZEFSAII (Michael W. Deem and Ramdas Pophale) SiO2 
 PCOD8244070
Probable space group: P M M N
;
_chemical_formula_sum "Si O2"
_cell_formula_units_Z 56
_cell_length_a 15.972136
_cell_length_b 8.993725
_cell_length_c 19.449916
_cell_angle_alpha 90.000000
_cell_angle_beta 90.000000
_cell_angle_gamma 90.000000
_cell_volume 2793.960961
_symmetry_space_group_name_H-M "P M M N"
_symmetry_group_IT_number 59
_space_group.IT_coordinate_system_code '2'
_symmetry_cell_setting 'orthorhombic'
loop_
_space_group_symop_operation_xyz
x,y,z
1/2-x,1/2-y,z
1/2+x,-y,-z
-x,1/2+y,-z
-x,-y,-z
1/2+x,1/2+y,-z
1/2-x,y,z
x,1/2-y,z
loop_
_atom_site_type_symbol
_atom_site_label
_atom_site_fract_x
_atom_site_fract_y
_atom_site_fract_z
Si Si1 0.923286 0.079482 0.209884
Si Si2 0.846083 0.423452 0.066655
Si Si3 0.497112 0.072449 0.574004
Si Si4 0.658630 0.424902 0.655741
Si Si5 0.346243 0.075733 0.068807
Si Si6 0.844661 0.079446 0.351011
Si Si7 0.412147 0.922550 0.201967
O O1 0.954589 0.250000 0.205061
O O2 0.889329 0.024021 0.136602
O O3 0.852929 0.064159 0.268508
O O4 0.997724 0.969631 0.231003
O O5 0.750000 0.468752 0.073862
O O6 0.858207 0.250000 0.054187
O O7 0.885436 0.507526 0.000918
O O8 0.497861 0.250000 0.569022
O O9 0.579818 0.009197 0.613639
O O10 0.500000 0.000000 0.500000
O O11 0.411790 0.023671 0.611204
O O12 0.750000 0.487316 0.630903
O O13 0.656314 0.250000 0.644549
O O14 0.652180 0.461118 0.736966
O O15 0.250000 0.026697 0.076248
O O16 0.358114 0.250000 0.065101
O O17 0.395060 0.016775 0.134342
O O18 0.750000 0.030651 0.370860
O O19 0.860318 0.250000 0.373593
O O20 0.409757 0.750000 0.182791
#
# Coordination Sequence:
#
# PCOD8244070 Si02
#       7
#     8   8   8   8   8   8   8
#     4  10  20  35  57  84 116 150 194 249 299 349
#     4   9  18  34  55  78 106 146 195 244 295 353
#     4  11  23  41  64  93 127 160 199 247 297 354
#     4   9  19  37  61  87 116 153 197 243 293 350
#     4  10  21  36  53  77 110 147 190 244 302 355
#     4  10  21  39  64  92 124 164 204 245 300 361
#     4  11  21  35  57  83 112 149 196 245 296 355
#
# _framework density 20.043227999999999
#
# number of rings (size 3 to 8) (size 9 to 14) (size 15 to 20)
#    0.000    2.000    1.429    2.143    0.000    5.143 
#    0.000    1.429    0.000    6.429    0.000    0.000 
#    0.000    0.000    0.000    0.000    0.000    0.000 
#
# Total GULP energy -694302.164582 kJ/mol
# GULP energy per Si atom -12398.252939 kJ/mol
# Density = 1.999761 g / cm^3
# Si number density = 20.043228 Si / 1000 Ang^3
#
#
#
# Elastic Constant Matrix: (Units=GPa)
#
#
# Indices 1 2 3 4 5 6 
#
# 1 128.3381 33.2931 54.0617 0.0000 0.0000 0.0000
# 2 33.2931 44.4114 33.8592 0.0000 0.0000 0.0000
# 3 54.0617 33.8592 119.5440 0.0000 0.0000 0.0000
# 4 0.0000 0.0000 0.0000 30.0508 0.0000 0.0000
# 5 0.0000 0.0000 0.0000 0.0000 27.5922 0.0000
# 6 0.0000 0.0000 0.0000 0.0000 0.0000 29.4789
#
#
#
# Elastic Compliance Matrix: (Units=1/GPa)
#
#
# Indices 1 2 3 4 5 6 
#
# 1 0.010570 -0.005458 -0.003234 0.000000 0.000000 0.000000
# 2 -0.005458 0.031537 -0.006464 0.000000 0.000000 0.000000
# 3 -0.003234 -0.006464 0.011659 0.000000 0.000000 0.000000
# 4 0.000000 0.000000 0.000000 0.033277 0.000000 0.000000
# 5 0.000000 0.000000 0.000000 0.000000 0.036242 0.000000
# 6 0.000000 0.000000 0.000000 0.000000 0.000000 0.033923
#
#
# Mechanical properties :
#
#
# Convention : Reuss Voigt Hill
#
# Bulk Modulus (GPa) = 42.63914 59.41350 51.02632
# Shear Modulus (GPa) = 25.59672 28.82968 27.21320
#
# Velocity S-wave (km/s) = 3.57750 3.79671 3.68873
# Velocity P-wave (km/s) = 6.19552 6.99478 6.60725
#
# Compressibility (1/GPa) = 0.02345263
#
# Stress axis : x y z
#
# Youngs Moduli (GPa) = 94.60474 31.70920 85.77379
#
# Poissons Ratio (x) = 0.17308 0.27741
# Poissons Ratio (y) = 0.51638 0.55443
# Poissons Ratio (z) = 0.30598 0.20497
#
# Static dielectric constant tensor:
#      x y z
#    x 3.848870 0.000000 0.000000 
#    y 0.000000 3.451780 0.000000 
#    z 0.000000 0.000000 3.748730 
# 
# 
# High freq. dielectric constant tensor:
#      x y z
#    x 1.785390 0.000000 0.000000 
#    y 0.000000 1.762940 0.000000 
#    z 0.000000 0.000000 1.789670 
# 
# From -- ./inp_files/29093.got.cif
#   From: 2010.03.12/outbox.cif.g09.slc.cpg/sg59_15_cif.got.tgz:29093.got - 2010.04.16 16:29:54.
