data_PCOD8244424
_publ_section_title
;
Structure prediction by ZEFSAII (Michael W. Deem and Ramdas Pophale) SiO2 
 PCOD8244424
Probable space group: P M M N
;
_chemical_formula_sum "Si O2"
_cell_formula_units_Z 64
_cell_length_a 9.141212
_cell_length_b 30.900183
_cell_length_c 11.412374
_cell_angle_alpha 90.000000
_cell_angle_beta 90.000000
_cell_angle_gamma 90.000000
_cell_volume 3223.597633
_symmetry_space_group_name_H-M "P M M N"
_symmetry_group_IT_number 59
_space_group.IT_coordinate_system_code '2'
_symmetry_cell_setting 'orthorhombic'
loop_
_space_group_symop_operation_xyz
x,y,z
1/2-x,1/2-y,z
1/2+x,-y,-z
-x,1/2+y,-z
-x,-y,-z
1/2+x,1/2+y,-z
1/2-x,y,z
x,1/2-y,z
loop_
_atom_site_type_symbol
_atom_site_label
_atom_site_fract_x
_atom_site_fract_y
_atom_site_fract_z
Si Si1 0.085043 0.944752 0.565734
Si Si2 0.580130 0.020126 0.681157
Si Si3 0.413497 0.698629 0.334450
Si Si4 0.419448 0.299361 0.895538
Si Si5 0.915846 0.698859 0.560787
Si Si6 0.916662 0.362197 0.288090
Si Si7 0.921677 0.964296 0.079351
Si Si8 0.418031 0.377701 0.059579
O O1 0.250000 0.961888 0.590200
O O2 0.052029 0.947000 0.426789
O O3 0.068423 0.895475 0.604740
O O4 0.971484 0.972774 0.640727
O O5 0.750000 0.017497 0.717145
O O6 0.486868 0.036170 0.790744
O O7 0.250000 0.679238 0.338813
O O8 0.409960 0.750000 0.338591
O O9 0.490436 0.683476 0.215554
O O10 0.502206 0.681065 0.445743
O O11 0.250000 0.301898 0.860308
O O12 0.462281 0.250000 0.930759
O O13 0.456177 0.331374 0.001827
O O14 0.750000 0.682445 0.554713
O O15 0.924382 0.750000 0.570381
O O16 0.992111 0.680238 0.677102
O O17 0.750000 0.348699 0.265422
O O18 0.979768 0.383922 0.171451
O O19 0.750000 0.975067 0.084193
O O20 0.951591 0.916706 0.028585
O O21 0.000000 0.000000 0.000000
O O22 0.250000 0.378775 0.100145
#
# Coordination Sequence:
#
# PCOD8244424 Si02
#       8
#     8   8   8   8   8   8   8   8
#     4   9  20  38  58  84 117 149 182 222 275 335
#     4  10  20  36  60  87 114 146 185 228 274 328
#     4   9  17  31  53  81 111 140 175 223 276 327
#     4   9  18  35  58  81 109 146 185 226 275 331
#     4  10  21  37  57  80 108 145 187 228 273 329
#     4  11  23  38  57  81 111 146 183 230 283 331
#     4  11  23  39  59  83 114 150 189 233 280 332
#     4  10  23  40  56  80 112 148 192 235 277 333
#
# _framework density 19.853594999999999
#
# number of rings (size 3 to 8) (size 9 to 14) (size 15 to 20)
#    0.000    2.125    0.000    2.625    0.000    8.750 
#    0.000    3.750    0.000    0.000    0.000    0.000 
#    0.000    0.000    0.000    0.000    0.000    0.000 
#
# Total GULP energy -793774.849222 kJ/mol
# GULP energy per Si atom -12402.732019 kJ/mol
# Density = 1.980841 g / cm^3
# Si number density = 19.853595 Si / 1000 Ang^3
#
#
#
# Elastic Constant Matrix: (Units=GPa)
#
#
# Indices 1 2 3 4 5 6 
#
# 1 136.8487 47.3345 73.0288 0.0000 0.0000 0.0000
# 2 47.3345 71.8372 44.1657 0.0000 0.0000 0.0000
# 3 73.0288 44.1657 122.9409 0.0000 0.0000 0.0000
# 4 0.0000 0.0000 0.0000 28.6201 0.0000 0.0000
# 5 0.0000 0.0000 0.0000 0.0000 38.1195 0.0000
# 6 0.0000 0.0000 0.0000 0.0000 0.0000 25.6468
#
#
#
# Elastic Compliance Matrix: (Units=1/GPa)
#
#
# Indices 1 2 3 4 5 6 
#
# 1 0.011694 -0.004408 -0.005363 0.000000 0.000000 0.000000
# 2 -0.004408 0.019528 -0.004397 0.000000 0.000000 0.000000
# 3 -0.005363 -0.004397 0.012899 0.000000 0.000000 0.000000
# 4 0.000000 0.000000 0.000000 0.034941 0.000000 0.000000
# 5 0.000000 0.000000 0.000000 0.000000 0.026233 0.000000
# 6 0.000000 0.000000 0.000000 0.000000 0.000000 0.038991
#
#
# Mechanical properties :
#
#
# Convention : Reuss Voigt Hill
#
# Bulk Modulus (GPa) = 63.34891 73.40941 68.37916
# Shear Modulus (GPa) = 28.10827 29.61713 28.86270
#
# Velocity S-wave (km/s) = 3.76676 3.86654 3.81698
# Velocity P-wave (km/s) = 7.13410 7.54912 7.34454
#
# Compressibility (1/GPa) = 0.01578559
#
# Stress axis : x y z
#
# Youngs Moduli (GPa) = 85.51461 51.20799 77.52509
#
# Poissons Ratio (x) = 0.22574 0.41575
# Poissons Ratio (y) = 0.37697 0.34086
# Poissons Ratio (z) = 0.45859 0.22515
#
# Static dielectric constant tensor:
#      x y z
#    x 3.814170 0.000000 0.000000 
#    y 0.000000 3.453190 0.000000 
#    z 0.000000 0.000000 3.595100 
# 
# 
# High freq. dielectric constant tensor:
#      x y z
#    x 1.784200 0.000000 0.000000 
#    y 0.000000 1.762050 0.000000 
#    z 0.000000 0.000000 1.777020 
# 
# From -- ./inp_files/15000.got.cif
#   From: 2010.03.12/outbox.cif.g09.slc.cpg/sg59_8_cif.got.tgz:15000.got - 2010.04.16 16:29:54.
