data_PCOD8244338
_publ_section_title
;
Structure prediction by ZEFSAII (Michael W. Deem and Ramdas Pophale) SiO2 
 PCOD8244338
Probable space group: P M M N
;
_chemical_formula_sum "Si O2"
_cell_formula_units_Z 56
_cell_length_a 8.821285
_cell_length_b 22.481565
_cell_length_c 14.702450
_cell_angle_alpha 90.000000
_cell_angle_beta 90.000000
_cell_angle_gamma 90.000000
_cell_volume 2915.735369
_symmetry_space_group_name_H-M "P M M N"
_symmetry_group_IT_number 59
_space_group.IT_coordinate_system_code '2'
_symmetry_cell_setting 'orthorhombic'
loop_
_space_group_symop_operation_xyz
x,y,z
1/2-x,1/2-y,z
1/2+x,-y,-z
-x,1/2+y,-z
-x,-y,-z
1/2+x,1/2+y,-z
1/2-x,y,z
x,1/2-y,z
loop_
_atom_site_type_symbol
_atom_site_label
_atom_site_fract_x
_atom_site_fract_y
_atom_site_fract_z
Si Si1 0.573321 0.016345 0.904814
Si Si2 0.922561 0.083532 0.200115
Si Si3 0.077110 0.817366 0.940756
Si Si4 0.425859 0.816811 0.297536
Si Si5 0.576526 0.447342 0.399217
Si Si6 0.071528 0.360890 0.878500
Si Si7 0.426451 0.082079 0.580368
O O1 0.750000 0.026515 0.919890
O O2 0.500058 0.074800 0.862688
O O3 0.543348 0.964011 0.834358
O O4 0.500000 0.000000 0.000000
O O5 0.750000 0.062187 0.179719
O O6 0.957277 0.145445 0.150144
O O7 0.946402 0.090881 0.307803
O O8 0.250000 0.826799 0.973519
O O9 0.043777 0.750000 0.913333
O O10 0.968562 0.836193 0.022399
O O11 0.250000 0.829530 0.280651
O O12 0.451209 0.750000 0.337235
O O13 0.509633 0.818507 0.200448
O O14 0.486426 0.866335 0.366530
O O15 0.750000 0.445172 0.433467
O O16 0.531145 0.516479 0.381115
O O17 0.471708 0.416449 0.474371
O O18 0.250000 0.365974 0.869882
O O19 0.250000 0.095658 0.591105
#
# Coordination Sequence:
#
# PCOD8244338 Si02
#       7
#     8   8   8   8   8   8   8
#     4  12  23  36  56  84 117 152 191 239 292 345
#     4  10  20  36  58  83 115 153 195 240 285 341
#     4  10  21  37  56  78 109 151 195 238 284 336
#     4  11  24  41  61  86 118 157 199 244 295 353
#     4   9  19  36  59  87 117 151 191 236 291 352
#     4  12  24  38  58  84 115 153 194 238 291 349
#     4  10  20  36  60  88 118 151 190 239 294 350
#
# _framework density 19.206132
#
# number of rings (size 3 to 8) (size 9 to 14) (size 15 to 20)
#    0.000    1.429    1.429    4.714    0.000    5.429 
#    0.000    0.714    0.000    2.571    0.000    0.000 
#    0.000    0.000    0.000    0.000    0.000    0.000 
#
# Total GULP energy -694575.004718 kJ/mol
# GULP energy per Si atom -12403.125084 kJ/mol
# Density = 1.916242 g / cm^3
# Si number density = 19.206132 Si / 1000 Ang^3
#
#
#
# Elastic Constant Matrix: (Units=GPa)
#
#
# Indices 1 2 3 4 5 6 
#
# 1 124.2465 52.4606 45.0396 0.0000 0.0000 0.0000
# 2 52.4606 120.2003 54.1017 0.0000 0.0000 0.0000
# 3 45.0396 54.1017 111.7401 0.0000 0.0000 0.0000
# 4 0.0000 0.0000 0.0000 27.6696 0.0000 0.0000
# 5 0.0000 0.0000 0.0000 0.0000 27.8079 0.0000
# 6 0.0000 0.0000 0.0000 0.0000 0.0000 27.1974
#
#
#
# Elastic Compliance Matrix: (Units=1/GPa)
#
#
# Indices 1 2 3 4 5 6 
#
# 1 0.010406 -0.003393 -0.002552 0.000000 0.000000 0.000000
# 2 -0.003393 0.011744 -0.004318 0.000000 0.000000 0.000000
# 3 -0.002552 -0.004318 0.012069 0.000000 0.000000 0.000000
# 4 0.000000 0.000000 0.000000 0.036141 0.000000 0.000000
# 5 0.000000 0.000000 0.000000 0.000000 0.035961 0.000000
# 6 0.000000 0.000000 0.000000 0.000000 0.000000 0.036768
#
#
# Mechanical properties :
#
#
# Convention : Reuss Voigt Hill
#
# Bulk Modulus (GPa) = 73.03285 73.26562 73.14923
# Shear Modulus (GPa) = 29.73008 30.17397 29.95203
#
# Velocity S-wave (km/s) = 3.93866 3.96796 3.95334
# Velocity P-wave (km/s) = 7.66762 7.69563 7.68164
#
# Compressibility (1/GPa) = 0.01369247
#
# Stress axis : x y z
#
# Youngs Moduli (GPa) = 96.09664 85.14886 82.85901
#
# Poissons Ratio (x) = 0.28893 0.21142
# Poissons Ratio (y) = 0.32608 0.35782
# Poissons Ratio (z) = 0.24519 0.36771
#
# Static dielectric constant tensor:
#      x y z
#    x 3.714130 0.000000 0.000000 
#    y 0.000000 3.583630 0.000000 
#    z 0.000000 0.000000 3.470390 
# 
# 
# High freq. dielectric constant tensor:
#      x y z
#    x 1.752150 0.000000 0.000000 
#    y 0.000000 1.743890 0.000000 
#    z 0.000000 0.000000 1.744240 
# 
# From -- ./inp_files/20928.got.cif
#   From: 2010.03.12/outbox.cif.g09.slc.cpg/sg59_11_cif.got.tgz:20928.got - 2010.04.16 16:29:54.
