data_PCOD8244346
_publ_section_title
;
Structure prediction by ZEFSAII (Michael W. Deem and Ramdas Pophale) SiO2 
 PCOD8244346
Probable space group: P M M N
;
_chemical_formula_sum "Si O2"
_cell_formula_units_Z 48
_cell_length_a 8.840197
_cell_length_b 16.168305
_cell_length_c 16.569490
_cell_angle_alpha 90.000000
_cell_angle_beta 90.000000
_cell_angle_gamma 90.000000
_cell_volume 2368.293798
_symmetry_space_group_name_H-M "P M M N"
_symmetry_group_IT_number 59
_space_group.IT_coordinate_system_code '2'
_symmetry_cell_setting 'orthorhombic'
loop_
_space_group_symop_operation_xyz
x,y,z
1/2-x,1/2-y,z
1/2+x,-y,-z
-x,1/2+y,-z
-x,-y,-z
1/2+x,1/2+y,-z
1/2-x,y,z
x,1/2-y,z
loop_
_atom_site_type_symbol
_atom_site_label
_atom_site_fract_x
_atom_site_fract_y
_atom_site_fract_z
Si Si1 0.921876 0.564478 0.216112
Si Si2 0.574221 0.155308 0.469970
Si Si3 0.930174 0.421258 0.953055
Si Si4 0.425808 0.250000 0.198331
Si Si5 0.919108 0.111942 0.296271
Si Si6 0.921720 0.847128 0.371106
Si Si7 0.568110 0.750000 0.982704
O O1 0.750000 0.590312 0.190652
O O2 0.920745 0.474656 0.253557
O O3 0.991515 0.623213 0.286020
O O4 0.034165 0.567615 0.141058
O O5 0.750000 0.149963 0.487017
O O6 0.521206 0.250000 0.457146
O O7 0.525823 0.105339 0.389394
O O8 0.497382 0.114370 0.548852
O O9 0.750000 0.419992 0.967428
O O10 0.000000 0.500000 0.000000
O O11 0.002382 0.333700 0.978276
O O12 0.250000 0.250000 0.187531
O O13 0.471351 0.330974 0.245870
O O14 0.494123 0.250000 0.108592
O O15 0.750000 0.150486 0.296208
O O16 0.750000 0.878010 0.371989
O O17 0.940808 0.750000 0.374884
O O18 0.750000 0.750000 0.991381
#
# Coordination Sequence:
#
# PCOD8244346 Si02
#       7
#     8   8   8   4   8   8   4
#     4  10  22  39  61  88 119 161 205 252 306 365
#     4   9  17  32  53  79 113 156 200 245 296 351
#     4  12  26  45  68  97 131 168 212 264 323 387
#     4  11  23  37  59  90 117 146 191 245 304 363
#     4  10  20  36  58  84 118 159 201 243 298 361
#     4   9  19  35  55  82 117 158 200 245 300 358
#     4  11  25  45  69  96 127 166 211 263 324 387
#
# _framework density 20.267755999999999
#
# number of rings (size 3 to 8) (size 9 to 14) (size 15 to 20)
#    0.000    1.833    0.833    3.000    1.167    6.667 
#    0.000    0.000    0.000    0.000    0.000    0.000 
#    0.000    0.000    0.000    0.000    0.000    0.000 
#
# Total GULP energy -595055.784098 kJ/mol
# GULP energy per Si atom -12396.995502 kJ/mol
# Density = 2.022163 g / cm^3
# Si number density = 20.267756 Si / 1000 Ang^3
#
#
#
# Elastic Constant Matrix: (Units=GPa)
#
#
# Indices 1 2 3 4 5 6 
#
# 1 75.5712 39.3090 52.7263 0.0000 0.0000 0.0000
# 2 39.3090 78.7882 48.0760 0.0000 0.0000 0.0000
# 3 52.7263 48.0760 180.8398 0.0000 0.0000 0.0000
# 4 0.0000 0.0000 0.0000 30.4820 0.0000 0.0000
# 5 0.0000 0.0000 0.0000 0.0000 37.7630 0.0000
# 6 0.0000 0.0000 0.0000 0.0000 0.0000 24.5429
#
#
#
# Elastic Compliance Matrix: (Units=1/GPa)
#
#
# Indices 1 2 3 4 5 6 
#
# 1 0.019799 -0.007586 -0.003756 0.000000 0.000000 0.000000
# 2 -0.007586 0.018057 -0.002588 0.000000 0.000000 0.000000
# 3 -0.003756 -0.002588 0.007313 0.000000 0.000000 0.000000
# 4 0.000000 0.000000 0.000000 0.032806 0.000000 0.000000
# 5 0.000000 0.000000 0.000000 0.000000 0.026481 0.000000
# 6 0.000000 0.000000 0.000000 0.000000 0.000000 0.040745
#
#
# Mechanical properties :
#
#
# Convention : Reuss Voigt Hill
#
# Bulk Modulus (GPa) = 57.77867 68.38022 63.07944
# Shear Modulus (GPa) = 27.95928 31.56345 29.76136
#
# Velocity S-wave (km/s) = 3.71819 3.95057 3.83614
# Velocity P-wave (km/s) = 6.85586 7.39061 7.12825
#
# Compressibility (1/GPa) = 0.01730743
#
# Stress axis : x y z
#
# Youngs Moduli (GPa) = 50.50724 55.38117 136.74337
#
# Poissons Ratio (x) = 0.42014 0.51359
# Poissons Ratio (y) = 0.38317 0.35395
# Poissons Ratio (z) = 0.18970 0.14335
#
# Static dielectric constant tensor:
#      x y z
#    x 3.720720 0.000000 0.000000 
#    y 0.000000 3.549950 0.000000 
#    z 0.000000 0.000000 4.067670 
# 
# 
# High freq. dielectric constant tensor:
#      x y z
#    x 1.777870 0.000000 0.000000 
#    y 0.000000 1.789610 0.000000 
#    z 0.000000 0.000000 1.814580 
# 
# From -- ./inp_files/20534.got.cif
#   From: 2010.03.12/outbox.cif.g09.slc.cpg/sg59_11_cif.got.tgz:20534.got - 2010.04.16 16:29:54.
