data_PCOD8244339
_publ_section_title
;
Structure prediction by ZEFSAII (Michael W. Deem and Ramdas Pophale) SiO2 
 PCOD8244339
Probable space group: P M M N
;
_chemical_formula_sum "Si O2"
_cell_formula_units_Z 64
_cell_length_a 13.554453
_cell_length_b 18.972185
_cell_length_c 12.928512
_cell_angle_alpha 90.000000
_cell_angle_beta 90.000000
_cell_angle_gamma 90.000000
_cell_volume 3324.664987
_symmetry_space_group_name_H-M "P M M N"
_symmetry_group_IT_number 59
_space_group.IT_coordinate_system_code '2'
_symmetry_cell_setting 'orthorhombic'
loop_
_space_group_symop_operation_xyz
x,y,z
1/2-x,1/2-y,z
1/2+x,-y,-z
-x,1/2+y,-z
-x,-y,-z
1/2+x,1/2+y,-z
1/2-x,y,z
x,1/2-y,z
loop_
_atom_site_type_symbol
_atom_site_label
_atom_site_fract_x
_atom_site_fract_y
_atom_site_fract_z
Si Si1 0.135847 0.533715 0.042415
Si Si2 0.531751 0.667819 0.244766
Si Si3 0.862360 0.328004 0.068438
Si Si4 0.055628 0.328215 0.173492
Si Si5 0.632381 0.887914 0.037895
Si Si6 0.133872 0.328356 0.546466
Si Si7 0.865712 0.581468 0.642166
Si Si8 0.862721 0.437865 0.728708
O O1 0.250000 0.531107 0.015139
O O2 0.097959 0.611875 0.010599
O O3 0.089316 0.467798 0.979172
O O4 0.118184 0.522087 0.163196
O O5 0.509454 0.750000 0.233922
O O6 0.579059 0.640633 0.139298
O O7 0.606374 0.649877 0.337477
O O8 0.430139 0.630609 0.277882
O O9 0.750000 0.341796 0.105864
O O10 0.869760 0.250000 0.015236
O O11 0.936106 0.331092 0.165430
O O12 0.088937 0.250000 0.208334
O O13 0.084728 0.383807 0.258882
O O14 0.105965 0.342191 0.062469
O O15 0.750000 0.885627 0.054199
O O16 0.250000 0.328675 0.538982
O O17 0.092565 0.250000 0.520698
O O18 0.091042 0.384098 0.462919
O O19 0.750000 0.595216 0.652902
O O20 0.887592 0.497263 0.642149
O O21 0.750000 0.411546 0.719499
#
# Coordination Sequence:
#
# PCOD8244339 Si02
#       8
#     8   8   8   8   8   8   8   8
#     4   9  18  33  52  75 107 149 185 216 268 327
#     4  11  24  38  56  82 110 149 191 224 272 332
#     4   9  19  34  50  72 107 150 193 229 260 315
#     4  11  21  31  53  85 111 142 180 223 279 332
#     4  11  22  35  53  82 117 146 176 224 282 338
#     4   9  19  38  61  82 110 146 181 221 270 331
#     4  10  20  36  58  84 111 141 180 227 280 332
#     4  10  21  37  57  81 110 145 185 233 279 321
#
# _framework density 19.250060000000001
#
# number of rings (size 3 to 8) (size 9 to 14) (size 15 to 20)
#    0.000    2.000    1.250    2.250    1.750    6.000 
#    0.000    1.250    0.000    0.750    0.000    1.750 
#    0.000    0.000    0.000    0.000    0.000    0.000 
#
# Total GULP energy -793283.515991 kJ/mol
# GULP energy per Si atom -12395.054937 kJ/mol
# Density = 1.920625 g / cm^3
# Si number density = 19.250060 Si / 1000 Ang^3
#
#
#
# Elastic Constant Matrix: (Units=GPa)
#
#
# Indices 1 2 3 4 5 6 
#
# 1 47.7508 34.8190 15.7639 0.0000 0.0000 0.0000
# 2 34.8190 122.7487 37.9969 0.0000 0.0000 0.0000
# 3 15.7639 37.9969 84.8321 0.0000 0.0000 0.0000
# 4 0.0000 0.0000 0.0000 24.5998 0.0000 0.0000
# 5 0.0000 0.0000 0.0000 0.0000 17.5489 0.0000
# 6 0.0000 0.0000 0.0000 0.0000 0.0000 26.6668
#
#
#
# Elastic Compliance Matrix: (Units=1/GPa)
#
#
# Indices 1 2 3 4 5 6 
#
# 1 0.026643 -0.006995 -0.001818 0.000000 0.000000 0.000000
# 2 -0.006995 0.011294 -0.003759 0.000000 0.000000 0.000000
# 3 -0.001818 -0.003759 0.013810 0.000000 0.000000 0.000000
# 4 0.000000 0.000000 0.000000 0.040651 0.000000 0.000000
# 5 0.000000 0.000000 0.000000 0.000000 0.056984 0.000000
# 6 0.000000 0.000000 0.000000 0.000000 0.000000 0.037500
#
#
# Mechanical properties :
#
#
# Convention : Reuss Voigt Hill
#
# Bulk Modulus (GPa) = 37.58942 48.05459 42.82200
# Shear Modulus (GPa) = 22.63551 24.87990 23.75770
#
# Velocity S-wave (km/s) = 3.43281 3.59898 3.51688
# Velocity P-wave (km/s) = 5.93983 6.50290 6.22773
#
# Compressibility (1/GPa) = 0.02660323
#
# Stress axis : x y z
#
# Youngs Moduli (GPa) = 37.53389 88.53882 72.41385
#
# Poissons Ratio (x) = 0.61931 0.13164
# Poissons Ratio (y) = 0.26254 0.27221
# Poissons Ratio (z) = 0.06823 0.33283
#
# Static dielectric constant tensor:
#      x y z
#    x 3.568470 0.000000 0.000000 
#    y 0.000000 3.888650 0.000000 
#    z 0.000000 0.000000 3.384660 
# 
# 
# High freq. dielectric constant tensor:
#      x y z
#    x 1.749060 0.000000 0.000000 
#    y 0.000000 1.764230 0.000000 
#    z 0.000000 0.000000 1.721020 
# 
# From -- ./inp_files/17198.got.cif
#   From: 2010.03.12/outbox.cif.g09.slc.cpg/sg59_9_cif.got.tgz:17198.got - 2010.04.16 16:29:54.
