data_PCOD8244574
_publ_section_title
;
Structure prediction by ZEFSAII (Michael W. Deem and Ramdas Pophale) SiO2 
 PCOD8244574
Probable space group: P M M N
;
_chemical_formula_sum "Si O2"
_cell_formula_units_Z 48
_cell_length_a 13.716587
_cell_length_b 14.215321
_cell_length_c 12.353892
_cell_angle_alpha 90.000000
_cell_angle_beta 90.000000
_cell_angle_gamma 90.000000
_cell_volume 2408.832122
_symmetry_space_group_name_H-M "P M M N"
_symmetry_group_IT_number 59
_space_group.IT_coordinate_system_code '2'
_symmetry_cell_setting 'orthorhombic'
loop_
_space_group_symop_operation_xyz
x,y,z
1/2-x,1/2-y,z
1/2+x,-y,-z
-x,1/2+y,-z
-x,-y,-z
1/2+x,1/2+y,-z
1/2-x,y,z
x,1/2-y,z
loop_
_atom_site_type_symbol
_atom_site_label
_atom_site_fract_x
_atom_site_fract_y
_atom_site_fract_z
Si Si1 0.637168 0.504206 0.682535
Si Si2 0.052340 0.640936 0.160225
Si Si3 0.863116 0.477692 0.438990
Si Si4 0.026477 0.860829 0.726658
Si Si5 0.859428 0.642810 0.276668
Si Si6 0.359746 0.638277 0.937009
O O1 0.750000 0.531616 0.682623
O O2 0.618609 0.410570 0.751192
O O3 0.597438 0.487154 0.561013
O O4 0.579461 0.591682 0.734046
O O5 0.079497 0.750000 0.170842
O O6 0.937134 0.622812 0.181096
O O7 0.079025 0.603171 0.040883
O O8 0.750000 0.451437 0.440335
O O9 0.917859 0.391597 0.381714
O O10 0.883127 0.575816 0.377593
O O11 0.012055 0.750000 0.727767
O O12 0.088442 0.899081 0.828739
O O13 0.750000 0.624437 0.231322
O O14 0.869653 0.750000 0.318647
O O15 0.250000 0.597287 0.942128
O O16 0.356588 0.750000 0.933332
#
# Coordination Sequence:
#
# PCOD8244574 Si02
#       6
#     8   8   8   8   8   8
#     4  11  24  40  57  85 122 154 192 240 292 347
#     4  10  20  37  62  87 115 149 191 242 298 348
#     4  10  21  39  60  85 118 150 188 240 289 341
#     4  11  23  39  60  84 115 156 200 239 283 340
#     4   9  18  34  58  87 117 150 189 233 289 354
#     4   9  19  37  60  86 115 150 194 242 290 344
#
# _framework density 19.926667999999999
#
# number of rings (size 3 to 8) (size 9 to 14) (size 15 to 20)
#    0.000    2.000    1.667    1.500    0.000    4.333 
#    0.000    4.167    0.000    3.000    0.000    0.000 
#    0.000    0.000    0.000    0.000    0.000    0.000 
#
# Total GULP energy -595314.419608 kJ/mol
# GULP energy per Si atom -12402.383742 kJ/mol
# Density = 1.988131 g / cm^3
# Si number density = 19.926668 Si / 1000 Ang^3
#
#
#
# Elastic Constant Matrix: (Units=GPa)
#
#
# Indices 1 2 3 4 5 6 
#
# 1 112.8322 40.9673 77.8978 0.0000 0.0000 0.0000
# 2 40.9673 75.7052 42.2118 0.0000 0.0000 0.0000
# 3 77.8978 42.2118 143.3367 0.0000 0.0000 0.0000
# 4 0.0000 0.0000 0.0000 27.2861 0.0000 0.0000
# 5 0.0000 0.0000 0.0000 0.0000 38.5253 0.0000
# 6 0.0000 0.0000 0.0000 0.0000 0.0000 27.8836
#
#
#
# Elastic Compliance Matrix: (Units=1/GPa)
#
#
# Indices 1 2 3 4 5 6 
#
# 1 0.015299 -0.004359 -0.007031 0.000000 0.000000 0.000000
# 2 -0.004359 0.017046 -0.002651 0.000000 0.000000 0.000000
# 3 -0.007031 -0.002651 0.011578 0.000000 0.000000 0.000000
# 4 0.000000 0.000000 0.000000 0.036649 0.000000 0.000000
# 5 0.000000 0.000000 0.000000 0.000000 0.025957 0.000000
# 6 0.000000 0.000000 0.000000 0.000000 0.000000 0.035863
#
#
# Mechanical properties :
#
#
# Convention : Reuss Voigt Hill
#
# Bulk Modulus (GPa) = 63.12323 72.66978 67.89650
# Shear Modulus (GPa) = 28.44862 30.12548 29.28705
#
# Velocity S-wave (km/s) = 3.78255 3.89243 3.83788
# Velocity P-wave (km/s) = 7.12905 7.53320 7.33391
#
# Compressibility (1/GPa) = 0.01584203
#
# Stress axis : x y z
#
# Youngs Moduli (GPa) = 65.36199 58.66449 86.36790
#
# Poissons Ratio (x) = 0.25571 0.60725
# Poissons Ratio (y) = 0.28490 0.22897
# Poissons Ratio (z) = 0.45956 0.15553
#
# Static dielectric constant tensor:
#      x y z
#    x 3.815280 0.000000 0.000000 
#    y 0.000000 3.436770 0.000000 
#    z 0.000000 0.000000 3.733200 
# 
# 
# High freq. dielectric constant tensor:
#      x y z
#    x 1.792010 0.000000 0.000000 
#    y 0.000000 1.766520 0.000000 
#    z 0.000000 0.000000 1.772680 
# 
# From -- ./inp_files/16856.got.cif
#   From: 2010.03.12/outbox.cif.g09.slc.cpg/sg59_9_cif.got.tgz:16856.got - 2010.04.16 16:29:54.
