data_PCOD8244349
_publ_section_title
;
Structure prediction by ZEFSAII (Michael W. Deem and Ramdas Pophale) SiO2 
 PCOD8244349
Probable space group: P M M N
;
_chemical_formula_sum "Si O2"
_cell_formula_units_Z 48
_cell_length_a 8.576509
_cell_length_b 23.511637
_cell_length_c 11.132334
_cell_angle_alpha 90.000000
_cell_angle_beta 90.000000
_cell_angle_gamma 90.000000
_cell_volume 2244.810285
_symmetry_space_group_name_H-M "P M M N"
_symmetry_group_IT_number 59
_space_group.IT_coordinate_system_code '2'
_symmetry_cell_setting 'orthorhombic'
loop_
_space_group_symop_operation_xyz
x,y,z
1/2-x,1/2-y,z
1/2+x,-y,-z
-x,1/2+y,-z
-x,-y,-z
1/2+x,1/2+y,-z
1/2-x,y,z
x,1/2-y,z
loop_
_atom_site_type_symbol
_atom_site_label
_atom_site_fract_x
_atom_site_fract_y
_atom_site_fract_z
Si Si1 0.931989 0.914599 0.294636
Si Si2 0.435227 0.622213 0.919697
Si Si3 0.064972 0.815112 0.160406
Si Si4 0.068191 0.582291 0.547426
Si Si5 0.567160 0.311714 0.310176
Si Si6 0.066836 0.475508 0.218508
O O1 0.750000 0.917637 0.270546
O O2 0.994860 0.850636 0.271666
O O3 0.968945 0.933737 0.430824
O O4 0.019204 0.958219 0.203428
O O5 0.250000 0.615379 0.917543
O O6 0.500211 0.661470 0.811942
O O7 0.509836 0.559721 0.898565
O O8 0.493269 0.652374 0.040872
O O9 0.250000 0.814866 0.169097
O O10 0.002754 0.750000 0.162303
O O11 0.250000 0.572067 0.520484
O O12 0.031439 0.648324 0.576444
O O13 0.020117 0.545085 0.661302
O O14 0.750000 0.305271 0.291324
O O15 0.490098 0.250000 0.333113
O O16 0.250000 0.469086 0.234098
#
# Coordination Sequence:
#
# PCOD8244349 Si02
#       6
#     8   8   8   8   8   8
#     4  12  25  40  58  82 116 156 196 239 288 343
#     4   9  18  35  60  88 116 147 188 238 288 339
#     4  10  22  41  64  88 116 154 197 236 279 338
#     4  10  20  36  58  85 117 152 193 241 293 349
#     4   8  14  27  52  84 112 141 181 230 281 333
#     4  11  22  38  61  88 117 149 189 238 293 350
#
# _framework density 21.382653000000001
#
# number of rings (size 3 to 8) (size 9 to 14) (size 15 to 20)
#    0.000    2.000    0.000    5.500    0.000    4.333 
#    0.000    1.667    0.000   16.000    0.000    0.000 
#    0.000    0.000    0.000    0.000    0.000    0.000 
#
# Total GULP energy -595157.218001 kJ/mol
# GULP energy per Si atom -12399.108708 kJ/mol
# Density = 2.133398 g / cm^3
# Si number density = 21.382653 Si / 1000 Ang^3
#
#
#
# Elastic Constant Matrix: (Units=GPa)
#
#
# Indices 1 2 3 4 5 6 
#
# 1 59.9834 25.9201 14.8007 0.0000 0.0000 0.0000
# 2 25.9201 116.3953 10.4300 0.0000 0.0000 0.0000
# 3 14.8007 10.4300 48.0726 0.0000 0.0000 0.0000
# 4 0.0000 0.0000 0.0000 24.6264 0.0000 0.0000
# 5 0.0000 0.0000 0.0000 0.0000 26.6352 0.0000
# 6 0.0000 0.0000 0.0000 0.0000 0.0000 26.1739
#
#
#
# Elastic Compliance Matrix: (Units=1/GPa)
#
#
# Indices 1 2 3 4 5 6 
#
# 1 0.019643 -0.003908 -0.005200 0.000000 0.000000 0.000000
# 2 -0.003908 0.009539 -0.000866 0.000000 0.000000 0.000000
# 3 -0.005200 -0.000866 0.022591 0.000000 0.000000 0.000000
# 4 0.000000 0.000000 0.000000 0.040607 0.000000 0.000000
# 5 0.000000 0.000000 0.000000 0.000000 0.037544 0.000000
# 6 0.000000 0.000000 0.000000 0.000000 0.000000 0.038206
#
#
# Mechanical properties :
#
#
# Convention : Reuss Voigt Hill
#
# Bulk Modulus (GPa) = 31.42261 36.30586 33.86423
# Shear Modulus (GPa) = 25.16510 27.04047 26.10278
#
# Velocity S-wave (km/s) = 3.43431 3.55998 3.49771
# Velocity P-wave (km/s) = 5.51845 5.82356 5.67306
#
# Compressibility (1/GPa) = 0.03182422
#
# Stress axis : x y z
#
# Youngs Moduli (GPa) = 50.90813 104.82832 44.26583
#
# Poissons Ratio (x) = 0.40971 0.23017
# Poissons Ratio (y) = 0.19897 0.03835
# Poissons Ratio (z) = 0.26471 0.09082
#
# Static dielectric constant tensor:
#      x y z
#    x 3.471760 0.000000 0.000000 
#    y 0.000000 4.564370 0.000000 
#    z 0.000000 0.000000 3.730060 
# 
# 
# High freq. dielectric constant tensor:
#      x y z
#    x 1.811520 0.000000 0.000000 
#    y 0.000000 1.856490 0.000000 
#    z 0.000000 0.000000 1.828150 
# 
# From -- ./inp_files/14354.got.cif
#   From: 2010.03.12/outbox.cif.g09.slc.cpg/sg59_8_cif.got.tgz:14354.got - 2010.04.16 16:29:54.
