data_PCOD8244045
_publ_section_title
;
Structure prediction by ZEFSAII (Michael W. Deem and Ramdas Pophale) SiO2 
 PCOD8244045
Probable space group: P M M N
;
_chemical_formula_sum "Si O2"
_cell_formula_units_Z 48
_cell_length_a 7.798313
_cell_length_b 8.960747
_cell_length_c 34.185291
_cell_angle_alpha 90.000000
_cell_angle_beta 90.000000
_cell_angle_gamma 90.000000
_cell_volume 2388.824030
_symmetry_space_group_name_H-M "P M M N"
_symmetry_group_IT_number 59
_space_group.IT_coordinate_system_code '2'
_symmetry_cell_setting 'orthorhombic'
loop_
_space_group_symop_operation_xyz
x,y,z
1/2-x,1/2-y,z
1/2+x,-y,-z
-x,1/2+y,-z
-x,-y,-z
1/2+x,1/2+y,-z
1/2-x,y,z
x,1/2-y,z
loop_
_atom_site_type_symbol
_atom_site_label
_atom_site_fract_x
_atom_site_fract_y
_atom_site_fract_z
Si Si1 0.450581 0.915609 0.961219
Si Si2 0.444785 0.421765 0.121223
Si Si3 0.440058 0.420315 0.804542
Si Si4 0.049417 0.584225 0.539049
Si Si5 0.250000 0.927553 0.249570
Si Si6 0.750000 0.928149 0.666991
Si Si7 0.049269 0.426579 0.618084
O O1 0.250000 0.911603 0.956061
O O2 0.528348 0.750000 0.965326
O O3 0.527016 0.992967 0.921987
O O4 0.500000 0.000000 0.000000
O O5 0.250000 0.443792 0.134367
O O6 0.500358 0.250000 0.118880
O O7 0.560423 0.496979 0.154039
O O8 0.250000 0.439827 0.785974
O O9 0.483003 0.250000 0.813910
O O10 0.581150 0.479597 0.774135
O O11 0.250000 0.603021 0.540737
O O12 0.964430 0.750000 0.540198
O O13 0.988591 0.486573 0.575849
O O14 0.000000 0.500000 0.500000
O O15 0.250000 0.750000 0.258759
O O16 0.250000 0.025055 0.288204
O O17 0.750000 0.750000 0.662247
O O18 0.574690 0.994612 0.649097
O O19 0.250000 0.464998 0.626811
O O20 0.019579 0.250000 0.619364
#
# Coordination Sequence:
#
# PCOD8244045 Si02
#       7
#     8   8   8   8   4   4   8
#     4  10  21  36  53  76 107 146 192 240 290 346
#     4  10  20  35  57  83 113 149 189 236 293 351
#     4  10  21  38  62  90 119 153 193 239 293 350
#     4  10  21  36  56  85 122 163 208 259 313 369
#     4  10  22  42  62  88 124 156 198 250 294 358
#     4  12  26  42  66  96 128 166 206 256 318 382
#     4  10  22  42  66  91 123 165 214 263 313 373
#
# _framework density 20.093568999999999
#
# number of rings (size 3 to 8) (size 9 to 14) (size 15 to 20)
#    0.000    1.833    0.833    2.750    1.167    6.000 
#    0.000    1.667    0.000    0.000    0.000    0.000 
#    0.000    0.000    0.000    0.000    0.000    0.000 
#
# Total GULP energy -595135.486742 kJ/mol
# GULP energy per Si atom -12398.655974 kJ/mol
# Density = 2.004783 g / cm^3
# Si number density = 20.093569 Si / 1000 Ang^3
#
#
#
# Elastic Constant Matrix: (Units=GPa)
#
#
# Indices 1 2 3 4 5 6 
#
# 1 99.9024 44.0337 60.0312 0.0000 0.0000 0.0000
# 2 44.0337 105.9735 64.2783 0.0000 0.0000 0.0000
# 3 60.0312 64.2783 160.9529 0.0000 0.0000 0.0000
# 4 0.0000 0.0000 0.0000 39.2635 0.0000 0.0000
# 5 0.0000 0.0000 0.0000 0.0000 33.0628 0.0000
# 6 0.0000 0.0000 0.0000 0.0000 0.0000 25.6127
#
#
#
# Elastic Compliance Matrix: (Units=1/GPa)
#
#
# Indices 1 2 3 4 5 6 
#
# 1 0.013793 -0.003445 -0.003768 0.000000 0.000000 0.000000
# 2 -0.003445 0.013313 -0.004032 0.000000 0.000000 0.000000
# 3 -0.003768 -0.004032 0.009229 0.000000 0.000000 0.000000
# 4 0.000000 0.000000 0.000000 0.025469 0.000000 0.000000
# 5 0.000000 0.000000 0.000000 0.000000 0.030245 0.000000
# 6 0.000000 0.000000 0.000000 0.000000 0.000000 0.039043
#
#
# Mechanical properties :
#
#
# Convention : Reuss Voigt Hill
#
# Bulk Modulus (GPa) = 72.23521 78.16835 75.20178
# Shear Modulus (GPa) = 31.60589 32.82016 32.21303
#
# Velocity S-wave (km/s) = 3.97033 4.04588 4.00828
# Velocity P-wave (km/s) = 7.55284 7.79821 7.67651
#
# Compressibility (1/GPa) = 0.01384367
#
# Stress axis : x y z
#
# Youngs Moduli (GPa) = 72.50151 75.11201 108.35815
#
# Poissons Ratio (x) = 0.25879 0.40834
# Poissons Ratio (y) = 0.24980 0.43688
# Poissons Ratio (z) = 0.27321 0.30284
#
# Static dielectric constant tensor:
#      x y z
#    x 4.446040 0.000000 0.000000 
#    y 0.000000 3.641310 0.000000 
#    z 0.000000 0.000000 3.540960 
# 
# 
# High freq. dielectric constant tensor:
#      x y z
#    x 1.795030 0.000000 0.000000 
#    y 0.000000 1.777870 0.000000 
#    z 0.000000 0.000000 1.786670 
# 
# From -- ./inp_files/33001.got.cif
#   From: 2010.03.12/outbox.cif.g09.slc.cpg/sg59_17_cif.got.tgz:33001.got - 2010.04.16 16:29:54.
