data_PCOD8244756
_publ_section_title
;
Structure prediction by ZEFSAII (Michael W. Deem and Ramdas Pophale) SiO2 
 PCOD8244756
Probable space group: P M M N
;
_chemical_formula_sum "Si O2"
_cell_formula_units_Z 64
_cell_length_a 8.952342
_cell_length_b 23.083427
_cell_length_c 17.967781
_cell_angle_alpha 90.000000
_cell_angle_beta 90.000000
_cell_angle_gamma 90.000000
_cell_volume 3713.055115
_symmetry_space_group_name_H-M "P M M N"
_symmetry_group_IT_number 59
_space_group.IT_coordinate_system_code '2'
_symmetry_cell_setting 'orthorhombic'
loop_
_space_group_symop_operation_xyz
x,y,z
1/2-x,1/2-y,z
1/2+x,-y,-z
-x,1/2+y,-z
-x,-y,-z
1/2+x,1/2+y,-z
1/2-x,y,z
x,1/2-y,z
loop_
_atom_site_type_symbol
_atom_site_label
_atom_site_fract_x
_atom_site_fract_y
_atom_site_fract_z
Si Si1 0.425670 0.682956 0.237598
Si Si2 0.925435 0.315323 0.218133
Si Si3 0.574298 0.117798 0.365395
Si Si4 0.924756 0.609438 0.363210
Si Si5 0.072419 0.497353 0.418891
Si Si6 0.083529 0.180974 0.070767
Si Si7 0.920813 0.683287 0.507796
Si Si8 0.585143 0.181290 0.928495
O O1 0.250000 0.671878 0.250040
O O2 0.463970 0.750000 0.253112
O O3 0.524346 0.643469 0.290556
O O4 0.474053 0.665149 0.153723
O O5 0.750000 0.314005 0.207635
O O6 0.985159 0.250000 0.233384
O O7 0.972611 0.356323 0.285894
O O8 0.993742 0.341544 0.142519
O O9 0.750000 0.104095 0.370251
O O10 0.532884 0.165227 0.427162
O O11 0.478178 0.060484 0.377324
O O12 0.750000 0.595053 0.357577
O O13 0.962645 0.647664 0.434801
O O14 0.017818 0.550432 0.368617
O O15 0.250000 0.498155 0.427740
O O16 0.000000 0.500000 0.500000
O O17 0.250000 0.157127 0.078063
O O18 0.077625 0.250000 0.067969
O O19 0.017557 0.155175 0.993887
O O20 0.750000 0.671145 0.532255
O O21 0.947010 0.750000 0.488603
O O22 0.750000 0.155164 0.939905
O O23 0.593029 0.250000 0.934822
#
# Coordination Sequence:
#
# PCOD8244756 Si02
#       8
#     8   8   8   8   8   8   8   8
#     4   9  18  32  50  75 107 141 175 211 254 305
#     4   9  18  32  49  72 104 138 170 204 247 302
#     4  11  22  36  55  77 100 132 172 214 258 304
#     4  11  22  36  54  76 102 135 172 213 259 303
#     4  12  24  40  59  77  97 128 170 218 263 306
#     4   9  16  25  41  68 100 134 171 208 248 294
#     4  10  21  35  51  73 103 137 169 204 251 305
#     4   8  14  26  44  66  97 137 174 206 245 296
#
# _framework density 17.236481000000001
#
# number of rings (size 3 to 8) (size 9 to 14) (size 15 to 20)
#    0.000    2.125    1.250    3.750    0.000    5.000 
#    0.000    2.500    0.000    0.000    0.000    0.875 
#    0.000    0.000    0.000    0.000    0.000    0.000 
#
# Total GULP energy -793604.877045 kJ/mol
# GULP energy per Si atom -12400.076204 kJ/mol
# Density = 1.719725 g / cm^3
# Si number density = 17.236481 Si / 1000 Ang^3
#
#
#
# Elastic Constant Matrix: (Units=GPa)
#
#
# Indices 1 2 3 4 5 6 
#
# 1 83.5203 34.2385 57.4113 0.0000 0.0000 0.0000
# 2 34.2385 63.3003 34.4231 0.0000 0.0000 0.0000
# 3 57.4113 34.4231 133.3245 0.0000 0.0000 0.0000
# 4 0.0000 0.0000 0.0000 0.2648 0.0000 0.0000
# 5 0.0000 0.0000 0.0000 0.0000 30.1553 0.0000
# 6 0.0000 0.0000 0.0000 0.0000 0.0000 24.5770
#
#
#
# Elastic Compliance Matrix: (Units=1/GPa)
#
#
# Indices 1 2 3 4 5 6 
#
# 1 0.019279 -0.006879 -0.006526 0.000000 0.000000 0.000000
# 2 -0.006879 0.020833 -0.002417 0.000000 0.000000 0.000000
# 3 -0.006526 -0.002417 0.010934 0.000000 0.000000 0.000000
# 4 0.000000 0.000000 0.000000 3.776325 0.000000 0.000000
# 5 0.000000 0.000000 0.000000 0.000000 0.033162 0.000000
# 6 0.000000 0.000000 0.000000 0.000000 0.000000 0.040688
#
#
# Mechanical properties :
#
#
# Convention : Reuss Voigt Hill
#
# Bulk Modulus (GPa) = 51.53720 59.14341 55.34030
# Shear Modulus (GPa) = 1.26925 21.27091 11.27008
#
# Velocity S-wave (km/s) = 0.85905 3.51674 2.55982
# Velocity P-wave (km/s) = 5.56318 7.13283 6.39634
#
# Compressibility (1/GPa) = 0.01940346
#
# Stress axis : x y z
#
# Youngs Moduli (GPa) = 51.87042 48.00149 91.45405
#
# Poissons Ratio (x) = 0.33020 0.59679
# Poissons Ratio (y) = 0.35682 0.22101
# Poissons Ratio (z) = 0.33849 0.11600
#
# Static dielectric constant tensor:
#      x y z
#    x 3.303680 0.000000 0.000000 
#    y 0.000000 3.000940 0.000000 
#    z 0.000000 0.000000 3.384540 
# 
# 
# High freq. dielectric constant tensor:
#      x y z
#    x 1.671910 0.000000 0.000000 
#    y 0.000000 1.628410 0.000000 
#    z 0.000000 0.000000 1.673050 
# 
# From -- ./inp_files/26357.got.cif
#   From: 2010.03.12/outbox.cif.g09.slc.cpg/sg59_14_cif.got.tgz:26357.got - 2010.04.16 16:29:54.
