data_PCOD8244657
_publ_section_title
;
Structure prediction by ZEFSAII (Michael W. Deem and Ramdas Pophale) SiO2 
 PCOD8244657
Probable space group: P M M N
;
_chemical_formula_sum "Si O2"
_cell_formula_units_Z 64
_cell_length_a 24.586923
_cell_length_b 13.572416
_cell_length_c 9.567150
_cell_angle_alpha 90.000000
_cell_angle_beta 90.000000
_cell_angle_gamma 90.000000
_cell_volume 3192.595718
_symmetry_space_group_name_H-M "P M M N"
_symmetry_group_IT_number 59
_space_group.IT_coordinate_system_code '2'
_symmetry_cell_setting 'orthorhombic'
loop_
_space_group_symop_operation_xyz
x,y,z
1/2-x,1/2-y,z
1/2+x,-y,-z
-x,1/2+y,-z
-x,-y,-z
1/2+x,1/2+y,-z
1/2-x,y,z
x,1/2-y,z
loop_
_atom_site_type_symbol
_atom_site_label
_atom_site_fract_x
_atom_site_fract_y
_atom_site_fract_z
Si Si1 0.110562 0.637587 0.705762
Si Si2 0.005943 0.974398 0.661840
Si Si3 0.311411 0.539060 0.500711
Si Si4 0.098917 0.863667 0.022469
Si Si5 0.811071 0.860228 0.688764
Si Si6 0.190258 0.864467 0.217863
Si Si7 0.919432 0.863422 0.835840
Si Si8 0.980980 0.866384 0.111725
O O1 0.123398 0.750000 0.663036
O O2 0.149443 0.561219 0.628515
O O3 0.120846 0.619508 0.868273
O O4 0.048341 0.614854 0.670966
O O5 0.949691 0.934194 0.725420
O O6 0.000000 0.000000 0.500000
O O7 0.027999 0.070285 0.747299
O O8 0.250000 0.549085 0.555522
O O9 0.323306 0.430028 0.442826
O O10 0.323768 0.618009 0.379224
O O11 0.095785 0.750000 0.062439
O O12 0.142923 0.915617 0.125166
O O13 0.037974 0.904231 0.043843
O O14 0.750000 0.880735 0.747702
O O15 0.816167 0.750000 0.629775
O O16 0.854653 0.877815 0.812861
O O17 0.250000 0.911397 0.184833
O O18 0.192606 0.750000 0.184800
O O19 0.937091 0.750000 0.808894
O O20 0.934415 0.891047 0.996467
O O21 0.980880 0.750000 0.149726
#
# Coordination Sequence:
#
# PCOD8244657 Si02
#       8
#     8   8   8   8   8   8   8   8
#     4  11  23  38  56  83 118 152 190 238 293 351
#     4  12  25  37  56  87 118 158 196 242 295 356
#     4  10  21  37  58  86 117 154 196 236 287 346
#     4   9  19  35  55  80 114 154 193 236 289 346
#     4   9  19  36  59  87 116 149 195 248 296 345
#     4   9  18  32  52  80 113 150 192 234 277 336
#     4  10  20  38  62  85 115 153 196 247 298 354
#     4  10  22  40  60  85 117 159 201 243 298 355
#
# _framework density 20.046382999999999
#
# number of rings (size 3 to 8) (size 9 to 14) (size 15 to 20)
#    0.000    2.000    1.250    1.875    3.500    2.250 
#    0.000    1.875    0.000    0.750    0.000    0.875 
#    0.000    8.000    0.000    0.000    0.000    0.000 
#
# Total GULP energy -793394.846317 kJ/mol
# GULP energy per Si atom -12396.794474 kJ/mol
# Density = 2.000076 g / cm^3
# Si number density = 20.046383 Si / 1000 Ang^3
#
#
#
# Elastic Constant Matrix: (Units=GPa)
#
#
# Indices 1 2 3 4 5 6 
#
# 1 115.7717 29.9426 49.6187 0.0000 0.0000 0.0000
# 2 29.9426 85.9912 43.2541 0.0000 0.0000 0.0000
# 3 49.6187 43.2541 106.3378 0.0000 0.0000 0.0000
# 4 0.0000 0.0000 0.0000 29.2143 0.0000 0.0000
# 5 0.0000 0.0000 0.0000 0.0000 30.7588 0.0000
# 6 0.0000 0.0000 0.0000 0.0000 0.0000 19.8608
#
#
#
# Elastic Compliance Matrix: (Units=1/GPa)
#
#
# Indices 1 2 3 4 5 6 
#
# 1 0.010962 -0.001564 -0.004479 0.000000 0.000000 0.000000
# 2 -0.001564 0.014844 -0.005308 0.000000 0.000000 0.000000
# 3 -0.004479 -0.005308 0.013653 0.000000 0.000000 0.000000
# 4 0.000000 0.000000 0.000000 0.034230 0.000000 0.000000
# 5 0.000000 0.000000 0.000000 0.000000 0.032511 0.000000
# 6 0.000000 0.000000 0.000000 0.000000 0.000000 0.050351
#
#
# Mechanical properties :
#
#
# Convention : Reuss Voigt Hill
#
# Bulk Modulus (GPa) = 59.67752 61.52571 60.60162
# Shear Modulus (GPa) = 27.05087 28.31912 27.68500
#
# Velocity S-wave (km/s) = 3.67742 3.76264 3.72028
# Velocity P-wave (km/s) = 6.91850 7.04521 6.98214
#
# Compressibility (1/GPa) = 0.01675673
#
# Stress axis : x y z
#
# Youngs Moduli (GPa) = 91.22627 67.36867 73.24455
#
# Poissons Ratio (x) = 0.10537 0.32804
# Poissons Ratio (y) = 0.14269 0.38878
# Poissons Ratio (z) = 0.40857 0.35759
#
# Static dielectric constant tensor:
#      x y z
#    x 3.929550 0.000000 0.000000 
#    y 0.000000 3.825560 0.000000 
#    z 0.000000 0.000000 3.482660 
# 
# 
# High freq. dielectric constant tensor:
#      x y z
#    x 1.786710 0.000000 0.000000 
#    y 0.000000 1.794410 0.000000 
#    z 0.000000 0.000000 1.758180 
# 
# From -- ./inp_files/12238.got.cif
#   From: 2010.03.12/outbox.cif.g09.slc.cpg/sg59_7_cif.got.tgz:12238.got - 2010.04.16 16:29:54.
