data_PCOD8244836
_publ_section_title
;
Structure prediction by ZEFSAII (Michael W. Deem and Ramdas Pophale) SiO2 
 PCOD8244836
Probable space group: P M M N
;
_chemical_formula_sum "Si O2"
_cell_formula_units_Z 56
_cell_length_a 16.224586
_cell_length_b 8.816602
_cell_length_c 19.614655
_cell_angle_alpha 90.000000
_cell_angle_beta 90.000000
_cell_angle_gamma 90.000000
_cell_volume 2805.792396
_symmetry_space_group_name_H-M "P M M N"
_symmetry_group_IT_number 59
_space_group.IT_coordinate_system_code '2'
_symmetry_cell_setting 'orthorhombic'
loop_
_space_group_symop_operation_xyz
x,y,z
1/2-x,1/2-y,z
1/2+x,-y,-z
-x,1/2+y,-z
-x,-y,-z
1/2+x,1/2+y,-z
1/2-x,y,z
x,1/2-y,z
loop_
_atom_site_type_symbol
_atom_site_label
_atom_site_fract_x
_atom_site_fract_y
_atom_site_fract_z
Si Si1 0.414335 0.571410 0.976224
Si Si2 0.657111 0.930269 0.417400
Si Si3 0.250000 0.929830 0.053302
Si Si4 0.250000 0.929682 0.209162
Si Si5 0.565823 0.925622 0.285801
Si Si6 0.657946 0.929731 0.565754
Si Si7 0.156354 0.424558 0.850632
Si Si8 0.601118 0.571262 0.709420
O O1 0.422119 0.750000 0.985006
O O2 0.402010 0.527922 0.897282
O O3 0.500000 0.500000 0.000000
O O4 0.334170 0.508358 0.017772
O O5 0.750000 0.992471 0.408826
O O6 0.658772 0.750000 0.411598
O O7 0.600434 0.994668 0.356812
O O8 0.622170 0.983170 0.491910
O O9 0.250000 0.750000 0.047932
O O10 0.250000 0.986125 0.131144
O O11 0.250000 0.750000 0.213198
O O12 0.330653 0.991656 0.245368
O O13 0.540588 0.750000 0.293404
O O14 0.634624 0.948114 0.228371
O O15 0.487097 0.021842 0.262492
O O16 0.750000 0.995102 0.574756
O O17 0.662057 0.750000 0.565694
O O18 0.605237 0.986198 0.630404
O O19 0.250000 0.477263 0.860837
O O20 0.143886 0.250000 0.871910
O O21 0.614250 0.750000 0.715217
#
# Coordination Sequence:
#
# PCOD8244836 Si02
#       8
#     8   8   4   4   8   8   8   8
#     4  11  23  42  65  93 123 156 195 241 293 357
#     4   8  14  28  53  81 106 144 194 237 280 334
#     4   9  22  43  65  87 118 153 190 238 297 345
#     4  11  23  41  63  83 108 147 188 234 287 337
#     4  10  21  35  54  84 117 147 190 242 285 331
#     4   8  14  28  51  76 106 145 188 233 283 334
#     4  10  21  39  62  87 118 156 195 240 288 340
#     4  11  22  37  55  82 116 151 189 232 286 348
#
# _framework density 19.958711999999998
#
# number of rings (size 3 to 8) (size 9 to 14) (size 15 to 20)
#    0.000    2.286    1.429    2.357    2.000    2.857 
#    0.000    2.143    0.000    2.143    0.000    0.000 
#    0.000    0.000    0.000    0.000    0.000    0.000 
#
# Total GULP energy -694204.431914 kJ/mol
# GULP energy per Si atom -12396.507713 kJ/mol
# Density = 1.991328 g / cm^3
# Si number density = 19.958712 Si / 1000 Ang^3
#
#
#
# Elastic Constant Matrix: (Units=GPa)
#
#
# Indices 1 2 3 4 5 6 
#
# 1 118.7464 29.5843 46.7953 0.0000 0.0000 0.0000
# 2 29.5843 47.0772 31.9518 0.0000 0.0000 0.0000
# 3 46.7953 31.9518 125.2216 0.0000 0.0000 0.0000
# 4 0.0000 0.0000 0.0000 24.3995 0.0000 0.0000
# 5 0.0000 0.0000 0.0000 0.0000 27.1215 0.0000
# 6 0.0000 0.0000 0.0000 0.0000 0.0000 19.6867
#
#
#
# Elastic Compliance Matrix: (Units=1/GPa)
#
#
# Indices 1 2 3 4 5 6 
#
# 1 0.010723 -0.004860 -0.002767 0.000000 0.000000 0.000000
# 2 -0.004860 0.027894 -0.005301 0.000000 0.000000 0.000000
# 3 -0.002767 -0.005301 0.010372 0.000000 0.000000 0.000000
# 4 0.000000 0.000000 0.000000 0.040984 0.000000 0.000000
# 5 0.000000 0.000000 0.000000 0.000000 0.036871 0.000000
# 6 0.000000 0.000000 0.000000 0.000000 0.000000 0.050796
#
#
# Mechanical properties :
#
#
# Convention : Reuss Voigt Hill
#
# Bulk Modulus (GPa) = 43.22967 56.41198 49.82083
# Shear Modulus (GPa) = 23.67337 26.42247 25.04792
#
# Velocity S-wave (km/s) = 3.44774 3.64243 3.54642
# Velocity P-wave (km/s) = 6.12828 6.78347 6.46418
#
# Compressibility (1/GPa) = 0.02313226
#
# Stress axis : x y z
#
# Youngs Moduli (GPa) = 93.26124 35.84997 96.40909
#
# Poissons Ratio (x) = 0.17425 0.26675
# Poissons Ratio (y) = 0.45329 0.51108
# Poissons Ratio (z) = 0.25804 0.19005
#
# Static dielectric constant tensor:
#      x y z
#    x 3.704040 0.000000 0.000000 
#    y 0.000000 3.224070 0.000000 
#    z 0.000000 0.000000 3.971340 
# 
# 
# High freq. dielectric constant tensor:
#      x y z
#    x 1.778790 0.000000 0.000000 
#    y 0.000000 1.738560 0.000000 
#    z 0.000000 0.000000 1.795040 
# 
# From -- ./inp_files/30506.got.cif
#   From: 2010.03.12/outbox.cif.g09.slc.cpg/sg59_16_cif.got.tgz:30506.got - 2010.04.16 16:29:54.
