data_PCOD8244416
_publ_section_title
;
Structure prediction by ZEFSAII (Michael W. Deem and Ramdas Pophale) SiO2 
 PCOD8244416
Probable space group: P M M N
;
_chemical_formula_sum "Si O2"
_cell_formula_units_Z 40
_cell_length_a 29.915963
_cell_length_b 8.567558
_cell_length_c 7.266533
_cell_angle_alpha 90.000000
_cell_angle_beta 90.000000
_cell_angle_gamma 90.000000
_cell_volume 1862.461443
_symmetry_space_group_name_H-M "P M M N"
_symmetry_group_IT_number 59
_space_group.IT_coordinate_system_code '2'
_symmetry_cell_setting 'orthorhombic'
loop_
_space_group_symop_operation_xyz
x,y,z
1/2-x,1/2-y,z
1/2+x,-y,-z
-x,1/2+y,-z
-x,-y,-z
1/2+x,1/2+y,-z
1/2-x,y,z
x,1/2-y,z
loop_
_atom_site_type_symbol
_atom_site_label
_atom_site_fract_x
_atom_site_fract_y
_atom_site_fract_z
Si Si1 0.699273 0.067113 0.070490
Si Si2 0.040369 0.067428 0.294761
Si Si3 0.555849 0.071635 0.313996
Si Si4 0.871464 0.067058 0.771935
Si Si5 0.643418 0.929949 0.375875
O O1 0.750000 0.023286 0.019794
O O2 0.693630 0.250000 0.105435
O O3 0.686285 0.978679 0.257849
O O4 0.668146 0.008210 0.904052
O O5 0.044181 0.250000 0.349076
O O6 0.991022 0.034393 0.206242
O O7 0.045746 0.957575 0.471814
O O8 0.081970 0.017730 0.164561
O O9 0.570091 0.250000 0.282469
O O10 0.598344 0.966709 0.255454
O O11 0.878697 0.250000 0.792220
O O12 0.857462 0.026519 0.564324
O O13 0.645643 0.750000 0.427194
#
# Coordination Sequence:
#
# PCOD8244416 Si02
#       5
#     8   8   8   8   8
#     4  10  23  43  63  82 107 143 189 237 282 333
#     4   9  16  27  48  79 113 148 185 227 274 323
#     4   9  16  28  49  77 111 151 190 224 265 324
#     4  10  20  36  60  86 113 149 190 231 279 335
#     4  11  22  36  58  87 118 150 184 228 282 334
#
# _framework density 21.476955
#
# number of rings (size 3 to 8) (size 9 to 14) (size 15 to 20)
#    0.000    2.200    0.000    6.000    0.000    5.200 
#    0.000    3.000    0.000    0.000    0.000    0.000 
#    0.000    0.000    0.000    0.000    0.000    0.000 
#
# Total GULP energy -495752.874836 kJ/mol
# GULP energy per Si atom -12393.821871 kJ/mol
# Density = 2.142807 g / cm^3
# Si number density = 21.476955 Si / 1000 Ang^3
#
#
#
# Elastic Constant Matrix: (Units=GPa)
#
#
# Indices 1 2 3 4 5 6 
#
# 1 130.4974 19.4790 20.2654 0.0000 0.0000 0.0000
# 2 19.4790 53.1017 1.3138 0.0000 0.0000 0.0000
# 3 20.2654 1.3138 32.6224 0.0000 0.0000 0.0000
# 4 0.0000 0.0000 0.0000 12.7179 0.0000 0.0000
# 5 0.0000 0.0000 0.0000 0.0000 33.4180 0.0000
# 6 0.0000 0.0000 0.0000 0.0000 0.0000 34.5393
#
#
#
# Elastic Compliance Matrix: (Units=1/GPa)
#
#
# Indices 1 2 3 4 5 6 
#
# 1 0.008981 -0.003160 -0.005452 0.000000 0.000000 0.000000
# 2 -0.003160 0.019962 0.001159 0.000000 0.000000 0.000000
# 3 -0.005452 0.001159 0.033994 0.000000 0.000000 0.000000
# 4 0.000000 0.000000 0.000000 0.078629 0.000000 0.000000
# 5 0.000000 0.000000 0.000000 0.000000 0.029924 0.000000
# 6 0.000000 0.000000 0.000000 0.000000 0.000000 0.028953
#
#
# Mechanical properties :
#
#
# Convention : Reuss Voigt Hill
#
# Bulk Modulus (GPa) = 20.81956 33.14866 26.98411
# Shear Modulus (GPa) = 21.61139 27.81259 24.71199
#
# Velocity S-wave (km/s) = 3.17560 3.60251 3.39577
# Velocity P-wave (km/s) = 4.81257 5.72470 5.28834
#
# Compressibility (1/GPa) = 0.04803175
#
# Stress axis : x y z
#
# Youngs Moduli (GPa) = 111.34264 50.09484 29.41702
#
# Poissons Ratio (x) = 0.15828 0.16038
# Poissons Ratio (y) = 0.35180 -0.03409
# Poissons Ratio (z) = 0.60704 -0.05805
#
# Static dielectric constant tensor:
#      x y z
#    x 4.522790 0.000000 0.000000 
#    y 0.000000 3.707420 0.000000 
#    z 0.000000 0.000000 3.432030 
# 
# 
# High freq. dielectric constant tensor:
#      x y z
#    x 1.858820 0.000000 0.000000 
#    y 0.000000 1.838500 0.000000 
#    z 0.000000 0.000000 1.805950 
# 
# From -- ./inp_files/12780.got.cif
#   From: 2010.03.12/outbox.cif.g09.slc.cpg/sg59_7_cif.got.tgz:12780.got - 2010.04.16 16:29:54.
