data_PCOD8244761
_publ_section_title
;
Structure prediction by ZEFSAII (Michael W. Deem and Ramdas Pophale) SiO2 
 PCOD8244761
Probable space group: P M M N
;
_chemical_formula_sum "Si O2"
_cell_formula_units_Z 48
_cell_length_a 9.371101
_cell_length_b 7.796101
_cell_length_c 34.116429
_cell_angle_alpha 90.000000
_cell_angle_beta 90.000000
_cell_angle_gamma 90.000000
_cell_volume 2492.479772
_symmetry_space_group_name_H-M "P M M N"
_symmetry_group_IT_number 59
_space_group.IT_coordinate_system_code '2'
_symmetry_cell_setting 'orthorhombic'
loop_
_space_group_symop_operation_xyz
x,y,z
1/2-x,1/2-y,z
1/2+x,-y,-z
-x,1/2+y,-z
-x,-y,-z
1/2+x,1/2+y,-z
1/2-x,y,z
x,1/2-y,z
loop_
_atom_site_type_symbol
_atom_site_label
_atom_site_fract_x
_atom_site_fract_y
_atom_site_fract_z
Si Si1 0.914512 0.950536 0.038479
Si Si2 0.591552 0.949819 0.620148
Si Si3 0.407189 0.949876 0.463259
Si Si4 0.916530 0.447517 0.305974
Si Si5 0.083062 0.250000 0.751682
Si Si6 0.916783 0.250000 0.832041
Si Si7 0.586937 0.557840 0.888081
O O1 0.750000 0.007824 0.033957
O O2 0.927089 0.750000 0.046613
O O3 0.984765 0.049405 0.074560
O O4 0.000000 0.000000 0.000000
O O5 0.750000 0.034189 0.622340
O O6 0.603891 0.750000 0.626216
O O7 0.493831 0.020225 0.655146
O O8 0.521513 0.989146 0.577666
O O9 0.250000 0.035538 0.467399
O O10 0.391201 0.750000 0.462025
O O11 0.500000 0.000000 0.500000
O O12 0.750000 0.459759 0.314900
O O13 0.959195 0.250000 0.295276
O O14 0.960635 0.576005 0.271163
O O15 0.250000 0.250000 0.760713
O O16 0.000400 0.250000 0.791952
O O17 0.750000 0.250000 0.822609
O O18 0.962057 0.420239 0.855795
O O19 0.750000 0.519103 0.901239
O O20 0.574538 0.750000 0.870292
#
# Coordination Sequence:
#
# PCOD8244761 Si02
#       7
#     8   8   8   8   4   4   8
#     4  11  23  37  56  85 120 157 199 244 291 344
#     4   9  18  33  53  77 105 136 172 219 272 323
#     4  10  21  35  51  74 104 139 180 223 268 322
#     4   9  19  36  56  80 111 144 180 224 275 331
#     4  10  22  38  58  84 114 146 186 232 278 338
#     4  10  22  40  60  86 118 152 188 238 292 340
#     4  10  21  39  62  86 115 153 196 240 290 345
#
# _framework density 19.257929000000001
#
# number of rings (size 3 to 8) (size 9 to 14) (size 15 to 20)
#    0.000    2.167    0.833    1.500    1.167    7.000 
#    0.000    1.667    0.000    0.000    0.000    0.000 
#    0.000    0.000    0.000    0.000    0.000    0.000 
#
# Total GULP energy -595125.522233 kJ/mol
# GULP energy per Si atom -12398.448380 kJ/mol
# Density = 1.921410 g / cm^3
# Si number density = 19.257929 Si / 1000 Ang^3
#
#
#
# Elastic Constant Matrix: (Units=GPa)
#
#
# Indices 1 2 3 4 5 6 
#
# 1 81.1137 38.1882 75.2002 0.0000 0.0000 0.0000
# 2 38.1882 99.7190 61.9892 0.0000 0.0000 0.0000
# 3 75.2002 61.9892 176.4672 0.0000 0.0000 0.0000
# 4 0.0000 0.0000 0.0000 31.6572 0.0000 0.0000
# 5 0.0000 0.0000 0.0000 0.0000 37.8392 0.0000
# 6 0.0000 0.0000 0.0000 0.0000 0.0000 21.5303
#
#
#
# Elastic Compliance Matrix: (Units=1/GPa)
#
#
# Indices 1 2 3 4 5 6 
#
# 1 0.021146 -0.003194 -0.007889 0.000000 0.000000 0.000000
# 2 -0.003194 0.013312 -0.003315 0.000000 0.000000 0.000000
# 3 -0.007889 -0.003315 0.010193 0.000000 0.000000 0.000000
# 4 0.000000 0.000000 0.000000 0.031588 0.000000 0.000000
# 5 0.000000 0.000000 0.000000 0.000000 0.026428 0.000000
# 6 0.000000 0.000000 0.000000 0.000000 0.000000 0.046446
#
#
# Mechanical properties :
#
#
# Convention : Reuss Voigt Hill
#
# Bulk Modulus (GPa) = 63.07210 78.67277 70.87243
# Shear Modulus (GPa) = 27.29321 30.33350 28.81335
#
# Velocity S-wave (km/s) = 3.76872 3.97308 3.87225
# Velocity P-wave (km/s) = 7.19444 7.87325 7.54148
#
# Compressibility (1/GPa) = 0.01585487
#
# Stress axis : x y z
#
# Youngs Moduli (GPa) = 47.28980 75.11925 98.10294
#
# Poissons Ratio (x) = 0.23991 0.77397
# Poissons Ratio (y) = 0.15103 0.32524
# Poissons Ratio (z) = 0.37309 0.24904
#
# Static dielectric constant tensor:
#      x y z
#    x 3.440630 0.000000 0.000000 
#    y 0.000000 3.731880 0.000000 
#    z 0.000000 0.000000 2.181210 
# 
# 
# High freq. dielectric constant tensor:
#      x y z
#    x 1.742660 0.000000 0.000000 
#    y 0.000000 1.760620 0.000000 
#    z 0.000000 0.000000 1.743940 
# 
# From -- ./inp_files/33017.got.cif
#   From: 2010.03.12/outbox.cif.g09.slc.cpg/sg59_17_cif.got.tgz:33017.got - 2010.04.16 16:29:54.
