data_PCOD8244928
_publ_section_title
;
Structure prediction by ZEFSAII (Michael W. Deem and Ramdas Pophale) SiO2 
 PCOD8244928
Probable space group: P M M N
;
_chemical_formula_sum "Si O2"
_cell_formula_units_Z 40
_cell_length_a 9.365083
_cell_length_b 9.578852
_cell_length_c 25.599858
_cell_angle_alpha 90.000000
_cell_angle_beta 90.000000
_cell_angle_gamma 90.000000
_cell_volume 2296.479909
_symmetry_space_group_name_H-M "P M M N"
_symmetry_group_IT_number 59
_space_group.IT_coordinate_system_code '2'
_symmetry_cell_setting 'orthorhombic'
loop_
_space_group_symop_operation_xyz
x,y,z
1/2-x,1/2-y,z
1/2+x,-y,-z
-x,1/2+y,-z
-x,-y,-z
1/2+x,1/2+y,-z
1/2-x,y,z
x,1/2-y,z
loop_
_atom_site_type_symbol
_atom_site_label
_atom_site_fract_x
_atom_site_fract_y
_atom_site_fract_z
Si Si1 0.914156 0.911355 0.353681
Si Si2 0.916284 0.412935 0.542819
Si Si3 0.081810 0.409878 0.041874
Si Si4 0.583421 0.089325 0.255149
Si Si5 0.591777 0.916061 0.842605
O O1 0.750000 0.947460 0.368311
O O2 0.929650 0.750000 0.338396
O O3 0.015559 0.951196 0.401600
O O4 0.968601 0.001738 0.304908
O O5 0.750000 0.455086 0.543171
O O6 0.936452 0.250000 0.530200
O O7 0.000000 0.500000 0.500000
O O8 0.250000 0.426879 0.033756
O O9 0.035104 0.250000 0.034455
O O10 0.038574 0.463959 0.100000
O O11 0.000000 0.500000 0.000000
O O12 0.750000 0.070907 0.246257
O O13 0.540855 0.250000 0.264904
O O14 0.510294 0.027517 0.203096
O O15 0.750000 0.975143 0.831726
O O16 0.595251 0.750000 0.842556
#
# Coordination Sequence:
#
# PCOD8244928 Si02
#       5
#     8   8   8   8   8
#     4   9  18  33  50  68  96 131 159 189 237 289
#     4  10  21  36  54  76 101 130 165 203 242 286
#     4   9  18  32  49  70  96 126 161 201 244 290
#     4   9  17  29  47  71  94 118 155 198 234 275
#     4   8  15  29  47  66  91 122 154 191 236 283
#
# _framework density 17.417963
#
# number of rings (size 3 to 8) (size 9 to 14) (size 15 to 20)
#    0.000    3.000    0.000    1.800    0.000    4.000 
#    0.000    5.000    0.000    3.600    0.000    0.000 
#    0.000    0.000    0.000    0.000    0.000    0.000 
#
# Total GULP energy -495913.664174 kJ/mol
# GULP energy per Si atom -12397.841604 kJ/mol
# Density = 1.737832 g / cm^3
# Si number density = 17.417963 Si / 1000 Ang^3
#
#
#
# Elastic Constant Matrix: (Units=GPa)
#
#
# Indices 1 2 3 4 5 6 
#
# 1 87.8113 44.4836 90.0643 0.0000 0.0000 0.0000
# 2 44.4836 56.5541 72.7403 0.0000 0.0000 0.0000
# 3 90.0643 72.7403 184.2669 0.0000 0.0000 0.0000
# 4 0.0000 0.0000 0.0000 33.8749 0.0000 0.0000
# 5 0.0000 0.0000 0.0000 0.0000 39.6755 0.0000
# 6 0.0000 0.0000 0.0000 0.0000 0.0000 23.1259
#
#
#
# Elastic Compliance Matrix: (Units=1/GPa)
#
#
# Indices 1 2 3 4 5 6 
#
# 1 0.024434 -0.007838 -0.008849 0.000000 0.000000 0.000000
# 2 -0.007838 0.038434 -0.011341 0.000000 0.000000 0.000000
# 3 -0.008849 -0.011341 0.014229 0.000000 0.000000 0.000000
# 4 0.000000 0.000000 0.000000 0.029520 0.000000 0.000000
# 5 0.000000 0.000000 0.000000 0.000000 0.025204 0.000000
# 6 0.000000 0.000000 0.000000 0.000000 0.000000 0.043242
#
#
# Mechanical properties :
#
#
# Convention : Reuss Voigt Hill
#
# Bulk Modulus (GPa) = 47.52424 82.57874 65.05149
# Shear Modulus (GPa) = 20.99659 27.42487 24.21073
#
# Velocity S-wave (km/s) = 3.47573 3.97232 3.73230
# Velocity P-wave (km/s) = 6.59177 8.27962 7.48344
#
# Compressibility (1/GPa) = 0.02104189
#
# Stress axis : x y z
#
# Youngs Moduli (GPa) = 40.92590 26.01837 70.27940
#
# Poissons Ratio (x) = 0.20393 0.62189
# Poissons Ratio (y) = 0.32078 0.79705
# Poissons Ratio (z) = 0.36214 0.29508
#
# Static dielectric constant tensor:
#      x y z
#    x 3.208510 0.000000 0.000000 
#    y 0.000000 3.000710 0.000000 
#    z 0.000000 0.000000 3.485290 
# 
# 
# High freq. dielectric constant tensor:
#      x y z
#    x 1.671700 0.000000 0.000000 
#    y 0.000000 1.647520 0.000000 
#    z 0.000000 0.000000 1.684500 
# 
# From -- ./inp_files/25259.got.cif
#   From: 2010.03.12/outbox.cif.g09.slc.cpg/sg59_13_cif.got.tgz:25259.got - 2010.04.16 16:29:54.
