data_PCOD8244275
_publ_section_title
;
Structure prediction by ZEFSAII (Michael W. Deem and Ramdas Pophale) SiO2 
 PCOD8244275
Probable space group: P M M N
;
_chemical_formula_sum "Si O2"
_cell_formula_units_Z 48
_cell_length_a 9.256384
_cell_length_b 15.937199
_cell_length_c 17.975680
_cell_angle_alpha 90.000000
_cell_angle_beta 90.000000
_cell_angle_gamma 90.000000
_cell_volume 2651.787302
_symmetry_space_group_name_H-M "P M M N"
_symmetry_group_IT_number 59
_space_group.IT_coordinate_system_code '2'
_symmetry_cell_setting 'orthorhombic'
loop_
_space_group_symop_operation_xyz
x,y,z
1/2-x,1/2-y,z
1/2+x,-y,-z
-x,1/2+y,-z
-x,-y,-z
1/2+x,1/2+y,-z
1/2-x,y,z
x,1/2-y,z
loop_
_atom_site_type_symbol
_atom_site_label
_atom_site_fract_x
_atom_site_fract_y
_atom_site_fract_z
Si Si1 0.079618 0.750000 0.446340
Si Si2 0.079105 0.580865 0.531907
Si Si3 0.917118 0.420182 0.299159
Si Si4 0.421004 0.498354 0.077943
Si Si5 0.418692 0.250000 0.709230
Si Si6 0.582258 0.917641 0.205958
Si Si7 0.414069 0.342783 0.174357
O O1 0.250000 0.750000 0.434528
O O2 0.031276 0.666270 0.490469
O O3 0.005479 0.750000 0.366786
O O4 0.250000 0.566073 0.525862
O O5 0.027702 0.588316 0.616944
O O6 0.000000 0.500000 0.500000
O O7 0.750000 0.399108 0.294440
O O8 0.952448 0.512646 0.268087
O O9 0.995659 0.350815 0.249681
O O10 0.250000 0.511929 0.068230
O O11 0.485141 0.569507 0.132489
O O12 0.462780 0.407944 0.111571
O O13 0.500000 0.500000 0.000000
O O14 0.250000 0.250000 0.689001
O O15 0.462233 0.329831 0.758184
O O16 0.750000 0.919736 0.182149
O O17 0.250000 0.360537 0.197006
O O18 0.436210 0.250000 0.140967
#
# Coordination Sequence:
#
# PCOD8244275 Si02
#       7
#     4   8   8   8   4   8   8
#     4  10  22  36  52  78 113 148 183 230 285 330
#     4  10  21  36  53  77 109 145 184 228 279 328
#     4   9  18  32  53  76 103 138 177 218 263 317
#     4  10  20  36  57  79 109 141 171 211 259 314
#     4  10  20  36  58  80 105 140 187 230 265 318
#     4   9  18  34  55  80 105 137 179 221 265 313
#     4   9  19  35  54  78 104 134 172 212 258 308
#
# _framework density 18.100998000000001
#
# number of rings (size 3 to 8) (size 9 to 14) (size 15 to 20)
#    0.000    2.500    0.000    1.500    1.167    4.333 
#    1.500    3.333    0.000    0.000    0.000    0.000 
#    0.000    0.000    0.000    0.000    0.000    0.000 
#
# Total GULP energy -595240.381890 kJ/mol
# GULP energy per Si atom -12400.841289 kJ/mol
# Density = 1.805980 g / cm^3
# Si number density = 18.100998 Si / 1000 Ang^3
#
#
#
# Elastic Constant Matrix: (Units=GPa)
#
#
# Indices 1 2 3 4 5 6 
#
# 1 59.8057 44.1425 66.2910 0.0000 0.0000 0.0000
# 2 44.1425 128.2648 73.4467 0.0000 0.0000 0.0000
# 3 66.2910 73.4467 167.9561 0.0000 0.0000 0.0000
# 4 0.0000 0.0000 0.0000 19.8217 0.0000 0.0000
# 5 0.0000 0.0000 0.0000 0.0000 36.1536 0.0000
# 6 0.0000 0.0000 0.0000 0.0000 0.0000 27.7159
#
#
#
# Elastic Compliance Matrix: (Units=1/GPa)
#
#
# Indices 1 2 3 4 5 6 
#
# 1 0.031997 -0.005043 -0.010424 0.000000 0.000000 0.000000
# 2 -0.005043 0.011196 -0.002905 0.000000 0.000000 0.000000
# 3 -0.010424 -0.002905 0.011339 0.000000 0.000000 0.000000
# 4 0.000000 0.000000 0.000000 0.050450 0.000000 0.000000
# 5 0.000000 0.000000 0.000000 0.000000 0.027660 0.000000
# 6 0.000000 0.000000 0.000000 0.000000 0.000000 0.036080
#
#
# Mechanical properties :
#
#
# Convention : Reuss Voigt Hill
#
# Bulk Modulus (GPa) = 56.22045 80.42078 68.32062
# Shear Modulus (GPa) = 23.65243 28.21464 25.93353
#
# Velocity S-wave (km/s) = 3.61874 3.95236 3.78923
# Velocity P-wave (km/s) = 6.97045 8.08416 7.54787
#
# Compressibility (1/GPa) = 0.01778712
#
# Stress axis : x y z
#
# Youngs Moduli (GPa) = 31.25273 89.32079 88.19423
#
# Poissons Ratio (x) = 0.45045 0.91931
# Poissons Ratio (y) = 0.15761 0.25623
# Poissons Ratio (z) = 0.32577 0.25951
#
# Static dielectric constant tensor:
#      x y z
#    x 3.319440 0.000000 0.000000 
#    y 0.000000 3.483580 0.000000 
#    z 0.000000 0.000000 3.398210 
# 
# 
# High freq. dielectric constant tensor:
#      x y z
#    x 1.697880 0.000000 0.000000 
#    y 0.000000 1.706830 0.000000 
#    z 0.000000 0.000000 1.702410 
# 
# From -- ./inp_files/20527.got.cif
#   From: 2010.03.12/outbox.cif.g09.slc.cpg/sg59_11_cif.got.tgz:20527.got - 2010.04.16 16:29:54.
