data_PCOD8244966
_publ_section_title
;
Structure prediction by ZEFSAII (Michael W. Deem and Ramdas Pophale) SiO2 
 PCOD8244966
Probable space group: P M M N
;
_chemical_formula_sum "Si O2"
_cell_formula_units_Z 64
_cell_length_a 14.795485
_cell_length_b 8.902733
_cell_length_c 23.617173
_cell_angle_alpha 90.000000
_cell_angle_beta 90.000000
_cell_angle_gamma 90.000000
_cell_volume 3110.859992
_symmetry_space_group_name_H-M "P M M N"
_symmetry_group_IT_number 59
_space_group.IT_coordinate_system_code '2'
_symmetry_cell_setting 'orthorhombic'
loop_
_space_group_symop_operation_xyz
x,y,z
1/2-x,1/2-y,z
1/2+x,-y,-z
-x,1/2+y,-z
-x,-y,-z
1/2+x,1/2+y,-z
1/2-x,y,z
x,1/2-y,z
loop_
_atom_site_type_symbol
_atom_site_label
_atom_site_fract_x
_atom_site_fract_y
_atom_site_fract_z
Si Si1 0.645043 0.073397 0.012124
Si Si2 0.495707 0.573425 0.084355
Si Si3 0.148751 0.580115 0.283979
Si Si4 0.611032 0.418674 0.376783
Si Si5 0.146234 0.920121 0.498323
Si Si6 0.009467 0.426594 0.203587
Si Si7 0.649325 0.919913 0.265542
Si Si8 0.404920 0.417642 0.390100
O O1 0.750000 0.017501 0.008270
O O2 0.643065 0.250000 0.023412
O O3 0.591221 0.994595 0.063296
O O4 0.590014 0.031760 0.955175
O O5 0.509371 0.750000 0.088730
O O6 0.470555 0.508064 0.144912
O O7 0.250000 0.575302 0.259438
O O8 0.110570 0.750000 0.282100
O O9 0.087528 0.470669 0.247154
O O10 0.152557 0.524411 0.349000
O O11 0.651596 0.250000 0.371832
O O12 0.633797 0.486034 0.438597
O O13 0.655059 0.525337 0.330258
O O14 0.504993 0.414222 0.365162
O O15 0.250000 0.925843 0.479820
O O16 0.108373 0.750000 0.497004
O O17 0.090977 0.019861 0.453931
O O18 0.010669 0.250000 0.194006
O O19 0.912263 0.473305 0.227547
O O20 0.750000 0.926075 0.239825
O O21 0.611376 0.750000 0.264066
O O22 0.363390 0.250000 0.390824
#
# Coordination Sequence:
#
# PCOD8244966 Si02
#       8
#     8   8   8   8   8   8   8   8
#     4   9  19  38  64  94 129 169 210 251 300 356
#     4  10  21  38  62  93 129 168 209 255 304 355
#     4  11  24  42  64  88 118 159 203 251 310 370
#     4  10  21  38  59  83 112 151 195 244 306 369
#     4  10  21  36  54  78 110 150 195 242 298 367
#     4  12  25  42  64  91 125 165 209 257 307 359
#     4  11  24  41  63  90 119 156 203 254 309 369
#     4  11  22  36  57  85 114 149 195 247 304 365
#
# _framework density 20.573089
#
# number of rings (size 3 to 8) (size 9 to 14) (size 15 to 20)
#    0.000    1.500    1.250    3.750    0.000    7.000 
#    0.000    1.250    0.000    0.000    0.000    0.000 
#    0.000    0.000    0.000    0.000    0.000    0.000 
#
# Total GULP energy -793794.809769 kJ/mol
# GULP energy per Si atom -12403.043903 kJ/mol
# Density = 2.052626 g / cm^3
# Si number density = 20.573089 Si / 1000 Ang^3
#
#
#
# Elastic Constant Matrix: (Units=GPa)
#
#
# Indices 1 2 3 4 5 6 
#
# 1 95.8838 24.8081 15.0766 0.0000 0.0000 0.0000
# 2 24.8081 42.2910 17.3053 0.0000 0.0000 0.0000
# 3 15.0766 17.3053 92.6084 0.0000 0.0000 0.0000
# 4 0.0000 0.0000 0.0000 39.7483 0.0000 0.0000
# 5 0.0000 0.0000 0.0000 0.0000 9.2467 0.0000
# 6 0.0000 0.0000 0.0000 0.0000 0.0000 15.0527
#
#
#
# Elastic Compliance Matrix: (Units=1/GPa)
#
#
# Indices 1 2 3 4 5 6 
#
# 1 0.012338 -0.006947 -0.000711 0.000000 0.000000 0.000000
# 2 -0.006947 0.029515 -0.004384 0.000000 0.000000 0.000000
# 3 -0.000711 -0.004384 0.011733 0.000000 0.000000 0.000000
# 4 0.000000 0.000000 0.000000 0.025158 0.000000 0.000000
# 5 0.000000 0.000000 0.000000 0.000000 0.108147 0.000000
# 6 0.000000 0.000000 0.000000 0.000000 0.000000 0.066433
#
#
# Mechanical properties :
#
#
# Convention : Reuss Voigt Hill
#
# Bulk Modulus (GPa) = 33.89528 38.35147 36.12338
# Shear Modulus (GPa) = 17.40688 24.38242 20.89465
#
# Velocity S-wave (km/s) = 2.91193 3.44635 3.19035
# Velocity P-wave (km/s) = 5.27419 5.87524 5.58281
#
# Compressibility (1/GPa) = 0.02950264
#
# Stress axis : x y z
#
# Youngs Moduli (GPa) = 81.04761 33.88119 85.22889
#
# Poissons Ratio (x) = 0.23537 0.06056
# Poissons Ratio (y) = 0.56304 0.37367
# Poissons Ratio (z) = 0.05759 0.14855
#
# Static dielectric constant tensor:
#      x y z
#    x 3.735680 0.000000 0.000000 
#    y 0.000000 3.739800 0.000000 
#    z 0.000000 0.000000 3.656370 
# 
# 
# High freq. dielectric constant tensor:
#      x y z
#    x 1.810510 0.000000 0.000000 
#    y 0.000000 1.805800 0.000000 
#    z 0.000000 0.000000 1.800100 
# 
# From -- ./inp_files/32193.got.cif
#   From: 2010.03.12/outbox.cif.g09.slc.cpg/sg59_17_cif.got.tgz:32193.got - 2010.04.16 16:29:54.
