data_PCOD8244218
_publ_section_title
;
Structure prediction by ZEFSAII (Michael W. Deem and Ramdas Pophale) SiO2 
 PCOD8244218
Probable space group: P M M N
;
_chemical_formula_sum "Si O2"
_cell_formula_units_Z 48
_cell_length_a 18.389249
_cell_length_b 7.804729
_cell_length_c 16.501695
_cell_angle_alpha 90.000000
_cell_angle_beta 90.000000
_cell_angle_gamma 90.000000
_cell_volume 2368.374503
_symmetry_space_group_name_H-M "P M M N"
_symmetry_group_IT_number 59
_space_group.IT_coordinate_system_code '2'
_symmetry_cell_setting 'orthorhombic'
loop_
_space_group_symop_operation_xyz
x,y,z
1/2-x,1/2-y,z
1/2+x,-y,-z
-x,1/2+y,-z
-x,-y,-z
1/2+x,1/2+y,-z
1/2-x,y,z
x,1/2-y,z
loop_
_atom_site_type_symbol
_atom_site_label
_atom_site_fract_x
_atom_site_fract_y
_atom_site_fract_z
Si Si1 0.166172 0.450656 0.897242
Si Si2 0.418328 0.944348 0.741986
Si Si3 0.573814 0.446928 0.956841
Si Si4 0.833625 0.559827 0.407411
Si Si5 0.836233 0.250000 0.698966
Si Si6 0.918837 0.555678 0.779234
Si Si7 0.836265 0.250000 0.516729
O O1 0.250000 0.497981 0.885119
O O2 0.151702 0.250000 0.891374
O O3 0.119906 0.543345 0.828604
O O4 0.141638 0.519788 0.984370
O O5 0.413678 0.750000 0.711624
O O6 0.501454 0.003904 0.750278
O O7 0.378521 0.060384 0.675798
O O8 0.570133 0.250000 0.930898
O O9 0.585144 0.557344 0.876363
O O10 0.500000 0.500000 0.000000
O O11 0.750000 0.517938 0.385714
O O12 0.840871 0.750000 0.445866
O O13 0.864470 0.420852 0.470980
O O14 0.750000 0.250000 0.700020
O O15 0.861391 0.423295 0.742733
O O16 0.867718 0.250000 0.607446
O O17 0.901410 0.750000 0.750030
O O18 0.750000 0.250000 0.520080
#
# Coordination Sequence:
#
# PCOD8244218 Si02
#       7
#     8   8   8   8   4   8   4
#     4  11  24  38  57  91 130 169 216 267 317 373
#     4  11  22  37  61  92 132 173 211 255 317 386
#     4  12  23  40  64  90 123 173 220 262 319 384
#     4  10  20  35  62  96 131 173 212 255 316 380
#     4  11  26  48  74  97 120 166 219 271 330 382
#     4  11  25  44  67  96 128 168 216 265 324 385
#     4   9  20  42  66  93 129 164 213 265 317 388
#
# _framework density 20.267064000000001
#
# number of rings (size 3 to 8) (size 9 to 14) (size 15 to 20)
#    0.000    1.167    3.333    3.000    2.333    5.000 
#    0.000    2.500    0.000    0.000    0.000    0.000 
#    0.000    0.000    0.000    0.000    0.000    0.000 
#
# Total GULP energy -595430.317189 kJ/mol
# GULP energy per Si atom -12404.798275 kJ/mol
# Density = 2.022094 g / cm^3
# Si number density = 20.267064 Si / 1000 Ang^3
#
#
#
# Elastic Constant Matrix: (Units=GPa)
#
#
# Indices 1 2 3 4 5 6 
#
# 1 84.3756 42.7195 34.8794 0.0000 0.0000 0.0000
# 2 42.7195 116.7193 40.8538 0.0000 0.0000 0.0000
# 3 34.8794 40.8538 124.0551 0.0000 0.0000 0.0000
# 4 0.0000 0.0000 0.0000 26.0845 0.0000 0.0000
# 5 0.0000 0.0000 0.0000 0.0000 25.9364 0.0000
# 6 0.0000 0.0000 0.0000 0.0000 0.0000 26.1604
#
#
#
# Elastic Compliance Matrix: (Units=1/GPa)
#
#
# Indices 1 2 3 4 5 6 
#
# 1 0.015356 -0.004644 -0.002788 0.000000 0.000000 0.000000
# 2 -0.004644 0.011089 -0.002346 0.000000 0.000000 0.000000
# 3 -0.002788 -0.002346 0.009617 0.000000 0.000000 0.000000
# 4 0.000000 0.000000 0.000000 0.038337 0.000000 0.000000
# 5 0.000000 0.000000 0.000000 0.000000 0.038556 0.000000
# 6 0.000000 0.000000 0.000000 0.000000 0.000000 0.038226
#
#
# Mechanical properties :
#
#
# Convention : Reuss Voigt Hill
#
# Bulk Modulus (GPa) = 60.58697 62.45062 61.51880
# Shear Modulus (GPa) = 28.37070 29.41607 28.89339
#
# Velocity S-wave (km/s) = 3.74551 3.81389 3.77985
# Velocity P-wave (km/s) = 6.97598 7.09049 7.03347
#
# Compressibility (1/GPa) = 0.01650520
#
# Stress axis : x y z
#
# Youngs Moduli (GPa) = 65.12235 90.18341 103.97901
#
# Poissons Ratio (x) = 0.41885 0.28989
# Poissons Ratio (y) = 0.30245 0.24392
# Poissons Ratio (z) = 0.18156 0.21156
#
# Static dielectric constant tensor:
#      x y z
#    x 3.562600 0.000000 0.000000 
#    y 0.000000 3.837450 0.000000 
#    z 0.000000 0.000000 3.659820 
# 
# 
# High freq. dielectric constant tensor:
#      x y z
#    x 1.778990 0.000000 0.000000 
#    y 0.000000 1.809210 0.000000 
#    z 0.000000 0.000000 1.786520 
# 
# From -- ./inp_files/23745.got.cif
#   From: 2010.03.12/outbox.cif.g09.slc.cpg/sg59_12_cif.got.tgz:23745.got - 2010.04.16 16:29:54.
