data_PCOD8244664
_publ_section_title
;
Structure prediction by ZEFSAII (Michael W. Deem and Ramdas Pophale) SiO2 
 PCOD8244664
Probable space group: P M M N
;
_chemical_formula_sum "Si O2"
_cell_formula_units_Z 48
_cell_length_a 15.723697
_cell_length_b 8.941776
_cell_length_c 16.661059
_cell_angle_alpha 90.000000
_cell_angle_beta 90.000000
_cell_angle_gamma 90.000000
_cell_volume 2342.507849
_symmetry_space_group_name_H-M "P M M N"
_symmetry_group_IT_number 59
_space_group.IT_coordinate_system_code '2'
_symmetry_cell_setting 'orthorhombic'
loop_
_space_group_symop_operation_xyz
x,y,z
1/2-x,1/2-y,z
1/2+x,-y,-z
-x,1/2+y,-z
-x,-y,-z
1/2+x,1/2+y,-z
1/2-x,y,z
x,1/2-y,z
loop_
_atom_site_type_symbol
_atom_site_label
_atom_site_fract_x
_atom_site_fract_y
_atom_site_fract_z
Si Si1 0.750000 0.927435 0.410162
Si Si2 0.750000 0.074305 0.580758
Si Si3 0.653396 0.082516 0.153000
Si Si4 0.153241 0.581994 0.152196
Si Si5 0.090380 0.574754 0.675621
Si Si6 0.917522 0.074845 0.679665
Si Si7 0.409612 0.075410 0.999459
O O1 0.750000 0.750000 0.402013
O O2 0.750000 0.974895 0.502065
O O3 0.834827 0.990112 0.369616
O O4 0.750000 0.250000 0.559594
O O5 0.834055 0.029661 0.630131
O O6 0.750000 0.071914 0.182988
O O7 0.632341 0.250000 0.122097
O O8 0.595646 0.041573 0.229187
O O9 0.639880 0.967800 0.081013
O O10 0.250000 0.577865 0.182135
O O11 0.128301 0.750000 0.125066
O O12 0.096010 0.530848 0.227097
O O13 0.142771 0.472280 0.077487
O O14 0.098655 0.750000 0.656634
O O15 0.998806 0.515082 0.645899
O O16 0.935955 0.250000 0.671141
O O17 0.422057 0.250000 0.001318
O O18 0.500000 0.000000 0.000000
#
# Coordination Sequence:
#
# PCOD8244664 Si02
#       7
#     4   4   8   8   8   8   8
#     4  12  26  44  68  97 128 163 208 259 314 379
#     4  10  22  44  70  95 130 167 206 257 314 377
#     4  10  21  40  63  87 120 162 207 255 313 373
#     4  10  20  38  63  90 123 164 208 256 313 370
#     4  11  23  42  67  96 129 168 210 258 318 378
#     4  10  21  40  67  98 128 167 213 259 312 373
#     4  12  25  38  54  83 121 164 213 262 311 364
#
# _framework density 20.490860000000001
#
# number of rings (size 3 to 8) (size 9 to 14) (size 15 to 20)
#    0.000    1.333    1.667    4.250    0.000    8.667 
#    0.000    0.000    0.000    0.000    0.000    0.000 
#    0.000    0.000    0.000    0.000    0.000    0.000 
#
# Total GULP energy -595385.968154 kJ/mol
# GULP energy per Si atom -12403.874337 kJ/mol
# Density = 2.044422 g / cm^3
# Si number density = 20.490860 Si / 1000 Ang^3
#
#
#
# Elastic Constant Matrix: (Units=GPa)
#
#
# Indices 1 2 3 4 5 6 
#
# 1 146.8462 62.2348 53.7632 0.0000 0.0000 0.0000
# 2 62.2348 136.0273 68.0064 0.0000 0.0000 0.0000
# 3 53.7632 68.0064 105.8402 0.0000 0.0000 0.0000
# 4 0.0000 0.0000 0.0000 24.5535 0.0000 0.0000
# 5 0.0000 0.0000 0.0000 0.0000 13.2730 0.0000
# 6 0.0000 0.0000 0.0000 0.0000 0.0000 33.5773
#
#
#
# Elastic Compliance Matrix: (Units=1/GPa)
#
#
# Indices 1 2 3 4 5 6 
#
# 1 0.008990 -0.002696 -0.002834 0.000000 0.000000 0.000000
# 2 -0.002696 0.011639 -0.006109 0.000000 0.000000 0.000000
# 3 -0.002834 -0.006109 0.014813 0.000000 0.000000 0.000000
# 4 0.000000 0.000000 0.000000 0.040727 0.000000 0.000000
# 5 0.000000 0.000000 0.000000 0.000000 0.075341 0.000000
# 6 0.000000 0.000000 0.000000 0.000000 0.000000 0.029782
#
#
# Mechanical properties :
#
#
# Convention : Reuss Voigt Hill
#
# Bulk Modulus (GPa) = 82.21291 84.08028 83.14659
# Shear Modulus (GPa) = 23.96625 27.92805 25.94715
#
# Velocity S-wave (km/s) = 3.42366 3.69582 3.56234
# Velocity P-wave (km/s) = 7.47245 7.70287 7.58854
#
# Compressibility (1/GPa) = 0.01216354
#
# Stress axis : x y z
#
# Youngs Moduli (GPa) = 111.23215 85.91639 67.50707
#
# Poissons Ratio (x) = 0.23164 0.19134
# Poissons Ratio (y) = 0.29990 0.41241
# Poissons Ratio (z) = 0.31527 0.52487
#
# Static dielectric constant tensor:
#      x y z
#    x 3.815820 0.000000 0.000000 
#    y 0.000000 3.773830 0.000000 
#    z 0.000000 0.000000 3.909960 
# 
# 
# High freq. dielectric constant tensor:
#      x y z
#    x 1.816280 0.000000 0.000000 
#    y 0.000000 1.795280 0.000000 
#    z 0.000000 0.000000 1.799960 
# 
# From -- ./inp_files/27471.got.cif
#   From: 2010.03.12/outbox.cif.g09.slc.cpg/sg59_14_cif.got.tgz:27471.got - 2010.04.16 16:29:54.
