data_PCOD8244255
_publ_section_title
;
Structure prediction by ZEFSAII (Michael W. Deem and Ramdas Pophale) SiO2 
 PCOD8244255
Probable space group: P M M N
;
_chemical_formula_sum "Si O2"
_cell_formula_units_Z 48
_cell_length_a 8.798558
_cell_length_b 16.017467
_cell_length_c 18.176475
_cell_angle_alpha 90.000000
_cell_angle_beta 90.000000
_cell_angle_gamma 90.000000
_cell_volume 2561.621753
_symmetry_space_group_name_H-M "P M M N"
_symmetry_group_IT_number 59
_space_group.IT_coordinate_system_code '2'
_symmetry_cell_setting 'orthorhombic'
loop_
_space_group_symop_operation_xyz
x,y,z
1/2-x,1/2-y,z
1/2+x,-y,-z
-x,1/2+y,-z
-x,-y,-z
1/2+x,1/2+y,-z
1/2-x,y,z
x,1/2-y,z
loop_
_atom_site_type_symbol
_atom_site_label
_atom_site_fract_x
_atom_site_fract_y
_atom_site_fract_z
Si Si1 0.568014 0.914769 0.531407
Si Si2 0.574617 0.341958 0.173099
Si Si3 0.570372 0.003347 0.079788
Si Si4 0.430332 0.583351 0.211288
Si Si5 0.430187 0.750000 0.288307
Si Si6 0.928515 0.923887 0.698245
Si Si7 0.431925 0.750000 0.456736
O O1 0.750000 0.915033 0.523339
O O2 0.512814 0.911765 0.615759
O O3 0.499140 0.833556 0.492537
O O4 0.500000 0.000000 0.500000
O O5 0.750000 0.358052 0.189074
O O6 0.543560 0.250000 0.140669
O O7 0.514892 0.408645 0.114026
O O8 0.491189 0.349645 0.251263
O O9 0.750000 0.995663 0.073798
O O10 0.506816 0.929421 0.131492
O O11 0.500000 0.000000 0.000000
O O12 0.250000 0.583653 0.200645
O O13 0.492034 0.669368 0.245254
O O14 0.484315 0.512016 0.268198
O O15 0.250000 0.750000 0.288427
O O16 0.486722 0.750000 0.372200
O O17 0.750000 0.919573 0.699271
O O18 0.250000 0.750000 0.464389
#
# Coordination Sequence:
#
# PCOD8244255 Si02
#       7
#     8   8   8   8   4   8   4
#     4  11  23  39  57  83 117 154 197 245 297 350
#     4   9  19  35  55  80 105 135 178 223 267 318
#     4  10  20  36  56  79 111 142 173 216 266 322
#     4   9  17  34  58  81 103 140 185 226 273 325
#     4   9  18  35  59  81 106 143 192 233 271 330
#     4   9  19  34  54  77 108 144 183 228 276 332
#     4  11  23  39  59  85 118 157 198 245 295 348
#
# _framework density 18.738128
#
# number of rings (size 3 to 8) (size 9 to 14) (size 15 to 20)
#    0.000    2.333    0.000    2.250    1.167    5.000 
#    1.500    5.417    0.000    0.000    0.000    0.000 
#    0.000    0.000    0.000    0.000    0.000    0.000 
#
# Total GULP energy -595158.619044 kJ/mol
# GULP energy per Si atom -12399.137897 kJ/mol
# Density = 1.869548 g / cm^3
# Si number density = 18.738128 Si / 1000 Ang^3
#
#
#
# Elastic Constant Matrix: (Units=GPa)
#
#
# Indices 1 2 3 4 5 6 
#
# 1 40.0617 32.5975 45.4771 0.0000 0.0000 0.0000
# 2 32.5975 138.6421 80.1597 0.0000 0.0000 0.0000
# 3 45.4771 80.1597 183.6246 0.0000 0.0000 0.0000
# 4 0.0000 0.0000 0.0000 23.6928 0.0000 0.0000
# 5 0.0000 0.0000 0.0000 0.0000 33.2483 0.0000
# 6 0.0000 0.0000 0.0000 0.0000 0.0000 29.6688
#
#
#
# Elastic Compliance Matrix: (Units=1/GPa)
#
#
# Indices 1 2 3 4 5 6 
#
# 1 0.036722 -0.004515 -0.007124 0.000000 0.000000 0.000000
# 2 -0.004515 0.010203 -0.003336 0.000000 0.000000 0.000000
# 3 -0.007124 -0.003336 0.008666 0.000000 0.000000 0.000000
# 4 0.000000 0.000000 0.000000 0.042207 0.000000 0.000000
# 5 0.000000 0.000000 0.000000 0.000000 0.030077 0.000000
# 6 0.000000 0.000000 0.000000 0.000000 0.000000 0.033705
#
#
# Mechanical properties :
#
#
# Convention : Reuss Voigt Hill
#
# Bulk Modulus (GPa) = 38.99839 75.42189 57.21014
# Shear Modulus (GPa) = 24.99029 30.92824 27.95927
#
# Velocity S-wave (km/s) = 3.65589 4.06711 3.86697
# Velocity P-wave (km/s) = 6.21918 7.89892 7.10884
#
# Compressibility (1/GPa) = 0.02564208
#
# Stress axis : x y z
#
# Youngs Moduli (GPa) = 27.23153 98.00880 115.38882
#
# Poissons Ratio (x) = 0.44255 0.82198
# Poissons Ratio (y) = 0.12296 0.38491
# Poissons Ratio (z) = 0.19399 0.32694
#
# Static dielectric constant tensor:
#      x y z
#    x 3.364020 0.000000 0.000000 
#    y 0.000000 3.469090 0.000000 
#    z 0.000000 0.000000 3.626870 
# 
# 
# High freq. dielectric constant tensor:
#      x y z
#    x 1.719780 0.000000 0.000000 
#    y 0.000000 1.733900 0.000000 
#    z 0.000000 0.000000 1.732450 
# 
# From -- ./inp_files/25529.got.cif
#   From: 2010.03.12/outbox.cif.g09.slc.cpg/sg59_13_cif.got.tgz:25529.got - 2010.04.16 16:29:54.
