data_PCOD8244628
_publ_section_title
;
Structure prediction by ZEFSAII (Michael W. Deem and Ramdas Pophale) SiO2 
 PCOD8244628
Probable space group: P M M N
;
_chemical_formula_sum "Si O2"
_cell_formula_units_Z 48
_cell_length_a 9.714765
_cell_length_b 9.087796
_cell_length_c 28.753613
_cell_angle_alpha 90.000000
_cell_angle_beta 90.000000
_cell_angle_gamma 90.000000
_cell_volume 2538.535799
_symmetry_space_group_name_H-M "P M M N"
_symmetry_group_IT_number 59
_space_group.IT_coordinate_system_code '2'
_symmetry_cell_setting 'orthorhombic'
loop_
_space_group_symop_operation_xyz
x,y,z
1/2-x,1/2-y,z
1/2+x,-y,-z
-x,1/2+y,-z
-x,-y,-z
1/2+x,1/2+y,-z
1/2-x,y,z
x,1/2-y,z
loop_
_atom_site_type_symbol
_atom_site_label
_atom_site_fract_x
_atom_site_fract_y
_atom_site_fract_z
Si Si1 0.404730 0.421475 0.707182
Si Si2 0.590689 0.921517 0.038330
Si Si3 0.591908 0.576152 0.780359
Si Si4 0.037389 0.077232 0.602488
Si Si5 0.092056 0.921025 0.866627
Si Si6 0.250000 0.574856 0.538611
Si Si7 0.750000 0.077978 0.565568
O O1 0.250000 0.457916 0.724919
O O2 0.437799 0.250000 0.712641
O O3 0.518990 0.508854 0.735548
O O4 0.414593 0.469780 0.653625
O O5 0.750000 0.952013 0.026870
O O6 0.556169 0.750000 0.038486
O O7 0.551320 0.986236 0.088327
O O8 0.500000 0.000000 0.000000
O O9 0.750000 0.521515 0.783679
O O10 0.584856 0.750000 0.775432
O O11 0.508836 0.524191 0.825936
O O12 0.064153 0.250000 0.594278
O O13 0.879651 0.030342 0.596272
O O14 0.116108 0.985544 0.563919
O O15 0.250000 0.951014 0.851612
O O16 0.068930 0.750000 0.878169
O O17 0.250000 0.750000 0.540350
O O18 0.250000 0.509562 0.486197
O O19 0.750000 0.250000 0.557432
#
# Coordination Sequence:
#
# PCOD8244628 Si02
#       7
#     8   8   8   8   8   4   4
#     4  10  21  37  58  82 105 139 188 229 267 325
#     4  10  21  36  56  84 117 153 193 238 284 329
#     4  10  22  38  57  84 116 147 179 223 282 338
#     4  10  20  38  59  79 107 146 184 222 272 329
#     4   9  18  35  57  79 109 152 195 230 273 331
#     4  11  21  35  55  85 113 139 181 227 270 325
#     4   9  20  35  57  83 109 143 183 225 272 325
#
# _framework density 18.908538
#
# number of rings (size 3 to 8) (size 9 to 14) (size 15 to 20)
#    0.000    2.167    0.833    1.750    1.167    4.333 
#    0.000    4.583    0.000    0.000    0.000    0.000 
#    0.000    0.000    0.000    0.000    0.000    0.000 
#
# Total GULP energy -595278.582866 kJ/mol
# GULP energy per Si atom -12401.637143 kJ/mol
# Density = 1.886550 g / cm^3
# Si number density = 18.908538 Si / 1000 Ang^3
#
#
#
# Elastic Constant Matrix: (Units=GPa)
#
#
# Indices 1 2 3 4 5 6 
#
# 1 128.2109 32.9525 58.6753 0.0000 0.0000 0.0000
# 2 32.9525 49.5770 39.8863 0.0000 0.0000 0.0000
# 3 58.6753 39.8863 107.6112 0.0000 0.0000 0.0000
# 4 0.0000 0.0000 0.0000 32.4413 0.0000 0.0000
# 5 0.0000 0.0000 0.0000 0.0000 40.4233 0.0000
# 6 0.0000 0.0000 0.0000 0.0000 0.0000 29.1853
#
#
#
# Elastic Compliance Matrix: (Units=1/GPa)
#
#
# Indices 1 2 3 4 5 6 
#
# 1 0.010798 -0.003477 -0.004599 0.000000 0.000000 0.000000
# 2 -0.003477 0.029861 -0.009172 0.000000 0.000000 0.000000
# 3 -0.004599 -0.009172 0.015200 0.000000 0.000000 0.000000
# 4 0.000000 0.000000 0.000000 0.030825 0.000000 0.000000
# 5 0.000000 0.000000 0.000000 0.000000 0.024738 0.000000
# 6 0.000000 0.000000 0.000000 0.000000 0.000000 0.034264
#
#
# Mechanical properties :
#
#
# Convention : Reuss Voigt Hill
#
# Bulk Modulus (GPa) = 46.81056 60.93639 53.87348
# Shear Modulus (GPa) = 26.69468 30.66897 28.68183
#
# Velocity S-wave (km/s) = 3.76144 4.03173 3.89893
# Velocity P-wave (km/s) = 6.60868 7.34643 6.98730
#
# Compressibility (1/GPa) = 0.02136270
#
# Stress axis : x y z
#
# Youngs Moduli (GPa) = 92.60985 33.48832 65.79005
#
# Poissons Ratio (x) = 0.11645 0.30255
# Poissons Ratio (y) = 0.32203 0.60343
# Poissons Ratio (z) = 0.42589 0.30716
#
# Static dielectric constant tensor:
#      x y z
#    x -12.158080 0.000000 0.000000 
#    y 0.000000 3.322720 0.000000 
#    z 0.000000 0.000000 3.499140 
# 
# 
# High freq. dielectric constant tensor:
#      x y z
#    x 1.745670 0.000000 0.000000 
#    y 0.000000 1.720640 0.000000 
#    z 0.000000 0.000000 1.741320 
# 
# From -- ./inp_files/32966.got.cif
#   From: 2010.03.12/outbox.cif.g09.slc.cpg/sg59_17_cif.got.tgz:32966.got - 2010.04.16 16:29:54.
