data_PCOD8244061
_publ_section_title
;
Structure prediction by ZEFSAII (Michael W. Deem and Ramdas Pophale) SiO2 
 PCOD8244061
Probable space group: P M M N
;
_chemical_formula_sum "Si O2"
_cell_formula_units_Z 64
_cell_length_a 9.048295
_cell_length_b 30.918052
_cell_length_c 11.553673
_cell_angle_alpha 90.000000
_cell_angle_beta 90.000000
_cell_angle_gamma 90.000000
_cell_volume 3232.205361
_symmetry_space_group_name_H-M "P M M N"
_symmetry_group_IT_number 59
_space_group.IT_coordinate_system_code '2'
_symmetry_cell_setting 'orthorhombic'
loop_
_space_group_symop_operation_xyz
x,y,z
1/2-x,1/2-y,z
1/2+x,-y,-z
-x,1/2+y,-z
-x,-y,-z
1/2+x,1/2+y,-z
1/2-x,y,z
x,1/2-y,z
loop_
_atom_site_type_symbol
_atom_site_label
_atom_site_fract_x
_atom_site_fract_y
_atom_site_fract_z
Si Si1 0.416055 0.301338 0.666003
Si Si2 0.418589 0.029114 0.661442
Si Si3 0.078607 0.372535 0.035129
Si Si4 0.418602 0.563610 0.549366
Si Si5 0.578783 0.633577 0.699621
Si Si6 0.424331 0.799907 0.101695
Si Si7 0.079989 0.699359 0.561227
Si Si8 0.075662 0.037176 0.925628
O O1 0.250000 0.320252 0.669682
O O2 0.413923 0.250000 0.660769
O O3 0.502848 0.316652 0.779494
O O4 0.499399 0.319274 0.553120
O O5 0.250000 0.045470 0.650408
O O6 0.522519 0.058541 0.581359
O O7 0.475041 0.032820 0.792822
O O8 0.432728 0.979982 0.621892
O O9 0.250000 0.362655 0.009661
O O10 0.048781 0.381012 0.169839
O O11 0.024932 0.415555 0.969148
O O12 0.984467 0.330628 0.999192
O O13 0.250000 0.579830 0.544172
O O14 0.519910 0.597706 0.613177
O O15 0.750000 0.641396 0.675646
O O16 0.492603 0.678113 0.674353
O O17 0.250000 0.804789 0.113323
O O18 0.467746 0.750000 0.074798
O O19 0.250000 0.686328 0.551631
O O20 0.057827 0.750000 0.574654
O O21 0.250000 0.031244 0.939781
O O22 0.000000 0.000000 0.000000
#
# Coordination Sequence:
#
# PCOD8244061 Si02
#       8
#     8   8   8   8   8   8   8   8
#     4   9  17  32  56  83 111 144 181 223 276 337
#     4   9  19  36  58  84 114 148 183 224 277 333
#     4  10  23  40  57  81 112 149 194 239 285 342
#     4  10  20  35  57  84 113 145 183 227 277 335
#     4  11  23  38  56  78 109 148 186 230 285 341
#     4  10  21  37  58  84 115 152 193 239 289 337
#     4  10  21  37  57  81 109 141 181 230 280 332
#     4  10  21  38  60  85 114 148 187 231 279 332
#
# _framework density 19.800723000000001
#
# number of rings (size 3 to 8) (size 9 to 14) (size 15 to 20)
#    0.000    2.125    0.000    2.625    0.000    7.000 
#    0.000    6.250    0.000    0.000    0.000    0.000 
#    0.000    0.000    0.000    0.000    0.000    0.000 
#
# Total GULP energy -793802.006422 kJ/mol
# GULP energy per Si atom -12403.156350 kJ/mol
# Density = 1.975566 g / cm^3
# Si number density = 19.800723 Si / 1000 Ang^3
#
#
#
# Elastic Constant Matrix: (Units=GPa)
#
#
# Indices 1 2 3 4 5 6 
#
# 1 95.9171 44.9260 55.7125 0.0000 0.0000 0.0000
# 2 44.9260 78.5036 56.7044 0.0000 0.0000 0.0000
# 3 55.7125 56.7044 136.9454 0.0000 0.0000 0.0000
# 4 0.0000 0.0000 0.0000 27.0055 0.0000 0.0000
# 5 0.0000 0.0000 0.0000 0.0000 32.3521 0.0000
# 6 0.0000 0.0000 0.0000 0.0000 0.0000 33.3977
#
#
#
# Elastic Compliance Matrix: (Units=1/GPa)
#
#
# Indices 1 2 3 4 5 6 
#
# 1 0.015487 -0.006152 -0.003753 0.000000 0.000000 0.000000
# 2 -0.006152 0.020618 -0.006034 0.000000 0.000000 0.000000
# 3 -0.003753 -0.006034 0.011328 0.000000 0.000000 0.000000
# 4 0.000000 0.000000 0.000000 0.037029 0.000000 0.000000
# 5 0.000000 0.000000 0.000000 0.000000 0.030910 0.000000
# 6 0.000000 0.000000 0.000000 0.000000 0.000000 0.029942
#
#
# Mechanical properties :
#
#
# Convention : Reuss Voigt Hill
#
# Bulk Modulus (GPa) = 64.29428 69.56131 66.92779
# Shear Modulus (GPa) = 27.41567 28.81926 28.11746
#
# Velocity S-wave (km/s) = 3.72503 3.81919 3.77241
# Velocity P-wave (km/s) = 7.14439 7.39292 7.26972
#
# Compressibility (1/GPa) = 0.01555348
#
# Stress axis : x y z
#
# Youngs Moduli (GPa) = 64.56952 48.50231 88.27953
#
# Poissons Ratio (x) = 0.29839 0.33133
# Poissons Ratio (y) = 0.39723 0.53270
# Poissons Ratio (z) = 0.24234 0.29268
#
# Static dielectric constant tensor:
#      x y z
#    x 3.688100 0.000000 0.000000 
#    y 0.000000 3.537120 0.000000 
#    z 0.000000 0.000000 3.727450 
# 
# 
# High freq. dielectric constant tensor:
#      x y z
#    x 1.777330 0.000000 0.000000 
#    y 0.000000 1.767060 0.000000 
#    z 0.000000 0.000000 1.777810 
# 
# From -- ./inp_files/15047.got.cif
#   From: 2010.03.12/outbox.cif.g09.slc.cpg/sg59_8_cif.got.tgz:15047.got - 2010.04.16 16:29:54.
