data_PCOD8244649
_publ_section_title
;
Structure prediction by ZEFSAII (Michael W. Deem and Ramdas Pophale) SiO2 
 PCOD8244649
Probable space group: P M M N
;
_chemical_formula_sum "Si O2"
_cell_formula_units_Z 64
_cell_length_a 29.972559
_cell_length_b 12.552360
_cell_length_c 8.996463
_cell_angle_alpha 90.000000
_cell_angle_beta 90.000000
_cell_angle_gamma 90.000000
_cell_volume 3384.706444
_symmetry_space_group_name_H-M "P M M N"
_symmetry_group_IT_number 59
_space_group.IT_coordinate_system_code '2'
_symmetry_cell_setting 'orthorhombic'
loop_
_space_group_symop_operation_xyz
x,y,z
1/2-x,1/2-y,z
1/2+x,-y,-z
-x,1/2+y,-z
-x,-y,-z
1/2+x,1/2+y,-z
1/2-x,y,z
x,1/2-y,z
loop_
_atom_site_type_symbol
_atom_site_label
_atom_site_fract_x
_atom_site_fract_y
_atom_site_fract_z
Si Si1 0.923501 0.869836 0.162474
Si Si2 0.301998 0.625501 0.075150
Si Si3 0.939175 0.629877 0.827851
Si Si4 0.105253 0.869378 0.566784
Si Si5 0.338202 0.991188 0.788964
Si Si6 0.699139 0.870783 0.463317
Si Si7 0.859866 0.995528 0.692739
Si Si8 0.480572 0.973565 0.657801
O O1 0.912600 0.750000 0.216030
O O2 0.878180 0.936287 0.151145
O O3 0.958035 0.919518 0.279095
O O4 0.946923 0.869141 0.003311
O O5 0.250000 0.613081 0.114984
O O6 0.314767 0.750000 0.056103
O O7 0.311431 0.561531 0.923760
O O8 0.330745 0.576391 0.208962
O O9 0.938085 0.750000 0.763617
O O10 0.892033 0.574428 0.795017
O O11 0.980721 0.566257 0.764039
O O12 0.112342 0.750000 0.514337
O O13 0.108505 0.940999 0.420222
O O14 0.057007 0.882866 0.642585
O O15 0.143341 0.896812 0.685758
O O16 0.305872 0.064330 0.689926
O O17 0.750000 0.875121 0.514104
O O18 0.683220 0.750000 0.434887
O O19 0.671547 0.917840 0.599757
O O20 0.500000 0.000000 0.500000
#
# Coordination Sequence:
#
# PCOD8244649 Si02
#       8
#     8   8   8   8   8   8   8   8
#     4  10  22  39  61  86 119 157 195 239 293 356
#     4  11  23  39  61  89 120 156 198 246 301 357
#     4  11  22  39  60  84 119 157 196 239 294 355
#     4  10  21  37  58  83 114 153 196 241 288 345
#     4  10  20  38  61  84 119 151 198 241 295 352
#     4  10  21  37  58  86 118 154 196 245 301 355
#     4  11  21  39  59  85 119 157 198 244 294 353
#     4  11  22  39  58  88 118 151 195 243 288 343
#
# _framework density 18.908581999999999
#
# number of rings (size 3 to 8) (size 9 to 14) (size 15 to 20)
#    0.000    1.500    2.500    3.000    0.000    1.000 
#    0.000    0.000    0.000    9.000    0.000    0.000 
#    0.000    0.000    0.000    0.000    0.000    0.000 
#
# Total GULP energy -793757.981763 kJ/mol
# GULP energy per Si atom -12402.468465 kJ/mol
# Density = 1.886554 g / cm^3
# Si number density = 18.908582 Si / 1000 Ang^3
#
#
#
# Elastic Constant Matrix: (Units=GPa)
#
#
# Indices 1 2 3 4 5 6 
#
# 1 92.1312 45.9514 30.3316 0.0000 0.0000 0.0000
# 2 45.9514 123.8994 30.7322 0.0000 0.0000 0.0000
# 3 30.3316 30.7322 83.7258 0.0000 0.0000 0.0000
# 4 0.0000 0.0000 0.0000 14.4892 0.0000 0.0000
# 5 0.0000 0.0000 0.0000 0.0000 31.9048 0.0000
# 6 0.0000 0.0000 0.0000 0.0000 0.0000 11.1103
#
#
#
# Elastic Compliance Matrix: (Units=1/GPa)
#
#
# Indices 1 2 3 4 5 6 
#
# 1 0.014209 -0.004393 -0.003535 0.000000 0.000000 0.000000
# 2 -0.004393 0.010238 -0.002166 0.000000 0.000000 0.000000
# 3 -0.003535 -0.002166 0.014020 0.000000 0.000000 0.000000
# 4 0.000000 0.000000 0.000000 0.069017 0.000000 0.000000
# 5 0.000000 0.000000 0.000000 0.000000 0.031343 0.000000
# 6 0.000000 0.000000 0.000000 0.000000 0.000000 0.090007
#
#
# Mechanical properties :
#
#
# Convention : Reuss Voigt Hill
#
# Bulk Modulus (GPa) = 54.71216 57.08742 55.89979
# Shear Modulus (GPa) = 19.59909 24.35027 21.97468
#
# Velocity S-wave (km/s) = 3.22299 3.59247 3.41274
# Velocity P-wave (km/s) = 6.54585 6.88946 6.71985
#
# Compressibility (1/GPa) = 0.01827747
#
# Stress axis : x y z
#
# Youngs Moduli (GPa) = 70.37832 97.67866 71.32876
#
# Poissons Ratio (x) = 0.42910 0.25215
# Poissons Ratio (y) = 0.30917 0.15452
# Poissons Ratio (z) = 0.24879 0.21161
#
# Static dielectric constant tensor:
#      x y z
#    x 3.583290 0.000000 0.000000 
#    y 0.000000 3.505990 0.000000 
#    z 0.000000 0.000000 1.995410 
# 
# 
# High freq. dielectric constant tensor:
#      x y z
#    x 1.740640 0.000000 0.000000 
#    y 0.000000 1.743030 0.000000 
#    z 0.000000 0.000000 1.741290 
# 
# From -- ./inp_files/8009.got.cif
#   From: 2010.03.12/outbox.cif.g09.slc.cpg/sg59_5_cif.got.tgz:8009.got - 2010.04.16 16:29:54.
