data_PCOD8244652
_publ_section_title
;
Structure prediction by ZEFSAII (Michael W. Deem and Ramdas Pophale) SiO2 
 PCOD8244652
Probable space group: P M M N
;
_chemical_formula_sum "Si O2"
_cell_formula_units_Z 64
_cell_length_a 8.957170
_cell_length_b 18.628963
_cell_length_c 19.063588
_cell_angle_alpha 90.000000
_cell_angle_beta 90.000000
_cell_angle_gamma 90.000000
_cell_volume 3181.003453
_symmetry_space_group_name_H-M "P M M N"
_symmetry_group_IT_number 59
_space_group.IT_coordinate_system_code '2'
_symmetry_cell_setting 'orthorhombic'
loop_
_space_group_symop_operation_xyz
x,y,z
1/2-x,1/2-y,z
1/2+x,-y,-z
-x,1/2+y,-z
-x,-y,-z
1/2+x,1/2+y,-z
1/2-x,y,z
x,1/2-y,z
loop_
_atom_site_type_symbol
_atom_site_label
_atom_site_fract_x
_atom_site_fract_y
_atom_site_fract_z
Si Si1 0.575666 0.937916 0.954528
Si Si2 0.082257 0.832197 0.305471
Si Si3 0.414906 0.830823 0.044644
Si Si4 0.072519 0.095947 0.575882
Si Si5 0.583240 0.462076 0.183449
Si Si6 0.923814 0.334003 0.446239
Si Si7 0.084680 0.124735 0.825487
Si Si8 0.923060 0.455267 0.340966
O O1 0.750000 0.952690 0.952186
O O2 0.518779 0.924576 0.875039
O O3 0.538301 0.865102 0.994820
O O4 0.500000 0.000000 0.000000
O O5 0.250000 0.863600 0.307563
O O6 0.085445 0.750000 0.283001
O O7 0.002703 0.840256 0.380034
O O8 0.980157 0.875850 0.252348
O O9 0.250000 0.867753 0.040078
O O10 0.399139 0.750000 0.020155
O O11 0.471746 0.833274 0.124535
O O12 0.250000 0.101090 0.576476
O O13 0.015104 0.114136 0.498263
O O14 0.014773 0.018824 0.607295
O O15 0.750000 0.427721 0.184316
O O16 0.594823 0.542269 0.153343
O O17 0.509169 0.457081 0.261659
O O18 0.750000 0.335502 0.467451
O O19 0.978348 0.250000 0.442088
O O20 0.949287 0.375203 0.372160
O O21 0.250000 0.159960 0.827396
O O22 0.750000 0.473079 0.332090
#
# Coordination Sequence:
#
# PCOD8244652 Si02
#       8
#     8   8   8   8   8   8   8   8
#     4  12  24  39  62  90 121 158 200 247 298 353
#     4  11  23  36  51  77 117 159 196 237 285 346
#     4  11  24  41  61  87 120 158 200 246 297 357
#     4  11  21  36  58  84 114 151 193 239 291 343
#     4  10  20  38  61  87 118 153 197 247 295 349
#     4  10  21  38  60  86 115 150 191 237 293 351
#     4  11  21  35  58  85 118 158 194 239 295 353
#     4   9  19  38  61  84 115 151 193 241 286 345
#
# _framework density 20.119437999999999
#
# number of rings (size 3 to 8) (size 9 to 14) (size 15 to 20)
#    0.000    1.375    2.500    3.750    0.000    5.750 
#    0.000    1.875    0.000    2.250    0.000    0.000 
#    0.000    0.000    0.000    0.000    0.000    0.000 
#
# Total GULP energy -793269.245598 kJ/mol
# GULP energy per Si atom -12394.831962 kJ/mol
# Density = 2.007365 g / cm^3
# Si number density = 20.119438 Si / 1000 Ang^3
#
#
#
# Elastic Constant Matrix: (Units=GPa)
#
#
# Indices 1 2 3 4 5 6 
#
# 1 105.1972 27.2993 41.9230 0.0000 0.0000 0.0000
# 2 27.2993 73.0618 38.0705 0.0000 0.0000 0.0000
# 3 41.9230 38.0705 116.7428 0.0000 0.0000 0.0000
# 4 0.0000 0.0000 0.0000 28.1308 0.0000 0.0000
# 5 0.0000 0.0000 0.0000 0.0000 32.6454 0.0000
# 6 0.0000 0.0000 0.0000 0.0000 0.0000 22.2139
#
#
#
# Elastic Compliance Matrix: (Units=1/GPa)
#
#
# Indices 1 2 3 4 5 6 
#
# 1 0.011484 -0.002581 -0.003282 0.000000 0.000000 0.000000
# 2 -0.002581 0.017069 -0.004640 0.000000 0.000000 0.000000
# 3 -0.003282 -0.004640 0.011258 0.000000 0.000000 0.000000
# 4 0.000000 0.000000 0.000000 0.035548 0.000000 0.000000
# 5 0.000000 0.000000 0.000000 0.000000 0.030632 0.000000
# 6 0.000000 0.000000 0.000000 0.000000 0.000000 0.045017
#
#
# Mechanical properties :
#
#
# Convention : Reuss Voigt Hill
#
# Bulk Modulus (GPa) = 53.17680 56.62084 54.89882
# Shear Modulus (GPa) = 28.04569 29.11195 28.57882
#
# Velocity S-wave (km/s) = 3.73763 3.80801 3.77299
# Velocity P-wave (km/s) = 6.71673 6.89479 6.80634
#
# Compressibility (1/GPa) = 0.01880519
#
# Stress axis : x y z
#
# Youngs Moduli (GPa) = 87.08006 58.58649 88.82940
#
# Poissons Ratio (x) = 0.15118 0.29157
# Poissons Ratio (y) = 0.22471 0.41213
# Poissons Ratio (z) = 0.28583 0.27182
#
# Static dielectric constant tensor:
#      x y z
#    x 3.761530 0.000000 0.000000 
#    y 0.000000 3.690260 0.000000 
#    z 0.000000 0.000000 3.669720 
# 
# 
# High freq. dielectric constant tensor:
#      x y z
#    x 1.777290 0.000000 0.000000 
#    y 0.000000 1.768290 0.000000 
#    z 0.000000 0.000000 1.789660 
# 
# From -- ./inp_files/26247.got.cif
#   From: 2010.03.12/outbox.cif.g09.slc.cpg/sg59_14_cif.got.tgz:26247.got - 2010.04.16 16:29:54.
