data_PCOD8244487
_publ_section_title
;
Structure prediction by ZEFSAII (Michael W. Deem and Ramdas Pophale) SiO2 
 PCOD8244487
Probable space group: P M M N
;
_chemical_formula_sum "Si O2"
_cell_formula_units_Z 40
_cell_length_a 8.659317
_cell_length_b 15.013317
_cell_length_c 15.342249
_cell_angle_alpha 90.000000
_cell_angle_beta 90.000000
_cell_angle_gamma 90.000000
_cell_volume 1994.570172
_symmetry_space_group_name_H-M "P M M N"
_symmetry_group_IT_number 59
_space_group.IT_coordinate_system_code '2'
_symmetry_cell_setting 'orthorhombic'
loop_
_space_group_symop_operation_xyz
x,y,z
1/2-x,1/2-y,z
1/2+x,-y,-z
-x,1/2+y,-z
-x,-y,-z
1/2+x,1/2+y,-z
1/2-x,y,z
x,1/2-y,z
loop_
_atom_site_type_symbol
_atom_site_label
_atom_site_fract_x
_atom_site_fract_y
_atom_site_fract_z
Si Si1 0.430921 0.386771 0.170518
Si Si2 0.567113 0.068248 0.753474
Si Si3 0.068539 0.750000 0.498829
Si Si4 0.932206 0.930597 0.432160
Si Si5 0.432026 0.250000 0.313126
Si Si6 0.567422 0.250000 0.840286
Si Si7 0.933671 0.750000 0.968778
O O1 0.250000 0.373770 0.165068
O O2 0.477131 0.490819 0.176467
O O3 0.483593 0.336874 0.258665
O O4 0.495300 0.337738 0.083818
O O5 0.750000 0.070025 0.736237
O O6 0.481078 0.042802 0.664982
O O7 0.505884 0.162191 0.790687
O O8 0.250000 0.750000 0.483603
O O9 0.997323 0.833916 0.451033
O O10 0.031567 0.750000 0.600240
O O11 0.750000 0.931072 0.441490
O O12 0.000000 0.000000 0.500000
O O13 0.250000 0.250000 0.336419
O O14 0.750000 0.250000 0.841473
O O15 0.509874 0.250000 0.937978
O O16 0.750000 0.750000 0.980075
#
# Coordination Sequence:
#
# PCOD8244487 Si02
#       7
#     8   8   4   8   4   4   4
#     4   8  16  32  56  80 104 139 183 231 284 340
#     4  10  20  37  57  78 110 150 189 231 283 340
#     4  12  24  38  57  84 118 157 200 245 294 345
#     4  12  25  41  61  88 120 155 198 244 294 351
#     4   9  16  31  55  81 106 138 185 238 293 344
#     4  10  22  36  53  80 114 149 184 227 282 339
#     4   9  18  35  57  81 106 138 183 230 279 342
#
# _framework density 20.054447
#
# number of rings (size 3 to 8) (size 9 to 14) (size 15 to 20)
#    0.000    2.000    0.000    5.700    0.000    4.000 
#    0.000    3.000    0.000    0.000    0.000    0.000 
#    0.000    0.000    0.000    0.000    0.000    0.000 
#
# Total GULP energy -495936.524521 kJ/mol
# GULP energy per Si atom -12398.413113 kJ/mol
# Density = 2.000880 g / cm^3
# Si number density = 20.054447 Si / 1000 Ang^3
#
#
#
# Elastic Constant Matrix: (Units=GPa)
#
#
# Indices 1 2 3 4 5 6 
#
# 1 72.8507 35.5226 30.0391 0.0000 0.0000 0.0000
# 2 35.5226 155.1611 48.1421 0.0000 0.0000 0.0000
# 3 30.0391 48.1421 121.8703 0.0000 0.0000 0.0000
# 4 0.0000 0.0000 0.0000 18.4280 0.0000 0.0000
# 5 0.0000 0.0000 0.0000 0.0000 36.4193 0.0000
# 6 0.0000 0.0000 0.0000 0.0000 0.0000 19.4567
#
#
#
# Elastic Compliance Matrix: (Units=1/GPa)
#
#
# Indices 1 2 3 4 5 6 
#
# 1 0.016304 -0.002833 -0.002900 0.000000 0.000000 0.000000
# 2 -0.002833 0.007837 -0.002398 0.000000 0.000000 0.000000
# 3 -0.002900 -0.002398 0.009867 0.000000 0.000000 0.000000
# 4 0.000000 0.000000 0.000000 0.054265 0.000000 0.000000
# 5 0.000000 0.000000 0.000000 0.000000 0.027458 0.000000
# 6 0.000000 0.000000 0.000000 0.000000 0.000000 0.051396
#
#
# Mechanical properties :
#
#
# Convention : Reuss Voigt Hill
#
# Bulk Modulus (GPa) = 56.34421 64.14331 60.24376
# Shear Modulus (GPa) = 26.41255 30.60603 28.50929
#
# Velocity S-wave (km/s) = 3.63304 3.91083 3.77449
# Velocity P-wave (km/s) = 6.76427 7.24202 7.00721
#
# Compressibility (1/GPa) = 0.01774805
#
# Stress axis : x y z
#
# Youngs Moduli (GPa) = 61.33596 127.59281 101.34490
#
# Poissons Ratio (x) = 0.36146 0.29385
# Poissons Ratio (y) = 0.17376 0.24300
# Poissons Ratio (z) = 0.17784 0.30593
#
# Static dielectric constant tensor:
#      x y z
#    x 3.330470 0.000000 0.000000 
#    y 0.000000 4.182080 0.000000 
#    z 0.000000 0.000000 3.674610 
# 
# 
# High freq. dielectric constant tensor:
#      x y z
#    x 1.755860 0.000000 0.000000 
#    y 0.000000 1.800470 0.000000 
#    z 0.000000 0.000000 1.785890 
# 
# From -- ./inp_files/20026.got.cif
#   From: 2010.03.12/outbox.cif.g09.slc.cpg/sg59_11_cif.got.tgz:20026.got - 2010.04.16 16:29:54.
