data_PCOD8244111
_publ_section_title
;
Structure prediction by ZEFSAII (Michael W. Deem and Ramdas Pophale) SiO2 
 PCOD8244111
Probable space group: P M M N
;
_chemical_formula_sum "Si O2"
_cell_formula_units_Z 48
_cell_length_a 27.842411
_cell_length_b 8.952429
_cell_length_c 10.234837
_cell_angle_alpha 90.000000
_cell_angle_beta 90.000000
_cell_angle_gamma 90.000000
_cell_volume 2551.106892
_symmetry_space_group_name_H-M "P M M N"
_symmetry_group_IT_number 59
_space_group.IT_coordinate_system_code '2'
_symmetry_cell_setting 'orthorhombic'
loop_
_space_group_symop_operation_xyz
x,y,z
1/2-x,1/2-y,z
1/2+x,-y,-z
-x,1/2+y,-z
-x,-y,-z
1/2+x,1/2+y,-z
1/2-x,y,z
x,1/2-y,z
loop_
_atom_site_type_symbol
_atom_site_label
_atom_site_fract_x
_atom_site_fract_y
_atom_site_fract_z
Si Si1 0.694164 0.423966 0.493344
Si Si2 0.142452 0.924669 0.239652
Si Si3 0.554747 0.924612 0.863979
Si Si4 0.139717 0.424648 0.740402
Si Si5 0.945603 0.424970 0.139023
Si Si6 0.305910 0.078268 0.004126
O O1 0.750000 0.466450 0.496890
O O2 0.686516 0.250000 0.462270
O O3 0.671626 0.468942 0.631746
O O4 0.668260 0.521615 0.385142
O O5 0.132724 0.750000 0.231669
O O6 0.090840 0.007332 0.243040
O O7 0.173319 0.973431 0.115651
O O8 0.563934 0.750000 0.878364
O O9 0.500434 0.960434 0.820447
O O10 0.567389 0.996840 0.002977
O O11 0.129823 0.250000 0.728044
O O12 0.088504 0.508942 0.748472
O O13 0.170734 0.466053 0.866887
O O14 0.936860 0.250000 0.122489
O O15 0.250000 0.046459 0.990187
O O16 0.316770 0.250000 0.040194
#
# Coordination Sequence:
#
# PCOD8244111 Si02
#       6
#     8   8   8   8   8   8
#     4  10  23  42  60  81 115 157 198 240 288 345
#     4  11  22  37  59  86 115 152 197 240 289 346
#     4  10  20  35  57  87 120 152 190 236 288 345
#     4  11  22  37  59  87 117 151 194 240 290 346
#     4  10  20  35  58  87 118 153 191 234 288 345
#     4  10  21  36  55  82 115 147 186 240 293 343
#
# _framework density 18.815362
#
# number of rings (size 3 to 8) (size 9 to 14) (size 15 to 20)
#    0.000    1.667    1.667    3.000    0.000    6.000 
#    0.000    0.833    0.000    0.000    0.000    0.000 
#    0.000    0.000    0.000    0.000    0.000    0.000 
#
# Total GULP energy -595432.161854 kJ/mol
# GULP energy per Si atom -12404.836705 kJ/mol
# Density = 1.877254 g / cm^3
# Si number density = 18.815362 Si / 1000 Ang^3
#
#
#
# Elastic Constant Matrix: (Units=GPa)
#
#
# Indices 1 2 3 4 5 6 
#
# 1 172.3512 78.3482 89.6068 0.0000 0.0000 0.0000
# 2 78.3482 104.8047 76.8181 0.0000 0.0000 0.0000
# 3 89.6068 76.8181 134.2511 0.0000 0.0000 0.0000
# 4 0.0000 0.0000 0.0000 29.4845 0.0000 0.0000
# 5 0.0000 0.0000 0.0000 0.0000 33.7660 0.0000
# 6 0.0000 0.0000 0.0000 0.0000 0.0000 35.3140
#
#
#
# Elastic Compliance Matrix: (Units=1/GPa)
#
#
# Indices 1 2 3 4 5 6 
#
# 1 0.009951 -0.004428 -0.004108 0.000000 0.000000 0.000000
# 2 -0.004428 0.018404 -0.007575 0.000000 0.000000 0.000000
# 3 -0.004108 -0.007575 0.014525 0.000000 0.000000 0.000000
# 4 0.000000 0.000000 0.000000 0.033916 0.000000 0.000000
# 5 0.000000 0.000000 0.000000 0.000000 0.029616 0.000000
# 6 0.000000 0.000000 0.000000 0.000000 0.000000 0.028317
#
#
# Mechanical properties :
#
#
# Convention : Reuss Voigt Hill
#
# Bulk Modulus (GPa) = 93.82998 100.10592 96.96795
# Shear Modulus (GPa) = 29.32474 30.82183 30.07328
#
# Velocity S-wave (km/s) = 3.95213 4.05176 4.00226
# Velocity P-wave (km/s) = 8.41445 8.67231 8.54435
#
# Compressibility (1/GPa) = 0.01065757
#
# Stress axis : x y z
#
# Youngs Moduli (GPa) = 100.49514 54.33584 68.84466
#
# Poissons Ratio (x) = 0.24058 0.28283
# Poissons Ratio (y) = 0.44496 0.52153
# Poissons Ratio (z) = 0.41285 0.41162
#
# Static dielectric constant tensor:
#      x y z
#    x 3.765980 0.000000 0.000000 
#    y 0.000000 3.512990 0.000000 
#    z 0.000000 0.000000 3.348810 
# 
# 
# High freq. dielectric constant tensor:
#      x y z
#    x 1.751710 0.000000 0.000000 
#    y 0.000000 1.740280 0.000000 
#    z 0.000000 0.000000 1.710990 
# 
# From -- ./inp_files/12939.got.cif
#   From: 2010.03.12/outbox.cif.g09.slc.cpg/sg59_7_cif.got.tgz:12939.got - 2010.04.16 16:29:54.
