data_PCOD8244938
_publ_section_title
;
Structure prediction by ZEFSAII (Michael W. Deem and Ramdas Pophale) SiO2 
 PCOD8244938
Probable space group: P M M N
;
_chemical_formula_sum "Si O2"
_cell_formula_units_Z 48
_cell_length_a 9.251214
_cell_length_b 8.946504
_cell_length_c 30.832892
_cell_angle_alpha 90.000000
_cell_angle_beta 90.000000
_cell_angle_gamma 90.000000
_cell_volume 2551.915850
_symmetry_space_group_name_H-M "P M M N"
_symmetry_group_IT_number 59
_space_group.IT_coordinate_system_code '2'
_symmetry_cell_setting 'orthorhombic'
loop_
_space_group_symop_operation_xyz
x,y,z
1/2-x,1/2-y,z
1/2+x,-y,-z
-x,1/2+y,-z
-x,-y,-z
1/2+x,1/2+y,-z
1/2-x,y,z
x,1/2-y,z
loop_
_atom_site_type_symbol
_atom_site_label
_atom_site_fract_x
_atom_site_fract_y
_atom_site_fract_z
Si Si1 0.413082 0.072153 0.289542
Si Si2 0.917187 0.421849 0.205995
Si Si3 0.917800 0.573979 0.960365
Si Si4 0.082740 0.924721 0.627058
Si Si5 0.417184 0.424597 0.883258
Si Si6 0.418738 0.076630 0.539103
O O1 0.250000 0.011345 0.289735
O O2 0.418972 0.250000 0.289925
O O3 0.491787 0.013928 0.246271
O O4 0.494076 0.011012 0.332117
O O5 0.750000 0.436510 0.218640
O O6 0.956923 0.250000 0.195392
O O7 0.956982 0.522626 0.164898
O O8 0.750000 0.530372 0.962997
O O9 0.940732 0.750000 0.962948
O O10 0.981943 0.514837 0.915632
O O11 0.000000 0.500000 0.000000
O O12 0.250000 0.959369 0.636048
O O13 0.054789 0.750000 0.620087
O O14 0.026030 0.008110 0.584321
O O15 0.250000 0.460208 0.893891
O O16 0.449918 0.250000 0.887756
O O17 0.250000 0.044707 0.533225
O O18 0.456257 0.250000 0.539048
O O19 0.500000 0.000000 0.500000
#
# Coordination Sequence:
#
# PCOD8244938 Si02
#       6
#     8   8   8   8   8   8
#     4   9  17  29  48  75 103 131 169 217 262 305
#     4   9  17  31  52  76 103 138 177 215 259 311
#     4  11  24  40  59  84 112 143 180 221 266 317
#     4   9  17  31  51  73  99 133 171 210 256 311
#     4  10  21  37  57  82 111 143 181 223 267 316
#     4  10  21  36  54  77 104 135 172 214 261 313
#
# _framework density 18.809397000000001
#
# number of rings (size 3 to 8) (size 9 to 14) (size 15 to 20)
#    0.000    2.333    0.000    2.500    0.000    8.667 
#    0.000    4.167    0.000    5.000    0.000    0.000 
#    0.000    0.000    0.000    0.000    0.000    0.000 
#
# Total GULP energy -595350.996998 kJ/mol
# GULP energy per Si atom -12403.145771 kJ/mol
# Density = 1.876659 g / cm^3
# Si number density = 18.809397 Si / 1000 Ang^3
#
#
#
# Elastic Constant Matrix: (Units=GPa)
#
#
# Indices 1 2 3 4 5 6 
#
# 1 112.1718 53.4651 95.4855 0.0000 0.0000 0.0000
# 2 53.4651 63.7148 56.1055 0.0000 0.0000 0.0000
# 3 95.4855 56.1055 170.2853 0.0000 0.0000 0.0000
# 4 0.0000 0.0000 0.0000 32.9103 0.0000 0.0000
# 5 0.0000 0.0000 0.0000 0.0000 40.5198 0.0000
# 6 0.0000 0.0000 0.0000 0.0000 0.0000 22.2316
#
#
#
# Elastic Compliance Matrix: (Units=1/GPa)
#
#
# Indices 1 2 3 4 5 6 
#
# 1 0.020866 -0.010152 -0.008356 0.000000 0.000000 0.000000
# 2 -0.010152 0.027049 -0.003219 0.000000 0.000000 0.000000
# 3 -0.008356 -0.003219 0.011619 0.000000 0.000000 0.000000
# 4 0.000000 0.000000 0.000000 0.030386 0.000000 0.000000
# 5 0.000000 0.000000 0.000000 0.000000 0.024679 0.000000
# 6 0.000000 0.000000 0.000000 0.000000 0.000000 0.044981
#
#
# Mechanical properties :
#
#
# Convention : Reuss Voigt Hill
#
# Bulk Modulus (GPa) = 62.19066 84.03156 73.11111
# Shear Modulus (GPa) = 23.99307 28.54007 26.26657
#
# Velocity S-wave (km/s) = 3.57541 3.89952 3.74098
# Velocity P-wave (km/s) = 7.08380 8.06519 7.59037
#
# Compressibility (1/GPa) = 0.01607959
#
# Stress axis : x y z
#
# Youngs Moduli (GPa) = 47.92388 36.97052 86.06840
#
# Poissons Ratio (x) = 0.37532 0.71917
# Poissons Ratio (y) = 0.48651 0.27709
# Poissons Ratio (z) = 0.40044 0.11903
#
# Static dielectric constant tensor:
#      x y z
#    x 4.717370 0.000000 0.000000 
#    y 0.000000 3.295160 0.000000 
#    z 0.000000 0.000000 3.654470 
# 
# 
# High freq. dielectric constant tensor:
#      x y z
#    x 1.728450 0.000000 0.000000 
#    y 0.000000 1.714360 0.000000 
#    z 0.000000 0.000000 1.746970 
# 
# From -- ./inp_files/32829.got.cif
#   From: 2010.03.12/outbox.cif.g09.slc.cpg/sg59_17_cif.got.tgz:32829.got - 2010.04.16 16:29:54.
