data_PCOD8244332
_publ_section_title
;
Structure prediction by ZEFSAII (Michael W. Deem and Ramdas Pophale) SiO2 
 PCOD8244332
Probable space group: P M M N
;
_chemical_formula_sum "Si O2"
_cell_formula_units_Z 64
_cell_length_a 8.965469
_cell_length_b 27.339725
_cell_length_c 13.899290
_cell_angle_alpha 90.000000
_cell_angle_beta 90.000000
_cell_angle_gamma 90.000000
_cell_volume 3406.903021
_symmetry_space_group_name_H-M "P M M N"
_symmetry_group_IT_number 59
_space_group.IT_coordinate_system_code '2'
_symmetry_cell_setting 'orthorhombic'
loop_
_space_group_symop_operation_xyz
x,y,z
1/2-x,1/2-y,z
1/2+x,-y,-z
-x,1/2+y,-z
-x,-y,-z
1/2+x,1/2+y,-z
1/2-x,y,z
x,1/2-y,z
loop_
_atom_site_type_symbol
_atom_site_label
_atom_site_fract_x
_atom_site_fract_y
_atom_site_fract_z
Si Si1 0.923519 0.306696 0.334835
Si Si2 0.423370 0.426274 0.629469
Si Si3 0.426070 0.105913 0.418732
Si Si4 0.414503 0.192201 0.145305
Si Si5 0.075598 0.885892 0.192050
Si Si6 0.425743 0.305790 0.933347
Si Si7 0.925217 0.029563 0.282828
Si Si8 0.573892 0.011306 0.898931
O O1 0.750000 0.317128 0.349324
O O2 0.963276 0.250000 0.352142
O O3 0.019061 0.337929 0.411138
O O4 0.968158 0.323391 0.226730
O O5 0.250000 0.415196 0.643714
O O6 0.475914 0.415093 0.521541
O O7 0.511583 0.390701 0.700721
O O8 0.461883 0.482532 0.651595
O O9 0.250000 0.102153 0.404222
O O10 0.509361 0.076538 0.335407
O O11 0.250000 0.170764 0.170829
O O12 0.400791 0.250000 0.137749
O O13 0.467957 0.173915 0.040121
O O14 0.250000 0.879275 0.200668
O O15 0.008757 0.837755 0.145096
O O16 0.032520 0.933245 0.129196
O O17 0.250000 0.310097 0.917617
O O18 0.479334 0.250000 0.919866
O O19 0.750000 0.036270 0.266163
O O20 0.004980 0.025251 0.179826
O O21 0.750000 0.002699 0.904301
O O22 0.500000 0.000000 0.000000
#
# Coordination Sequence:
#
# PCOD8244332 Si02
#       8
#     8   8   8   8   8   8   8   8
#     4  10  21  36  53  76 108 143 177 217 265 314
#     4   9  20  38  58  79 105 139 177 217 266 320
#     4  11  22  36  57  83 107 136 177 221 266 319
#     4   8  15  30  51  73  99 134 174 215 260 308
#     4  10  21  35  54  79 107 140 176 218 267 314
#     4   9  18  33  54  79 106 139 180 221 261 312
#     4  10  20  36  58  83 110 139 174 220 269 316
#     4  10  21  37  55  79 112 148 183 217 260 317
#
# _framework density 18.78539
#
# number of rings (size 3 to 8) (size 9 to 14) (size 15 to 20)
#    0.000    2.375    0.000    3.000    0.000    5.500 
#    0.000    4.375    0.000    0.750    0.000    0.000 
#    0.000    0.000    0.000    0.000    0.000    0.000 
#
# Total GULP energy -793705.122776 kJ/mol
# GULP energy per Si atom -12401.642543 kJ/mol
# Density = 1.874263 g / cm^3
# Si number density = 18.785390 Si / 1000 Ang^3
#
#
#
# Elastic Constant Matrix: (Units=GPa)
#
#
# Indices 1 2 3 4 5 6 
#
# 1 74.9075 37.4364 53.7146 0.0000 0.0000 0.0000
# 2 37.4364 71.9193 53.8139 0.0000 0.0000 0.0000
# 3 53.7146 53.8139 125.5748 0.0000 0.0000 0.0000
# 4 0.0000 0.0000 0.0000 28.6380 0.0000 0.0000
# 5 0.0000 0.0000 0.0000 0.0000 30.0033 0.0000
# 6 0.0000 0.0000 0.0000 0.0000 0.0000 31.2166
#
#
#
# Elastic Compliance Matrix: (Units=1/GPa)
#
#
# Indices 1 2 3 4 5 6 
#
# 1 0.020975 -0.006189 -0.006319 0.000000 0.000000 0.000000
# 2 -0.006189 0.022294 -0.006906 0.000000 0.000000 0.000000
# 3 -0.006319 -0.006906 0.013626 0.000000 0.000000 0.000000
# 4 0.000000 0.000000 0.000000 0.034919 0.000000 0.000000
# 5 0.000000 0.000000 0.000000 0.000000 0.033330 0.000000
# 6 0.000000 0.000000 0.000000 0.000000 0.000000 0.032034
#
#
# Mechanical properties :
#
#
# Convention : Reuss Voigt Hill
#
# Bulk Modulus (GPa) = 55.35782 62.48128 58.91955
# Shear Modulus (GPa) = 24.74888 26.46735 25.60811
#
# Velocity S-wave (km/s) = 3.63361 3.75765 3.69615
# Velocity P-wave (km/s) = 6.86562 7.22214 7.04613
#
# Compressibility (1/GPa) = 0.01806430
#
# Stress axis : x y z
#
# Youngs Moduli (GPa) = 47.67665 44.85513 73.38813
#
# Poissons Ratio (x) = 0.27763 0.46377
# Poissons Ratio (y) = 0.29509 0.50684
# Poissons Ratio (z) = 0.30129 0.30979
#
# Static dielectric constant tensor:
#      x y z
#    x 3.457420 0.000000 0.000000 
#    y 0.000000 3.385960 0.000000 
#    z 0.000000 0.000000 3.527180 
# 
# 
# High freq. dielectric constant tensor:
#      x y z
#    x 1.734470 0.000000 0.000000 
#    y 0.000000 1.720110 0.000000 
#    z 0.000000 0.000000 1.728890 
# 
# From -- ./inp_files/21599.got.cif
#   From: 2010.03.12/outbox.cif.g09.slc.cpg/sg59_11_cif.got.tgz:21599.got - 2010.04.16 16:29:54.
