data_PCOD8244085
_publ_section_title
;
Structure prediction by ZEFSAII (Michael W. Deem and Ramdas Pophale) SiO2 
 PCOD8244085
Probable space group: P M M N
;
_chemical_formula_sum "Si O2"
_cell_formula_units_Z 48
_cell_length_a 15.030126
_cell_length_b 9.061396
_cell_length_c 19.032003
_cell_angle_alpha 90.000000
_cell_angle_beta 90.000000
_cell_angle_gamma 90.000000
_cell_volume 2592.043163
_symmetry_space_group_name_H-M "P M M N"
_symmetry_group_IT_number 59
_space_group.IT_coordinate_system_code '2'
_symmetry_cell_setting 'orthorhombic'
loop_
_space_group_symop_operation_xyz
x,y,z
1/2-x,1/2-y,z
1/2+x,-y,-z
-x,1/2+y,-z
-x,-y,-z
1/2+x,1/2+y,-z
1/2-x,y,z
x,1/2-y,z
loop_
_atom_site_type_symbol
_atom_site_label
_atom_site_fract_x
_atom_site_fract_y
_atom_site_fract_z
Si Si1 0.097063 0.420218 0.321635
Si Si2 0.149756 0.575720 0.180084
Si Si3 0.750000 0.574087 0.418338
Si Si4 0.750000 0.924525 0.576465
Si Si5 0.894008 0.079349 0.326116
Si Si6 0.147894 0.419694 0.816705
Si Si7 0.500831 0.077337 0.925870
O O1 0.117864 0.250000 0.304916
O O2 0.112968 0.510418 0.251604
O O3 0.162156 0.480302 0.382630
O O4 0.996493 0.442520 0.347452
O O5 0.250000 0.521293 0.164948
O O6 0.144794 0.750000 0.188192
O O7 0.087487 0.521548 0.116561
O O8 0.750000 0.750000 0.414253
O O9 0.750000 0.511692 0.497737
O O10 0.662127 0.515108 0.380804
O O11 0.750000 0.750000 0.571294
O O12 0.865512 0.250000 0.330055
O O13 0.876622 0.023998 0.247679
O O14 0.250000 0.442739 0.838881
O O15 0.129197 0.250000 0.794832
O O16 0.087837 0.465657 0.882927
O O17 0.505666 0.250000 0.939437
O O18 0.500000 0.000000 0.000000
#
# Coordination Sequence:
#
# PCOD8244085 Si02
#       7
#     8   8   4   4   8   8   8
#     4  10  20  36  60  86 114 148 189 236 284 338
#     4  10  20  35  57  85 114 146 188 234 281 336
#     4  11  23  39  59  81 114 159 194 229 283 344
#     4   9  20  39  59  83 116 153 192 231 281 342
#     4  11  22  35  57  89 117 144 188 243 289 333
#     4  10  20  36  59  83 109 148 192 231 278 339
#     4  10  22  38  55  81 117 150 187 234 283 337
#
# _framework density 18.518208999999999
#
# number of rings (size 3 to 8) (size 9 to 14) (size 15 to 20)
#    0.000    1.833    3.333    0.750    0.000    3.333 
#    0.000    1.667    0.000    0.000    0.000    0.000 
#    0.000    0.000    0.000    0.000    0.000    0.000 
#
# Total GULP energy -595316.975242 kJ/mol
# GULP energy per Si atom -12402.436984 kJ/mol
# Density = 1.847606 g / cm^3
# Si number density = 18.518209 Si / 1000 Ang^3
#
#
#
# Elastic Constant Matrix: (Units=GPa)
#
#
# Indices 1 2 3 4 5 6 
#
# 1 134.4738 33.6260 62.4265 0.0000 0.0000 0.0000
# 2 33.6260 48.1042 42.1946 0.0000 0.0000 0.0000
# 3 62.4265 42.1946 156.3117 0.0000 0.0000 0.0000
# 4 0.0000 0.0000 0.0000 23.4151 0.0000 0.0000
# 5 0.0000 0.0000 0.0000 0.0000 456.0921 0.0000
# 6 0.0000 0.0000 0.0000 0.0000 0.0000 24.6574
#
#
#
# Elastic Compliance Matrix: (Units=1/GPa)
#
#
# Indices 1 2 3 4 5 6 
#
# 1 0.009816 -0.004485 -0.002709 0.000000 0.000000 0.000000
# 2 -0.004485 0.029286 -0.006114 0.000000 0.000000 0.000000
# 3 -0.002709 -0.006114 0.009130 0.000000 0.000000 0.000000
# 4 0.000000 0.000000 0.000000 0.042708 0.000000 0.000000
# 5 0.000000 0.000000 0.000000 0.000000 0.002193 0.000000
# 6 0.000000 0.000000 0.000000 0.000000 0.000000 0.040556
#
#
# Mechanical properties :
#
#
# Convention : Reuss Voigt Hill
#
# Bulk Modulus (GPa) = 46.26464 68.37598 57.32031
# Shear Modulus (GPa) = 29.84891 114.20909 72.02900
#
# Velocity S-wave (km/s) = 4.01916 7.86180 6.24346
# Velocity P-wave (km/s) = 6.82465 10.92768 9.11016
#
# Compressibility (1/GPa) = 0.02161478
#
# Stress axis : x y z
#
# Youngs Moduli (GPa) = 101.87810 34.14553 109.52798
#
# Poissons Ratio (x) = 0.15313 0.29676
# Poissons Ratio (y) = 0.45690 0.66970
# Poissons Ratio (z) = 0.27604 0.20878
#
# Static dielectric constant tensor:
#      x y z
#    x 4.263730 0.000000 0.000000 
#    y 0.000000 3.326270 0.000000 
#    z 0.000000 0.000000 3.403920 
# 
# 
# High freq. dielectric constant tensor:
#      x y z
#    x 1.739870 0.000000 0.000000 
#    y 0.000000 1.708670 0.000000 
#    z 0.000000 0.000000 1.713040 
# 
# From -- ./inp_files/27465.got.cif
#   From: 2010.03.12/outbox.cif.g09.slc.cpg/sg59_14_cif.got.tgz:27465.got - 2010.04.16 16:29:54.
