data_PCOD8244584
_publ_section_title
;
Structure prediction by ZEFSAII (Michael W. Deem and Ramdas Pophale) SiO2 
 PCOD8244584
Probable space group: P M M N
;
_chemical_formula_sum "Si O2"
_cell_formula_units_Z 64
_cell_length_a 8.966501
_cell_length_b 28.591331
_cell_length_c 12.367932
_cell_angle_alpha 90.000000
_cell_angle_beta 90.000000
_cell_angle_gamma 90.000000
_cell_volume 3170.694968
_symmetry_space_group_name_H-M "P M M N"
_symmetry_group_IT_number 59
_space_group.IT_coordinate_system_code '2'
_symmetry_cell_setting 'orthorhombic'
loop_
_space_group_symop_operation_xyz
x,y,z
1/2-x,1/2-y,z
1/2+x,-y,-z
-x,1/2+y,-z
-x,-y,-z
1/2+x,1/2+y,-z
1/2-x,y,z
x,1/2-y,z
loop_
_atom_site_type_symbol
_atom_site_label
_atom_site_fract_x
_atom_site_fract_y
_atom_site_fract_z
Si Si1 0.915466 0.667794 0.497113
Si Si2 0.916142 0.938945 0.521833
Si Si3 0.921794 0.198403 0.301079
Si Si4 0.423104 0.003535 0.679698
Si Si5 0.427516 0.801551 0.055225
Si Si6 0.571191 0.976163 0.894466
Si Si7 0.571943 0.374167 0.122222
Si Si8 0.582306 0.304196 0.705203
O O1 0.750000 0.687959 0.487079
O O2 0.917856 0.615589 0.540741
O O3 0.000461 0.699506 0.582901
O O4 0.986342 0.667075 0.379191
O O5 0.750000 0.959300 0.545673
O O6 0.033719 0.958623 0.607697
O O7 0.957625 0.951741 0.397013
O O8 0.750000 0.189311 0.323272
O O9 0.946188 0.250000 0.247587
O O10 0.981042 0.156808 0.224564
O O11 0.250000 0.999837 0.712981
O O12 0.520403 0.005845 0.789280
O O13 0.250000 0.799250 0.055742
O O14 0.486487 0.750000 0.017951
O O15 0.486066 0.812438 0.175756
O O16 0.482615 0.843511 0.979733
O O17 0.750000 0.976690 0.903825
O O18 0.513122 0.923218 0.880206
O O19 0.500000 0.000000 0.000000
O O20 0.750000 0.382682 0.121548
O O21 0.750000 0.323501 0.700230
O O22 0.577605 0.250000 0.673816
#
# Coordination Sequence:
#
# PCOD8244584 Si02
#       8
#     8   8   8   8   8   8   8   8
#     4  11  22  34  50  76 111 147 183 225 273 322
#     4   9  20  37  57  83 114 147 182 227 281 333
#     4  10  21  36  56  84 118 155 192 230 273 328
#     4  10  20  38  62  85 110 142 184 230 278 336
#     4   8  15  31  57  86 113 143 183 231 280 336
#     4  12  26  43  61  83 115 152 191 239 295 352
#     4  10  20  37  62  89 114 144 186 234 286 344
#     4   9  18  33  52  74 103 139 177 218 264 315
#
# _framework density 20.184850000000001
#
# number of rings (size 3 to 8) (size 9 to 14) (size 15 to 20)
#    0.000    2.125    0.000    4.125    0.000    8.500 
#    0.000    3.125    0.000    1.875    0.000    0.000 
#    0.000    0.000    0.000    0.000    0.000    0.000 
#
# Total GULP energy -793363.048399 kJ/mol
# GULP energy per Si atom -12396.297631 kJ/mol
# Density = 2.013891 g / cm^3
# Si number density = 20.184850 Si / 1000 Ang^3
#
#
#
# Elastic Constant Matrix: (Units=GPa)
#
#
# Indices 1 2 3 4 5 6 
#
# 1 82.5598 30.0476 44.8079 0.0000 0.0000 0.0000
# 2 30.0476 65.5385 28.8201 0.0000 0.0000 0.0000
# 3 44.8079 28.8201 125.6253 0.0000 0.0000 0.0000
# 4 0.0000 0.0000 0.0000 27.0410 0.0000 0.0000
# 5 0.0000 0.0000 0.0000 0.0000 17.0913 0.0000
# 6 0.0000 0.0000 0.0000 0.0000 0.0000 21.6720
#
#
#
# Elastic Compliance Matrix: (Units=1/GPa)
#
#
# Indices 1 2 3 4 5 6 
#
# 1 0.016682 -0.005596 -0.004666 0.000000 0.000000 0.000000
# 2 -0.005596 0.018848 -0.002328 0.000000 0.000000 0.000000
# 3 -0.004666 -0.002328 0.010159 0.000000 0.000000 0.000000
# 4 0.000000 0.000000 0.000000 0.036981 0.000000 0.000000
# 5 0.000000 0.000000 0.000000 0.000000 0.058509 0.000000
# 6 0.000000 0.000000 0.000000 0.000000 0.000000 0.046142
#
#
# Mechanical properties :
#
#
# Convention : Reuss Voigt Hill
#
# Bulk Modulus (GPa) = 48.76288 53.45274 51.10781
# Shear Modulus (GPa) = 22.79605 24.49741 23.64673
#
# Velocity S-wave (km/s) = 3.36425 3.48753 3.42644
# Velocity P-wave (km/s) = 6.26909 6.53883 6.40538
#
# Compressibility (1/GPa) = 0.02050740
#
# Stress axis : x y z
#
# Youngs Moduli (GPa) = 59.94621 53.05732 98.43936
#
# Poissons Ratio (x) = 0.29692 0.45933
# Poissons Ratio (y) = 0.33547 0.22915
# Poissons Ratio (z) = 0.27972 0.12351
#
# Static dielectric constant tensor:
#      x y z
#    x 3.551310 0.000000 0.000000 
#    y 0.000000 3.631090 0.000000 
#    z 0.000000 0.000000 3.836970 
# 
# 
# High freq. dielectric constant tensor:
#      x y z
#    x 1.768560 0.000000 0.000000 
#    y 0.000000 1.784810 0.000000 
#    z 0.000000 0.000000 1.798140 
# 
# From -- ./inp_files/14993.got.cif
#   From: 2010.03.12/outbox.cif.g09.slc.cpg/sg59_8_cif.got.tgz:14993.got - 2010.04.16 16:29:54.
