data_PCOD8244593
_publ_section_title
;
Structure prediction by ZEFSAII (Michael W. Deem and Ramdas Pophale) SiO2 
 PCOD8244593
Probable space group: P M M N
;
_chemical_formula_sum "Si O2"
_cell_formula_units_Z 48
_cell_length_a 8.810915
_cell_length_b 15.024204
_cell_length_c 18.955870
_cell_angle_alpha 90.000000
_cell_angle_beta 90.000000
_cell_angle_gamma 90.000000
_cell_volume 2509.320907
_symmetry_space_group_name_H-M "P M M N"
_symmetry_group_IT_number 59
_space_group.IT_coordinate_system_code '2'
_symmetry_cell_setting 'orthorhombic'
loop_
_space_group_symop_operation_xyz
x,y,z
1/2-x,1/2-y,z
1/2+x,-y,-z
-x,1/2+y,-z
-x,-y,-z
1/2+x,1/2+y,-z
1/2-x,y,z
x,1/2-y,z
loop_
_atom_site_type_symbol
_atom_site_label
_atom_site_fract_x
_atom_site_fract_y
_atom_site_fract_z
Si Si1 0.426873 0.853082 0.328537
Si Si2 0.426371 0.585766 0.173265
Si Si3 0.929149 0.401315 0.167108
Si Si4 0.571937 0.750000 0.924360
Si Si5 0.570651 0.996809 0.423520
Si Si6 0.425173 0.750000 0.073084
Si Si7 0.930284 0.150794 0.321771
O O1 0.250000 0.871771 0.341338
O O2 0.465475 0.750000 0.338478
O O3 0.476752 0.883116 0.250801
O O4 0.524081 0.905785 0.385813
O O5 0.250000 0.559900 0.172275
O O6 0.525452 0.501941 0.149430
O O7 0.462740 0.663861 0.119155
O O8 0.750000 0.389535 0.162529
O O9 0.991763 0.375424 0.244536
O O10 0.003323 0.338244 0.109554
O O11 0.750000 0.750000 0.912793
O O12 0.534650 0.750000 0.006655
O O13 0.750000 0.001459 0.430125
O O14 0.500000 0.000000 0.500000
O O15 0.506512 0.080912 0.378938
O O16 0.250000 0.750000 0.048842
O O17 0.750000 0.147468 0.320584
O O18 0.987887 0.250000 0.341411
#
# Coordination Sequence:
#
# PCOD8244593 Si02
#       7
#     8   8   8   4   8   4   8
#     4  10  20  37  62  90 120 158 200 248 303 359
#     4  10  20  37  63  93 122 155 202 251 297 355
#     4  11  21  38  64  91 119 157 200 247 304 364
#     4  12  26  42  60  90 125 158 199 254 305 355
#     4  11  23  39  59  88 123 160 200 250 302 357
#     4  10  22  42  64  88 123 166 201 244 301 357
#     4   9  18  35  60  86 112 149 198 242 288 353
#
# _framework density 19.128682000000001
#
# number of rings (size 3 to 8) (size 9 to 14) (size 15 to 20)
#    0.000    1.667    3.333    1.750    0.000    2.333 
#    0.000    1.667    0.000    0.000    0.000    0.000 
#    0.000    0.000    0.000    0.000    0.000    0.000 
#
# Total GULP energy -595400.352143 kJ/mol
# GULP energy per Si atom -12404.174003 kJ/mol
# Density = 1.908514 g / cm^3
# Si number density = 19.128682 Si / 1000 Ang^3
#
#
#
# Elastic Constant Matrix: (Units=GPa)
#
#
# Indices 1 2 3 4 5 6 
#
# 1 70.6765 47.3830 47.6998 0.0000 0.0000 0.0000
# 2 47.3830 154.1969 65.7111 0.0000 0.0000 0.0000
# 3 47.6998 65.7111 141.1153 0.0000 0.0000 0.0000
# 4 0.0000 0.0000 0.0000 32.3867 0.0000 0.0000
# 5 0.0000 0.0000 0.0000 0.0000 30.1502 0.0000
# 6 0.0000 0.0000 0.0000 0.0000 0.0000 31.8751
#
#
#
# Elastic Compliance Matrix: (Units=1/GPa)
#
#
# Indices 1 2 3 4 5 6 
#
# 1 0.020232 -0.004120 -0.004920 0.000000 0.000000 0.000000
# 2 -0.004120 0.008930 -0.002765 0.000000 0.000000 0.000000
# 3 -0.004920 -0.002765 0.010037 0.000000 0.000000 0.000000
# 4 0.000000 0.000000 0.000000 0.030877 0.000000 0.000000
# 5 0.000000 0.000000 0.000000 0.000000 0.033167 0.000000
# 6 0.000000 0.000000 0.000000 0.000000 0.000000 0.031372
#
#
# Mechanical properties :
#
#
# Convention : Reuss Voigt Hill
#
# Bulk Modulus (GPa) = 64.15536 76.39739 70.27638
# Shear Modulus (GPa) = 30.59537 32.56205 31.57871
#
# Velocity S-wave (km/s) = 4.00365 4.13032 4.06748
# Velocity P-wave (km/s) = 7.41512 7.92285 7.67318
#
# Compressibility (1/GPa) = 0.01558716
#
# Stress axis : x y z
#
# Youngs Moduli (GPa) = 49.42672 111.98394 99.62857
#
# Poissons Ratio (x) = 0.46141 0.49019
# Poissons Ratio (y) = 0.20365 0.27552
# Poissons Ratio (z) = 0.24319 0.30969
#
# Static dielectric constant tensor:
#      x y z
#    x 3.309350 0.000000 0.000000 
#    y 0.000000 3.497000 0.000000 
#    z 0.000000 0.000000 3.520690 
# 
# 
# High freq. dielectric constant tensor:
#      x y z
#    x 1.727340 0.000000 0.000000 
#    y 0.000000 1.761090 0.000000 
#    z 0.000000 0.000000 1.745840 
# 
# From -- ./inp_files/25550.got.cif
#   From: 2010.03.12/outbox.cif.g09.slc.cpg/sg59_13_cif.got.tgz:25550.got - 2010.04.16 16:29:54.
