data_PCOD8244786
_publ_section_title
;
Structure prediction by ZEFSAII (Michael W. Deem and Ramdas Pophale) SiO2 
 PCOD8244786
Probable space group: P M M N
;
_chemical_formula_sum "Si O2"
_cell_formula_units_Z 64
_cell_length_a 9.549838
_cell_length_b 14.804937
_cell_length_c 23.743177
_cell_angle_alpha 90.000000
_cell_angle_beta 90.000000
_cell_angle_gamma 90.000000
_cell_volume 3356.923143
_symmetry_space_group_name_H-M "P M M N"
_symmetry_group_IT_number 59
_space_group.IT_coordinate_system_code '2'
_symmetry_cell_setting 'orthorhombic'
loop_
_space_group_symop_operation_xyz
x,y,z
1/2-x,1/2-y,z
1/2+x,-y,-z
-x,1/2+y,-z
-x,-y,-z
1/2+x,1/2+y,-z
1/2-x,y,z
x,1/2-y,z
loop_
_atom_site_type_symbol
_atom_site_label
_atom_site_fract_x
_atom_site_fract_y
_atom_site_fract_z
Si Si1 0.583624 0.849569 0.952325
Si Si2 0.096364 0.143099 0.561314
Si Si3 0.085643 0.354528 0.687687
Si Si4 0.587350 0.990046 0.737770
Si Si5 0.095400 0.857375 0.536441
Si Si6 0.588989 0.999004 0.867084
Si Si7 0.589249 0.644980 0.078863
Si Si8 0.413377 0.644430 0.662600
O O1 0.750000 0.845219 0.949867
O O2 0.523409 0.750000 0.937548
O O3 0.524943 0.921044 0.907302
O O4 0.537297 0.877125 0.015415
O O5 0.250000 0.101008 0.553163
O O6 0.103959 0.250000 0.554801
O O7 0.041511 0.119753 0.623760
O O8 0.000634 0.099814 0.512545
O O9 0.250000 0.374950 0.697250
O O10 0.053789 0.250000 0.700703
O O11 0.989452 0.414521 0.727931
O O12 0.750000 0.996874 0.719709
O O13 0.573240 0.965977 0.803285
O O14 0.511660 0.910325 0.704376
O O15 0.250000 0.895917 0.526147
O O16 0.097139 0.750000 0.532098
O O17 0.044361 0.884753 0.598960
O O18 0.750000 0.018506 0.882215
O O19 0.503510 0.090506 0.876751
O O20 0.750000 0.616181 0.086702
O O21 0.569729 0.750000 0.092428
O O22 0.250000 0.622008 0.673468
O O23 0.441936 0.750000 0.672311
#
# Coordination Sequence:
#
# PCOD8244786 Si02
#       8
#     8   8   8   8   8   8   8   8
#     4   8  15  31  55  80 106 136 169 206 252 307
#     4   8  14  26  47  75 101 125 160 208 262 318
#     4   9  19  37  58  76  99 137 180 220 266 318
#     4  11  24  37  51  77 108 139 181 225 261 305
#     4   8  14  26  47  75 102 128 161 203 257 318
#     4  10  21  35  52  76 106 140 174 212 259 303
#     4   9  18  33  55  82 107 134 171 210 250 303
#     4   9  19  37  58  77 102 139 178 216 261 313
#
# _framework density 19.065079000000001
#
# number of rings (size 3 to 8) (size 9 to 14) (size 15 to 20)
#    0.000    3.000    0.000    3.000    0.000    3.750 
#    0.000    6.875    0.000    1.125    0.000    0.000 
#    0.000    0.000    0.000    0.000    0.000    0.000 
#
# Total GULP energy -793380.360622 kJ/mol
# GULP energy per Si atom -12396.568135 kJ/mol
# Density = 1.902169 g / cm^3
# Si number density = 19.065079 Si / 1000 Ang^3
#
#
#
# Elastic Constant Matrix: (Units=GPa)
#
#
# Indices 1 2 3 4 5 6 
#
# 1 72.1400 30.9614 37.3853 0.0000 0.0000 0.0000
# 2 30.9614 52.8125 18.5762 0.0000 0.0000 0.0000
# 3 37.3853 18.5762 71.1381 0.0000 0.0000 0.0000
# 4 0.0000 0.0000 0.0000 244.5736 0.0000 0.0000
# 5 0.0000 0.0000 0.0000 0.0000 30.1946 0.0000
# 6 0.0000 0.0000 0.0000 0.0000 0.0000 25.0080
#
#
#
# Elastic Compliance Matrix: (Units=1/GPa)
#
#
# Indices 1 2 3 4 5 6 
#
# 1 0.023190 -0.010250 -0.009510 0.000000 0.000000 0.000000
# 2 -0.010250 0.025380 -0.001241 0.000000 0.000000 0.000000
# 3 -0.009510 -0.001241 0.019379 0.000000 0.000000 0.000000
# 4 0.000000 0.000000 0.000000 0.004089 0.000000 0.000000
# 5 0.000000 0.000000 0.000000 0.000000 0.033118 0.000000
# 6 0.000000 0.000000 0.000000 0.000000 0.000000 0.039987
#
#
# Mechanical properties :
#
#
# Convention : Reuss Voigt Hill
#
# Bulk Modulus (GPa) = 38.54012 41.10405 39.82208
# Shear Modulus (GPa) = 25.53697 67.23309 46.38503
#
# Velocity S-wave (km/s) = 3.66384 5.94488 4.93788
# Velocity P-wave (km/s) = 6.17715 8.29028 7.31047
#
# Compressibility (1/GPa) = 0.02594699
#
# Stress axis : x y z
#
# Youngs Moduli (GPa) = 43.12290 39.40056 51.60170
#
# Poissons Ratio (x) = 0.40385 0.49075
# Poissons Ratio (y) = 0.44200 0.06404
# Poissons Ratio (z) = 0.41011 0.04889
#
# Static dielectric constant tensor:
#      x y z
#    x 3.468150 0.000000 0.000000 
#    y 0.000000 3.393990 0.000000 
#    z 0.000000 0.000000 3.530620 
# 
# 
# High freq. dielectric constant tensor:
#      x y z
#    x 1.721740 0.000000 0.000000 
#    y 0.000000 1.737320 0.000000 
#    z 0.000000 0.000000 1.740310 
# 
# From -- ./inp_files/31604.got.cif
#   From: 2010.03.12/outbox.cif.g09.slc.cpg/sg59_16_cif.got.tgz:31604.got - 2010.04.16 16:29:54.
