data_PCOD8244642
_publ_section_title
;
Structure prediction by ZEFSAII (Michael W. Deem and Ramdas Pophale) SiO2 
 PCOD8244642
Probable space group: P M M N
;
_chemical_formula_sum "Si O2"
_cell_formula_units_Z 48
_cell_length_a 23.214588
_cell_length_b 13.485566
_cell_length_c 7.688765
_cell_angle_alpha 90.000000
_cell_angle_beta 90.000000
_cell_angle_gamma 90.000000
_cell_volume 2407.059062
_symmetry_space_group_name_H-M "P M M N"
_symmetry_group_IT_number 59
_space_group.IT_coordinate_system_code '2'
_symmetry_cell_setting 'orthorhombic'
loop_
_space_group_symop_operation_xyz
x,y,z
1/2-x,1/2-y,z
1/2+x,-y,-z
-x,1/2+y,-z
-x,-y,-z
1/2+x,1/2+y,-z
1/2-x,y,z
x,1/2-y,z
loop_
_atom_site_type_symbol
_atom_site_label
_atom_site_fract_x
_atom_site_fract_y
_atom_site_fract_z
Si Si1 0.585670 0.858170 0.769158
Si Si2 0.141993 0.865721 0.602381
Si Si3 0.686199 0.011501 0.110353
Si Si4 0.904199 0.640401 0.168025
Si Si5 0.317730 0.996995 0.287984
Si Si6 0.024769 0.527093 0.681940
O O1 0.577187 0.750000 0.679790
O O2 0.525931 0.917307 0.782171
O O3 0.638241 0.912676 0.667716
O O4 0.603273 0.842207 0.965652
O O5 0.141373 0.750000 0.570038
O O6 0.182132 0.890695 0.769143
O O7 0.166949 0.910857 0.423389
O O8 0.078506 0.901027 0.655294
O O9 0.750000 0.969451 0.104177
O O10 0.650912 0.926885 0.215684
O O11 0.667109 0.036601 0.911201
O O12 0.905205 0.750000 0.258679
O O13 0.960266 0.576217 0.220381
O O14 0.250000 0.026950 0.306218
O O15 0.000000 0.500000 0.500000
#
# Coordination Sequence:
#
# PCOD8244642 Si02
#       6
#     8   8   8   8   8   8
#     4  10  20  38  60  85 115 150 191 236 288 345
#     4  11  23  39  59  85 115 153 197 238 287 342
#     4   9  20  38  59  84 118 153 192 240 290 342
#     4   9  20  36  59  86 114 150 191 236 288 345
#     4  10  21  39  60  86 117 151 192 240 288 341
#     4  11  21  38  58  82 118 151 188 237 287 342
#
# _framework density 19.941347
#
# number of rings (size 3 to 8) (size 9 to 14) (size 15 to 20)
#    0.000    2.000    1.667    1.500    0.000    4.000 
#    0.000    5.000    0.000    2.000    0.000    0.000 
#    0.000    0.000    0.000    0.000    0.000    0.000 
#
# Total GULP energy -594723.765676 kJ/mol
# GULP energy per Si atom -12390.078452 kJ/mol
# Density = 1.989596 g / cm^3
# Si number density = 19.941347 Si / 1000 Ang^3
#
#
#
# Elastic Constant Matrix: (Units=GPa)
#
#
# Indices 1 2 3 4 5 6 
#
# 1 121.4986 57.6774 18.9406 0.0000 0.0000 0.0000
# 2 57.6774 151.9795 37.5838 0.0000 0.0000 0.0000
# 3 18.9406 37.5838 68.3104 0.0000 0.0000 0.0000
# 4 0.0000 0.0000 0.0000 24.0129 0.0000 0.0000
# 5 0.0000 0.0000 0.0000 0.0000 29.8428 0.0000
# 6 0.0000 0.0000 0.0000 0.0000 0.0000 17.0376
#
#
#
# Elastic Compliance Matrix: (Units=1/GPa)
#
#
# Indices 1 2 3 4 5 6 
#
# 1 0.010077 -0.003627 -0.000799 0.000000 0.000000 0.000000
# 2 -0.003627 0.008921 -0.003903 0.000000 0.000000 0.000000
# 3 -0.000799 -0.003903 0.017008 0.000000 0.000000 0.000000
# 4 0.000000 0.000000 0.000000 0.041644 0.000000 0.000000
# 5 0.000000 0.000000 0.000000 0.000000 0.033509 0.000000
# 6 0.000000 0.000000 0.000000 0.000000 0.000000 0.058694
#
#
# Mechanical properties :
#
#
# Convention : Reuss Voigt Hill
#
# Bulk Modulus (GPa) = 51.68088 63.35467 57.51778
# Shear Modulus (GPa) = 25.91224 29.35111 27.63167
#
# Velocity S-wave (km/s) = 3.60866 3.84066 3.72647
# Velocity P-wave (km/s) = 6.58301 7.17684 6.88633
#
# Compressibility (1/GPa) = 0.01934952
#
# Stress axis : x y z
#
# Youngs Moduli (GPa) = 99.23890 112.09065 58.79649
#
# Poissons Ratio (x) = 0.40652 0.04696
# Poissons Ratio (y) = 0.35991 0.22947
# Poissons Ratio (z) = 0.07925 0.43747
#
# Static dielectric constant tensor:
#      x y z
#    x 3.518910 0.000000 0.000000 
#    y 0.000000 3.988250 0.000000 
#    z 0.000000 0.000000 3.657440 
# 
# 
# High freq. dielectric constant tensor:
#      x y z
#    x 1.784850 0.000000 0.000000 
#    y 0.000000 1.767970 0.000000 
#    z 0.000000 0.000000 1.781980 
# 
# From -- ./inp_files/12026.got.cif
#   From: 2010.03.12/outbox.cif.g09.slc.cpg/sg59_7_cif.got.tgz:12026.got - 2010.04.16 16:29:54.
