data_PCOD8244383
_publ_section_title
;
Structure prediction by ZEFSAII (Michael W. Deem and Ramdas Pophale) SiO2 
 PCOD8244383
Probable space group: P M M N
;
_chemical_formula_sum "Si O2"
_cell_formula_units_Z 48
_cell_length_a 8.737685
_cell_length_b 17.604051
_cell_length_c 15.996228
_cell_angle_alpha 90.000000
_cell_angle_beta 90.000000
_cell_angle_gamma 90.000000
_cell_volume 2460.518234
_symmetry_space_group_name_H-M "P M M N"
_symmetry_group_IT_number 59
_space_group.IT_coordinate_system_code '2'
_symmetry_cell_setting 'orthorhombic'
loop_
_space_group_symop_operation_xyz
x,y,z
1/2-x,1/2-y,z
1/2+x,-y,-z
-x,1/2+y,-z
-x,-y,-z
1/2+x,1/2+y,-z
1/2-x,y,z
x,1/2-y,z
loop_
_atom_site_type_symbol
_atom_site_label
_atom_site_fract_x
_atom_site_fract_y
_atom_site_fract_z
Si Si1 0.426861 0.250000 0.110703
Si Si2 0.568095 0.893231 0.598385
Si Si3 0.577829 0.385858 0.022866
Si Si4 0.576053 0.538590 0.124185
Si Si5 0.068807 0.459932 0.684090
Si Si6 0.931254 0.338113 0.571852
Si Si7 0.068252 0.250000 0.295063
O O1 0.250000 0.250000 0.128767
O O2 0.466745 0.322861 0.057537
O O3 0.506255 0.250000 0.202324
O O4 0.750000 0.892387 0.586339
O O5 0.487929 0.881787 0.509920
O O6 0.509895 0.825505 0.658317
O O7 0.517005 0.973345 0.635357
O O8 0.750000 0.354894 0.021459
O O9 0.559637 0.455967 0.084824
O O10 0.530341 0.404525 0.928017
O O11 0.750000 0.567876 0.118704
O O12 0.519363 0.535771 0.219224
O O13 0.250000 0.469196 0.672618
O O14 0.012380 0.378543 0.650348
O O15 0.750000 0.346005 0.579885
O O16 0.982206 0.250000 0.569911
O O17 0.250000 0.250000 0.293242
#
# Coordination Sequence:
#
# PCOD8244383 Si02
#       7
#     4   8   8   8   8   8   4
#     4  11  21  35  55  84 119 152 189 231 286 347
#     4  11  21  38  62  88 120 154 195 241 293 348
#     4  10  20  36  59  85 116 151 191 238 289 341
#     4   9  20  39  60  84 114 152 194 237 287 344
#     4  11  23  39  61  89 118 153 198 241 289 349
#     4  11  24  42  61  84 116 155 198 245 297 346
#     4   9  20  35  57  88 119 154 193 239 290 345
#
# _framework density 19.508085000000001
#
# number of rings (size 3 to 8) (size 9 to 14) (size 15 to 20)
#    0.000    1.667    0.833    3.750    0.000    3.000 
#    1.500    2.500    0.000    0.000    0.000    0.000 
#    0.000    0.000    0.000    0.000    0.000    0.000 
#
# Total GULP energy -595378.618692 kJ/mol
# GULP energy per Si atom -12403.721223 kJ/mol
# Density = 1.946368 g / cm^3
# Si number density = 19.508085 Si / 1000 Ang^3
#
#
#
# Elastic Constant Matrix: (Units=GPa)
#
#
# Indices 1 2 3 4 5 6 
#
# 1 48.8807 17.2763 24.9786 0.0000 0.0000 0.0000
# 2 17.2763 63.3777 47.8259 0.0000 0.0000 0.0000
# 3 24.9786 47.8259 131.3960 0.0000 0.0000 0.0000
# 4 0.0000 0.0000 0.0000 22.5225 0.0000 0.0000
# 5 0.0000 0.0000 0.0000 0.0000 28.5267 0.0000
# 6 0.0000 0.0000 0.0000 0.0000 0.0000 -33.2979
#
#
#
# Elastic Compliance Matrix: (Units=1/GPa)
#
#
# Indices 1 2 3 4 5 6 
#
# 1 0.023433 -0.004172 -0.002936 0.000000 0.000000 0.000000
# 2 -0.004172 0.022496 -0.007395 0.000000 0.000000 0.000000
# 3 -0.002936 -0.007395 0.010860 0.000000 0.000000 0.000000
# 4 0.000000 0.000000 0.000000 0.044400 0.000000 0.000000
# 5 0.000000 0.000000 0.000000 0.000000 0.035055 0.000000
# 6 0.000000 0.000000 0.000000 0.000000 0.000000 -0.030032
#
#
# Mechanical properties :
#
#
# Convention : Reuss Voigt Hill
#
# Bulk Modulus (GPa) = 35.99317 47.09068 41.54192
# Shear Modulus (GPa) = 34.60686 13.78849 24.19767
#
# Velocity S-wave (km/s) = 4.21643 2.66147 3.52574
# Velocity P-wave (km/s) = 6.49575 5.79966 6.15755
#
# Compressibility (1/GPa) = 0.02778305
#
# Stress axis : x y z
#
# Youngs Moduli (GPa) = 42.67502 44.45207 92.07741
#
# Poissons Ratio (x) = 0.18545 0.27035
# Poissons Ratio (y) = 0.17804 0.68092
# Poissons Ratio (z) = 0.12530 0.32873
#
# Static dielectric constant tensor:
#      x y z
#    x 3.539550 0.000000 0.000000 
#    y 0.000000 5.947520 0.000000 
#    z 0.000000 0.000000 3.731440 
# 
# 
# High freq. dielectric constant tensor:
#      x y z
#    x 1.760430 0.000000 0.000000 
#    y 0.000000 1.761170 0.000000 
#    z 0.000000 0.000000 1.770170 
# 
# From -- ./inp_files/20594.got.cif
#   From: 2010.03.12/outbox.cif.g09.slc.cpg/sg59_11_cif.got.tgz:20594.got - 2010.04.16 16:29:54.
