data_PCOD8244299
_publ_section_title
;
Structure prediction by ZEFSAII (Michael W. Deem and Ramdas Pophale) SiO2 
 PCOD8244299
Probable space group: P M M N
;
_chemical_formula_sum "Si O2"
_cell_formula_units_Z 48
_cell_length_a 8.516273
_cell_length_b 16.020830
_cell_length_c 17.413389
_cell_angle_alpha 90.000000
_cell_angle_beta 90.000000
_cell_angle_gamma 90.000000
_cell_volume 2375.843823
_symmetry_space_group_name_H-M "P M M N"
_symmetry_group_IT_number 59
_space_group.IT_coordinate_system_code '2'
_symmetry_cell_setting 'orthorhombic'
loop_
_space_group_symop_operation_xyz
x,y,z
1/2-x,1/2-y,z
1/2+x,-y,-z
-x,1/2+y,-z
-x,-y,-z
1/2+x,1/2+y,-z
1/2-x,y,z
x,1/2-y,z
loop_
_atom_site_type_symbol
_atom_site_label
_atom_site_fract_x
_atom_site_fract_y
_atom_site_fract_z
Si Si1 0.565399 0.383134 0.652819
Si Si2 0.567499 0.750000 0.234795
Si Si3 0.564494 0.590218 0.978560
Si Si4 0.434785 0.072194 0.333405
Si Si5 0.433787 0.750000 0.067116
Si Si6 0.065385 0.407512 0.498973
Si Si7 0.563232 0.657235 0.817268
O O1 0.750000 0.371026 0.665122
O O2 0.473707 0.331077 0.715971
O O3 0.503393 0.477460 0.662632
O O4 0.519934 0.353803 0.565728
O O5 0.750000 0.750000 0.213497
O O6 0.467922 0.750000 0.157299
O O7 0.750000 0.589934 0.986789
O O8 0.510100 0.604536 0.890958
O O9 0.500000 0.500000 0.000000
O O10 0.502577 0.665294 0.031190
O O11 0.250000 0.066467 0.322228
O O12 0.472291 0.124298 0.411891
O O13 0.511079 0.117327 0.259832
O O14 0.250000 0.750000 0.052683
O O15 0.250000 0.406514 0.515005
O O16 0.000000 0.500000 0.500000
O O17 0.750000 0.660210 0.811356
O O18 0.494718 0.750000 0.826137
#
# Coordination Sequence:
#
# PCOD8244299 Si02
#       7
#     8   4   8   8   4   8   8
#     4  10  20  36  57  82 117 158 201 245 300 367
#     4  12  26  42  60  87 120 151 198 255 308 367
#     4  11  23  41  66  97 127 163 209 258 315 381
#     4   8  16  30  53  84 115 154 202 243 289 355
#     4  12  26  46  68  91 126 167 206 259 320 381
#     4   9  16  30  52  80 114 153 201 251 297 349
#     4   9  17  33  57  86 120 153 193 248 300 354
#
# _framework density 20.20335
#
# number of rings (size 3 to 8) (size 9 to 14) (size 15 to 20)
#    0.000    2.167    0.833    4.000    2.333    0.000 
#    1.500    0.000    0.000    3.000    0.000    0.000 
#    0.000    0.000    0.000    0.000    0.000    0.000 
#
# Total GULP energy -594897.654953 kJ/mol
# GULP energy per Si atom -12393.701145 kJ/mol
# Density = 2.015737 g / cm^3
# Si number density = 20.203350 Si / 1000 Ang^3
#
#
#
# Elastic Constant Matrix: (Units=GPa)
#
#
# Indices 1 2 3 4 5 6 
#
# 1 59.8380 24.3914 25.3961 0.0000 0.0000 0.0000
# 2 24.3914 122.7268 72.9557 0.0000 0.0000 0.0000
# 3 25.3961 72.9557 179.9769 0.0000 0.0000 0.0000
# 4 0.0000 0.0000 0.0000 33.1921 0.0000 0.0000
# 5 0.0000 0.0000 0.0000 0.0000 28.8565 0.0000
# 6 0.0000 0.0000 0.0000 0.0000 0.0000 26.7072
#
#
#
# Elastic Compliance Matrix: (Units=1/GPa)
#
#
# Indices 1 2 3 4 5 6 
#
# 1 0.018477 -0.002796 -0.001474 0.000000 0.000000 0.000000
# 2 -0.002796 0.011158 -0.004129 0.000000 0.000000 0.000000
# 3 -0.001474 -0.004129 0.007438 0.000000 0.000000 0.000000
# 4 0.000000 0.000000 0.000000 0.030128 0.000000 0.000000
# 5 0.000000 0.000000 0.000000 0.000000 0.034654 0.000000
# 6 0.000000 0.000000 0.000000 0.000000 0.000000 0.037443
#
#
# Mechanical properties :
#
#
# Convention : Reuss Voigt Hill
#
# Bulk Modulus (GPa) = 49.31926 67.55870 58.43898
# Shear Modulus (GPa) = 30.70246 33.73775 32.22010
#
# Velocity S-wave (km/s) = 3.90253 4.09088 3.99781
# Velocity P-wave (km/s) = 6.69109 7.47166 7.09212
#
# Compressibility (1/GPa) = 0.02027605
#
# Stress axis : x y z
#
# Youngs Moduli (GPa) = 54.12121 89.62089 134.44875
#
# Poissons Ratio (x) = 0.25059 0.19815
# Poissons Ratio (y) = 0.15133 0.55507
# Poissons Ratio (z) = 0.07976 0.37000
#
# Static dielectric constant tensor:
#      x y z
#    x 3.471160 0.000000 0.000000 
#    y 0.000000 3.654980 0.000000 
#    z 0.000000 0.000000 4.288880 
# 
# 
# High freq. dielectric constant tensor:
#      x y z
#    x 1.765690 0.000000 0.000000 
#    y 0.000000 1.776990 0.000000 
#    z 0.000000 0.000000 1.813060 
# 
# From -- ./inp_files/25557.got.cif
#   From: 2010.03.12/outbox.cif.g09.slc.cpg/sg59_13_cif.got.tgz:25557.got - 2010.04.16 16:29:54.
