data_PCOD8244257
_publ_section_title
;
Structure prediction by ZEFSAII (Michael W. Deem and Ramdas Pophale) SiO2 
 PCOD8244257
Probable space group: P M M N
;
_chemical_formula_sum "Si O2"
_cell_formula_units_Z 64
_cell_length_a 30.871528
_cell_length_b 9.075613
_cell_length_c 12.035230
_cell_angle_alpha 90.000000
_cell_angle_beta 90.000000
_cell_angle_gamma 90.000000
_cell_volume 3372.007163
_symmetry_space_group_name_H-M "P M M N"
_symmetry_group_IT_number 59
_space_group.IT_coordinate_system_code '2'
_symmetry_cell_setting 'orthorhombic'
loop_
_space_group_symop_operation_xyz
x,y,z
1/2-x,1/2-y,z
1/2+x,-y,-z
-x,1/2+y,-z
-x,-y,-z
1/2+x,1/2+y,-z
1/2-x,y,z
x,1/2-y,z
loop_
_atom_site_type_symbol
_atom_site_label
_atom_site_fract_x
_atom_site_fract_y
_atom_site_fract_z
Si Si1 0.638570 0.921280 0.092262
Si Si2 0.121350 0.080431 0.385931
Si Si3 0.563164 0.917546 0.261445
Si Si4 0.602349 0.918139 0.859622
Si Si5 0.016450 0.582433 0.107468
Si Si6 0.453090 0.925983 0.516514
Si Si7 0.699287 0.415988 0.244157
Si Si8 0.798927 0.576673 0.466646
O O1 0.649739 0.750000 0.101419
O O2 0.597081 0.963296 0.166604
O O3 0.679228 0.013585 0.134081
O O4 0.630773 0.968854 0.964837
O O5 0.111100 0.250000 0.417757
O O6 0.129211 0.064173 0.253951
O O7 0.166813 0.028061 0.439607
O O8 0.080783 0.981090 0.423581
O O9 0.571532 0.750000 0.302124
O O10 0.515835 0.933458 0.210145
O O11 0.567015 0.027522 0.364961
O O12 0.587131 0.750000 0.878991
O O13 0.560717 0.018386 0.847545
O O14 0.022803 0.750000 0.071636
O O15 0.000000 0.500000 0.000000
O O16 0.457986 0.750000 0.508988
O O17 0.500000 0.000000 0.500000
O O18 0.750000 0.424065 0.227316
O O19 0.682728 0.250000 0.258747
O O20 0.684537 0.505393 0.352535
O O21 0.750000 0.522640 0.497933
O O22 0.799018 0.750000 0.448645
#
# Coordination Sequence:
#
# PCOD8244257 Si02
#       8
#     8   8   8   8   8   8   8   8
#     4  10  20  36  56  80 110 142 179 222 270 325
#     4  10  21  38  60  84 115 151 188 235 286 336
#     4  10  21  37  56  80 111 143 180 228 276 323
#     4  10  21  38  56  80 112 148 188 229 273 326
#     4  11  21  35  55  79 109 146 186 230 275 324
#     4  12  25  39  56  80 112 149 191 235 282 338
#     4  10  21  36  55  82 113 142 177 225 276 328
#     4   9  18  35  60  88 115 146 184 227 282 342
#
# _framework density 18.979793999999998
#
# number of rings (size 3 to 8) (size 9 to 14) (size 15 to 20)
#    0.000    1.750    1.250    3.375    0.000    8.750 
#    0.000    0.625    0.000    2.250    0.000    1.750 
#    0.000    0.000    0.000    0.000    0.000    0.000 
#
# Total GULP energy -793763.470175 kJ/mol
# GULP energy per Si atom -12402.554221 kJ/mol
# Density = 1.893660 g / cm^3
# Si number density = 18.979794 Si / 1000 Ang^3
#
#
#
# Elastic Constant Matrix: (Units=GPa)
#
#
# Indices 1 2 3 4 5 6 
#
# 1 78.4485 39.0012 51.7536 0.0000 0.0000 0.0000
# 2 39.0012 78.2218 43.6241 0.0000 0.0000 0.0000
# 3 51.7536 43.6241 131.2446 0.0000 0.0000 0.0000
# 4 0.0000 0.0000 0.0000 22.8343 0.0000 0.0000
# 5 0.0000 0.0000 0.0000 0.0000 30.3907 0.0000
# 6 0.0000 0.0000 0.0000 0.0000 0.0000 29.0322
#
#
#
# Elastic Compliance Matrix: (Units=1/GPa)
#
#
# Indices 1 2 3 4 5 6 
#
# 1 0.019769 -0.006763 -0.005548 0.000000 0.000000 0.000000
# 2 -0.006763 0.018007 -0.003318 0.000000 0.000000 0.000000
# 3 -0.005548 -0.003318 0.010910 0.000000 0.000000 0.000000
# 4 0.000000 0.000000 0.000000 0.043794 0.000000 0.000000
# 5 0.000000 0.000000 0.000000 0.000000 0.032905 0.000000
# 6 0.000000 0.000000 0.000000 0.000000 0.000000 0.034445
#
#
# Mechanical properties :
#
#
# Convention : Reuss Voigt Hill
#
# Bulk Modulus (GPa) = 57.37907 61.85253 59.61580
# Shear Modulus (GPa) = 25.39400 26.68718 26.04059
#
# Velocity S-wave (km/s) = 3.66177 3.75385 3.70809
# Velocity P-wave (km/s) = 6.94085 7.17272 7.05773
#
# Compressibility (1/GPa) = 0.01742796
#
# Stress axis : x y z
#
# Youngs Moduli (GPa) = 50.58321 55.53440 91.65929
#
# Poissons Ratio (x) = 0.37558 0.50850
# Poissons Ratio (y) = 0.34210 0.30416
# Poissons Ratio (z) = 0.28062 0.18428
#
# Static dielectric constant tensor:
#      x y z
#    x 3.604310 0.000000 0.000000 
#    y 0.000000 3.626630 0.000000 
#    z 0.000000 0.000000 3.555400 
# 
# 
# High freq. dielectric constant tensor:
#      x y z
#    x 1.732320 0.000000 0.000000 
#    y 0.000000 1.734450 0.000000 
#    z 0.000000 0.000000 1.742270 
# 
# From -- ./inp_files/19228.got.cif
#   From: 2010.03.12/outbox.cif.g09.slc.cpg/sg59_10_cif.got.tgz:19228.got - 2010.04.16 16:29:54.
