data_PCOD8244563
_publ_section_title
;
Structure prediction by ZEFSAII (Michael W. Deem and Ramdas Pophale) SiO2 
 PCOD8244563
Probable space group: P M M N
;
_chemical_formula_sum "Si O2"
_cell_formula_units_Z 56
_cell_length_a 14.885051
_cell_length_b 8.653352
_cell_length_c 21.845977
_cell_angle_alpha 90.000000
_cell_angle_beta 90.000000
_cell_angle_gamma 90.000000
_cell_volume 2813.883866
_symmetry_space_group_name_H-M "P M M N"
_symmetry_group_IT_number 59
_space_group.IT_coordinate_system_code '2'
_symmetry_cell_setting 'orthorhombic'
loop_
_space_group_symop_operation_xyz
x,y,z
1/2-x,1/2-y,z
1/2+x,-y,-z
-x,1/2+y,-z
-x,-y,-z
1/2+x,1/2+y,-z
1/2-x,y,z
x,1/2-y,z
loop_
_atom_site_type_symbol
_atom_site_label
_atom_site_fract_x
_atom_site_fract_y
_atom_site_fract_z
Si Si1 0.932735 0.569468 0.665599
Si Si2 0.149664 0.074144 0.872419
Si Si3 0.056036 0.932885 0.555538
Si Si4 0.514734 0.071098 0.791345
Si Si5 0.750000 0.066422 0.480996
Si Si6 0.350025 0.424800 0.117818
Si Si7 0.598137 0.431237 0.003415
Si Si8 0.250000 0.932369 0.380478
O O1 0.915863 0.750000 0.658206
O O2 0.968654 0.534240 0.732818
O O3 0.838270 0.486545 0.655039
O O4 0.008845 0.511164 0.618050
O O5 0.250000 0.057919 0.845828
O O6 0.128803 0.250000 0.893220
O O7 0.082451 0.025642 0.818263
O O8 0.140282 0.963269 0.930518
O O9 0.055061 0.750000 0.549497
O O10 0.159614 0.993548 0.553208
O O11 0.000000 0.000000 0.500000
O O12 0.520177 0.250000 0.772508
O O13 0.588281 0.037634 0.842961
O O14 0.750000 0.250000 0.482565
O O15 0.750000 0.001163 0.550400
O O16 0.250000 0.427449 0.145746
O O17 0.388743 0.250000 0.119083
O O18 0.343553 0.485556 0.048532
O O19 0.596888 0.250000 0.990942
O O20 0.500000 0.500000 0.000000
O O21 0.250000 0.750000 0.381373
#
# Coordination Sequence:
#
# PCOD8244563 Si02
#       8
#     8   8   8   8   4   8   8   4
#     4  11  24  40  60  89 127 162 199 252 307 359
#     4  10  22  42  66  90 118 156 202 255 311 363
#     4  10  20  37  61  88 120 157 197 246 299 352
#     4  11  24  42  64  87 119 163 207 248 296 361
#     4   9  18  35  61  91 121 155 198 245 298 355
#     4  11  24  41  62  89 123 158 195 247 307 361
#     4  12  23  37  61  91 123 158 199 250 306 365
#     4  11  21  37  65  93 121 161 204 243 292 367
#
# _framework density 19.901316999999999
#
# number of rings (size 3 to 8) (size 9 to 14) (size 15 to 20)
#    0.000    1.286    2.857    3.214    1.000    4.286 
#    1.286    0.357    0.000    0.000    0.000    0.000 
#    0.000    0.000    0.000    0.000    0.000    0.000 
#
# Total GULP energy -694579.041901 kJ/mol
# GULP energy per Si atom -12403.197177 kJ/mol
# Density = 1.985602 g / cm^3
# Si number density = 19.901317 Si / 1000 Ang^3
#
#
#
# Elastic Constant Matrix: (Units=GPa)
#
#
# Indices 1 2 3 4 5 6 
#
# 1 160.9918 26.4957 59.6966 0.0000 0.0000 0.0000
# 2 26.4957 55.5563 19.2266 0.0000 0.0000 0.0000
# 3 59.6966 19.2266 109.6316 0.0000 0.0000 0.0000
# 4 0.0000 0.0000 0.0000 30.1316 0.0000 0.0000
# 5 0.0000 0.0000 0.0000 0.0000 15.0076 0.0000
# 6 0.0000 0.0000 0.0000 0.0000 0.0000 21.7949
#
#
#
# Elastic Compliance Matrix: (Units=1/GPa)
#
#
# Indices 1 2 3 4 5 6 
#
# 1 0.008093 -0.002485 -0.003971 0.000000 0.000000 0.000000
# 2 -0.002485 0.019926 -0.002141 0.000000 0.000000 0.000000
# 3 -0.003971 -0.002141 0.011659 0.000000 0.000000 0.000000
# 4 0.000000 0.000000 0.000000 0.033188 0.000000 0.000000
# 5 0.000000 0.000000 0.000000 0.000000 0.066633 0.000000
# 6 0.000000 0.000000 0.000000 0.000000 0.000000 0.045882
#
#
# Mechanical properties :
#
#
# Convention : Reuss Voigt Hill
#
# Bulk Modulus (GPa) = 44.47752 59.66862 52.07307
# Shear Modulus (GPa) = 23.80153 28.10421 25.95287
#
# Velocity S-wave (km/s) = 3.46204 3.76197 3.61512
# Velocity P-wave (km/s) = 6.19504 6.99409 6.60666
#
# Compressibility (1/GPa) = 0.02248327
#
# Stress axis : x y z
#
# Youngs Moduli (GPa) = 123.56391 50.18539 85.76917
#
# Poissons Ratio (x) = 0.12473 0.34058
# Poissons Ratio (y) = 0.30711 0.18365
# Poissons Ratio (z) = 0.49066 0.10746
#
# Static dielectric constant tensor:
#      x y z
#    x 3.891570 0.000000 0.000000 
#    y 0.000000 3.591740 0.000000 
#    z 0.000000 0.000000 3.646000 
# 
# 
# High freq. dielectric constant tensor:
#      x y z
#    x 1.792050 0.000000 0.000000 
#    y 0.000000 1.773430 0.000000 
#    z 0.000000 0.000000 1.766670 
# 
# From -- ./inp_files/30426.got.cif
#   From: 2010.03.12/outbox.cif.g09.slc.cpg/sg59_16_cif.got.tgz:30426.got - 2010.04.16 16:29:54.
