data_PCOD8244074
_publ_section_title
;
Structure prediction by ZEFSAII (Michael W. Deem and Ramdas Pophale) SiO2 
 PCOD8244074
Probable space group: P M M N
;
_chemical_formula_sum "Si O2"
_cell_formula_units_Z 64
_cell_length_a 23.155090
_cell_length_b 8.618504
_cell_length_c 15.899281
_cell_angle_alpha 90.000000
_cell_angle_beta 90.000000
_cell_angle_gamma 90.000000
_cell_volume 3172.896064
_symmetry_space_group_name_H-M "P M M N"
_symmetry_group_IT_number 59
_space_group.IT_coordinate_system_code '2'
_symmetry_cell_setting 'orthorhombic'
loop_
_space_group_symop_operation_xyz
x,y,z
1/2-x,1/2-y,z
1/2+x,-y,-z
-x,1/2+y,-z
-x,-y,-z
1/2+x,1/2+y,-z
1/2-x,y,z
x,1/2-y,z
loop_
_atom_site_type_symbol
_atom_site_label
_atom_site_fract_x
_atom_site_fract_y
_atom_site_fract_z
Si Si1 0.683660 0.076055 0.006815
Si Si2 0.524766 0.930016 0.612775
Si Si3 0.183324 0.565996 0.665749
Si Si4 0.410936 0.068695 0.552643
Si Si5 0.815559 0.572179 0.832229
Si Si6 0.002445 0.433915 0.093705
Si Si7 0.421478 0.928342 0.228542
Si Si8 0.119113 0.567002 0.831998
O O1 0.750000 0.086730 0.031076
O O2 0.660058 0.250000 0.985624
O O3 0.652292 0.000963 0.086928
O O4 0.672410 0.962500 0.929653
O O5 0.509695 0.750000 0.600817
O O6 0.570808 0.984658 0.541705
O O7 0.464929 0.023753 0.611226
O O8 0.551498 0.959305 0.702848
O O9 0.250000 0.504091 0.664462
O O10 0.184285 0.750000 0.668039
O O11 0.148386 0.513221 0.582362
O O12 0.147764 0.497978 0.746598
O O13 0.399379 0.250000 0.557384
O O14 0.750000 0.535410 0.808323
O O15 0.831791 0.750000 0.814819
O O16 0.852966 0.459770 0.772893
O O17 0.011235 0.250000 0.089350
O O18 0.056090 0.518898 0.137206
O O19 0.947676 0.477587 0.153122
O O20 0.000000 0.500000 0.000000
O O21 0.434907 0.750000 0.248706
O O22 0.127449 0.750000 0.828558
#
# Coordination Sequence:
#
# PCOD8244074 Si02
#       8
#     8   8   8   8   8   8   8   8
#     4   9  16  29  51  76 103 138 183 231 274 320
#     4  10  21  39  63  88 114 146 185 232 286 344
#     4  10  20  35  57  84 116 156 199 241 288 347
#     4  10  21  38  61  88 116 146 183 230 286 347
#     4  10  21  37  56  78 106 140 179 226 281 336
#     4  11  22  36  55  81 117 159 199 242 294 346
#     4  12  24  38  58  84 113 145 186 232 279 336
#     4   9  18  32  51  76 107 147 192 234 277 328
#
# _framework density 20.170847999999999
#
# number of rings (size 3 to 8) (size 9 to 14) (size 15 to 20)
#    0.000    1.875    0.000    4.500    0.000    6.000 
#    0.000    2.500    0.000    2.250    0.000    0.000 
#    0.000    0.000    0.000    0.000    0.000    0.000 
#
# Total GULP energy -793526.844100 kJ/mol
# GULP energy per Si atom -12398.856939 kJ/mol
# Density = 2.012494 g / cm^3
# Si number density = 20.170848 Si / 1000 Ang^3
#
#
#
# Elastic Constant Matrix: (Units=GPa)
#
#
# Indices 1 2 3 4 5 6 
#
# 1 114.1048 29.4956 41.2309 0.0000 0.0000 0.0000
# 2 29.4956 48.8513 16.6154 0.0000 0.0000 0.0000
# 3 41.2309 16.6154 70.3968 0.0000 0.0000 0.0000
# 4 0.0000 0.0000 0.0000 29.3217 0.0000 0.0000
# 5 0.0000 0.0000 0.0000 0.0000 35.5748 0.0000
# 6 0.0000 0.0000 0.0000 0.0000 0.0000 28.2653
#
#
#
# Elastic Compliance Matrix: (Units=1/GPa)
#
#
# Indices 1 2 3 4 5 6 
#
# 1 0.012306 -0.005413 -0.005930 0.000000 0.000000 0.000000
# 2 -0.005413 0.024638 -0.002645 0.000000 0.000000 0.000000
# 3 -0.005930 -0.002645 0.018302 0.000000 0.000000 0.000000
# 4 0.000000 0.000000 0.000000 0.034104 0.000000 0.000000
# 5 0.000000 0.000000 0.000000 0.000000 0.028110 0.000000
# 6 0.000000 0.000000 0.000000 0.000000 0.000000 0.035379
#
#
# Mechanical properties :
#
#
# Convention : Reuss Voigt Hill
#
# Bulk Modulus (GPa) = 36.66896 45.33740 41.00318
# Shear Modulus (GPa) = 26.32887 28.36643 27.34765
#
# Velocity S-wave (km/s) = 3.61680 3.75415 3.68611
# Velocity P-wave (km/s) = 5.97163 6.42783 6.20392
#
# Compressibility (1/GPa) = 0.02727102
#
# Stress axis : x y z
#
# Youngs Moduli (GPa) = 81.26216 40.58735 54.63754
#
# Poissons Ratio (x) = 0.21971 0.32399
# Poissons Ratio (y) = 0.43989 0.14450
# Poissons Ratio (z) = 0.48187 0.10734
#
# Static dielectric constant tensor:
#      x y z
#    x 3.890040 0.000000 0.000000 
#    y 0.000000 3.443600 0.000000 
#    z 0.000000 0.000000 3.634930 
# 
# 
# High freq. dielectric constant tensor:
#      x y z
#    x 1.795610 0.000000 0.000000 
#    y 0.000000 1.772230 0.000000 
#    z 0.000000 0.000000 1.780040 
# 
# From -- ./inp_files/24770.got.cif
#   From: 2010.03.12/outbox.cif.g09.slc.cpg/sg59_13_cif.got.tgz:24770.got - 2010.04.16 16:29:54.
