data_PCOD8244441
_publ_section_title
;
Structure prediction by ZEFSAII (Michael W. Deem and Ramdas Pophale) SiO2 
 PCOD8244441
Probable space group: P M M N
;
_chemical_formula_sum "Si O2"
_cell_formula_units_Z 48
_cell_length_a 8.836060
_cell_length_b 18.845352
_cell_length_c 15.022636
_cell_angle_alpha 90.000000
_cell_angle_beta 90.000000
_cell_angle_gamma 90.000000
_cell_volume 2501.549231
_symmetry_space_group_name_H-M "P M M N"
_symmetry_group_IT_number 59
_space_group.IT_coordinate_system_code '2'
_symmetry_cell_setting 'orthorhombic'
loop_
_space_group_symop_operation_xyz
x,y,z
1/2-x,1/2-y,z
1/2+x,-y,-z
-x,1/2+y,-z
-x,-y,-z
1/2+x,1/2+y,-z
1/2-x,y,z
x,1/2-y,z
loop_
_atom_site_type_symbol
_atom_site_label
_atom_site_fract_x
_atom_site_fract_y
_atom_site_fract_z
Si Si1 0.574931 0.833036 0.881522
Si Si2 0.426268 0.927401 0.528947
Si Si3 0.925631 0.167563 0.634860
Si Si4 0.926926 0.418087 0.271510
Si Si5 0.073717 0.077372 0.785634
Si Si6 0.928392 0.073906 0.971437
O O1 0.750000 0.850978 0.898285
O O2 0.543839 0.750000 0.878420
O O3 0.524645 0.865358 0.787759
O O4 0.476613 0.864933 0.961020
O O5 0.250000 0.942936 0.531759
O O6 0.469189 0.865105 0.460764
O O7 0.479855 0.904486 0.627238
O O8 0.500000 0.000000 0.500000
O O9 0.750000 0.153705 0.657157
O O10 0.964592 0.250000 0.630541
O O11 0.028058 0.132543 0.709970
O O12 0.750000 0.402119 0.257073
O O13 0.966617 0.498516 0.245769
O O14 0.250000 0.085671 0.806690
O O15 0.980760 0.096482 0.873651
O O16 0.750000 0.065107 0.974162
O O17 0.000000 0.000000 0.000000
#
# Coordination Sequence:
#
# PCOD8244441 Si02
#       6
#     8   8   8   8   8   8
#     4  11  25  43  63  91 126 161 200 249 303 360
#     4  10  20  36  60  89 119 156 203 251 298 357
#     4  10  22  39  59  87 123 162 203 250 305 360
#     4  10  21  37  61  91 121 159 204 248 300 362
#     4  11  22  38  62  92 122 157 202 250 300 360
#     4  12  24  40  65  93 121 159 203 250 301 361
#
# _framework density 19.188109000000001
#
# number of rings (size 3 to 8) (size 9 to 14) (size 15 to 20)
#    0.000    1.333    3.333    2.500    0.000    4.333 
#    0.000    1.667    0.000    0.000    0.000    0.000 
#    0.000    0.000    0.000    0.000    0.000    0.000 
#
# Total GULP energy -595471.223773 kJ/mol
# GULP energy per Si atom -12405.650495 kJ/mol
# Density = 1.914444 g / cm^3
# Si number density = 19.188109 Si / 1000 Ang^3
#
#
#
# Elastic Constant Matrix: (Units=GPa)
#
#
# Indices 1 2 3 4 5 6 
#
# 1 102.1514 63.0641 66.2160 0.0000 0.0000 0.0000
# 2 63.0641 121.4303 65.5639 0.0000 0.0000 0.0000
# 3 66.2160 65.5639 170.6032 0.0000 0.0000 0.0000
# 4 0.0000 0.0000 0.0000 35.1807 0.0000 0.0000
# 5 0.0000 0.0000 0.0000 0.0000 34.1241 0.0000
# 6 0.0000 0.0000 0.0000 0.0000 0.0000 27.3874
#
#
#
# Elastic Compliance Matrix: (Units=1/GPa)
#
#
# Indices 1 2 3 4 5 6 
#
# 1 0.016195 -0.006331 -0.003853 0.000000 0.000000 0.000000
# 2 -0.006331 0.012866 -0.002487 0.000000 0.000000 0.000000
# 3 -0.003853 -0.002487 0.008313 0.000000 0.000000 0.000000
# 4 0.000000 0.000000 0.000000 0.028425 0.000000 0.000000
# 5 0.000000 0.000000 0.000000 0.000000 0.029305 0.000000
# 6 0.000000 0.000000 0.000000 0.000000 0.000000 0.036513
#
#
# Mechanical properties :
#
#
# Convention : Reuss Voigt Hill
#
# Bulk Modulus (GPa) = 83.11001 87.09700 85.10350
# Shear Modulus (GPa) = 31.06187 32.62784 31.84486
#
# Velocity S-wave (km/s) = 4.02781 4.12809 4.07826
# Velocity P-wave (km/s) = 8.06463 8.25900 8.16240
#
# Compressibility (1/GPa) = 0.01203225
#
# Stress axis : x y z
#
# Youngs Moduli (GPa) = 61.74695 77.72473 120.29488
#
# Poissons Ratio (x) = 0.49204 0.46349
# Poissons Ratio (y) = 0.39089 0.29922
# Poissons Ratio (z) = 0.23791 0.19333
#
# Static dielectric constant tensor:
#      x y z
#    x 2.833560 0.000000 0.000000 
#    y 0.000000 3.458800 0.000000 
#    z 0.000000 0.000000 3.858440 
# 
# 
# High freq. dielectric constant tensor:
#      x y z
#    x 1.749410 0.000000 0.000000 
#    y 0.000000 1.743520 0.000000 
#    z 0.000000 0.000000 1.765560 
# 
# From -- ./inp_files/20314.got.cif
#   From: 2010.03.12/outbox.cif.g09.slc.cpg/sg59_11_cif.got.tgz:20314.got - 2010.04.16 16:29:54.
