data_PCOD8244582
_publ_section_title
;
Structure prediction by ZEFSAII (Michael W. Deem and Ramdas Pophale) SiO2 
 PCOD8244582
Probable space group: P M M N
;
_chemical_formula_sum "Si O2"
_cell_formula_units_Z 64
_cell_length_a 30.871322
_cell_length_b 8.718841
_cell_length_c 11.973578
_cell_angle_alpha 90.000000
_cell_angle_beta 90.000000
_cell_angle_gamma 90.000000
_cell_volume 3222.833973
_symmetry_space_group_name_H-M "P M M N"
_symmetry_group_IT_number 59
_space_group.IT_coordinate_system_code '2'
_symmetry_cell_setting 'orthorhombic'
loop_
_space_group_symop_operation_xyz
x,y,z
1/2-x,1/2-y,z
1/2+x,-y,-z
-x,1/2+y,-z
-x,-y,-z
1/2+x,1/2+y,-z
1/2-x,y,z
x,1/2-y,z
loop_
_atom_site_type_symbol
_atom_site_label
_atom_site_fract_x
_atom_site_fract_y
_atom_site_fract_z
Si Si1 0.453140 0.570687 0.484452
Si Si2 0.045751 0.429144 0.025628
Si Si3 0.828368 0.426659 0.747987
Si Si4 0.625053 0.567629 0.119755
Si Si5 0.376987 0.069177 0.627753
Si Si6 0.701201 0.426386 0.502605
Si Si7 0.798129 0.926279 0.964261
Si Si8 0.080929 0.072759 0.265864
O O1 0.500000 0.500000 0.500000
O O2 0.455991 0.750000 0.504892
O O3 0.419052 0.503625 0.571868
O O4 0.437807 0.537689 0.359703
O O5 0.043078 0.250000 0.005162
O O6 0.056444 0.468770 0.152699
O O7 0.082706 0.497962 0.943927
O O8 0.000000 0.500000 0.000000
O O9 0.843301 0.250000 0.757033
O O10 0.801819 0.455056 0.634885
O O11 0.798812 0.471608 0.852694
O O12 0.868831 0.540233 0.750576
O O13 0.624526 0.750000 0.120253
O O14 0.626014 0.504892 0.246071
O O15 0.667879 0.509232 0.055116
O O16 0.383233 0.250000 0.625680
O O17 0.332989 0.029765 0.562926
O O18 0.750000 0.469932 0.464948
O O19 0.690756 0.250000 0.474591
O O20 0.750000 0.939799 0.016108
O O21 0.809190 0.750000 0.933707
O O22 0.074497 0.250000 0.300116
#
# Coordination Sequence:
#
# PCOD8244582 Si02
#       8
#     8   8   8   8   8   8   8   8
#     4  12  26  44  65  92 126 162 203 250 305 363
#     4  10  22  40  62  89 123 157 196 246 299 355
#     4  11  21  36  60  90 124 161 198 247 304 362
#     4   9  20  40  60  85 120 158 199 250 303 353
#     4  11  23  40  64  91 121 160 208 256 304 365
#     4  10  22  40  60  85 122 164 203 250 309 364
#     4  10  20  37  62  88 118 158 202 249 301 357
#     4  11  22  40  66  94 123 157 200 252 302 356
#
# _framework density 19.858298999999999
#
# number of rings (size 3 to 8) (size 9 to 14) (size 15 to 20)
#    0.000    1.500    2.500    2.625    1.750    3.000 
#    0.000    3.125    0.000    0.000    0.000    0.000 
#    0.000    0.000    0.000    0.000    0.000    0.000 
#
# Total GULP energy -793777.596127 kJ/mol
# GULP energy per Si atom -12402.774939 kJ/mol
# Density = 1.981310 g / cm^3
# Si number density = 19.858299 Si / 1000 Ang^3
#
#
#
# Elastic Constant Matrix: (Units=GPa)
#
#
# Indices 1 2 3 4 5 6 
#
# 1 157.2088 34.3067 66.4815 0.0000 0.0000 0.0000
# 2 34.3067 62.3139 45.0214 0.0000 0.0000 0.0000
# 3 66.4815 45.0214 137.8596 0.0000 0.0000 0.0000
# 4 0.0000 0.0000 0.0000 12.9700 0.0000 0.0000
# 5 0.0000 0.0000 0.0000 0.0000 49.1669 0.0000
# 6 0.0000 0.0000 0.0000 0.0000 0.0000 30.6337
#
#
#
# Elastic Compliance Matrix: (Units=1/GPa)
#
#
# Indices 1 2 3 4 5 6 
#
# 1 0.008209 -0.002172 -0.003250 0.000000 0.000000 0.000000
# 2 -0.002172 0.021578 -0.006000 0.000000 0.000000 0.000000
# 3 -0.003250 -0.006000 0.010780 0.000000 0.000000 0.000000
# 4 0.000000 0.000000 0.000000 0.077101 0.000000 0.000000
# 5 0.000000 0.000000 0.000000 0.000000 0.020339 0.000000
# 6 0.000000 0.000000 0.000000 0.000000 0.000000 0.032644
#
#
# Mechanical properties :
#
#
# Convention : Reuss Voigt Hill
#
# Bulk Modulus (GPa) = 56.41538 72.11129 64.26333
# Shear Modulus (GPa) = 25.07511 32.65897 28.86704
#
# Velocity S-wave (km/s) = 3.55731 4.05977 3.81681
# Velocity P-wave (km/s) = 6.73374 7.63985 7.20106
#
# Compressibility (1/GPa) = 0.01772566
#
# Stress axis : x y z
#
# Youngs Moduli (GPa) = 121.81658 46.34334 92.76353
#
# Poissons Ratio (x) = 0.10065 0.30144
# Poissons Ratio (y) = 0.26455 0.55654
# Poissons Ratio (z) = 0.39584 0.27804
#
# Static dielectric constant tensor:
#      x y z
#    x 3.585830 0.000000 0.000000 
#    y 0.000000 3.570140 0.000000 
#    z 0.000000 0.000000 3.427380 
# 
# 
# High freq. dielectric constant tensor:
#      x y z
#    x 1.788170 0.000000 0.000000 
#    y 0.000000 1.762030 0.000000 
#    z 0.000000 0.000000 1.779650 
# 
# From -- ./inp_files/19397.got.cif
#   From: 2010.03.12/outbox.cif.g09.slc.cpg/sg59_10_cif.got.tgz:19397.got - 2010.04.16 16:29:54.
