data_PCOD8244006
_publ_section_title
;
Structure prediction by ZEFSAII (Michael W. Deem and Ramdas Pophale) SiO2 
 PCOD8244006
Probable space group: P M M N
;
_chemical_formula_sum "Si O2"
_cell_formula_units_Z 64
_cell_length_a 18.811152
_cell_length_b 15.117134
_cell_length_c 11.742961
_cell_angle_alpha 90.000000
_cell_angle_beta 90.000000
_cell_angle_gamma 90.000000
_cell_volume 3339.354104
_symmetry_space_group_name_H-M "P M M N"
_symmetry_group_IT_number 59
_space_group.IT_coordinate_system_code '2'
_symmetry_cell_setting 'orthorhombic'
loop_
_space_group_symop_operation_xyz
x,y,z
1/2-x,1/2-y,z
1/2+x,-y,-z
-x,1/2+y,-z
-x,-y,-z
1/2+x,1/2+y,-z
1/2-x,y,z
x,1/2-y,z
loop_
_atom_site_type_symbol
_atom_site_label
_atom_site_fract_x
_atom_site_fract_y
_atom_site_fract_z
Si Si1 0.087368 0.085099 0.677242
Si Si2 0.916994 0.998205 0.971116
Si Si3 0.956559 0.849515 0.554403
Si Si4 0.671733 0.410735 0.332936
Si Si5 0.433962 0.515044 0.287635
Si Si6 0.610285 0.347658 0.546786
Si Si7 0.332993 0.351547 0.893361
Si Si8 0.831368 0.349152 0.087973
O O1 0.091158 0.138018 0.558656
O O2 0.134293 0.138325 0.767702
O O3 0.007232 0.070161 0.721719
O O4 0.116509 0.988614 0.654951
O O5 0.903430 0.997053 0.836821
O O6 0.883778 0.086438 0.022654
O O7 0.877564 0.912531 0.021071
O O8 0.000000 0.000000 0.000000
O O9 0.944512 0.750000 0.601925
O O10 0.037027 0.866105 0.518509
O O11 0.938254 0.920121 0.651371
O O12 0.750000 0.451129 0.317951
O O13 0.669857 0.353223 0.448557
O O14 0.652646 0.352007 0.222970
O O15 0.378823 0.578500 0.355599
O O16 0.612325 0.250000 0.602707
O O17 0.250000 0.379986 0.892348
O O18 0.341015 0.250000 0.932442
O O19 0.750000 0.376185 0.062394
O O20 0.846821 0.250000 0.045360
#
# Coordination Sequence:
#
# PCOD8244006 Si02
#       8
#     8   8   8   8   8   8   8   8
#     4  11  18  38  62  89 117 151 191 248 303 359
#     4  12  24  40  60  89 123 162 204 252 301 356
#     4  10  20  35  60  87 116 150 185 236 297 357
#     4  11  19  33  60  88 117 152 192 242 296 352
#     4  11  21  38  59  85 121 153 197 239 296 360
#     4  10  20  35  56  86 119 150 184 231 293 353
#     4  11  24  42  65  91 120 158 206 259 311 358
#     4  10  22  40  62  87 117 159 207 255 304 353
#
# _framework density 19.165382000000001
#
# number of rings (size 3 to 8) (size 9 to 14) (size 15 to 20)
#    0.000    1.250    5.000    2.250    0.000    2.750 
#    0.000    1.250    0.000    0.000    0.000    0.000 
#    0.000    0.000    0.000    0.000    0.000    0.000 
#
# Total GULP energy -793537.867363 kJ/mol
# GULP energy per Si atom -12399.029178 kJ/mol
# Density = 1.912176 g / cm^3
# Si number density = 19.165382 Si / 1000 Ang^3
#
#
#
# Elastic Constant Matrix: (Units=GPa)
#
#
# Indices 1 2 3 4 5 6 
#
# 1 81.2146 42.9086 44.6029 0.0000 0.0000 0.0000
# 2 42.9086 127.8952 56.2384 0.0000 0.0000 0.0000
# 3 44.6029 56.2384 139.4590 0.0000 0.0000 0.0000
# 4 0.0000 0.0000 0.0000 20.5091 0.0000 0.0000
# 5 0.0000 0.0000 0.0000 0.0000 27.0540 0.0000
# 6 0.0000 0.0000 0.0000 0.0000 0.0000 21.2113
#
#
#
# Elastic Compliance Matrix: (Units=1/GPa)
#
#
# Indices 1 2 3 4 5 6 
#
# 1 0.016381 -0.003880 -0.003674 0.000000 0.000000 0.000000
# 2 -0.003880 0.010423 -0.002962 0.000000 0.000000 0.000000
# 3 -0.003674 -0.002962 0.009540 0.000000 0.000000 0.000000
# 4 0.000000 0.000000 0.000000 0.048759 0.000000 0.000000
# 5 0.000000 0.000000 0.000000 0.000000 0.036963 0.000000
# 6 0.000000 0.000000 0.000000 0.000000 0.000000 0.047145
#
#
# Mechanical properties :
#
#
# Convention : Reuss Voigt Hill
#
# Bulk Modulus (GPa) = 65.31271 70.67428 67.99349
# Shear Modulus (GPa) = 25.59524 27.40945 26.50235
#
# Velocity S-wave (km/s) = 3.65840 3.78584 3.72267
# Velocity P-wave (km/s) = 7.21094 7.48774 7.35064
#
# Compressibility (1/GPa) = 0.01531096
#
# Stress axis : x y z
#
# Youngs Moduli (GPa) = 61.04621 95.93922 104.81798
#
# Poissons Ratio (x) = 0.37225 0.38515
# Poissons Ratio (y) = 0.23686 0.31051
# Poissons Ratio (z) = 0.22431 0.28420
#
# Static dielectric constant tensor:
#      x y z
#    x 3.454080 0.000000 0.000000 
#    y 0.000000 3.543900 0.000000 
#    z 0.000000 0.000000 3.531650 
# 
# 
# High freq. dielectric constant tensor:
#      x y z
#    x 1.730600 0.000000 0.000000 
#    y 0.000000 1.756310 0.000000 
#    z 0.000000 0.000000 1.738670 
# 
# From -- ./inp_files/17845.got.cif
#   From: 2010.03.12/outbox.cif.g09.slc.cpg/sg59_9_cif.got.tgz:17845.got - 2010.04.16 16:29:54.
