data_PCOD8244132
_publ_section_title
;
Structure prediction by ZEFSAII (Michael W. Deem and Ramdas Pophale) SiO2 
 PCOD8244132
Probable space group: P M M N
;
_chemical_formula_sum "Si O2"
_cell_formula_units_Z 48
_cell_length_a 8.872788
_cell_length_b 14.994414
_cell_length_c 18.986733
_cell_angle_alpha 90.000000
_cell_angle_beta 90.000000
_cell_angle_gamma 90.000000
_cell_volume 2526.037804
_symmetry_space_group_name_H-M "P M M N"
_symmetry_group_IT_number 59
_space_group.IT_coordinate_system_code '2'
_symmetry_cell_setting 'orthorhombic'
loop_
_space_group_symop_operation_xyz
x,y,z
1/2-x,1/2-y,z
1/2+x,-y,-z
-x,1/2+y,-z
-x,-y,-z
1/2+x,1/2+y,-z
1/2-x,y,z
x,1/2-y,z
loop_
_atom_site_type_symbol
_atom_site_label
_atom_site_fract_x
_atom_site_fract_y
_atom_site_fract_z
Si Si1 0.571656 0.110770 0.165857
Si Si2 0.071086 0.250000 0.426093
Si Si3 0.572815 0.908794 0.478279
Si Si4 0.429463 0.250000 0.266071
Si Si5 0.572949 0.250000 0.051539
Si Si6 0.926276 0.424447 0.813157
Si Si7 0.929733 0.250000 0.894606
Si Si8 0.421345 0.852867 0.337967
O O1 0.750000 0.115197 0.177362
O O2 0.492897 0.160178 0.231167
O O3 0.523144 0.161667 0.094214
O O4 0.517182 0.009724 0.159633
O O5 0.250000 0.250000 0.428082
O O6 0.008500 0.164133 0.467336
O O7 0.012600 0.250000 0.346377
O O8 0.750000 0.917446 0.484387
O O9 0.533300 0.882467 0.398877
O O10 0.500000 0.000000 0.500000
O O11 0.250000 0.250000 0.260748
O O12 0.750000 0.250000 0.041915
O O13 0.501154 0.250000 0.973624
O O14 0.750000 0.439414 0.827776
O O15 0.988171 0.338592 0.855294
O O16 0.957790 0.411473 0.730522
O O17 0.750000 0.250000 0.892978
O O18 0.250000 0.869290 0.362970
O O19 0.446537 0.750000 0.317854
#
# Coordination Sequence:
#
# PCOD8244132 Si02
#       8
#     8   4   8   4   4   8   4   8
#     4  10  21  37  55  83 118 149 180 226 286 341
#     4   9  21  39  57  77 108 141 180 232 280 321
#     4  11  23  40  58  83 113 148 187 230 282 338
#     4  10  20  38  61  81 104 145 192 235 276 324
#     4   8  17  35  57  79 114 151 180 227 285 330
#     4  10  20  35  58  85 111 145 193 236 271 327
#     4   9  17  34  59  85 110 147 194 234 273 325
#     4  10  20  37  58  81 110 145 186 237 284 327
#
# _framework density 19.002092000000001
#
# number of rings (size 3 to 8) (size 9 to 14) (size 15 to 20)
#    0.000    2.167    1.667    1.750    2.333    1.333 
#    0.000    2.917    0.000    5.000    0.000    0.000 
#    0.000    0.000    0.000    0.000    0.000    0.000 
#
# Total GULP energy -595272.993510 kJ/mol
# GULP energy per Si atom -12401.520698 kJ/mol
# Density = 1.895884 g / cm^3
# Si number density = 19.002092 Si / 1000 Ang^3
#
#
#
# Elastic Constant Matrix: (Units=GPa)
#
#
# Indices 1 2 3 4 5 6 
#
# 1 59.7827 42.1268 36.5878 0.0000 0.0000 0.0000
# 2 42.1268 161.4826 67.1083 0.0000 0.0000 0.0000
# 3 36.5878 67.1083 138.0589 0.0000 0.0000 0.0000
# 4 0.0000 0.0000 0.0000 21.0373 0.0000 0.0000
# 5 0.0000 0.0000 0.0000 0.0000 21.1950 0.0000
# 6 0.0000 0.0000 0.0000 0.0000 0.0000 32.4031
#
#
#
# Elastic Compliance Matrix: (Units=1/GPa)
#
#
# Indices 1 2 3 4 5 6 
#
# 1 0.021984 -0.004153 -0.003807 0.000000 0.000000 0.000000
# 2 -0.004153 0.008545 -0.003053 0.000000 0.000000 0.000000
# 3 -0.003807 -0.003053 0.009736 0.000000 0.000000 0.000000
# 4 0.000000 0.000000 0.000000 0.047535 0.000000 0.000000
# 5 0.000000 0.000000 0.000000 0.000000 0.047181 0.000000
# 6 0.000000 0.000000 0.000000 0.000000 0.000000 0.030861
#
#
# Mechanical properties :
#
#
# Convention : Reuss Voigt Hill
#
# Bulk Modulus (GPa) = 54.82899 72.33001 63.57950
# Shear Modulus (GPa) = 25.78024 29.16052 27.47038
#
# Velocity S-wave (km/s) = 3.68734 3.92164 3.80630
# Velocity P-wave (km/s) = 6.85897 7.65850 7.26973
#
# Compressibility (1/GPa) = 0.01823853
#
# Stress axis : x y z
#
# Youngs Moduli (GPa) = 45.48821 117.03203 102.70851
#
# Poissons Ratio (x) = 0.48600 0.39106
# Poissons Ratio (y) = 0.18890 0.31356
# Poissons Ratio (z) = 0.17319 0.35729
#
# Static dielectric constant tensor:
#      x y z
#    x 3.194460 0.000000 0.000000 
#    y 0.000000 3.593100 0.000000 
#    z 0.000000 0.000000 3.342260 
# 
# 
# High freq. dielectric constant tensor:
#      x y z
#    x 1.715260 0.000000 0.000000 
#    y 0.000000 1.749620 0.000000 
#    z 0.000000 0.000000 1.745520 
# 
# From -- ./inp_files/25699.got.cif
#   From: 2010.03.12/outbox.cif.g09.slc.cpg/sg59_13_cif.got.tgz:25699.got - 2010.04.16 16:29:54.
