data_PCOD8244777
_publ_section_title
;
Structure prediction by ZEFSAII (Michael W. Deem and Ramdas Pophale) SiO2 
 PCOD8244777
Probable space group: P M M N
;
_chemical_formula_sum "Si O2"
_cell_formula_units_Z 64
_cell_length_a 9.448430
_cell_length_b 14.771437
_cell_length_c 24.084261
_cell_angle_alpha 90.000000
_cell_angle_beta 90.000000
_cell_angle_gamma 90.000000
_cell_volume 3361.365369
_symmetry_space_group_name_H-M "P M M N"
_symmetry_group_IT_number 59
_space_group.IT_coordinate_system_code '2'
_symmetry_cell_setting 'orthorhombic'
loop_
_space_group_symop_operation_xyz
x,y,z
1/2-x,1/2-y,z
1/2+x,-y,-z
-x,1/2+y,-z
-x,-y,-z
1/2+x,1/2+y,-z
1/2-x,y,z
x,1/2-y,z
loop_
_atom_site_type_symbol
_atom_site_label
_atom_site_fract_x
_atom_site_fract_y
_atom_site_fract_z
Si Si1 0.588854 0.394724 0.390768
Si Si2 0.585342 0.506012 0.920836
Si Si3 0.915405 0.908152 0.508303
Si Si4 0.083049 0.495632 0.205839
Si Si5 0.593131 0.608867 0.387507
Si Si6 0.590588 0.352040 0.268635
Si Si7 0.910754 0.150547 0.714236
Si Si8 0.415699 0.644338 0.990873
O O1 0.750000 0.364626 0.403394
O O2 0.487209 0.355706 0.439697
O O3 0.573813 0.501779 0.387368
O O4 0.536089 0.355030 0.332164
O O5 0.750000 0.530431 0.926873
O O6 0.540781 0.487113 0.857681
O O7 0.499385 0.593998 0.941618
O O8 0.549533 0.412816 0.953362
O O9 0.750000 0.927509 0.520855
O O10 0.930997 0.853145 0.450256
O O11 0.000000 0.000000 0.500000
O O12 0.250000 0.484606 0.212159
O O13 0.023631 0.579437 0.242260
O O14 0.010804 0.405151 0.227468
O O15 0.750000 0.635070 0.367403
O O16 0.485874 0.653347 0.345066
O O17 0.750000 0.392326 0.266242
O O18 0.588317 0.250000 0.246947
O O19 0.750000 0.123616 0.701973
O O20 0.922417 0.250000 0.741462
O O21 0.250000 0.640250 0.976796
O O22 0.463571 0.750000 0.997392
#
# Coordination Sequence:
#
# PCOD8244777 Si02
#       8
#     8   8   8   8   8   8   8   8
#     4   9  17  31  50  73 100 130 168 214 265 320
#     4   9  19  35  55  81 112 146 181 218 265 312
#     4   9  17  28  46  73 100 129 167 211 263 323
#     4  10  21  37  56  79 109 143 179 222 266 311
#     4   9  17  31  50  72  99 133 169 210 262 321
#     4  10  21  37  56  77 104 140 180 222 269 320
#     4  10  21  35  52  76 103 134 175 220 265 313
#     4   9  18  34  57  84 113 146 183 220 259 306
#
# _framework density 19.039883
#
# number of rings (size 3 to 8) (size 9 to 14) (size 15 to 20)
#    0.000    2.625    1.250    1.125    0.000    5.250 
#    0.000    5.625    0.000    2.250    0.000    3.500 
#    0.000    0.000    0.000    0.000    0.000    0.000 
#
# Total GULP energy -793283.653329 kJ/mol
# GULP energy per Si atom -12395.057083 kJ/mol
# Density = 1.899655 g / cm^3
# Si number density = 19.039883 Si / 1000 Ang^3
#
#
#
# Elastic Constant Matrix: (Units=GPa)
#
#
# Indices 1 2 3 4 5 6 
#
# 1 67.6197 32.8085 56.1919 0.0000 0.0000 0.0000
# 2 32.8085 95.2281 44.2909 0.0000 0.0000 0.0000
# 3 56.1919 44.2909 129.3174 0.0000 0.0000 0.0000
# 4 0.0000 0.0000 0.0000 -16.2632 0.0000 0.0000
# 5 0.0000 0.0000 0.0000 0.0000 32.2540 0.0000
# 6 0.0000 0.0000 0.0000 0.0000 0.0000 20.3772
#
#
#
# Elastic Compliance Matrix: (Units=1/GPa)
#
#
# Indices 1 2 3 4 5 6 
#
# 1 0.024447 -0.004142 -0.009204 0.000000 0.000000 0.000000
# 2 -0.004142 0.013192 -0.002719 0.000000 0.000000 0.000000
# 3 -0.009204 -0.002719 0.012664 0.000000 0.000000 0.000000
# 4 0.000000 0.000000 0.000000 -0.061489 0.000000 0.000000
# 5 0.000000 0.000000 0.000000 0.000000 0.031004 0.000000
# 6 0.000000 0.000000 0.000000 0.000000 0.000000 0.049074
#
#
# Mechanical properties :
#
#
# Convention : Reuss Voigt Hill
#
# Bulk Modulus (GPa) = 55.02497 62.08311 58.55404
# Shear Modulus (GPa) = 46.69411 17.86520 32.27966
#
# Velocity S-wave (km/s) = 4.95758 3.06650 4.12195
# Velocity P-wave (km/s) = 7.85702 6.72425 7.31260
#
# Compressibility (1/GPa) = 0.01817357
#
# Stress axis : x y z
#
# Youngs Moduli (GPa) = 40.90504 75.80067 78.96645
#
# Poissons Ratio (x) = 0.31394 0.72683
# Poissons Ratio (y) = 0.16941 0.21469
# Poissons Ratio (z) = 0.37650 0.20608
#
# Static dielectric constant tensor:
#      x y z
#    x 3.520860 0.000000 0.000000 
#    y 0.000000 3.392960 0.000000 
#    z 0.000000 0.000000 3.732000 
# 
# 
# High freq. dielectric constant tensor:
#      x y z
#    x 1.732810 0.000000 0.000000 
#    y 0.000000 1.730830 0.000000 
#    z 0.000000 0.000000 1.738600 
# 
# From -- ./inp_files/31622.got.cif
#   From: 2010.03.12/outbox.cif.g09.slc.cpg/sg59_16_cif.got.tgz:31622.got - 2010.04.16 16:29:54.
