data_PCOD8244692
_publ_section_title
;
Structure prediction by ZEFSAII (Michael W. Deem and Ramdas Pophale) SiO2 
 PCOD8244692
Probable space group: P M M N
;
_chemical_formula_sum "Si O2"
_cell_formula_units_Z 38
_cell_length_a 24.712291
_cell_length_b 7.496106
_cell_length_c 9.922739
_cell_angle_alpha 90.000000
_cell_angle_beta 90.000000
_cell_angle_gamma 90.000000
_cell_volume 1838.147241
_symmetry_space_group_name_H-M "P M M N"
_symmetry_group_IT_number 59
_space_group.IT_coordinate_system_code '2'
_symmetry_cell_setting 'orthorhombic'
loop_
_space_group_symop_operation_xyz
x,y,z
1/2-x,1/2-y,z
1/2+x,-y,-z
-x,1/2+y,-z
-x,-y,-z
1/2+x,1/2+y,-z
1/2-x,y,z
x,1/2-y,z
loop_
_atom_site_type_symbol
_atom_site_label
_atom_site_fract_x
_atom_site_fract_y
_atom_site_fract_z
Si Si1 0.688364 0.250000 0.276089
Si Si2 0.250000 0.052847 0.305122
Si Si3 0.548054 0.542836 0.600511
Si Si4 0.131663 0.750000 0.985931
Si Si5 0.448796 0.039935 0.093484
Si Si6 0.341463 0.043409 0.517474
Si Si7 0.750000 0.250000 0.903566
O O1 0.750000 0.250000 0.215573
O O2 0.682109 0.430164 0.360884
O O3 0.636538 0.250000 0.175654
O O4 0.250000 0.250000 0.244977
O O5 0.303088 0.018029 0.390932
O O6 0.250000 0.928049 0.179735
O O7 0.500000 0.500000 0.500000
O O8 0.557818 0.750000 0.612897
O O9 0.538114 0.473263 0.753455
O O10 0.601493 0.461108 0.532149
O O11 0.102131 0.571958 0.038748
O O12 0.195042 0.750000 0.014552
O O13 0.434438 0.250000 0.088124
O O14 0.500000 0.000000 0.000000
O O15 0.344788 0.250000 0.564043
#
# Coordination Sequence:
#
# PCOD8244692 Si02
#       7
#     4   4   8   4   8   8   2
#     4  12  25  44  68  98 133 182 230 275 337 415
#     4  10  20  39  69  95 129 172 223 286 348 404
#     4  10  24  40  64  99 132 166 220 278 336 402
#     4  12  28  45  68  97 142 184 236 282 341 418
#     4  11  25  47  70  99 136 184 231 281 345 412
#     4  10  22  41  65  97 131 169 219 281 342 396
#     4  12  24  42  66  98 134 184 228 282 342 420
#
# _framework density 20.672989999999999
#
# number of rings (size 3 to 8) (size 9 to 14) (size 15 to 20)
#    0.000    1.263    2.632    1.895    5.895    3.368 
#    0.000    0.000    0.000    0.000    0.000    0.000 
#    0.000    0.000    0.000    0.000    0.000    0.000 
#
# Total GULP energy -471061.642275 kJ/mol
# GULP energy per Si atom -12396.359007 kJ/mol
# Density = 2.062594 g / cm^3
# Si number density = 20.672990 Si / 1000 Ang^3
#
#
#
# Elastic Constant Matrix: (Units=GPa)
#
#
# Indices 1 2 3 4 5 6 
#
# 1 159.0442 34.0816 40.7072 0.0000 0.0000 0.0000
# 2 34.0816 99.8865 37.8077 0.0000 0.0000 0.0000
# 3 40.7072 37.8077 90.5988 0.0000 0.0000 0.0000
# 4 0.0000 0.0000 0.0000 28.1660 0.0000 0.0000
# 5 0.0000 0.0000 0.0000 0.0000 34.6689 0.0000
# 6 0.0000 0.0000 0.0000 0.0000 0.0000 41.4423
#
#
#
# Elastic Compliance Matrix: (Units=1/GPa)
#
#
# Indices 1 2 3 4 5 6 
#
# 1 0.007284 -0.001480 -0.002655 0.000000 0.000000 0.000000
# 2 -0.001480 0.012190 -0.004422 0.000000 0.000000 0.000000
# 3 -0.002655 -0.004422 0.014076 0.000000 0.000000 0.000000
# 4 0.000000 0.000000 0.000000 0.035504 0.000000 0.000000
# 5 0.000000 0.000000 0.000000 0.000000 0.028844 0.000000
# 6 0.000000 0.000000 0.000000 0.000000 0.000000 0.024130
#
#
# Mechanical properties :
#
#
# Convention : Reuss Voigt Hill
#
# Bulk Modulus (GPa) = 60.84376 63.85806 62.35091
# Shear Modulus (GPa) = 34.57284 36.65096 35.61190
#
# Velocity S-wave (km/s) = 4.09390 4.21514 4.15496
# Velocity P-wave (km/s) = 7.20014 7.39233 7.29687
#
# Compressibility (1/GPa) = 0.01643554
#
# Stress axis : x y z
#
# Youngs Moduli (GPa) = 137.27969 82.03301 71.04305
#
# Poissons Ratio (x) = 0.12145 0.18863
# Poissons Ratio (y) = 0.20324 0.31414
# Poissons Ratio (z) = 0.36450 0.36274
#
# Static dielectric constant tensor:
#      x y z
#    x 4.363250 0.000000 0.000000 
#    y 0.000000 3.878630 0.000000 
#    z 0.000000 0.000000 3.816520 
# 
# 
# High freq. dielectric constant tensor:
#      x y z
#    x 1.824460 0.000000 0.000000 
#    y 0.000000 1.816050 0.000000 
#    z 0.000000 0.000000 1.810620 
# 
# From -- ./inp_files/11910.got.cif
#   From: 2010.03.12/outbox.cif.g09.slc.cpg/sg59_6_cif.got.tgz:11910.got - 2010.04.16 16:29:54.
