data_PCOD8244435
_publ_section_title
;
Structure prediction by ZEFSAII (Michael W. Deem and Ramdas Pophale) SiO2 
 PCOD8244435
Probable space group: P M M N
;
_chemical_formula_sum "Si O2"
_cell_formula_units_Z 56
_cell_length_a 9.127607
_cell_length_b 16.109867
_cell_length_c 18.684017
_cell_angle_alpha 90.000000
_cell_angle_beta 90.000000
_cell_angle_gamma 90.000000
_cell_volume 2747.382588
_symmetry_space_group_name_H-M "P M M N"
_symmetry_group_IT_number 59
_space_group.IT_coordinate_system_code '2'
_symmetry_cell_setting 'orthorhombic'
loop_
_space_group_symop_operation_xyz
x,y,z
1/2-x,1/2-y,z
1/2+x,-y,-z
-x,1/2+y,-z
-x,-y,-z
1/2+x,1/2+y,-z
1/2-x,y,z
x,1/2-y,z
loop_
_atom_site_type_symbol
_atom_site_label
_atom_site_fract_x
_atom_site_fract_y
_atom_site_fract_z
Si Si1 0.917504 0.155512 0.154110
Si Si2 0.421674 0.486697 0.074416
Si Si3 0.920830 0.338837 0.318947
Si Si4 0.420424 0.903543 0.205753
Si Si5 0.925683 0.750000 0.442102
Si Si6 0.422993 0.250000 0.725660
Si Si7 0.588843 0.989571 0.665229
Si Si8 0.418660 0.917612 0.471152
O O1 0.750000 0.125375 0.144895
O O2 0.933574 0.250000 0.126972
O O3 0.965312 0.149948 0.236605
O O4 0.023598 0.099063 0.107741
O O5 0.250000 0.478671 0.061523
O O6 0.456539 0.565724 0.125563
O O7 0.500000 0.500000 0.000000
O O8 0.750000 0.341367 0.329548
O O9 0.981100 0.250000 0.346857
O O10 0.987420 0.414580 0.364520
O O11 0.250000 0.878914 0.214510
O O12 0.519732 0.827782 0.229482
O O13 0.461078 0.981149 0.256541
O O14 0.750000 0.750000 0.451211
O O15 0.971320 0.750000 0.357903
O O16 0.993523 0.668774 0.482299
O O17 0.250000 0.250000 0.729447
O O18 0.750000 0.950737 0.668284
O O19 0.583174 0.069354 0.614318
O O20 0.250000 0.910905 0.500228
O O21 0.500000 0.000000 0.500000
#
# Coordination Sequence:
#
# PCOD8244435 Si02
#       8
#     8   8   8   8   4   4   8   8
#     4   9  18  34  56  81 110 145 184 228 281 338
#     4  11  23  39  59  83 114 154 196 243 301 362
#     4   9  18  32  53  83 116 149 187 234 285 341
#     4  10  21  39  61  86 118 155 198 247 305 369
#     4  11  23  41  67  99 131 166 211 260 319 385
#     4  11  23  37  63  99 125 152 199 260 311 359
#     4  10  20  36  60  88 117 153 197 247 301 359
#     4  11  24  43  66  92 126 168 212 261 316 376
#
# _framework density 20.383037000000002
#
# number of rings (size 3 to 8) (size 9 to 14) (size 15 to 20)
#    0.000    1.857    2.857    2.143    0.000    4.000 
#    2.571    1.429    0.000    0.000    0.000    0.000 
#    0.000    0.000    0.000    0.000    0.000    0.000 
#
# Total GULP energy -694143.097257 kJ/mol
# GULP energy per Si atom -12395.412451 kJ/mol
# Density = 2.033664 g / cm^3
# Si number density = 20.383037 Si / 1000 Ang^3
#
#
#
# Elastic Constant Matrix: (Units=GPa)
#
#
# Indices 1 2 3 4 5 6 
#
# 1 87.4401 63.5608 16.1488 0.0000 0.0000 0.0000
# 2 63.5608 143.1314 20.6735 0.0000 0.0000 0.0000
# 3 16.1488 20.6735 36.6085 0.0000 0.0000 0.0000
# 4 0.0000 0.0000 0.0000 20.3036 0.0000 0.0000
# 5 0.0000 0.0000 0.0000 0.0000 28.5786 0.0000
# 6 0.0000 0.0000 0.0000 0.0000 0.0000 44.0778
#
#
#
# Elastic Compliance Matrix: (Units=1/GPa)
#
#
# Indices 1 2 3 4 5 6 
#
# 1 0.017310 -0.007169 -0.003588 0.000000 0.000000 0.000000
# 2 -0.007169 0.010576 -0.002810 0.000000 0.000000 0.000000
# 3 -0.003588 -0.002810 0.030486 0.000000 0.000000 0.000000
# 4 0.000000 0.000000 0.000000 0.049252 0.000000 0.000000
# 5 0.000000 0.000000 0.000000 0.000000 0.034991 0.000000
# 6 0.000000 0.000000 0.000000 0.000000 0.000000 0.022687
#
#
# Mechanical properties :
#
#
# Convention : Reuss Voigt Hill
#
# Bulk Modulus (GPa) = 32.01157 51.99401 42.00279
# Shear Modulus (GPa) = 24.64903 29.71178 27.18041
#
# Velocity S-wave (km/s) = 3.48126 3.82209 3.65565
# Velocity P-wave (km/s) = 5.64783 6.71131 6.20241
#
# Compressibility (1/GPa) = 0.03123871
#
# Stress axis : x y z
#
# Youngs Moduli (GPa) = 57.77028 94.55455 32.80243
#
# Poissons Ratio (x) = 0.67783 0.11768
# Poissons Ratio (y) = 0.41414 0.09218
# Poissons Ratio (z) = 0.20725 0.26571
#
# Static dielectric constant tensor:
#      x y z
#    x 3.668490 0.000000 0.000000 
#    y 0.000000 4.202190 0.000000 
#    z 0.000000 0.000000 6.481320 
# 
# 
# High freq. dielectric constant tensor:
#      x y z
#    x 1.795050 0.000000 0.000000 
#    y 0.000000 1.804520 0.000000 
#    z 0.000000 0.000000 1.787910 
# 
# From -- ./inp_files/29200.got.cif
#   From: 2010.03.12/outbox.cif.g09.slc.cpg/sg59_15_cif.got.tgz:29200.got - 2010.04.16 16:29:54.
