data_PCOD8244292
_publ_section_title
;
Structure prediction by ZEFSAII (Michael W. Deem and Ramdas Pophale) SiO2 
 PCOD8244292
Probable space group: P M M N
;
_chemical_formula_sum "Si O2"
_cell_formula_units_Z 64
_cell_length_a 24.017658
_cell_length_b 8.512014
_cell_length_c 15.440867
_cell_angle_alpha 90.000000
_cell_angle_beta 90.000000
_cell_angle_gamma 90.000000
_cell_volume 3156.709868
_symmetry_space_group_name_H-M "P M M N"
_symmetry_group_IT_number 59
_space_group.IT_coordinate_system_code '2'
_symmetry_cell_setting 'orthorhombic'
loop_
_space_group_symop_operation_xyz
x,y,z
1/2-x,1/2-y,z
1/2+x,-y,-z
-x,1/2+y,-z
-x,-y,-z
1/2+x,1/2+y,-z
1/2-x,y,z
x,1/2-y,z
loop_
_atom_site_type_symbol
_atom_site_label
_atom_site_fract_x
_atom_site_fract_y
_atom_site_fract_z
Si Si1 0.311989 0.434292 0.458155
Si Si2 0.606664 0.935762 0.686196
Si Si3 0.515160 0.932266 0.127118
Si Si4 0.604031 0.933285 0.879866
Si Si5 0.982560 0.067812 0.306929
Si Si6 0.684778 0.569689 0.211392
Si Si7 0.631622 0.070728 0.378479
Si Si8 0.124328 0.566013 0.947797
O O1 0.250000 0.508765 0.454413
O O2 0.307689 0.250000 0.443918
O O3 0.350074 0.511242 0.382361
O O4 0.339385 0.461552 0.551252
O O5 0.611833 0.750000 0.682999
O O6 0.620859 0.994385 0.783550
O O7 0.543587 0.984788 0.659053
O O8 0.501729 0.750000 0.111642
O O9 0.461279 0.035549 0.106563
O O10 0.534957 0.961761 0.225401
O O11 0.564209 0.987430 0.064673
O O12 0.616441 0.750000 0.889756
O O13 0.640130 0.026219 0.952191
O O14 0.984123 0.250000 0.277035
O O15 0.935354 0.042428 0.380125
O O16 0.750000 0.550752 0.225642
O O17 0.665821 0.750000 0.220085
O O18 0.653905 0.466715 0.283094
O O19 0.669714 0.508172 0.116010
O O20 0.645908 0.250000 0.400992
O O21 0.121697 0.750000 0.931499
#
# Coordination Sequence:
#
# PCOD8244292 Si02
#       8
#     8   8   8   8   8   8   8   8
#     4  10  21  38  60  84 110 146 193 239 283 337
#     4   8  17  36  59  81 111 149 191 239 289 339
#     4  11  20  32  53  83 117 152 191 234 282 339
#     4  10  20  36  57  81 113 151 193 240 290 340
#     4   9  18  34  55  81 114 152 188 230 289 353
#     4  11  24  41  60  83 113 151 195 241 288 343
#     4  11  22  36  58  86 116 148 186 232 289 351
#     4  12  23  36  55  82 116 153 193 234 283 343
#
# _framework density 20.274272
#
# number of rings (size 3 to 8) (size 9 to 14) (size 15 to 20)
#    0.000    1.750    1.250    4.875    0.000    3.750 
#    0.000    3.750    0.000    2.250    0.000    0.000 
#    0.000    0.000    0.000    0.000    0.000    0.000 
#
# Total GULP energy -793585.432195 kJ/mol
# GULP energy per Si atom -12399.772378 kJ/mol
# Density = 2.022813 g / cm^3
# Si number density = 20.274272 Si / 1000 Ang^3
#
#
#
# Elastic Constant Matrix: (Units=GPa)
#
#
# Indices 1 2 3 4 5 6 
#
# 1 92.1638 16.3986 68.7215 0.0000 0.0000 0.0000
# 2 16.3986 45.7374 15.3453 0.0000 0.0000 0.0000
# 3 68.7215 15.3453 110.0168 0.0000 0.0000 0.0000
# 4 0.0000 0.0000 0.0000 25.2050 0.0000 0.0000
# 5 0.0000 0.0000 0.0000 0.0000 26.3303 0.0000
# 6 0.0000 0.0000 0.0000 0.0000 0.0000 20.9956
#
#
#
# Elastic Compliance Matrix: (Units=1/GPa)
#
#
# Indices 1 2 3 4 5 6 
#
# 1 0.020759 -0.003244 -0.012514 0.000000 0.000000 0.000000
# 2 -0.003244 0.023444 -0.001244 0.000000 0.000000 0.000000
# 3 -0.012514 -0.001244 0.017080 0.000000 0.000000 0.000000
# 4 0.000000 0.000000 0.000000 0.039675 0.000000 0.000000
# 5 0.000000 0.000000 0.000000 0.000000 0.037979 0.000000
# 6 0.000000 0.000000 0.000000 0.000000 0.000000 0.047629
#
#
# Mechanical properties :
#
#
# Convention : Reuss Voigt Hill
#
# Bulk Modulus (GPa) = 36.65835 49.87208 43.26522
# Shear Modulus (GPa) = 21.77103 24.33635 23.05369
#
# Velocity S-wave (km/s) = 3.28048 3.46837 3.37574
# Velocity P-wave (km/s) = 5.69818 6.37900 6.04817
#
# Compressibility (1/GPa) = 0.02727891
#
# Stress axis : x y z
#
# Youngs Moduli (GPa) = 48.17250 42.65419 58.54799
#
# Poissons Ratio (x) = 0.13838 0.73269
# Poissons Ratio (y) = 0.15628 0.07281
# Poissons Ratio (z) = 0.60285 0.05305
#
# Static dielectric constant tensor:
#      x y z
#    x 3.802540 0.000000 0.000000 
#    y 0.000000 3.495950 0.000000 
#    z 0.000000 0.000000 3.810110 
# 
# 
# High freq. dielectric constant tensor:
#      x y z
#    x 1.779590 0.000000 0.000000 
#    y 0.000000 1.778340 0.000000 
#    z 0.000000 0.000000 1.792870 
# 
# From -- ./inp_files/24800.got.cif
#   From: 2010.03.12/outbox.cif.g09.slc.cpg/sg59_13_cif.got.tgz:24800.got - 2010.04.16 16:29:54.
