data_PCOD8244834
_publ_section_title
;
Structure prediction by ZEFSAII (Michael W. Deem and Ramdas Pophale) SiO2 
 PCOD8244834
Probable space group: P M M N
;
_chemical_formula_sum "Si O2"
_cell_formula_units_Z 56
_cell_length_a 19.169774
_cell_length_b 8.793827
_cell_length_c 16.542883
_cell_angle_alpha 90.000000
_cell_angle_beta 90.000000
_cell_angle_gamma 90.000000
_cell_volume 2788.727688
_symmetry_space_group_name_H-M "P M M N"
_symmetry_group_IT_number 59
_space_group.IT_coordinate_system_code '2'
_symmetry_cell_setting 'orthorhombic'
loop_
_space_group_symop_operation_xyz
x,y,z
1/2-x,1/2-y,z
1/2+x,-y,-z
-x,1/2+y,-z
-x,-y,-z
1/2+x,1/2+y,-z
1/2-x,y,z
x,1/2-y,z
loop_
_atom_site_type_symbol
_atom_site_label
_atom_site_fract_x
_atom_site_fract_y
_atom_site_fract_z
Si Si1 0.076719 0.570430 0.506163
Si Si2 0.454008 0.075853 0.068835
Si Si3 0.921156 0.572160 0.330257
Si Si4 0.949619 0.572161 0.749452
Si Si5 0.168025 0.577095 0.802680
Si Si6 0.671964 0.576983 0.035970
Si Si7 0.330206 0.426610 0.368223
O O1 0.069534 0.750000 0.502605
O O2 0.107932 0.516830 0.591853
O O3 0.130534 0.518417 0.437885
O O4 0.000000 0.500000 0.500000
O O5 0.476510 0.250000 0.071637
O O6 0.459811 0.006978 0.159273
O O7 0.373634 0.054438 0.043891
O O8 0.500000 0.000000 0.000000
O O9 0.922348 0.750000 0.348605
O O10 0.869359 0.536616 0.257592
O O11 0.999277 0.518443 0.309722
O O12 0.968907 0.750000 0.746826
O O13 0.870805 0.546330 0.716848
O O14 0.250000 0.554285 0.792670
O O15 0.144660 0.750000 0.786135
O O16 0.144310 0.532347 0.892904
O O17 0.750000 0.532270 0.010740
O O18 0.667630 0.750000 0.068018
O O19 0.250000 0.482686 0.358944
O O20 0.332393 0.250000 0.392090
#
# Coordination Sequence:
#
# PCOD8244834 Si02
#       7
#     8   8   8   8   8   8   8
#     4  12  24  41  65  91 121 158 199 245 298 356
#     4  10  21  35  54  83 116 154 198 247 299 350
#     4  12  24  38  61  89 118 155 197 243 297 357
#     4  10  21  38  60  86 120 160 202 250 300 357
#     4  10  21  37  57  83 116 153 195 246 303 359
#     4   9  18  34  55  79 111 151 195 242 293 352
#     4  10  22  41  65  93 125 162 204 250 301 359
#
# _framework density 20.080843000000002
#
# number of rings (size 3 to 8) (size 9 to 14) (size 15 to 20)
#    0.000    1.571    1.429    3.857    0.000    5.714 
#    0.000    2.857    0.000    0.000    0.000    4.000 
#    0.000    0.000    0.000    0.000    0.000    0.000 
#
# Total GULP energy -694423.587531 kJ/mol
# GULP energy per Si atom -12400.421206 kJ/mol
# Density = 2.003514 g / cm^3
# Si number density = 20.080843 Si / 1000 Ang^3
#
#
#
# Elastic Constant Matrix: (Units=GPa)
#
#
# Indices 1 2 3 4 5 6 
#
# 1 81.8457 38.9386 52.3450 0.0000 0.0000 0.0000
# 2 38.9386 94.2284 41.8655 0.0000 0.0000 0.0000
# 3 52.3450 41.8655 120.8223 0.0000 0.0000 0.0000
# 4 0.0000 0.0000 0.0000 31.1783 0.0000 0.0000
# 5 0.0000 0.0000 0.0000 0.0000 33.3002 0.0000
# 6 0.0000 0.0000 0.0000 0.0000 0.0000 28.9572
#
#
#
# Elastic Compliance Matrix: (Units=1/GPa)
#
#
# Indices 1 2 3 4 5 6 
#
# 1 0.018608 -0.004855 -0.006379 0.000000 0.000000 0.000000
# 2 -0.004855 0.013810 -0.002682 0.000000 0.000000 0.000000
# 3 -0.006379 -0.002682 0.011970 0.000000 0.000000 0.000000
# 4 0.000000 0.000000 0.000000 0.032074 0.000000 0.000000
# 5 0.000000 0.000000 0.000000 0.000000 0.030030 0.000000
# 6 0.000000 0.000000 0.000000 0.000000 0.000000 0.034534
#
#
# Mechanical properties :
#
#
# Convention : Reuss Voigt Hill
#
# Bulk Modulus (GPa) = 60.40406 62.57720 61.49063
# Shear Modulus (GPa) = 28.67358 29.60362 29.13860
#
# Velocity S-wave (km/s) = 3.78287 3.84373 3.81342
# Velocity P-wave (km/s) = 7.01611 7.13647 7.07655
#
# Compressibility (1/GPa) = 0.01655518
#
# Stress axis : x y z
#
# Youngs Moduli (GPa) = 53.74049 72.40917 83.54417
#
# Poissons Ratio (x) = 0.35156 0.53296
# Poissons Ratio (y) = 0.26092 0.22406
# Poissons Ratio (z) = 0.34283 0.19420
#
# Static dielectric constant tensor:
#      x y z
#    x 3.776390 0.000000 0.000000 
#    y 0.000000 3.617190 0.000000 
#    z 0.000000 0.000000 3.879610 
# 
# 
# High freq. dielectric constant tensor:
#      x y z
#    x 1.787320 0.000000 0.000000 
#    y 0.000000 1.777160 0.000000 
#    z 0.000000 0.000000 1.789970 
# 
# From -- ./inp_files/24237.got.cif
#   From: 2010.03.12/outbox.cif.g09.slc.cpg/sg59_13_cif.got.tgz:24237.got - 2010.04.16 16:29:54.
