data_PCOD8244684
_publ_section_title
;
Structure prediction by ZEFSAII (Michael W. Deem and Ramdas Pophale) SiO2 
 PCOD8244684
Probable space group: P M M N
;
_chemical_formula_sum "Si O2"
_cell_formula_units_Z 64
_cell_length_a 25.964819
_cell_length_b 13.699910
_cell_length_c 8.889387
_cell_angle_alpha 90.000000
_cell_angle_beta 90.000000
_cell_angle_gamma 90.000000
_cell_volume 3162.094372
_symmetry_space_group_name_H-M "P M M N"
_symmetry_group_IT_number 59
_space_group.IT_coordinate_system_code '2'
_symmetry_cell_setting 'orthorhombic'
loop_
_space_group_symop_operation_xyz
x,y,z
1/2-x,1/2-y,z
1/2+x,-y,-z
-x,1/2+y,-z
-x,-y,-z
1/2+x,1/2+y,-z
1/2-x,y,z
x,1/2-y,z
loop_
_atom_site_type_symbol
_atom_site_label
_atom_site_fract_x
_atom_site_fract_y
_atom_site_fract_z
Si Si1 0.807503 0.954108 0.619632
Si Si2 0.164848 0.859443 0.211903
Si Si3 0.067108 0.640362 0.396324
Si Si4 0.527428 0.862843 0.925478
Si Si5 0.980600 0.538855 0.234231
Si Si6 0.689612 0.036416 0.084859
Si Si7 0.122776 0.517829 0.635521
Si Si8 0.853115 0.861768 0.906897
O O1 0.750000 0.921650 0.574028
O O2 0.829585 0.879865 0.742685
O O3 0.803923 0.063953 0.686366
O O4 0.844021 0.948448 0.474264
O O5 0.185582 0.750000 0.243448
O O6 0.104403 0.867115 0.251436
O O7 0.171677 0.884275 0.037090
O O8 0.047933 0.750000 0.423316
O O9 0.097473 0.606784 0.544628
O O10 0.017948 0.571839 0.369070
O O11 0.515673 0.750000 0.891494
O O12 0.586965 0.889687 0.900254
O O13 0.493471 0.927492 0.811785
O O14 0.511392 0.887293 0.095854
O O15 0.921913 0.547076 0.289354
O O16 0.750000 0.044181 0.114733
O O17 0.660200 0.062197 0.238220
O O18 0.675702 0.927364 0.030204
O O19 0.844866 0.750000 0.954442
#
# Coordination Sequence:
#
# PCOD8244684 Si02
#       8
#     8   8   8   8   8   8   8   8
#     4  10  21  38  60  83 114 157 202 242 291 352
#     4   9  19  36  60  87 114 148 195 246 290 349
#     4  10  22  39  61  88 120 159 201 239 294 363
#     4  10  21  36  61  94 121 153 196 248 308 363
#     4  11  21  38  62  85 123 160 195 248 298 364
#     4  11  22  37  59  87 119 155 197 247 304 355
#     4  11  23  39  57  84 123 159 194 243 301 350
#     4  10  20  39  63  89 117 151 201 251 295 352
#
# _framework density 20.239749
#
# number of rings (size 3 to 8) (size 9 to 14) (size 15 to 20)
#    0.000    1.750    1.250    4.875    1.750    3.000 
#    0.000    3.125    0.000    4.500    0.000    0.000 
#    0.000    0.000    0.000    0.000    0.000    0.000 
#
# Total GULP energy -793820.331603 kJ/mol
# GULP energy per Si atom -12403.442681 kJ/mol
# Density = 2.019368 g / cm^3
# Si number density = 20.239749 Si / 1000 Ang^3
#
#
#
# Elastic Constant Matrix: (Units=GPa)
#
#
# Indices 1 2 3 4 5 6 
#
# 1 114.6814 27.3831 53.4470 0.0000 0.0000 0.0000
# 2 27.3831 82.6776 24.4637 0.0000 0.0000 0.0000
# 3 53.4470 24.4637 108.5834 0.0000 0.0000 0.0000
# 4 0.0000 0.0000 0.0000 15.8378 0.0000 0.0000
# 5 0.0000 0.0000 0.0000 0.0000 31.9805 0.0000
# 6 0.0000 0.0000 0.0000 0.0000 0.0000 20.1732
#
#
#
# Elastic Compliance Matrix: (Units=1/GPa)
#
#
# Indices 1 2 3 4 5 6 
#
# 1 0.011720 -0.002330 -0.005244 0.000000 0.000000 0.000000
# 2 -0.002330 0.013422 -0.001877 0.000000 0.000000 0.000000
# 3 -0.005244 -0.001877 0.012214 0.000000 0.000000 0.000000
# 4 0.000000 0.000000 0.000000 0.063140 0.000000 0.000000
# 5 0.000000 0.000000 0.000000 0.000000 0.031269 0.000000
# 6 0.000000 0.000000 0.000000 0.000000 0.000000 0.049571
#
#
# Mechanical properties :
#
#
# Convention : Reuss Voigt Hill
#
# Bulk Modulus (GPa) = 54.18945 57.39222 55.79083
# Shear Modulus (GPa) = 24.22605 26.97486 25.60045
#
# Velocity S-wave (km/s) = 3.46346 3.65467 3.56035
# Velocity P-wave (km/s) = 6.54415 6.79901 6.67280
#
# Compressibility (1/GPa) = 0.01845378
#
# Stress axis : x y z
#
# Youngs Moduli (GPa) = 85.32361 74.50266 81.87611
#
# Poissons Ratio (x) = 0.17360 0.42935
# Poissons Ratio (y) = 0.19881 0.15369
# Poissons Ratio (z) = 0.44743 0.13985
#
# Static dielectric constant tensor:
#      x y z
#    x 3.731470 0.000000 0.000000 
#    y 0.000000 3.487180 0.000000 
#    z 0.000000 0.000000 3.649230 
# 
# 
# High freq. dielectric constant tensor:
#      x y z
#    x 1.800630 0.000000 0.000000 
#    y 0.000000 1.775370 0.000000 
#    z 0.000000 0.000000 1.786100 
# 
# From -- ./inp_files/9770.got.cif
#   From: 2010.03.12/outbox.cif.g09.slc.cpg/sg59_5_cif.got.tgz:9770.got - 2010.04.16 16:29:54.
