data_PCOD8244235
_publ_section_title
;
Structure prediction by ZEFSAII (Michael W. Deem and Ramdas Pophale) SiO2 
 PCOD8244235
Probable space group: P M M N
;
_chemical_formula_sum "Si O2"
_cell_formula_units_Z 48
_cell_length_a 15.996247
_cell_length_b 8.745126
_cell_length_c 17.533606
_cell_angle_alpha 90.000000
_cell_angle_beta 90.000000
_cell_angle_gamma 90.000000
_cell_volume 2452.762038
_symmetry_space_group_name_H-M "P M M N"
_symmetry_group_IT_number 59
_space_group.IT_coordinate_system_code '2'
_symmetry_cell_setting 'orthorhombic'
loop_
_space_group_symop_operation_xyz
x,y,z
1/2-x,1/2-y,z
1/2+x,-y,-z
-x,1/2+y,-z
-x,-y,-z
1/2+x,1/2+y,-z
1/2-x,y,z
x,1/2-y,z
loop_
_atom_site_type_symbol
_atom_site_label
_atom_site_fract_x
_atom_site_fract_y
_atom_site_fract_z
Si Si1 0.750000 0.928658 0.262710
Si Si2 0.588463 0.068900 0.522639
Si Si3 0.563606 0.429926 0.830959
Si Si4 0.911297 0.073898 0.994249
Si Si5 0.250000 0.568631 0.571010
Si Si6 0.383652 0.570837 0.844289
Si Si7 0.657391 0.068569 0.682118
O O1 0.750000 0.750000 0.279278
O O2 0.750000 0.014560 0.342599
O O3 0.668368 0.973011 0.215346
O O4 0.582550 0.250000 0.516070
O O5 0.665578 0.007865 0.470629
O O6 0.604591 0.014647 0.609211
O O7 0.500000 0.000000 0.500000
O O8 0.541188 0.250000 0.823665
O O9 0.480233 0.529788 0.833446
O O10 0.615123 0.491936 0.759250
O O11 0.621148 0.458116 0.907760
O O12 0.927777 0.250000 0.006855
O O13 0.855544 0.023923 0.068002
O O14 0.000000 0.000000 0.000000
O O15 0.250000 0.750000 0.567512
O O16 0.368142 0.750000 0.828160
O O17 0.750000 0.998032 0.676594
O O18 0.663266 0.250000 0.683758
#
# Coordination Sequence:
#
# PCOD8244235 Si02
#       7
#     4   8   8   8   4   8   8
#     4  12  26  40  56  79 108 144 188 241 288 334
#     4  10  21  38  61  86 114 149 187 228 280 339
#     4   9  17  31  55  86 113 144 190 230 265 320
#     4   8  15  29  50  77 107 143 181 223 267 317
#     4  10  22  42  62  83 116 152 188 235 288 348
#     4  10  20  36  55  78 112 150 186 228 282 336
#     4   9  17  33  56  83 114 144 178 224 273 324
#
# _framework density 19.569773999999999
#
# number of rings (size 3 to 8) (size 9 to 14) (size 15 to 20)
#    0.000    2.500    0.833    1.250    2.333    1.333 
#    1.500    0.000    0.000    1.500    0.000    0.000 
#    0.000    0.000    0.000    0.000    0.000    0.000 
#
# Total GULP energy -594649.285157 kJ/mol
# GULP energy per Si atom -12388.526774 kJ/mol
# Density = 1.952523 g / cm^3
# Si number density = 19.569774 Si / 1000 Ang^3
#
#
#
# Elastic Constant Matrix: (Units=GPa)
#
#
# Indices 1 2 3 4 5 6 
#
# 1 115.0639 14.0492 71.7211 0.0000 0.0000 0.0000
# 2 14.0492 11.8042 9.9241 0.0000 0.0000 0.0000
# 3 71.7211 9.9241 187.6982 0.0000 0.0000 0.0000
# 4 0.0000 0.0000 0.0000 19.0969 0.0000 0.0000
# 5 0.0000 0.0000 0.0000 0.0000 30.7543 0.0000
# 6 0.0000 0.0000 0.0000 0.0000 0.0000 20.4557
#
#
#
# Elastic Compliance Matrix: (Units=1/GPa)
#
#
# Indices 1 2 3 4 5 6 
#
# 1 0.012766 -0.011609 -0.004264 0.000000 0.000000 0.000000
# 2 -0.011609 0.099214 -0.000810 0.000000 0.000000 0.000000
# 3 -0.004264 -0.000810 0.007000 0.000000 0.000000 0.000000
# 4 0.000000 0.000000 0.000000 0.052364 0.000000 0.000000
# 5 0.000000 0.000000 0.000000 0.000000 0.032516 0.000000
# 6 0.000000 0.000000 0.000000 0.000000 0.000000 0.048886
#
#
# Mechanical properties :
#
#
# Convention : Reuss Voigt Hill
#
# Bulk Modulus (GPa) = 11.68039 56.21722 33.94881
# Shear Modulus (GPa) = 15.89064 28.65284 22.27174
#
# Velocity S-wave (km/s) = 2.85265 3.83056 3.37719
# Velocity P-wave (km/s) = 4.10265 6.95364 5.70898
#
# Compressibility (1/GPa) = 0.08561357
#
# Stress axis : x y z
#
# Youngs Moduli (GPa) = 78.33122 10.07925 142.85825
#
# Poissons Ratio (x) = 0.11701 0.60919
# Poissons Ratio (y) = 0.90936 0.11568
# Poissons Ratio (z) = 0.33403 0.00816
#
# Static dielectric constant tensor:
#      x y z
#    x 3.443650 0.000000 0.000000 
#    y 0.000000 3.378960 0.000000 
#    z 0.000000 0.000000 4.259940 
# 
# 
# High freq. dielectric constant tensor:
#      x y z
#    x 1.745000 0.000000 0.000000 
#    y 0.000000 1.734780 0.000000 
#    z 0.000000 0.000000 1.791100 
# 
# From -- ./inp_files/25614.got.cif
#   From: 2010.03.12/outbox.cif.g09.slc.cpg/sg59_13_cif.got.tgz:25614.got - 2010.04.16 16:29:54.
