data_PCOD8244047
_publ_section_title
;
Structure prediction by ZEFSAII (Michael W. Deem and Ramdas Pophale) SiO2 
 PCOD8244047
Probable space group: P M M N
;
_chemical_formula_sum "Si O2"
_cell_formula_units_Z 48
_cell_length_a 8.799153
_cell_length_b 16.168377
_cell_length_c 17.785106
_cell_angle_alpha 90.000000
_cell_angle_beta 90.000000
_cell_angle_gamma 90.000000
_cell_volume 2530.251869
_symmetry_space_group_name_H-M "P M M N"
_symmetry_group_IT_number 59
_space_group.IT_coordinate_system_code '2'
_symmetry_cell_setting 'orthorhombic'
loop_
_space_group_symop_operation_xyz
x,y,z
1/2-x,1/2-y,z
1/2+x,-y,-z
-x,1/2+y,-z
-x,-y,-z
1/2+x,1/2+y,-z
1/2-x,y,z
x,1/2-y,z
loop_
_atom_site_type_symbol
_atom_site_label
_atom_site_fract_x
_atom_site_fract_y
_atom_site_fract_z
Si Si1 0.075859 0.156216 0.664289
Si Si2 0.073226 0.982614 0.420783
Si Si3 0.430649 0.417299 0.275668
Si Si4 0.926131 0.559202 0.185693
Si Si5 0.430535 0.584976 0.030696
Si Si6 0.930852 0.250000 0.226428
Si Si7 0.929879 0.250000 0.054327
O O1 0.250000 0.144586 0.639648
O O2 0.022732 0.250000 0.661492
O O3 0.051095 0.125014 0.748565
O O4 0.971229 0.108965 0.605125
O O5 0.250000 0.988788 0.432238
O O6 0.018450 0.046951 0.356767
O O7 0.000000 0.000000 0.500000
O O8 0.250000 0.416028 0.266677
O O9 0.501534 0.471631 0.208673
O O10 0.500902 0.327222 0.270451
O O11 0.750000 0.544451 0.165376
O O12 0.015237 0.597324 0.115713
O O13 0.250000 0.578578 0.026196
O O14 0.500000 0.500000 0.000000
O O15 0.490447 0.665708 0.985043
O O16 0.750000 0.250000 0.231953
O O17 0.987209 0.250000 0.140203
O O18 0.750000 0.250000 0.050324
#
# Coordination Sequence:
#
# PCOD8244047 Si02
#       7
#     8   8   8   8   8   4   4
#     4   9  19  36  58  84 114 150 187 228 280 336
#     4  10  21  38  60  85 116 150 186 231 281 336
#     4  10  21  38  59  85 114 151 194 234 283 341
#     4  10  20  35  57  83 114 149 190 237 285 342
#     4  11  22  38  57  81 113 152 194 242 298 353
#     4  11  21  37  61  85 112 147 194 245 287 336
#     4   9  22  39  55  79 114 151 190 237 293 344
#
# _framework density 18.970444000000001
#
# number of rings (size 3 to 8) (size 9 to 14) (size 15 to 20)
#    0.000    2.000    0.000    3.250    1.167    4.333 
#    1.500    3.750    0.000    0.000    0.000    0.000 
#    0.000    0.000    0.000    0.000    0.000    0.000 
#
# Total GULP energy -595326.345230 kJ/mol
# GULP energy per Si atom -12402.632192 kJ/mol
# Density = 1.892727 g / cm^3
# Si number density = 18.970444 Si / 1000 Ang^3
#
#
#
# Elastic Constant Matrix: (Units=GPa)
#
#
# Indices 1 2 3 4 5 6 
#
# 1 66.8738 42.8504 40.4008 0.0000 0.0000 0.0000
# 2 42.8504 163.3705 64.7105 0.0000 0.0000 0.0000
# 3 40.4008 64.7105 113.8669 0.0000 0.0000 0.0000
# 4 0.0000 0.0000 0.0000 19.4273 0.0000 0.0000
# 5 0.0000 0.0000 0.0000 0.0000 36.3128 0.0000
# 6 0.0000 0.0000 0.0000 0.0000 0.0000 32.4739
#
#
#
# Elastic Compliance Matrix: (Units=1/GPa)
#
#
# Indices 1 2 3 4 5 6 
#
# 1 0.020237 -0.003180 -0.005373 0.000000 0.000000 0.000000
# 2 -0.003180 0.008399 -0.003645 0.000000 0.000000 0.000000
# 3 -0.005373 -0.003645 0.012760 0.000000 0.000000 0.000000
# 4 0.000000 0.000000 0.000000 0.051474 0.000000 0.000000
# 5 0.000000 0.000000 0.000000 0.000000 0.027538 0.000000
# 6 0.000000 0.000000 0.000000 0.000000 0.000000 0.030794
#
#
# Mechanical properties :
#
#
# Convention : Reuss Voigt Hill
#
# Bulk Modulus (GPa) = 58.82228 71.11495 64.96861
# Shear Modulus (GPa) = 27.58395 30.71943 29.15169
#
# Velocity S-wave (km/s) = 3.81734 4.02846 3.92432
# Velocity P-wave (km/s) = 7.10662 7.69458 7.40644
#
# Compressibility (1/GPa) = 0.01700036
#
# Stress axis : x y z
#
# Youngs Moduli (GPa) = 49.41408 119.06523 78.36977
#
# Poissons Ratio (x) = 0.37859 0.42110
# Poissons Ratio (y) = 0.15712 0.28565
# Poissons Ratio (z) = 0.26552 0.43397
#
# Static dielectric constant tensor:
#      x y z
#    x 3.504150 0.000000 0.000000 
#    y 0.000000 3.048250 0.000000 
#    z 0.000000 0.000000 3.617290 
# 
# 
# High freq. dielectric constant tensor:
#      x y z
#    x 1.739650 0.000000 0.000000 
#    y 0.000000 1.744730 0.000000 
#    z 0.000000 0.000000 1.740010 
# 
# From -- ./inp_files/25596.got.cif
#   From: 2010.03.12/outbox.cif.g09.slc.cpg/sg59_13_cif.got.tgz:25596.got - 2010.04.16 16:29:54.
