data_PCOD8244711
_publ_section_title
;
Structure prediction by ZEFSAII (Michael W. Deem and Ramdas Pophale) SiO2 
 PCOD8244711
Probable space group: P M M N
;
_chemical_formula_sum "Si O2"
_cell_formula_units_Z 56
_cell_length_a 14.951008
_cell_length_b 9.702984
_cell_length_c 21.323957
_cell_angle_alpha 90.000000
_cell_angle_beta 90.000000
_cell_angle_gamma 90.000000
_cell_volume 3093.453464
_symmetry_space_group_name_H-M "P M M N"
_symmetry_group_IT_number 59
_space_group.IT_coordinate_system_code '2'
_symmetry_cell_setting 'orthorhombic'
loop_
_space_group_symop_operation_xyz
x,y,z
1/2-x,1/2-y,z
1/2+x,-y,-z
-x,1/2+y,-z
-x,-y,-z
1/2+x,1/2+y,-z
1/2-x,y,z
x,1/2-y,z
loop_
_atom_site_type_symbol
_atom_site_label
_atom_site_fract_x
_atom_site_fract_y
_atom_site_fract_z
Si Si1 0.647364 0.091468 0.048461
Si Si2 0.646600 0.908304 0.387199
Si Si3 0.143764 0.596924 0.501219
Si Si4 0.488764 0.590674 0.842943
Si Si5 0.148246 0.091559 0.068654
Si Si6 0.510619 0.911578 0.279094
Si Si7 0.150835 0.914011 0.363266
O O1 0.750000 0.061694 0.066512
O O2 0.632150 0.250000 0.029503
O O3 0.587568 0.050647 0.107535
O O4 0.617003 0.000310 0.989655
O O5 0.750000 0.942743 0.373881
O O6 0.632445 0.750000 0.405974
O O7 0.593186 0.944961 0.324501
O O8 0.606776 0.996002 0.445015
O O9 0.250000 0.603532 0.504564
O O10 0.103782 0.750000 0.512174
O O11 0.117551 0.538036 0.432387
O O12 0.480848 0.750000 0.822859
O O13 0.586046 0.558590 0.872005
O O14 0.473176 0.495336 0.783636
O O15 0.250000 0.057299 0.088378
O O16 0.137159 0.250000 0.047916
O O17 0.505151 0.750000 0.263210
O O18 0.418898 0.965183 0.311125
O O19 0.250000 0.972940 0.347435
O O20 0.154409 0.750000 0.364958
#
# Coordination Sequence:
#
# PCOD8244711 Si02
#       7
#     8   8   8   8   8   8   8
#     4   9  18  33  53  76  99 123 155 195 235 273
#     4   9  18  32  47  66  96 126 152 192 241 282
#     4   8  14  27  49  72  90 115 154 196 239 285
#     4  10  21  35  49  69 100 131 157 192 235 274
#     4   9  18  33  53  76 100 125 153 188 234 283
#     4  10  21  34  48  68  93 127 167 195 225 277
#     4   8  15  30  50  70  93 119 152 199 244 278
#
# _framework density 18.102744000000001
#
# number of rings (size 3 to 8) (size 9 to 14) (size 15 to 20)
#    0.000    3.000    0.000    1.286    0.000    3.429 
#    0.000    0.714    0.000    0.857    0.000    0.000 
#    0.000    0.000    0.000    0.000    0.000    0.000 
#
# Total GULP energy -694322.324999 kJ/mol
# GULP energy per Si atom -12398.612946 kJ/mol
# Density = 1.806154 g / cm^3
# Si number density = 18.102744 Si / 1000 Ang^3
#
#
#
# Elastic Constant Matrix: (Units=GPa)
#
#
# Indices 1 2 3 4 5 6 
#
# 1 48.0701 9.5139 7.9713 0.0000 0.0000 0.0000
# 2 9.5139 44.3191 30.8466 0.0000 0.0000 0.0000
# 3 7.9713 30.8466 68.7876 0.0000 0.0000 0.0000
# 4 0.0000 0.0000 0.0000 19.2611 0.0000 0.0000
# 5 0.0000 0.0000 0.0000 0.0000 25.2796 0.0000
# 6 0.0000 0.0000 0.0000 0.0000 0.0000 16.7399
#
#
#
# Elastic Compliance Matrix: (Units=1/GPa)
#
#
# Indices 1 2 3 4 5 6 
#
# 1 0.021744 -0.004236 -0.000620 0.000000 0.000000 0.000000
# 2 -0.004236 0.033627 -0.014588 0.000000 0.000000 0.000000
# 3 -0.000620 -0.014588 0.021151 0.000000 0.000000 0.000000
# 4 0.000000 0.000000 0.000000 0.051918 0.000000 0.000000
# 5 0.000000 0.000000 0.000000 0.000000 0.039558 0.000000
# 6 0.000000 0.000000 0.000000 0.000000 0.000000 0.059738
#
#
# Mechanical properties :
#
#
# Convention : Reuss Voigt Hill
#
# Bulk Modulus (GPa) = 26.57258 28.64892 27.61075
# Shear Modulus (GPa) = 17.91028 19.77910 18.84469
#
# Velocity S-wave (km/s) = 3.14883 3.30904 3.22993
# Velocity P-wave (km/s) = 5.28496 5.51904 5.40327
#
# Compressibility (1/GPa) = 0.03763277
#
# Stress axis : x y z
#
# Youngs Moduli (GPa) = 45.98928 29.73829 47.27846
#
# Poissons Ratio (x) = 0.12598 0.02932
# Poissons Ratio (y) = 0.19482 0.68972
# Poissons Ratio (z) = 0.02852 0.43383
#
# Static dielectric constant tensor:
#      x y z
#    x 3.563650 0.000000 0.000000 
#    y 0.000000 3.320890 0.000000 
#    z 0.000000 0.000000 3.251200 
# 
# 
# High freq. dielectric constant tensor:
#      x y z
#    x 1.708190 0.000000 0.000000 
#    y 0.000000 1.682900 0.000000 
#    z 0.000000 0.000000 1.691730 
# 
# From -- ./inp_files/29147.got.cif
#   From: 2010.03.12/outbox.cif.g09.slc.cpg/sg59_15_cif.got.tgz:29147.got - 2010.04.16 16:29:54.
