data_PCOD8244181
_publ_section_title
;
Structure prediction by ZEFSAII (Michael W. Deem and Ramdas Pophale) SiO2 
 PCOD8244181
Probable space group: P M M N
;
_chemical_formula_sum "Si O2"
_cell_formula_units_Z 64
_cell_length_a 9.351496
_cell_length_b 18.545386
_cell_length_c 19.780849
_cell_angle_alpha 90.000000
_cell_angle_beta 90.000000
_cell_angle_gamma 90.000000
_cell_volume 3430.535337
_symmetry_space_group_name_H-M "P M M N"
_symmetry_group_IT_number 59
_space_group.IT_coordinate_system_code '2'
_symmetry_cell_setting 'orthorhombic'
loop_
_space_group_symop_operation_xyz
x,y,z
1/2-x,1/2-y,z
1/2+x,-y,-z
-x,1/2+y,-z
-x,-y,-z
1/2+x,1/2+y,-z
1/2-x,y,z
x,1/2-y,z
loop_
_atom_site_type_symbol
_atom_site_label
_atom_site_fract_x
_atom_site_fract_y
_atom_site_fract_z
Si Si1 0.917956 0.667079 0.032382
Si Si2 0.084099 0.092241 0.105138
Si Si3 0.916369 0.166253 0.224746
Si Si4 0.917959 0.832526 0.384973
Si Si5 0.915069 0.927374 0.510469
Si Si6 0.413866 0.929937 0.131614
Si Si7 0.084466 0.090907 0.337075
Si Si8 0.083147 0.566535 0.287769
O O1 0.750000 0.657914 0.041627
O O2 0.964771 0.750000 0.029846
O O3 0.991464 0.630295 0.096150
O O4 0.969503 0.629929 0.963206
O O5 0.250000 0.109904 0.120695
O O6 0.990144 0.120518 0.166396
O O7 0.060054 0.007085 0.096674
O O8 0.750000 0.146119 0.227610
O O9 0.940393 0.250000 0.209564
O O10 0.987837 0.146952 0.296196
O O11 0.750000 0.839855 0.372588
O O12 0.967052 0.750000 0.388074
O O13 0.964243 0.868750 0.455602
O O14 0.996826 0.869622 0.322643
O O15 0.750000 0.947738 0.502116
O O16 0.943977 0.893751 0.584149
O O17 0.000000 0.000000 0.500000
O O18 0.250000 0.906266 0.124391
O O19 0.459302 0.934763 0.209462
O O20 0.250000 0.102789 0.317137
O O21 0.037589 0.009381 0.320266
O O22 0.250000 0.580996 0.298798
#
# Coordination Sequence:
#
# PCOD8244181 Si02
#       8
#     8   8   8   8   8   8   8   8
#     4  10  22  38  57  84 116 150 190 233 282 343
#     4  10  20  39  63  85 112 150 192 233 281 343
#     4  11  24  38  55  86 122 151 185 231 283 338
#     4  10  22  38  56  84 119 152 190 236 287 342
#     4  10  20  35  59  86 112 147 190 236 285 340
#     4  10  21  37  59  85 113 145 190 241 284 335
#     4  10  20  37  60  84 112 150 193 234 280 342
#     4  10  20  37  59  85 113 145 193 239 280 337
#
# _framework density 18.65598
#
# number of rings (size 3 to 8) (size 9 to 14) (size 15 to 20)
#    0.000    1.875    2.500    1.125    0.000    5.500 
#    0.000    3.750    0.000    0.000    0.000    0.000 
#    0.000    0.000    0.000    0.000    0.000    0.000 
#
# Total GULP energy -793924.205705 kJ/mol
# GULP energy per Si atom -12405.065714 kJ/mol
# Density = 1.861352 g / cm^3
# Si number density = 18.655980 Si / 1000 Ang^3
#
#
#
# Elastic Constant Matrix: (Units=GPa)
#
#
# Indices 1 2 3 4 5 6 
#
# 1 51.5302 36.7581 32.8989 0.0000 0.0000 0.0000
# 2 36.7581 99.3777 46.9029 0.0000 0.0000 0.0000
# 3 32.8989 46.9029 92.4478 0.0000 0.0000 0.0000
# 4 0.0000 0.0000 0.0000 34.0148 0.0000 0.0000
# 5 0.0000 0.0000 0.0000 0.0000 30.8016 0.0000
# 6 0.0000 0.0000 0.0000 0.0000 0.0000 33.2411
#
#
#
# Elastic Compliance Matrix: (Units=1/GPa)
#
#
# Indices 1 2 3 4 5 6 
#
# 1 0.028990 -0.007697 -0.006412 0.000000 0.000000 0.000000
# 2 -0.007697 0.015274 -0.005010 0.000000 0.000000 0.000000
# 3 -0.006412 -0.005010 0.015640 0.000000 0.000000 0.000000
# 4 0.000000 0.000000 0.000000 0.029399 0.000000 0.000000
# 5 0.000000 0.000000 0.000000 0.000000 0.032466 0.000000
# 6 0.000000 0.000000 0.000000 0.000000 0.000000 0.030083
#
#
# Mechanical properties :
#
#
# Convention : Reuss Voigt Hill
#
# Bulk Modulus (GPa) = 46.15244 52.94175 49.54709
# Shear Modulus (GPa) = 25.34053 28.06454 26.70253
#
# Velocity S-wave (km/s) = 3.68952 3.88276 3.78737
# Velocity P-wave (km/s) = 6.55305 6.96711 6.76325
#
# Compressibility (1/GPa) = 0.02166733
#
# Stress axis : x y z
#
# Youngs Moduli (GPa) = 34.49479 65.46980 63.93662
#
# Poissons Ratio (x) = 0.50391 0.40993
# Poissons Ratio (y) = 0.26550 0.32034
# Poissons Ratio (z) = 0.22116 0.32802
#
# Static dielectric constant tensor:
#      x y z
#    x 3.359610 0.000000 0.000000 
#    y 0.000000 3.472460 0.000000 
#    z 0.000000 0.000000 3.560480 
# 
# 
# High freq. dielectric constant tensor:
#      x y z
#    x 1.717650 0.000000 0.000000 
#    y 0.000000 1.725440 0.000000 
#    z 0.000000 0.000000 1.736190 
# 
# From -- ./inp_files/29404.got.cif
#   From: 2010.03.12/outbox.cif.g09.slc.cpg/sg59_15_cif.got.tgz:29404.got - 2010.04.16 16:29:54.
