data_PCOD8244294
_publ_section_title
;
Structure prediction by ZEFSAII (Michael W. Deem and Ramdas Pophale) SiO2 
 PCOD8244294
Probable space group: P M M N
;
_chemical_formula_sum "Si O2"
_cell_formula_units_Z 48
_cell_length_a 20.312924
_cell_length_b 8.757103
_cell_length_c 14.876311
_cell_angle_alpha 90.000000
_cell_angle_beta 90.000000
_cell_angle_gamma 90.000000
_cell_volume 2646.233423
_symmetry_space_group_name_H-M "P M M N"
_symmetry_group_IT_number 59
_space_group.IT_coordinate_system_code '2'
_symmetry_cell_setting 'orthorhombic'
loop_
_space_group_symop_operation_xyz
x,y,z
1/2-x,1/2-y,z
1/2+x,-y,-z
-x,1/2+y,-z
-x,-y,-z
1/2+x,1/2+y,-z
1/2-x,y,z
x,1/2-y,z
loop_
_atom_site_type_symbol
_atom_site_label
_atom_site_fract_x
_atom_site_fract_y
_atom_site_fract_z
Si Si1 0.506815 0.422661 0.235132
Si Si2 0.948358 0.071032 0.930621
Si Si3 0.177140 0.928390 0.613331
Si Si4 0.043392 0.069838 0.578085
Si Si5 0.846685 0.079157 0.185614
Si Si6 0.323174 0.076135 0.992469
O O1 0.483518 0.250000 0.255886
O O2 0.455047 0.505237 0.170096
O O3 0.514101 0.511935 0.328103
O O4 0.574695 0.421995 0.180777
O O5 0.960765 0.250000 0.928908
O O6 0.873607 0.036939 0.959161
O O7 0.000000 0.000000 0.000000
O O8 0.250000 0.963196 0.572318
O O9 0.159301 0.750000 0.605498
O O10 0.178286 0.976745 0.717535
O O11 0.119752 0.021044 0.562904
O O12 0.038604 0.250000 0.574718
O O13 0.000000 0.000000 0.500000
O O14 0.820416 0.250000 0.165616
O O15 0.818686 0.962461 0.113068
O O16 0.250000 0.055675 0.034030
O O17 0.347628 0.250000 0.003689
#
# Coordination Sequence:
#
# PCOD8244294 Si02
#       6
#     8   8   8   8   8   8
#     4  10  20  36  57  82 110 143 182 228 277 329
#     4  12  23  36  56  80 108 146 189 230 272 325
#     4   9  18  33  53  78 111 147 181 221 274 335
#     4  11  22  37  58  84 114 147 186 231 278 332
#     4   9  17  30  50  75 106 144 180 217 266 326
#     4  11  23  35  49  73 108 148 189 233 277 324
#
# _framework density 18.138988999999999
#
# number of rings (size 3 to 8) (size 9 to 14) (size 15 to 20)
#    0.000    1.667    1.667    5.500    0.000    5.000 
#    0.000    0.000    0.000    1.000    0.000    0.000 
#    0.000    0.000    0.000    0.000    0.000    0.000 
#
# Total GULP energy -595193.082073 kJ/mol
# GULP energy per Si atom -12399.855877 kJ/mol
# Density = 1.809770 g / cm^3
# Si number density = 18.138989 Si / 1000 Ang^3
#
#
#
# Elastic Constant Matrix: (Units=GPa)
#
#
# Indices 1 2 3 4 5 6 
#
# 1 109.5840 51.9753 52.5865 0.0000 0.0000 0.0000
# 2 51.9753 133.9136 45.6050 0.0000 0.0000 0.0000
# 3 52.5865 45.6050 76.3449 0.0000 0.0000 0.0000
# 4 0.0000 0.0000 0.0000 30.8627 0.0000 0.0000
# 5 0.0000 0.0000 0.0000 0.0000 19.3231 0.0000
# 6 0.0000 0.0000 0.0000 0.0000 0.0000 27.1726
#
#
#
# Elastic Compliance Matrix: (Units=1/GPa)
#
#
# Indices 1 2 3 4 5 6 
#
# 1 0.014410 -0.002778 -0.008266 0.000000 0.000000 0.000000
# 2 -0.002778 0.009910 -0.004007 0.000000 0.000000 0.000000
# 3 -0.008266 -0.004007 0.021185 0.000000 0.000000 0.000000
# 4 0.000000 0.000000 0.000000 0.032402 0.000000 0.000000
# 5 0.000000 0.000000 0.000000 0.000000 0.051751 0.000000
# 6 0.000000 0.000000 0.000000 0.000000 0.000000 0.036802
#
#
# Mechanical properties :
#
#
# Convention : Reuss Voigt Hill
#
# Bulk Modulus (GPa) = 64.91615 68.90846 66.91231
# Shear Modulus (GPa) = 24.78988 26.78339 25.78664
#
# Velocity S-wave (km/s) = 3.70085 3.84678 3.77452
# Velocity P-wave (km/s) = 7.35715 7.60276 7.48096
#
# Compressibility (1/GPa) = 0.01540449
#
# Stress axis : x y z
#
# Youngs Moduli (GPa) = 69.39862 100.90784 47.20217
#
# Poissons Ratio (x) = 0.28029 0.39018
# Poissons Ratio (y) = 0.19277 0.18912
# Poissons Ratio (z) = 0.57365 0.40429
#
# Static dielectric constant tensor:
#      x y z
#    x 3.482690 0.000000 0.000000 
#    y 0.000000 3.406340 0.000000 
#    z 0.000000 0.000000 3.117540 
# 
# 
# High freq. dielectric constant tensor:
#      x y z
#    x 1.702750 0.000000 0.000000 
#    y 0.000000 1.710960 0.000000 
#    z 0.000000 0.000000 1.670790 
# 
# From -- ./inp_files/28003.got.cif
#   From: 2010.03.12/outbox.cif.g09.slc.cpg/sg59_15_cif.got.tgz:28003.got - 2010.04.16 16:29:54.
