data_PCOD8244199
_publ_section_title
;
Structure prediction by ZEFSAII (Michael W. Deem and Ramdas Pophale) SiO2 
 PCOD8244199
Probable space group: P M M N
;
_chemical_formula_sum "Si O2"
_cell_formula_units_Z 48
_cell_length_a 18.644617
_cell_length_b 13.923332
_cell_length_c 8.950297
_cell_angle_alpha 90.000000
_cell_angle_beta 90.000000
_cell_angle_gamma 90.000000
_cell_volume 2323.454073
_symmetry_space_group_name_H-M "P M M N"
_symmetry_group_IT_number 59
_space_group.IT_coordinate_system_code '2'
_symmetry_cell_setting 'orthorhombic'
loop_
_space_group_symop_operation_xyz
x,y,z
1/2-x,1/2-y,z
1/2+x,-y,-z
-x,1/2+y,-z
-x,-y,-z
1/2+x,1/2+y,-z
1/2-x,y,z
x,1/2-y,z
loop_
_atom_site_type_symbol
_atom_site_label
_atom_site_fract_x
_atom_site_fract_y
_atom_site_fract_z
Si Si1 0.330835 0.354451 0.877761
Si Si2 0.544836 0.137183 0.753207
Si Si3 0.469964 0.642381 0.900396
Si Si4 0.333945 0.969076 0.391336
Si Si5 0.130594 0.359064 0.194692
Si Si6 0.082324 0.489589 0.684269
O O1 0.250000 0.342137 0.829943
O O2 0.369486 0.250000 0.891102
O O3 0.365134 0.408748 0.742043
O O4 0.337578 0.402766 0.040736
O O5 0.533944 0.250000 0.714759
O O6 0.627401 0.106739 0.721159
O O7 0.493376 0.066307 0.654765
O O8 0.524348 0.113567 0.925246
O O9 0.438525 0.750000 0.889425
O O10 0.545284 0.635054 0.815708
O O11 0.418727 0.571349 0.811080
O O12 0.250000 0.941036 0.414733
O O13 0.339192 0.077053 0.328745
O O14 0.381000 0.962715 0.541207
O O15 0.156924 0.250000 0.223184
#
# Coordination Sequence:
#
# PCOD8244199 Si02
#       6
#     8   8   8   8   8   8
#     4  10  20  35  59  90 124 161 200 250 310 365
#     4  11  23  42  68  94 120 160 211 262 310 365
#     4  10  21  39  67  97 120 150 207 267 311 358
#     4  12  27  42  58  90 131 172 207 245 308 378
#     4  10  20  38  62  91 124 159 203 255 309 369
#     4  12  22  40  63  93 124 162 206 256 306 369
#
# _framework density 20.658897
#
# number of rings (size 3 to 8) (size 9 to 14) (size 15 to 20)
#    0.000    1.167    3.333    3.500    0.000    3.333 
#    0.000    0.833    0.000    3.500    0.000    0.000 
#    0.000    0.000    0.000    0.000    0.000    0.000 
#
# Total GULP energy -595098.323803 kJ/mol
# GULP energy per Si atom -12397.881746 kJ/mol
# Density = 2.061188 g / cm^3
# Si number density = 20.658897 Si / 1000 Ang^3
#
#
#
# Elastic Constant Matrix: (Units=GPa)
#
#
# Indices 1 2 3 4 5 6 
#
# 1 93.6941 34.2561 28.6558 0.0000 0.0000 0.0000
# 2 34.2561 75.4788 21.8322 0.0000 0.0000 0.0000
# 3 28.6558 21.8322 56.1393 0.0000 0.0000 0.0000
# 4 0.0000 0.0000 0.0000 21.5092 0.0000 0.0000
# 5 0.0000 0.0000 0.0000 0.0000 21.1073 0.0000
# 6 0.0000 0.0000 0.0000 0.0000 0.0000 23.3764
#
#
#
# Elastic Compliance Matrix: (Units=1/GPa)
#
#
# Indices 1 2 3 4 5 6 
#
# 1 0.014066 -0.004853 -0.005293 0.000000 0.000000 0.000000
# 2 -0.004853 0.016602 -0.003979 0.000000 0.000000 0.000000
# 3 -0.005293 -0.003979 0.022062 0.000000 0.000000 0.000000
# 4 0.000000 0.000000 0.000000 0.046492 0.000000 0.000000
# 5 0.000000 0.000000 0.000000 0.000000 0.047377 0.000000
# 6 0.000000 0.000000 0.000000 0.000000 0.000000 0.042778
#
#
# Mechanical properties :
#
#
# Convention : Reuss Voigt Hill
#
# Bulk Modulus (GPa) = 40.84901 43.86673 42.35787
# Shear Modulus (GPa) = 22.14473 22.56979 22.35726
#
# Velocity S-wave (km/s) = 3.27757 3.30888 3.29326
# Velocity P-wave (km/s) = 5.84289 5.98984 5.91682
#
# Compressibility (1/GPa) = 0.02448040
#
# Stress axis : x y z
#
# Youngs Moduli (GPa) = 71.09296 60.23248 45.32686
#
# Poissons Ratio (x) = 0.29231 0.23990
# Poissons Ratio (y) = 0.34502 0.18037
# Poissons Ratio (z) = 0.37627 0.23969
#
# Static dielectric constant tensor:
#      x y z
#    x 3.726110 0.000000 0.000000 
#    y 0.000000 3.861650 0.000000 
#    z 0.000000 0.000000 3.599690 
# 
# 
# High freq. dielectric constant tensor:
#      x y z
#    x 1.800640 0.000000 0.000000 
#    y 0.000000 1.808310 0.000000 
#    z 0.000000 0.000000 1.799290 
# 
# From -- ./inp_files/9016.got.cif
#   From: 2010.03.12/outbox.cif.g09.slc.cpg/sg59_5_cif.got.tgz:9016.got - 2010.04.16 16:29:54.
