data_PCOD8244536
_publ_section_title
;
Structure prediction by ZEFSAII (Michael W. Deem and Ramdas Pophale) SiO2 
 PCOD8244536
Probable space group: P M M N
;
_chemical_formula_sum "Si O2"
_cell_formula_units_Z 56
_cell_length_a 22.693694
_cell_length_b 13.848829
_cell_length_c 9.200582
_cell_angle_alpha 90.000000
_cell_angle_beta 90.000000
_cell_angle_gamma 90.000000
_cell_volume 2891.568917
_symmetry_space_group_name_H-M "P M M N"
_symmetry_group_IT_number 59
_space_group.IT_coordinate_system_code '2'
_symmetry_cell_setting 'orthorhombic'
loop_
_space_group_symop_operation_xyz
x,y,z
1/2-x,1/2-y,z
1/2+x,-y,-z
-x,1/2+y,-z
-x,-y,-z
1/2+x,1/2+y,-z
1/2-x,y,z
x,1/2-y,z
loop_
_atom_site_type_symbol
_atom_site_label
_atom_site_fract_x
_atom_site_fract_y
_atom_site_fract_z
Si Si1 0.250000 0.136396 0.908201
Si Si2 0.620617 0.636627 0.005054
Si Si3 0.093616 0.641538 0.074999
Si Si4 0.944946 0.962359 0.752879
Si Si5 0.313824 0.857575 0.303150
Si Si6 0.250000 0.134788 0.572540
Si Si7 0.422185 0.976709 0.799126
Si Si8 0.136850 0.015665 0.501023
O O1 0.250000 0.250000 0.917313
O O2 0.250000 0.103607 0.740755
O O3 0.310739 0.100390 0.985322
O O4 0.615484 0.750000 0.037547
O O5 0.594356 0.611421 0.847886
O O6 0.579702 0.581240 0.122239
O O7 0.066151 0.750000 0.077073
O O8 0.055777 0.569919 0.177084
O O9 0.158489 0.641266 0.143068
O O10 0.100756 0.604231 0.910943
O O11 0.919695 0.946308 0.590045
O O12 0.013864 0.939069 0.749110
O O13 0.250000 0.903871 0.283449
O O14 0.311486 0.750000 0.366147
O O15 0.348173 0.917116 0.421960
O O16 0.250000 0.250000 0.550200
O O17 0.190859 0.091762 0.498946
O O18 0.379560 0.985863 0.662879
#
# Coordination Sequence:
#
# PCOD8244536 Si02
#       8
#     4   8   8   8   8   4   8   8
#     4   9  18  35  59  86 113 147 192 238 285 344
#     4  10  20  37  60  86 116 152 195 245 295 343
#     4   9  19  37  58  81 110 144 187 236 283 329
#     4  10  23  38  56  84 115 154 197 235 284 345
#     4   9  18  36  59  83 112 146 185 228 283 345
#     4  11  22  39  60  86 121 153 191 236 290 352
#     4  11  22  37  57  84 116 153 196 236 283 347
#     4  11  22  39  58  85 116 158 186 238 290 338
#
# _framework density 19.366648000000001
#
# number of rings (size 3 to 8) (size 9 to 14) (size 15 to 20)
#    0.000    2.000    2.143    2.143    0.000    4.000 
#    9.000    0.714    0.000    5.143    0.000    0.000 
#    0.000    0.000    0.000    0.000    0.000    0.000 
#
# Total GULP energy -693956.808962 kJ/mol
# GULP energy per Si atom -12392.085874 kJ/mol
# Density = 1.932257 g / cm^3
# Si number density = 19.366648 Si / 1000 Ang^3
#
#
#
# Elastic Constant Matrix: (Units=GPa)
#
#
# Indices 1 2 3 4 5 6 
#
# 1 86.5644 20.7565 20.1951 0.0000 0.0000 0.0000
# 2 20.7565 88.0189 27.8055 0.0000 0.0000 0.0000
# 3 20.1951 27.8055 92.6412 0.0000 0.0000 0.0000
# 4 0.0000 0.0000 0.0000 20.5720 0.0000 0.0000
# 5 0.0000 0.0000 0.0000 0.0000 28.0176 0.0000
# 6 0.0000 0.0000 0.0000 0.0000 0.0000 22.5060
#
#
#
# Elastic Compliance Matrix: (Units=1/GPa)
#
#
# Indices 1 2 3 4 5 6 
#
# 1 0.012586 -0.002321 -0.002047 0.000000 0.000000 0.000000
# 2 -0.002321 0.012979 -0.003390 0.000000 0.000000 0.000000
# 3 -0.002047 -0.003390 0.012258 0.000000 0.000000 0.000000
# 4 0.000000 0.000000 0.000000 0.048610 0.000000 0.000000
# 5 0.000000 0.000000 0.000000 0.000000 0.035692 0.000000
# 6 0.000000 0.000000 0.000000 0.000000 0.000000 0.044433
#
#
# Mechanical properties :
#
#
# Convention : Reuss Voigt Hill
#
# Bulk Modulus (GPa) = 44.82778 44.97099 44.89939
# Shear Modulus (GPa) = 26.38389 27.45029 26.91709
#
# Velocity S-wave (km/s) = 3.69499 3.76892 3.73214
# Velocity P-wave (km/s) = 6.43437 6.49700 6.46576
#
# Compressibility (1/GPa) = 0.02230760
#
# Stress axis : x y z
#
# Youngs Moduli (GPa) = 79.45161 77.04495 81.57994
#
# Poissons Ratio (x) = 0.17886 0.16699
# Poissons Ratio (y) = 0.18444 0.27652
# Poissons Ratio (z) = 0.16263 0.26115
#
# Static dielectric constant tensor:
#      x y z
#    x 3.732890 0.000000 0.000000 
#    y 0.000000 3.536330 0.000000 
#    z 0.000000 0.000000 3.534310 
# 
# 
# High freq. dielectric constant tensor:
#      x y z
#    x 1.760120 0.000000 0.000000 
#    y 0.000000 1.745680 0.000000 
#    z 0.000000 0.000000 1.747340 
# 
# From -- ./inp_files/11483.got.cif
#   From: 2010.03.12/outbox.cif.g09.slc.cpg/sg59_6_cif.got.tgz:11483.got - 2010.04.16 16:29:54.
