data_PCOD8244173
_publ_section_title
;
Structure prediction by ZEFSAII (Michael W. Deem and Ramdas Pophale) SiO2 
 PCOD8244173
Probable space group: P M M N
;
_chemical_formula_sum "Si O2"
_cell_formula_units_Z 48
_cell_length_a 8.654494
_cell_length_b 16.502691
_cell_length_c 16.315059
_cell_angle_alpha 90.000000
_cell_angle_beta 90.000000
_cell_angle_gamma 90.000000
_cell_volume 2330.156539
_symmetry_space_group_name_H-M "P M M N"
_symmetry_group_IT_number 59
_space_group.IT_coordinate_system_code '2'
_symmetry_cell_setting 'orthorhombic'
loop_
_space_group_symop_operation_xyz
x,y,z
1/2-x,1/2-y,z
1/2+x,-y,-z
-x,1/2+y,-z
-x,-y,-z
1/2+x,1/2+y,-z
1/2-x,y,z
x,1/2-y,z
loop_
_atom_site_type_symbol
_atom_site_label
_atom_site_fract_x
_atom_site_fract_y
_atom_site_fract_z
Si Si1 0.573295 0.091600 0.798625
Si Si2 0.431928 0.079338 0.455367
Si Si3 0.577368 0.250000 0.695395
Si Si4 0.929339 0.750000 0.474341
Si Si5 0.426614 0.655610 0.875771
Si Si6 0.070066 0.557600 0.719572
Si Si7 0.430320 0.156402 0.956527
O O1 0.750000 0.061105 0.795581
O O2 0.549115 0.175436 0.753896
O O3 0.522258 0.100706 0.892770
O O4 0.460638 0.032815 0.749515
O O5 0.250000 0.075690 0.469679
O O6 0.499934 0.165506 0.489429
O O7 0.469956 0.077255 0.359786
O O8 0.500000 0.000000 0.500000
O O9 0.750000 0.250000 0.657606
O O10 0.455380 0.250000 0.622499
O O11 0.750000 0.750000 0.494999
O O12 0.250000 0.630595 0.892898
O O13 0.446261 0.750000 0.862376
O O14 0.487644 0.615630 0.792484
O O15 0.527957 0.625150 0.952455
O O16 0.250000 0.569412 0.698716
O O17 0.250000 0.146016 0.940581
O O18 0.482688 0.250000 0.947377
#
# Coordination Sequence:
#
# PCOD8244173 Si02
#       7
#     8   8   4   4   8   8   8
#     4  11  22  38  60  87 122 162 202 248 302 363
#     4  11  24  44  66  93 127 165 206 257 315 376
#     4  10  22  38  60  89 116 151 200 245 294 361
#     4  10  24  42  64  91 122 161 202 249 312 373
#     4   9  20  39  61  84 117 160 204 249 299 359
#     4  11  24  40  61  91 122 157 202 254 306 361
#     4  10  20  35  58  89 121 157 202 252 304 355
#
# _framework density 20.599475000000002
#
# number of rings (size 3 to 8) (size 9 to 14) (size 15 to 20)
#    0.000    1.667    0.833    3.000    1.167    8.000 
#    0.000    0.000    0.000    0.000    0.000    0.000 
#    0.000    0.000    0.000    0.000    0.000    0.000 
#
# Total GULP energy -595287.693667 kJ/mol
# GULP energy per Si atom -12401.826951 kJ/mol
# Density = 2.055259 g / cm^3
# Si number density = 20.599475 Si / 1000 Ang^3
#
#
#
# Elastic Constant Matrix: (Units=GPa)
#
#
# Indices 1 2 3 4 5 6 
#
# 1 46.3368 27.8946 28.8364 0.0000 0.0000 0.0000
# 2 27.8946 103.8356 49.4022 0.0000 0.0000 0.0000
# 3 28.8364 49.4022 136.9019 0.0000 0.0000 0.0000
# 4 0.0000 0.0000 0.0000 22.6498 0.0000 0.0000
# 5 0.0000 0.0000 0.0000 0.0000 39.7346 0.0000
# 6 0.0000 0.0000 0.0000 0.0000 0.0000 16.0348
#
#
#
# Elastic Compliance Matrix: (Units=1/GPa)
#
#
# Indices 1 2 3 4 5 6 
#
# 1 0.027243 -0.005540 -0.003739 0.000000 0.000000 0.000000
# 2 -0.005540 0.012753 -0.003435 0.000000 0.000000 0.000000
# 3 -0.003739 -0.003435 0.009332 0.000000 0.000000 0.000000
# 4 0.000000 0.000000 0.000000 0.044151 0.000000 0.000000
# 5 0.000000 0.000000 0.000000 0.000000 0.025167 0.000000
# 6 0.000000 0.000000 0.000000 0.000000 0.000000 0.062364
#
#
# Mechanical properties :
#
#
# Convention : Reuss Voigt Hill
#
# Bulk Modulus (GPa) = 41.84160 55.48227 48.66194
# Shear Modulus (GPa) = 23.32038 27.74658 25.53348
#
# Velocity S-wave (km/s) = 3.36830 3.67407 3.52450
# Velocity P-wave (km/s) = 5.95679 6.70751 6.34326
#
# Compressibility (1/GPa) = 0.02389966
#
# Stress axis : x y z
#
# Youngs Moduli (GPa) = 36.70669 78.41190 107.16062
#
# Poissons Ratio (x) = 0.43436 0.40071
# Poissons Ratio (y) = 0.20334 0.36813
# Poissons Ratio (z) = 0.13726 0.26937
#
# Static dielectric constant tensor:
#      x y z
#    x 3.669750 0.000000 0.000000 
#    y 0.000000 3.899320 0.000000 
#    z 0.000000 0.000000 3.794310 
# 
# 
# High freq. dielectric constant tensor:
#      x y z
#    x 1.800900 0.000000 0.000000 
#    y 0.000000 1.810380 0.000000 
#    z 0.000000 0.000000 1.817360 
# 
# From -- ./inp_files/20595.got.cif
#   From: 2010.03.12/outbox.cif.g09.slc.cpg/sg59_11_cif.got.tgz:20595.got - 2010.04.16 16:29:54.
