data_PCOD8244655
_publ_section_title
;
Structure prediction by ZEFSAII (Michael W. Deem and Ramdas Pophale) SiO2 
 PCOD8244655
Probable space group: P M M N
;
_chemical_formula_sum "Si O2"
_cell_formula_units_Z 40
_cell_length_a 18.737957
_cell_length_b 18.926637
_cell_length_c 5.173185
_cell_angle_alpha 90.000000
_cell_angle_beta 90.000000
_cell_angle_gamma 90.000000
_cell_volume 1834.652007
_symmetry_space_group_name_H-M "P M M N"
_symmetry_group_IT_number 59
_space_group.IT_coordinate_system_code '2'
_symmetry_cell_setting 'orthorhombic'
loop_
_space_group_symop_operation_xyz
x,y,z
1/2-x,1/2-y,z
1/2+x,-y,-z
-x,1/2+y,-z
-x,-y,-z
1/2+x,1/2+y,-z
1/2-x,y,z
x,1/2-y,z
loop_
_atom_site_type_symbol
_atom_site_label
_atom_site_fract_x
_atom_site_fract_y
_atom_site_fract_z
Si Si1 0.129029 0.561845 0.916932
Si Si2 0.673630 0.369883 0.569867
Si Si3 0.038983 0.672537 0.683578
Si Si4 0.617441 0.668262 0.514763
Si Si5 0.832569 0.909429 0.015125
O O1 0.173682 0.569436 0.651809
O O2 0.055566 0.608695 0.886158
O O3 0.172619 0.593383 0.153799
O O4 0.116741 0.478725 0.963727
O O5 0.750000 0.328815 0.552186
O O6 0.604991 0.320110 0.521115
O O7 0.031824 0.750000 0.820526
O O8 0.967208 0.654044 0.530972
O O9 0.636386 0.750000 0.551356
O O10 0.657848 0.625191 0.735791
O O11 0.643782 0.645566 0.233236
O O12 0.750000 0.930954 0.049750
#
# Coordination Sequence:
#
# PCOD8244655 Si02
#       5
#     8   8   8   8   8
#     4  10  23  40  67  92 131 167 213 260 318 379
#     4  10  20  38  61  92 129 166 211 258 307 371
#     4   9  24  44  65  94 134 174 215 262 317 382
#     4  11  26  45  68  95 129 170 214 267 328 387
#     4  12  25  43  69  98 129 167 214 271 326 381
#
# _framework density 21.802498
#
# number of rings (size 3 to 8) (size 9 to 14) (size 15 to 20)
#    1.200    0.400    0.000    4.200    2.800    5.200 
#    0.000    0.000    0.000    0.000    0.000    0.000 
#    0.000    0.000    0.000    0.000    0.000    0.000 
#
# Total GULP energy -495549.499789 kJ/mol
# GULP energy per Si atom -12388.737495 kJ/mol
# Density = 2.175287 g / cm^3
# Si number density = 21.802498 Si / 1000 Ang^3
#
#
#
# Elastic Constant Matrix: (Units=GPa)
#
#
# Indices 1 2 3 4 5 6 
#
# 1 94.2634 24.4495 7.3765 0.0000 0.0000 0.0000
# 2 24.4495 110.1792 0.0495 0.0000 0.0000 0.0000
# 3 7.3765 0.0495 77.4888 0.0000 0.0000 0.0000
# 4 0.0000 0.0000 0.0000 27.3782 0.0000 0.0000
# 5 0.0000 0.0000 0.0000 0.0000 46.1060 0.0000
# 6 0.0000 0.0000 0.0000 0.0000 0.0000 7.1150
#
#
#
# Elastic Compliance Matrix: (Units=1/GPa)
#
#
# Indices 1 2 3 4 5 6 
#
# 1 0.011346 -0.002517 -0.001078 0.000000 0.000000 0.000000
# 2 -0.002517 0.009635 0.000233 0.000000 0.000000 0.000000
# 3 -0.001078 0.000233 0.013008 0.000000 0.000000 0.000000
# 4 0.000000 0.000000 0.000000 0.036525 0.000000 0.000000
# 5 0.000000 0.000000 0.000000 0.000000 0.021689 0.000000
# 6 0.000000 0.000000 0.000000 0.000000 0.000000 0.140548
#
#
# Mechanical properties :
#
#
# Convention : Reuss Voigt Hill
#
# Bulk Modulus (GPa) = 36.67888 38.40915 37.54402
# Shear Modulus (GPa) = 20.11563 32.79025 26.45294
#
# Velocity S-wave (km/s) = 3.04078 3.88231 3.48702
# Velocity P-wave (km/s) = 5.40261 6.14423 5.78532
#
# Compressibility (1/GPa) = 0.02726364
#
# Stress axis : x y z
#
# Youngs Moduli (GPa) = 88.13778 103.79248 76.87812
#
# Poissons Ratio (x) = 0.26127 0.08291
# Poissons Ratio (y) = 0.22186 -0.01795
# Poissons Ratio (z) = 0.09505 -0.02423
#
# Static dielectric constant tensor:
#      x y z
#    x 3.592340 0.000000 0.000000 
#    y 0.000000 3.819550 0.000000 
#    z 0.000000 0.000000 3.757530 
# 
# 
# High freq. dielectric constant tensor:
#      x y z
#    x 1.856650 0.000000 0.000000 
#    y 0.000000 1.848430 0.000000 
#    z 0.000000 0.000000 1.854160 
# 
# From -- ./inp_files/2629.got.cif
#   From: 2010.03.12/outbox.cif.g09.slc.cpg/sg59_2_cif.got.tgz:2629.got - 2010.04.16 16:29:54.
