data_PCOD8244903
_publ_section_title
;
Structure prediction by ZEFSAII (Michael W. Deem and Ramdas Pophale) SiO2 
 PCOD8244903
Probable space group: P M M N
;
_chemical_formula_sum "Si O2"
_cell_formula_units_Z 48
_cell_length_a 9.193485
_cell_length_b 9.282416
_cell_length_c 30.901510
_cell_angle_alpha 90.000000
_cell_angle_beta 90.000000
_cell_angle_gamma 90.000000
_cell_volume 2637.065405
_symmetry_space_group_name_H-M "P M M N"
_symmetry_group_IT_number 59
_space_group.IT_coordinate_system_code '2'
_symmetry_cell_setting 'orthorhombic'
loop_
_space_group_symop_operation_xyz
x,y,z
1/2-x,1/2-y,z
1/2+x,-y,-z
-x,1/2+y,-z
-x,-y,-z
1/2+x,1/2+y,-z
1/2-x,y,z
x,1/2-y,z
loop_
_atom_site_type_symbol
_atom_site_label
_atom_site_fract_x
_atom_site_fract_y
_atom_site_fract_z
Si Si1 0.917833 0.918623 0.462260
Si Si2 0.911678 0.078371 0.868055
Si Si3 0.918351 0.419667 0.299798
Si Si4 0.420382 0.086031 0.785307
Si Si5 0.579846 0.416551 0.625501
Si Si6 0.921586 0.413865 0.962953
O O1 0.750000 0.967853 0.460215
O O2 0.931313 0.750000 0.471423
O O3 0.994840 0.961075 0.417633
O O4 0.000000 0.000000 0.500000
O O5 0.750000 0.019260 0.859311
O O6 0.910527 0.250000 0.869068
O O7 0.967096 0.025407 0.915310
O O8 0.012124 0.020852 0.829265
O O9 0.750000 0.458801 0.309280
O O10 0.942521 0.250000 0.297341
O O11 0.970594 0.488422 0.254701
O O12 0.019698 0.484125 0.336667
O O13 0.250000 0.079607 0.791708
O O14 0.473125 0.250000 0.776833
O O15 0.750000 0.446912 0.618506
O O16 0.550721 0.250000 0.637281
O O17 0.750000 0.428270 0.968654
O O18 0.972536 0.250000 0.967486
O O19 0.000000 0.500000 0.000000
#
# Coordination Sequence:
#
# PCOD8244903 Si02
#       6
#     8   8   8   8   8   8
#     4  10  21  37  58  83 110 141 176 214 257 304
#     4   8  15  29  48  69  94 124 160 203 248 295
#     4  10  21  36  53  75 105 139 171 206 253 305
#     4   9  17  30  50  74  97 125 165 209 250 296
#     4  10  21  37  57  80 105 136 176 218 257 300
#     4   9  18  32  49  71  99 130 165 205 249 298
#
# _framework density 18.20205
#
# number of rings (size 3 to 8) (size 9 to 14) (size 15 to 20)
#    0.000    2.667    0.000    2.500    0.000    5.333 
#    0.000    4.167    0.000    3.000    0.000    0.000 
#    0.000    0.000    0.000    0.000    0.000    0.000 
#
# Total GULP energy -595141.498055 kJ/mol
# GULP energy per Si atom -12398.781209 kJ/mol
# Density = 1.816062 g / cm^3
# Si number density = 18.202050 Si / 1000 Ang^3
#
#
#
# Elastic Constant Matrix: (Units=GPa)
#
#
# Indices 1 2 3 4 5 6 
#
# 1 89.7850 43.9860 83.1545 0.0000 0.0000 0.0000
# 2 43.9860 62.4998 67.5158 0.0000 0.0000 0.0000
# 3 83.1545 67.5158 182.6921 0.0000 0.0000 0.0000
# 4 0.0000 0.0000 0.0000 32.2009 0.0000 0.0000
# 5 0.0000 0.0000 0.0000 0.0000 41.8789 0.0000
# 6 0.0000 0.0000 0.0000 0.0000 0.0000 25.8475
#
#
#
# Elastic Compliance Matrix: (Units=1/GPa)
#
#
# Indices 1 2 3 4 5 6 
#
# 1 0.021161 -0.007470 -0.006871 0.000000 0.000000 0.000000
# 2 -0.007470 0.029269 -0.007417 0.000000 0.000000 0.000000
# 3 -0.006871 -0.007417 0.011342 0.000000 0.000000 0.000000
# 4 0.000000 0.000000 0.000000 0.031055 0.000000 0.000000
# 5 0.000000 0.000000 0.000000 0.000000 0.023878 0.000000
# 6 0.000000 0.000000 0.000000 0.000000 0.000000 0.038688
#
#
# Mechanical properties :
#
#
# Convention : Reuss Voigt Hill
#
# Bulk Modulus (GPa) = 54.77466 80.47661 67.62563
# Shear Modulus (GPa) = 24.39083 29.34017 26.86550
#
# Velocity S-wave (km/s) = 3.66458 4.01922 3.84599
# Velocity P-wave (km/s) = 6.93278 8.11466 7.54689
#
# Compressibility (1/GPa) = 0.01825662
#
# Stress axis : x y z
#
# Youngs Moduli (GPa) = 47.25682 34.16563 88.16805
#
# Poissons Ratio (x) = 0.25522 0.60580
# Poissons Ratio (y) = 0.35302 0.65391
# Poissons Ratio (z) = 0.32470 0.25339
#
# Static dielectric constant tensor:
#      x y z
#    x 3.153560 0.000000 0.000000 
#    y 0.000000 3.140910 0.000000 
#    z 0.000000 0.000000 3.602770 
# 
# 
# High freq. dielectric constant tensor:
#      x y z
#    x 1.704970 0.000000 0.000000 
#    y 0.000000 1.680580 0.000000 
#    z 0.000000 0.000000 1.721580 
# 
# From -- ./inp_files/32842.got.cif
#   From: 2010.03.12/outbox.cif.g09.slc.cpg/sg59_17_cif.got.tgz:32842.got - 2010.04.16 16:29:54.
