data_PCOD8244906
_publ_section_title
;
Structure prediction by ZEFSAII (Michael W. Deem and Ramdas Pophale) SiO2 
 PCOD8244906
Probable space group: P M M N
;
_chemical_formula_sum "Si O2"
_cell_formula_units_Z 56
_cell_length_a 14.984145
_cell_length_b 8.676310
_cell_length_c 21.620223
_cell_angle_alpha 90.000000
_cell_angle_beta 90.000000
_cell_angle_gamma 90.000000
_cell_volume 2810.782215
_symmetry_space_group_name_H-M "P M M N"
_symmetry_group_IT_number 59
_space_group.IT_coordinate_system_code '2'
_symmetry_cell_setting 'orthorhombic'
loop_
_space_group_symop_operation_xyz
x,y,z
1/2-x,1/2-y,z
1/2+x,-y,-z
-x,1/2+y,-z
-x,-y,-z
1/2+x,1/2+y,-z
1/2-x,y,z
x,1/2-y,z
loop_
_atom_site_type_symbol
_atom_site_label
_atom_site_fract_x
_atom_site_fract_y
_atom_site_fract_z
Si Si1 0.652939 0.567481 0.699312
Si Si2 0.496859 0.430848 0.910575
Si Si3 0.150515 0.076013 0.695951
Si Si4 0.098478 0.428860 0.430280
Si Si5 0.509007 0.070372 0.220907
Si Si6 0.409432 0.429122 0.563567
Si Si7 0.646984 0.567610 0.989401
O O1 0.750000 0.523220 0.725728
O O2 0.639182 0.750000 0.695784
O O3 0.644512 0.493867 0.629994
O O4 0.579497 0.501685 0.746341
O O5 0.508957 0.250000 0.917473
O O6 0.473795 0.475724 0.840984
O O7 0.411302 0.486772 0.951134
O O8 0.591326 0.507376 0.930170
O O9 0.250000 0.056791 0.721694
O O10 0.115329 0.250000 0.707840
O O11 0.154004 0.042689 0.622189
O O12 0.090212 0.954571 0.731969
O O13 0.115338 0.250000 0.422839
O O14 0.136951 0.479896 0.498003
O O15 0.994517 0.464679 0.426552
O O16 0.500774 0.250000 0.204791
O O17 0.438664 0.250000 0.558451
O O18 0.750000 0.503051 0.991569
O O19 0.651962 0.750000 0.985342
#
# Coordination Sequence:
#
# PCOD8244906 Si02
#       7
#     8   8   8   8   8   8   8
#     4   9  18  32  51  75 102 136 180 227 273 323
#     4  10  21  37  59  88 119 151 186 225 273 320
#     4  10  21  36  53  75 105 142 183 230 285 337
#     4   9  16  29  50  74  98 130 173 223 278 336
#     4  11  22  37  56  79 111 149 189 228 270 323
#     4   9  17  29  49  74 100 130 170 223 283 338
#     4   9  19  38  63  89 117 149 184 223 268 320
#
# _framework density 19.923279000000001
#
# number of rings (size 3 to 8) (size 9 to 14) (size 15 to 20)
#    0.000    2.429    1.429    0.857    0.000    2.857 
#    0.000    5.714    0.000    3.429    0.000    4.000 
#    0.000    0.000    0.000    0.000    0.000    0.000 
#
# Total GULP energy -693909.717440 kJ/mol
# GULP energy per Si atom -12391.244954 kJ/mol
# Density = 1.987793 g / cm^3
# Si number density = 19.923279 Si / 1000 Ang^3
#
#
#
# Elastic Constant Matrix: (Units=GPa)
#
#
# Indices 1 2 3 4 5 6 
#
# 1 113.6371 13.6734 36.9774 0.0000 0.0000 0.0000
# 2 13.6734 10.2566 14.1322 0.0000 0.0000 0.0000
# 3 36.9774 14.1322 105.1747 0.0000 0.0000 0.0000
# 4 0.0000 0.0000 0.0000 24.4289 0.0000 0.0000
# 5 0.0000 0.0000 0.0000 0.0000 7.6229 0.0000
# 6 0.0000 0.0000 0.0000 0.0000 0.0000 22.8187
#
#
#
# Elastic Compliance Matrix: (Units=1/GPa)
#
#
# Indices 1 2 3 4 5 6 
#
# 1 0.010921 -0.011374 -0.002311 0.000000 0.000000 0.000000
# 2 -0.011374 0.131497 -0.013670 0.000000 0.000000 0.000000
# 3 -0.002311 -0.013670 0.012157 0.000000 0.000000 0.000000
# 4 0.000000 0.000000 0.000000 0.040935 0.000000 0.000000
# 5 0.000000 0.000000 0.000000 0.000000 0.131183 0.000000
# 6 0.000000 0.000000 0.000000 0.000000 0.000000 0.043824
#
#
# Mechanical properties :
#
#
# Convention : Reuss Voigt Hill
#
# Bulk Modulus (GPa) = 10.01362 39.84828 24.93095
# Shear Modulus (GPa) = 10.90475 21.92647 16.41561
#
# Velocity S-wave (km/s) = 2.34206 3.32105 2.87355
# Velocity P-wave (km/s) = 3.51435 5.89492 4.85287
#
# Compressibility (1/GPa) = 0.09986394
#
# Stress axis : x y z
#
# Youngs Moduli (GPa) = 91.57023 7.60475 82.25458
#
# Poissons Ratio (x) = 0.08650 0.19010
# Poissons Ratio (y) = 1.04153 1.12443
# Poissons Ratio (z) = 0.21163 0.10396
#
# Static dielectric constant tensor:
#      x y z
#    x 3.610860 0.000000 0.000000 
#    y 0.000000 3.335240 0.000000 
#    z 0.000000 0.000000 3.808440 
# 
# 
# High freq. dielectric constant tensor:
#      x y z
#    x 1.768830 0.000000 0.000000 
#    y 0.000000 1.747020 0.000000 
#    z 0.000000 0.000000 1.784760 
# 
# From -- ./inp_files/29084.got.cif
#   From: 2010.03.12/outbox.cif.g09.slc.cpg/sg59_15_cif.got.tgz:29084.got - 2010.04.16 16:29:54.
