data_PCOD8244375
_publ_section_title
;
Structure prediction by ZEFSAII (Michael W. Deem and Ramdas Pophale) SiO2 
 PCOD8244375
Probable space group: P M M N
;
_chemical_formula_sum "Si O2"
_cell_formula_units_Z 56
_cell_length_a 23.117253
_cell_length_b 8.782360
_cell_length_c 14.496103
_cell_angle_alpha 90.000000
_cell_angle_beta 90.000000
_cell_angle_gamma 90.000000
_cell_volume 2943.057367
_symmetry_space_group_name_H-M "P M M N"
_symmetry_group_IT_number 59
_space_group.IT_coordinate_system_code '2'
_symmetry_cell_setting 'orthorhombic'
loop_
_space_group_symop_operation_xyz
x,y,z
1/2-x,1/2-y,z
1/2+x,-y,-z
-x,1/2+y,-z
-x,-y,-z
1/2+x,1/2+y,-z
1/2-x,y,z
x,1/2-y,z
loop_
_atom_site_type_symbol
_atom_site_label
_atom_site_fract_x
_atom_site_fract_y
_atom_site_fract_z
Si Si1 0.996135 0.424854 0.401249
Si Si2 0.183295 0.930521 0.827279
Si Si3 0.575966 0.930465 0.238330
Si Si4 0.813358 0.071808 0.821449
Si Si5 0.489744 0.070204 0.102422
Si Si6 0.094244 0.080162 0.268862
Si Si7 0.885273 0.070325 0.992868
O O1 0.975031 0.250000 0.406906
O O2 0.954267 0.514494 0.332122
O O3 0.000000 0.500000 0.500000
O O4 0.061927 0.433894 0.365621
O O5 0.250000 0.985417 0.821339
O O6 0.179696 0.750000 0.813130
O O7 0.143284 0.016571 0.751943
O O8 0.155060 0.983333 0.923739
O O9 0.570091 0.750000 0.230336
O O10 0.551305 0.006143 0.142348
O O11 0.750000 0.996460 0.819016
O O12 0.806877 0.250000 0.831281
O O13 0.850344 0.003461 0.905967
O O14 0.849121 0.027770 0.729561
O O15 0.495338 0.250000 0.084353
O O16 0.449283 0.028804 0.188489
O O17 0.453881 0.989490 0.013572
O O18 0.116179 0.250000 0.250394
O O19 0.890518 0.250000 0.990118
#
# Coordination Sequence:
#
# PCOD8244375 Si02
#       7
#     8   8   8   8   8   8   8
#     4  10  20  36  59  85 108 128 157 201 256 318
#     4  10  21  37  55  74 102 143 187 228 268 312
#     4  11  22  36  55  79 107 139 175 216 266 321
#     4   9  16  26  43  68  98 133 172 210 246 289
#     4   9  17  31  50  73 103 136 172 217 266 313
#     4   8  16  29  45  69 100 130 159 195 241 293
#     4   9  17  30  49  73 101 136 180 225 266 308
#
# _framework density 19.027833000000001
#
# number of rings (size 3 to 8) (size 9 to 14) (size 15 to 20)
#    0.000    2.571    0.000    3.429    0.000    7.429 
#    0.000    0.000    0.000    3.429    0.000    4.000 
#    0.000    0.000    0.000    0.000    0.000    0.000 
#
# Total GULP energy -693995.478130 kJ/mol
# GULP energy per Si atom -12392.776395 kJ/mol
# Density = 1.898452 g / cm^3
# Si number density = 19.027833 Si / 1000 Ang^3
#
#
#
# Elastic Constant Matrix: (Units=GPa)
#
#
# Indices 1 2 3 4 5 6 
#
# 1 164.1182 42.7888 45.0093 0.0000 0.0000 0.0000
# 2 42.7888 73.3983 25.5368 0.0000 0.0000 0.0000
# 3 45.0093 25.5368 87.9257 0.0000 0.0000 0.0000
# 4 0.0000 0.0000 0.0000 27.3263 0.0000 0.0000
# 5 0.0000 0.0000 0.0000 0.0000 16.1450 0.0000
# 6 0.0000 0.0000 0.0000 0.0000 0.0000 29.9003
#
#
#
# Elastic Compliance Matrix: (Units=1/GPa)
#
#
# Indices 1 2 3 4 5 6 
#
# 1 0.007831 -0.003527 -0.002984 0.000000 0.000000 0.000000
# 2 -0.003527 0.016744 -0.003058 0.000000 0.000000 0.000000
# 3 -0.002984 -0.003058 0.013789 0.000000 0.000000 0.000000
# 4 0.000000 0.000000 0.000000 0.036595 0.000000 0.000000
# 5 0.000000 0.000000 0.000000 0.000000 0.061939 0.000000
# 6 0.000000 0.000000 0.000000 0.000000 0.000000 0.033444
#
#
# Mechanical properties :
#
#
# Convention : Reuss Voigt Hill
#
# Bulk Modulus (GPa) = 52.01210 61.34578 56.67894
# Shear Modulus (GPa) = 25.52460 28.81481 27.16971
#
# Velocity S-wave (km/s) = 3.66653 3.89569 3.78285
# Velocity P-wave (km/s) = 6.73192 7.24881 6.99514
#
# Compressibility (1/GPa) = 0.01922629
#
# Stress axis : x y z
#
# Youngs Moduli (GPa) = 127.69435 59.72206 72.52141
#
# Poissons Ratio (x) = 0.21064 0.21644
# Poissons Ratio (y) = 0.45038 0.22175
# Poissons Ratio (z) = 0.38110 0.18261
#
# Static dielectric constant tensor:
#      x y z
#    x 3.951990 0.000000 0.000000 
#    y 0.000000 3.336560 0.000000 
#    z 0.000000 0.000000 3.383820 
# 
# 
# High freq. dielectric constant tensor:
#      x y z
#    x 1.756070 0.000000 0.000000 
#    y 0.000000 1.730450 0.000000 
#    z 0.000000 0.000000 1.715510 
# 
# From -- ./inp_files/24313.got.cif
#   From: 2010.03.12/outbox.cif.g09.slc.cpg/sg59_13_cif.got.tgz:24313.got - 2010.04.16 16:29:54.
