data_PCOD8244443
_publ_section_title
;
Structure prediction by ZEFSAII (Michael W. Deem and Ramdas Pophale) SiO2 
 PCOD8244443
Probable space group: P M M N
;
_chemical_formula_sum "Si O2"
_cell_formula_units_Z 48
_cell_length_a 16.482665
_cell_length_b 8.649543
_cell_length_c 16.476412
_cell_angle_alpha 90.000000
_cell_angle_beta 90.000000
_cell_angle_gamma 90.000000
_cell_volume 2349.001192
_symmetry_space_group_name_H-M "P M M N"
_symmetry_group_IT_number 59
_space_group.IT_coordinate_system_code '2'
_symmetry_cell_setting 'orthorhombic'
loop_
_space_group_symop_operation_xyz
x,y,z
1/2-x,1/2-y,z
1/2+x,-y,-z
-x,1/2+y,-z
-x,-y,-z
1/2+x,1/2+y,-z
1/2-x,y,z
x,1/2-y,z
loop_
_atom_site_type_symbol
_atom_site_label
_atom_site_fract_x
_atom_site_fract_y
_atom_site_fract_z
Si Si1 0.577090 0.065043 0.550063
Si Si2 0.892946 0.571548 0.198100
Si Si3 0.750000 0.070334 0.295344
Si Si4 0.841527 0.927132 0.874256
Si Si5 0.844754 0.070652 0.037391
Si Si6 0.750000 0.433315 0.474750
Si Si7 0.953255 0.930315 0.724787
O O1 0.570245 0.250000 0.552376
O O2 0.665173 0.010804 0.515519
O O3 0.500000 0.000000 0.500000
O O4 0.575280 0.992226 0.638769
O O5 0.870516 0.750000 0.204626
O O6 0.827409 0.472052 0.244211
O O7 0.896454 0.521599 0.104132
O O8 0.975688 0.537627 0.243235
O O9 0.750000 0.250000 0.310463
O O10 0.750000 0.992981 0.384420
O O11 0.750000 0.980463 0.861074
O O12 0.849191 0.750000 0.900990
O O13 0.881897 0.957893 0.788333
O O14 0.879094 0.026399 0.948407
O O15 0.750000 0.024175 0.044662
O O16 0.858584 0.250000 0.053167
O O17 0.750000 0.250000 0.474574
O O18 0.978758 0.750000 0.719119
#
# Coordination Sequence:
#
# PCOD8244443 Si02
#       7
#     8   8   4   8   8   4   8
#     4  11  23  43  67  95 129 167 211 263 322 389
#     4  12  24  38  60  90 125 165 208 255 308 372
#     4  11  21  39  65  92 123 158 203 255 314 375
#     4   9  20  39  62  87 120 161 208 259 309 366
#     4  10  20  36  60  89 122 162 206 254 311 368
#     4   9  22  41  65  92 123 164 203 251 320 385
#     4  11  24  41  62  90 125 164 206 260 316 368
#
# _framework density 20.434215999999999
#
# number of rings (size 3 to 8) (size 9 to 14) (size 15 to 20)
#    0.000    1.500    0.833    4.250    1.167    4.000 
#    0.000    3.750    0.000    0.000    0.000    0.000 
#    0.000    0.000    0.000    0.000    0.000    0.000 
#
# Total GULP energy -595181.148000 kJ/mol
# GULP energy per Si atom -12399.607250 kJ/mol
# Density = 2.038771 g / cm^3
# Si number density = 20.434216 Si / 1000 Ang^3
#
#
#
# Elastic Constant Matrix: (Units=GPa)
#
#
# Indices 1 2 3 4 5 6 
#
# 1 102.6207 21.4775 55.6194 0.0000 0.0000 0.0000
# 2 21.4775 66.9459 36.8496 0.0000 0.0000 0.0000
# 3 55.6194 36.8496 165.9150 0.0000 0.0000 0.0000
# 4 0.0000 0.0000 0.0000 38.2522 0.0000 0.0000
# 5 0.0000 0.0000 0.0000 0.0000 26.4857 0.0000
# 6 0.0000 0.0000 0.0000 0.0000 0.0000 27.4859
#
#
#
# Elastic Compliance Matrix: (Units=1/GPa)
#
#
# Indices 1 2 3 4 5 6 
#
# 1 0.012113 -0.001881 -0.003643 0.000000 0.000000 0.000000
# 2 -0.001881 0.017310 -0.003214 0.000000 0.000000 0.000000
# 3 -0.003643 -0.003214 0.007962 0.000000 0.000000 0.000000
# 4 0.000000 0.000000 0.000000 0.026142 0.000000 0.000000
# 5 0.000000 0.000000 0.000000 0.000000 0.037756 0.000000
# 6 0.000000 0.000000 0.000000 0.000000 0.000000 0.036382
#
#
# Mechanical properties :
#
#
# Convention : Reuss Voigt Hill
#
# Bulk Modulus (GPa) = 50.22726 62.59717 56.41221
# Shear Modulus (GPa) = 30.90670 33.21377 32.06024
#
# Velocity S-wave (km/s) = 3.89330 4.03600 3.96529
# Velocity P-wave (km/s) = 6.69655 7.24010 6.97362
#
# Compressibility (1/GPa) = 0.01990951
#
# Stress axis : x y z
#
# Youngs Moduli (GPa) = 82.55869 57.77024 125.59392
#
# Poissons Ratio (x) = 0.10866 0.45751
# Poissons Ratio (y) = 0.15528 0.40366
# Poissons Ratio (z) = 0.30074 0.18567
#
# Static dielectric constant tensor:
#      x y z
#    x 3.680350 0.000000 0.000000 
#    y 0.000000 3.710300 0.000000 
#    z 0.000000 0.000000 3.973600 
# 
# 
# High freq. dielectric constant tensor:
#      x y z
#    x 1.797810 0.000000 0.000000 
#    y 0.000000 1.796770 0.000000 
#    z 0.000000 0.000000 1.817870 
# 
# From -- ./inp_files/23734.got.cif
#   From: 2010.03.12/outbox.cif.g09.slc.cpg/sg59_12_cif.got.tgz:23734.got - 2010.04.16 16:29:54.
