data_PCOD8244559
_publ_section_title
;
Structure prediction by ZEFSAII (Michael W. Deem and Ramdas Pophale) SiO2 
 PCOD8244559
Probable space group: P M M N
;
_chemical_formula_sum "Si O2"
_cell_formula_units_Z 64
_cell_length_a 9.148621
_cell_length_b 28.569021
_cell_length_c 12.475094
_cell_angle_alpha 90.000000
_cell_angle_beta 90.000000
_cell_angle_gamma 90.000000
_cell_volume 3260.579708
_symmetry_space_group_name_H-M "P M M N"
_symmetry_group_IT_number 59
_space_group.IT_coordinate_system_code '2'
_symmetry_cell_setting 'orthorhombic'
loop_
_space_group_symop_operation_xyz
x,y,z
1/2-x,1/2-y,z
1/2+x,-y,-z
-x,1/2+y,-z
-x,-y,-z
1/2+x,1/2+y,-z
1/2-x,y,z
x,1/2-y,z
loop_
_atom_site_type_symbol
_atom_site_label
_atom_site_fract_x
_atom_site_fract_y
_atom_site_fract_z
Si Si1 0.414234 0.453176 0.482742
Si Si2 0.078156 0.125584 0.847050
Si Si3 0.920797 0.196155 0.434148
Si Si4 0.581319 0.302853 0.000308
Si Si5 0.575887 0.980753 0.105961
Si Si6 0.923436 0.863162 0.395904
Si Si7 0.418903 0.853133 0.783580
Si Si8 0.083563 0.055516 0.234724
O O1 0.500000 0.500000 0.500000
O O2 0.250000 0.463153 0.520273
O O3 0.482140 0.411914 0.554617
O O4 0.421793 0.437004 0.360897
O O5 0.250000 0.130620 0.856785
O O6 0.030207 0.073007 0.876998
O O7 0.026304 0.138427 0.727253
O O8 0.007710 0.161903 0.927470
O O9 0.750000 0.188576 0.453506
O O10 0.959469 0.250000 0.415011
O O11 0.973716 0.168104 0.329000
O O12 0.004696 0.179480 0.540179
O O13 0.750000 0.307795 0.968617
O O14 0.525763 0.250000 0.980696
O O15 0.557855 0.314322 0.125272
O O16 0.750000 0.987062 0.100018
O O17 0.511522 0.010077 0.205174
O O18 0.500000 0.000000 0.000000
O O19 0.750000 0.859545 0.408848
O O20 0.250000 0.868457 0.775735
O O21 0.513615 0.898232 0.817616
O O22 0.250000 0.049819 0.192563
#
# Coordination Sequence:
#
# PCOD8244559 Si02
#       8
#     8   8   8   8   8   8   8   8
#     4  10  21  36  56  82 114 152 195 242 289 346
#     4  10  23  41  61  84 117 158 199 244 293 353
#     4  10  21  37  59  88 119 152 196 249 302 357
#     4  10  22  40  62  87 115 150 194 246 302 358
#     4  11  23  40  61  87 120 159 202 248 300 355
#     4  10  21  40  59  81 116 156 196 239 291 351
#     4  10  20  37  61  87 118 156 196 243 302 362
#     4  11  22  36  57  87 121 155 196 245 295 353
#
# _framework density 19.628412000000001
#
# number of rings (size 3 to 8) (size 9 to 14) (size 15 to 20)
#    0.000    1.750    1.250    2.625    0.000    9.000 
#    0.000    2.500    0.000    2.250    0.000    0.000 
#    0.000    0.000    0.000    0.000    0.000    0.000 
#
# Total GULP energy -793832.804991 kJ/mol
# GULP energy per Si atom -12403.637578 kJ/mol
# Density = 1.958374 g / cm^3
# Si number density = 19.628412 Si / 1000 Ang^3
#
#
#
# Elastic Constant Matrix: (Units=GPa)
#
#
# Indices 1 2 3 4 5 6 
#
# 1 59.8892 51.2663 37.5810 0.0000 0.0000 0.0000
# 2 51.2663 141.4250 50.5802 0.0000 0.0000 0.0000
# 3 37.5810 50.5802 110.4731 0.0000 0.0000 0.0000
# 4 0.0000 0.0000 0.0000 36.3772 0.0000 0.0000
# 5 0.0000 0.0000 0.0000 0.0000 32.1433 0.0000
# 6 0.0000 0.0000 0.0000 0.0000 0.0000 35.7400
#
#
#
# Elastic Compliance Matrix: (Units=1/GPa)
#
#
# Indices 1 2 3 4 5 6 
#
# 1 0.026813 -0.007722 -0.005586 0.000000 0.000000 0.000000
# 2 -0.007722 0.010679 -0.002263 0.000000 0.000000 0.000000
# 3 -0.005586 -0.002263 0.011988 0.000000 0.000000 0.000000
# 4 0.000000 0.000000 0.000000 0.027490 0.000000 0.000000
# 5 0.000000 0.000000 0.000000 0.000000 0.031111 0.000000
# 6 0.000000 0.000000 0.000000 0.000000 0.000000 0.027980
#
#
# Mechanical properties :
#
#
# Convention : Reuss Voigt Hill
#
# Bulk Modulus (GPa) = 54.52701 65.62691 60.07696
# Shear Modulus (GPa) = 28.84939 32.34276 30.59608
#
# Velocity S-wave (km/s) = 3.83793 4.06366 3.95240
# Velocity P-wave (km/s) = 6.89054 7.45151 7.17651
#
# Compressibility (1/GPa) = 0.01833954
#
# Stress axis : x y z
#
# Youngs Moduli (GPa) = 37.29588 93.63940 83.41580
#
# Poissons Ratio (x) = 0.72306 0.46594
# Poissons Ratio (y) = 0.28799 0.18874
# Poissons Ratio (z) = 0.20833 0.21188
#
# Static dielectric constant tensor:
#      x y z
#    x 3.774830 0.000000 0.000000 
#    y 0.000000 3.654240 0.000000 
#    z 0.000000 0.000000 3.826540 
# 
# 
# High freq. dielectric constant tensor:
#      x y z
#    x 1.757510 0.000000 0.000000 
#    y 0.000000 1.773210 0.000000 
#    z 0.000000 0.000000 1.773890 
# 
# From -- ./inp_files/15002.got.cif
#   From: 2010.03.12/outbox.cif.g09.slc.cpg/sg59_8_cif.got.tgz:15002.got - 2010.04.16 16:29:54.
