data_PCOD8244869
_publ_section_title
;
Structure prediction by ZEFSAII (Michael W. Deem and Ramdas Pophale) SiO2 
 PCOD8244869
Probable space group: P M M N
;
_chemical_formula_sum "Si O2"
_cell_formula_units_Z 56
_cell_length_a 8.800096
_cell_length_b 14.976974
_cell_length_c 21.742484
_cell_angle_alpha 90.000000
_cell_angle_beta 90.000000
_cell_angle_gamma 90.000000
_cell_volume 2865.633496
_symmetry_space_group_name_H-M "P M M N"
_symmetry_group_IT_number 59
_space_group.IT_coordinate_system_code '2'
_symmetry_cell_setting 'orthorhombic'
loop_
_space_group_symop_operation_xyz
x,y,z
1/2-x,1/2-y,z
1/2+x,-y,-z
-x,1/2+y,-z
-x,-y,-z
1/2+x,1/2+y,-z
1/2-x,y,z
x,1/2-y,z
loop_
_atom_site_type_symbol
_atom_site_label
_atom_site_fract_x
_atom_site_fract_y
_atom_site_fract_z
Si Si1 0.930006 0.001049 0.221006
Si Si2 0.572664 0.853411 0.432956
Si Si3 0.926802 0.147195 0.438104
Si Si4 0.081918 0.356176 0.004988
Si Si5 0.428488 0.650281 0.873148
Si Si6 0.430942 0.150746 0.871464
Si Si7 0.571028 0.996986 0.646830
O O1 0.750000 0.998665 0.235088
O O2 0.978645 0.089316 0.183792
O O3 0.026376 0.999770 0.282450
O O4 0.983864 0.915508 0.181901
O O5 0.750000 0.875671 0.427382
O O6 0.538269 0.750000 0.419059
O O7 0.518386 0.879582 0.500954
O O8 0.480511 0.910636 0.383856
O O9 0.750000 0.128169 0.450042
O O10 0.955528 0.250000 0.420160
O O11 0.986223 0.087320 0.382673
O O12 0.250000 0.396869 0.012269
O O13 0.088069 0.250000 0.006702
O O14 0.009702 0.383250 0.938595
O O15 0.984150 0.392048 0.062319
O O16 0.250000 0.653056 0.877660
O O17 0.494827 0.750000 0.862146
O O18 0.250000 0.153153 0.876052
O O19 0.493359 0.250000 0.855971
O O20 0.750000 0.984908 0.639157
#
# Coordination Sequence:
#
# PCOD8244869 Si02
#       7
#     8   8   8   8   8   8   8
#     4  10  21  36  52  72 100 139 186 224 262 320
#     4  10  21  39  64  91 117 147 185 227 272 324
#     4  10  21  39  64  91 117 146 183 228 276 325
#     4   8  14  27  49  74  97 125 165 213 266 322
#     4   9  18  32  49  71 101 134 168 213 268 322
#     4   8  15  30  52  75  98 127 168 220 272 321
#     4  12  25  39  56  81 117 154 188 230 277 328
#
# _framework density 19.541927000000001
#
# number of rings (size 3 to 8) (size 9 to 14) (size 15 to 20)
#    0.000    2.429    0.000    3.429    0.000    4.000 
#    0.000    3.571    0.000    0.857    0.000    0.000 
#    0.000    0.000    0.000    0.000    0.000    0.000 
#
# Total GULP energy -694319.076575 kJ/mol
# GULP energy per Si atom -12398.554939 kJ/mol
# Density = 1.949745 g / cm^3
# Si number density = 19.541927 Si / 1000 Ang^3
#
#
#
# Elastic Constant Matrix: (Units=GPa)
#
#
# Indices 1 2 3 4 5 6 
#
# 1 40.0279 27.0277 24.5617 0.0000 0.0000 0.0000
# 2 27.0277 98.1285 61.0479 0.0000 0.0000 0.0000
# 3 24.5617 61.0479 136.3283 0.0000 0.0000 0.0000
# 4 0.0000 0.0000 0.0000 34.7396 0.0000 0.0000
# 5 0.0000 0.0000 0.0000 0.0000 39.5911 0.0000
# 6 0.0000 0.0000 0.0000 0.0000 0.0000 20.3178
#
#
#
# Elastic Compliance Matrix: (Units=1/GPa)
#
#
# Indices 1 2 3 4 5 6 
#
# 1 0.031276 -0.007082 -0.002464 0.000000 0.000000 0.000000
# 2 -0.007082 0.015730 -0.005768 0.000000 0.000000 0.000000
# 3 -0.002464 -0.005768 0.010362 0.000000 0.000000 0.000000
# 4 0.000000 0.000000 0.000000 0.028786 0.000000 0.000000
# 5 0.000000 0.000000 0.000000 0.000000 0.025258 0.000000
# 6 0.000000 0.000000 0.000000 0.000000 0.000000 0.049218
#
#
# Mechanical properties :
#
#
# Convention : Reuss Voigt Hill
#
# Bulk Modulus (GPa) = 37.39561 55.52879 46.46220
# Shear Modulus (GPa) = 24.97887 29.71954 27.34920
#
# Velocity S-wave (km/s) = 3.57910 3.90399 3.74507
# Velocity P-wave (km/s) = 6.02142 6.98558 6.52135
#
# Compressibility (1/GPa) = 0.02674111
#
# Stress axis : x y z
#
# Youngs Moduli (GPa) = 31.97338 63.57470 96.50711
#
# Poissons Ratio (x) = 0.45022 0.23776
# Poissons Ratio (y) = 0.22643 0.55663
# Poissons Ratio (z) = 0.07877 0.36669
#
# Static dielectric constant tensor:
#      x y z
#    x 3.437200 0.000000 0.000000 
#    y 0.000000 3.974720 0.000000 
#    z 0.000000 0.000000 3.626000 
# 
# 
# High freq. dielectric constant tensor:
#      x y z
#    x 1.742310 0.000000 0.000000 
#    y 0.000000 1.765030 0.000000 
#    z 0.000000 0.000000 1.763510 
# 
# From -- ./inp_files/29069.got.cif
#   From: 2010.03.12/outbox.cif.g09.slc.cpg/sg59_15_cif.got.tgz:29069.got - 2010.04.16 16:29:54.
