data_PCOD8244774
_publ_section_title
;
Structure prediction by ZEFSAII (Michael W. Deem and Ramdas Pophale) SiO2 
 PCOD8244774
Probable space group: P M M N
;
_chemical_formula_sum "Si O2"
_cell_formula_units_Z 64
_cell_length_a 31.241759
_cell_length_b 9.744897
_cell_length_c 11.404137
_cell_angle_alpha 90.000000
_cell_angle_beta 90.000000
_cell_angle_gamma 90.000000
_cell_volume 3471.963549
_symmetry_space_group_name_H-M "P M M N"
_symmetry_group_IT_number 59
_space_group.IT_coordinate_system_code '2'
_symmetry_cell_setting 'orthorhombic'
loop_
_space_group_symop_operation_xyz
x,y,z
1/2-x,1/2-y,z
1/2+x,-y,-z
-x,1/2+y,-z
-x,-y,-z
1/2+x,1/2+y,-z
1/2-x,y,z
x,1/2-y,z
loop_
_atom_site_type_symbol
_atom_site_label
_atom_site_fract_x
_atom_site_fract_y
_atom_site_fract_z
Si Si1 0.202173 0.586632 0.096382
Si Si2 0.300641 0.598081 0.355701
Si Si3 0.377537 0.590051 0.945792
Si Si4 0.471427 0.908312 0.340205
Si Si5 0.033759 0.590376 0.070836
Si Si6 0.440765 0.406075 0.533391
Si Si7 0.628278 0.594096 0.275015
Si Si8 0.798756 0.906932 0.439621
O O1 0.250000 0.531349 0.062376
O O2 0.203303 0.750000 0.097861
O O3 0.188449 0.537661 0.226799
O O4 0.165989 0.533584 0.006598
O O5 0.250000 0.607986 0.366773
O O6 0.320805 0.750000 0.372863
O O7 0.318860 0.497930 0.455738
O O8 0.373063 0.750000 0.915559
O O9 0.384880 0.508790 0.826450
O O10 0.418080 0.562266 0.028176
O O11 0.458426 0.750000 0.354326
O O12 0.468043 0.955004 0.205900
O O13 0.519270 0.938995 0.382820
O O14 0.439088 0.997131 0.419327
O O15 0.021198 0.750000 0.055654
O O16 0.000000 0.500000 0.000000
O O17 0.442429 0.250000 0.488464
O O18 0.399213 0.436173 0.609638
O O19 0.621041 0.750000 0.230635
O O20 0.676898 0.568286 0.316830
O O21 0.750000 0.947514 0.413974
O O22 0.803535 0.750000 0.480686
#
# Coordination Sequence:
#
# PCOD8244774 Si02
#       8
#     8   8   8   8   8   8   8   8
#     4   8  15  30  51  74 103 136 166 205 258 304
#     4   8  14  27  49  74  97 124 160 200 245 298
#     4  10  21  35  52  76 101 129 173 217 248 292
#     4   9  18  33  53  76 100 126 158 198 243 288
#     4  10  21  36  54  77 105 136 169 207 251 298
#     4   9  18  33  52  73  98 128 161 196 239 293
#     4  10  21  36  51  69  99 136 168 203 251 300
#     4   9  18  32  49  70  98 131 165 203 247 293
#
# _framework density 18.433373
#
# number of rings (size 3 to 8) (size 9 to 14) (size 15 to 20)
#    0.000    2.875    0.000    1.500    0.000    4.500 
#    0.000    4.375    0.000    0.750    0.000    0.000 
#    0.000    0.000    0.000    0.000    0.000    0.000 
#
# Total GULP energy -793464.303472 kJ/mol
# GULP energy per Si atom -12397.879742 kJ/mol
# Density = 1.839142 g / cm^3
# Si number density = 18.433373 Si / 1000 Ang^3
#
#
#
# Elastic Constant Matrix: (Units=GPa)
#
#
# Indices 1 2 3 4 5 6 
#
# 1 78.9855 37.0752 46.4281 0.0000 0.0000 0.0000
# 2 37.0752 70.1104 65.9126 0.0000 0.0000 0.0000
# 3 46.4281 65.9126 130.0963 0.0000 0.0000 0.0000
# 4 0.0000 0.0000 0.0000 31.4887 0.0000 0.0000
# 5 0.0000 0.0000 0.0000 0.0000 21.2892 0.0000
# 6 0.0000 0.0000 0.0000 0.0000 0.0000 21.1843
#
#
#
# Elastic Compliance Matrix: (Units=1/GPa)
#
#
# Indices 1 2 3 4 5 6 
#
# 1 0.017417 -0.006429 -0.002959 0.000000 0.000000 0.000000
# 2 -0.006429 0.029609 -0.012707 0.000000 0.000000 0.000000
# 3 -0.002959 -0.012707 0.015180 0.000000 0.000000 0.000000
# 4 0.000000 0.000000 0.000000 0.031757 0.000000 0.000000
# 5 0.000000 0.000000 0.000000 0.000000 0.046972 0.000000
# 6 0.000000 0.000000 0.000000 0.000000 0.000000 0.047205
#
#
# Mechanical properties :
#
#
# Convention : Reuss Voigt Hill
#
# Bulk Modulus (GPa) = 55.50105 64.22490 59.86297
# Shear Modulus (GPa) = 20.97877 23.44419 22.21148
#
# Velocity S-wave (km/s) = 3.37721 3.57015 3.47502
# Velocity P-wave (km/s) = 6.73660 7.20499 6.97473
#
# Compressibility (1/GPa) = 0.01801768
#
# Stress axis : x y z
#
# Youngs Moduli (GPa) = 57.41395 33.77340 65.87466
#
# Poissons Ratio (x) = 0.21713 0.19489
# Poissons Ratio (y) = 0.36912 0.83706
# Poissons Ratio (z) = 0.16986 0.42916
#
# Static dielectric constant tensor:
#      x y z
#    x 3.469530 0.000000 0.000000 
#    y 0.000000 3.378260 0.000000 
#    z 0.000000 0.000000 3.427000 
# 
# 
# High freq. dielectric constant tensor:
#      x y z
#    x 1.714410 0.000000 0.000000 
#    y 0.000000 1.696880 0.000000 
#    z 0.000000 0.000000 1.712280 
# 
# From -- ./inp_files/19328.got.cif
#   From: 2010.03.12/outbox.cif.g09.slc.cpg/sg59_10_cif.got.tgz:19328.got - 2010.04.16 16:29:54.
