data_PCOD8244418
_publ_section_title
;
Structure prediction by ZEFSAII (Michael W. Deem and Ramdas Pophale) SiO2 
 PCOD8244418
Probable space group: P M M N
;
_chemical_formula_sum "Si O2"
_cell_formula_units_Z 48
_cell_length_a 18.360064
_cell_length_b 15.384239
_cell_length_c 9.059295
_cell_angle_alpha 90.000000
_cell_angle_beta 90.000000
_cell_angle_gamma 90.000000
_cell_volume 2558.848719
_symmetry_space_group_name_H-M "P M M N"
_symmetry_group_IT_number 59
_space_group.IT_coordinate_system_code '2'
_symmetry_cell_setting 'orthorhombic'
loop_
_space_group_symop_operation_xyz
x,y,z
1/2-x,1/2-y,z
1/2+x,-y,-z
-x,1/2+y,-z
-x,-y,-z
1/2+x,1/2+y,-z
1/2-x,y,z
x,1/2-y,z
loop_
_atom_site_type_symbol
_atom_site_label
_atom_site_fract_x
_atom_site_fract_y
_atom_site_fract_z
Si Si1 0.164831 0.491969 0.303835
Si Si2 0.581536 0.149637 0.199746
Si Si3 0.666542 0.008767 0.362404
Si Si4 0.938474 0.846734 0.647038
Si Si5 0.431927 0.151412 0.689596
Si Si6 0.454010 0.571581 0.091145
O O1 0.250000 0.495974 0.259471
O O2 0.149755 0.531874 0.466307
O O3 0.137960 0.392584 0.316788
O O4 0.115641 0.536468 0.179991
O O5 0.593015 0.250000 0.244597
O O6 0.505632 0.110534 0.264352
O O7 0.645996 0.092956 0.268007
O O8 0.580246 0.139660 0.024024
O O9 0.750000 0.988783 0.340054
O O10 0.630350 0.921183 0.298022
O O11 0.926676 0.750000 0.704839
O O12 0.961947 0.850795 0.476650
O O13 0.403758 0.250000 0.725963
O O14 0.496029 0.126273 0.799523
O O15 0.500000 0.500000 0.000000
#
# Coordination Sequence:
#
# PCOD8244418 Si02
#       6
#     8   8   8   8   8   8
#     4  10  21  37  58  82 115 153 189 234 294 349
#     4  11  22  37  58  84 113 151 196 239 282 337
#     4  10  21  38  59  85 115 151 193 241 291 340
#     4   9  18  34  58  86 112 144 190 238 285 337
#     4  10  20  36  60  86 115 149 188 237 286 340
#     4  12  21  36  57  85 115 155 190 235 284 341
#
# _framework density 18.758434999999999
#
# number of rings (size 3 to 8) (size 9 to 14) (size 15 to 20)
#    0.000    1.667    3.333    1.500    0.000    4.333 
#    0.000    4.167    0.000    3.500    0.000    0.000 
#    0.000    0.000    0.000    0.000    0.000    0.000 
#
# Total GULP energy -594991.263254 kJ/mol
# GULP energy per Si atom -12395.651318 kJ/mol
# Density = 1.871574 g / cm^3
# Si number density = 18.758435 Si / 1000 Ang^3
#
#
#
# Elastic Constant Matrix: (Units=GPa)
#
#
# Indices 1 2 3 4 5 6 
#
# 1 82.6029 42.6427 59.2390 0.0000 0.0000 0.0000
# 2 42.6427 100.5921 48.2883 0.0000 0.0000 0.0000
# 3 59.2390 48.2883 102.0514 0.0000 0.0000 0.0000
# 4 0.0000 0.0000 0.0000 28.6081 0.0000 0.0000
# 5 0.0000 0.0000 0.0000 0.0000 26.2915 0.0000
# 6 0.0000 0.0000 0.0000 0.0000 0.0000 15.8782
#
#
#
# Elastic Compliance Matrix: (Units=1/GPa)
#
#
# Indices 1 2 3 4 5 6 
#
# 1 0.021993 -0.004134 -0.010810 0.000000 0.000000 0.000000
# 2 -0.004134 0.013640 -0.004055 0.000000 0.000000 0.000000
# 3 -0.010810 -0.004055 0.017993 0.000000 0.000000 0.000000
# 4 0.000000 0.000000 0.000000 0.034955 0.000000 0.000000
# 5 0.000000 0.000000 0.000000 0.000000 0.038035 0.000000
# 6 0.000000 0.000000 0.000000 0.000000 0.000000 0.062980
#
#
# Mechanical properties :
#
#
# Convention : Reuss Voigt Hill
#
# Bulk Modulus (GPa) = 63.98739 65.06516 64.52628
# Shear Modulus (GPa) = 21.47749 23.16066 22.31908
#
# Velocity S-wave (km/s) = 3.38738 3.51761 3.45311
# Velocity P-wave (km/s) = 7.03452 7.15956 7.09731
#
# Compressibility (1/GPa) = 0.01562808
#
# Stress axis : x y z
#
# Youngs Moduli (GPa) = 45.46933 73.31487 55.57786
#
# Poissons Ratio (x) = 0.30306 0.60082
# Poissons Ratio (y) = 0.18796 0.22534
# Poissons Ratio (z) = 0.49155 0.29726
#
# Static dielectric constant tensor:
#      x y z
#    x 3.355530 0.000000 0.000000 
#    y 0.000000 3.496170 0.000000 
#    z 0.000000 0.000000 3.665070 
# 
# 
# High freq. dielectric constant tensor:
#      x y z
#    x 1.713590 0.000000 0.000000 
#    y 0.000000 1.729220 0.000000 
#    z 0.000000 0.000000 1.737900 
# 
# From -- ./inp_files/9010.got.cif
#   From: 2010.03.12/outbox.cif.g09.slc.cpg/sg59_5_cif.got.tgz:9010.got - 2010.04.16 16:29:54.
