data_PCOD8244033
_publ_section_title
;
Structure prediction by ZEFSAII (Michael W. Deem and Ramdas Pophale) SiO2 
 PCOD8244033
Probable space group: P M M N
;
_chemical_formula_sum "Si O2"
_cell_formula_units_Z 64
_cell_length_a 8.823538
_cell_length_b 24.516192
_cell_length_c 14.977447
_cell_angle_alpha 90.000000
_cell_angle_beta 90.000000
_cell_angle_gamma 90.000000
_cell_volume 3239.914621
_symmetry_space_group_name_H-M "P M M N"
_symmetry_group_IT_number 59
_space_group.IT_coordinate_system_code '2'
_symmetry_cell_setting 'orthorhombic'
loop_
_space_group_symop_operation_xyz
x,y,z
1/2-x,1/2-y,z
1/2+x,-y,-z
-x,1/2+y,-z
-x,-y,-z
1/2+x,1/2+y,-z
1/2-x,y,z
x,1/2-y,z
loop_
_atom_site_type_symbol
_atom_site_label
_atom_site_fract_x
_atom_site_fract_y
_atom_site_fract_z
Si Si1 0.574949 0.996493 0.344902
Si Si2 0.428385 0.114111 0.857390
Si Si3 0.073583 0.686457 0.498712
Si Si4 0.425138 0.993412 0.156880
Si Si5 0.928353 0.887929 0.832901
Si Si6 0.568770 0.689021 0.985185
Si Si7 0.929777 0.603077 0.631271
Si Si8 0.075567 0.375290 0.654140
O O1 0.750000 0.006753 0.318107
O O2 0.511539 0.047083 0.404203
O O3 0.465953 0.995242 0.260445
O O4 0.560785 0.936279 0.389208
O O5 0.250000 0.112224 0.859263
O O6 0.483462 0.054750 0.891788
O O7 0.491191 0.159815 0.924900
O O8 0.483910 0.125986 0.756545
O O9 0.250000 0.675137 0.514463
O O10 0.034405 0.750000 0.508457
O O11 0.975504 0.653870 0.570733
O O12 0.027698 0.666690 0.400001
O O13 0.250000 0.979967 0.145502
O O14 0.466434 0.053742 0.120140
O O15 0.750000 0.880552 0.826199
O O16 0.990864 0.883867 0.731682
O O17 0.996679 0.841275 0.897132
O O18 0.750000 0.688527 0.984002
O O19 0.503735 0.750000 0.984695
O O20 0.750000 0.594685 0.626835
O O21 0.250000 0.356054 0.649499
#
# Coordination Sequence:
#
# PCOD8244033 Si02
#       8
#     8   8   8   8   8   8   8   8
#     4   9  17  32  55  83 112 138 169 212 262 318
#     4   9  18  32  52  79 106 133 170 214 260 311
#     4  11  25  41  55  75 103 138 182 225 265 312
#     4   9  16  28  48  75 107 140 173 211 258 312
#     4   8  16  30  49  77 108 135 169 211 255 308
#     4   9  17  30  49  74 104 137 175 218 259 303
#     4  10  20  35  57  83 110 141 175 215 265 318
#     4   9  19  35  55  79 106 137 173 215 264 315
#
# _framework density 19.753606000000001
#
# number of rings (size 3 to 8) (size 9 to 14) (size 15 to 20)
#    0.000    2.750    0.000    3.000    0.000    5.500 
#    0.000    2.500    0.000    4.125    0.000    0.000 
#    0.000    0.000    0.000    0.000    0.000    0.000 
#
# Total GULP energy -793140.464157 kJ/mol
# GULP energy per Si atom -12392.819752 kJ/mol
# Density = 1.970865 g / cm^3
# Si number density = 19.753606 Si / 1000 Ang^3
#
#
#
# Elastic Constant Matrix: (Units=GPa)
#
#
# Indices 1 2 3 4 5 6 
#
# 1 26.7107 28.2820 19.4407 0.0000 0.0000 0.0000
# 2 28.2820 104.4266 22.8210 0.0000 0.0000 0.0000
# 3 19.4407 22.8210 56.6351 0.0000 0.0000 0.0000
# 4 0.0000 0.0000 0.0000 35.1321 0.0000 0.0000
# 5 0.0000 0.0000 0.0000 0.0000 12.8932 0.0000
# 6 0.0000 0.0000 0.0000 0.0000 0.0000 29.4870
#
#
#
# Elastic Compliance Matrix: (Units=1/GPa)
#
#
# Indices 1 2 3 4 5 6 
#
# 1 0.063911 -0.013723 -0.016409 0.000000 0.000000 0.000000
# 2 -0.013723 0.013448 -0.000708 0.000000 0.000000 0.000000
# 3 -0.016409 -0.000708 0.023575 0.000000 0.000000 0.000000
# 4 0.000000 0.000000 0.000000 0.028464 0.000000 0.000000
# 5 0.000000 0.000000 0.000000 0.000000 0.077560 0.000000
# 6 0.000000 0.000000 0.000000 0.000000 0.000000 0.033913
#
#
# Mechanical properties :
#
#
# Convention : Reuss Voigt Hill
#
# Bulk Modulus (GPa) = 25.47530 36.54001 31.00765
# Shear Modulus (GPa) = 15.84107 23.31770 19.57938
#
# Velocity S-wave (km/s) = 2.83491 3.43946 3.15172
# Velocity P-wave (km/s) = 4.86212 5.85758 5.38291
#
# Compressibility (1/GPa) = 0.03925372
#
# Stress axis : x y z
#
# Youngs Moduli (GPa) = 15.64669 74.36319 42.41848
#
# Poissons Ratio (x) = 1.02051 0.69603
# Poissons Ratio (y) = 0.21472 0.03003
# Poissons Ratio (z) = 0.25674 0.05265
#
# Static dielectric constant tensor:
#      x y z
#    x 3.328210 0.000000 0.000000 
#    y 0.000000 3.972170 0.000000 
#    z 0.000000 0.000000 3.616430 
# 
# 
# High freq. dielectric constant tensor:
#      x y z
#    x 1.743420 0.000000 0.000000 
#    y 0.000000 1.776350 0.000000 
#    z 0.000000 0.000000 1.755960 
# 
# From -- ./inp_files/21542.got.cif
#   From: 2010.03.12/outbox.cif.g09.slc.cpg/sg59_11_cif.got.tgz:21542.got - 2010.04.16 16:29:54.
