data_PCOD8244894
_publ_section_title
;
Structure prediction by ZEFSAII (Michael W. Deem and Ramdas Pophale) SiO2 
 PCOD8244894
Probable space group: P M M N
;
_chemical_formula_sum "Si O2"
_cell_formula_units_Z 64
_cell_length_a 9.275543
_cell_length_b 14.964297
_cell_length_c 23.653520
_cell_angle_alpha 90.000000
_cell_angle_beta 90.000000
_cell_angle_gamma 90.000000
_cell_volume 3283.155417
_symmetry_space_group_name_H-M "P M M N"
_symmetry_group_IT_number 59
_space_group.IT_coordinate_system_code '2'
_symmetry_cell_setting 'orthorhombic'
loop_
_space_group_symop_operation_xyz
x,y,z
1/2-x,1/2-y,z
1/2+x,-y,-z
-x,1/2+y,-z
-x,-y,-z
1/2+x,1/2+y,-z
1/2-x,y,z
x,1/2-y,z
loop_
_atom_site_type_symbol
_atom_site_label
_atom_site_fract_x
_atom_site_fract_y
_atom_site_fract_z
Si Si1 0.579383 0.490370 0.697968
Si Si2 0.088610 0.889016 0.879252
Si Si3 0.082270 0.355576 0.487506
Si Si4 0.411914 0.151831 0.227831
Si Si5 0.581239 0.999994 0.417382
Si Si6 0.086127 0.852524 0.003480
Si Si7 0.588163 0.906894 0.107496
Si Si8 0.088223 0.849124 0.209988
O O1 0.750000 0.487399 0.684772
O O2 0.528041 0.583861 0.725449
O O3 0.490240 0.474872 0.641630
O O4 0.529733 0.413846 0.741444
O O5 0.250000 0.849760 0.876410
O O6 0.998281 0.843684 0.830255
O O7 0.088056 0.993901 0.868417
O O8 0.022250 0.864595 0.940467
O O9 0.250000 0.360381 0.470308
O O10 0.035815 0.250000 0.493422
O O11 0.054115 0.411396 0.544860
O O12 0.990437 0.408048 0.440164
O O13 0.250000 0.122347 0.212029
O O14 0.416894 0.250000 0.255656
O O15 0.750000 0.019241 0.410448
O O16 0.250000 0.889727 0.005257
O O17 0.080878 0.750000 0.022282
O O18 0.989211 0.907785 0.046862
O O19 0.750000 0.869922 0.099889
O O20 0.506451 0.847711 0.153452
O O21 0.250000 0.878184 0.192537
O O22 0.085734 0.750000 0.235810
#
# Coordination Sequence:
#
# PCOD8244894 Si02
#       8
#     8   8   8   8   8   8   8   8
#     4  10  21  38  57  81 116 154 192 233 277 332
#     4  10  21  37  56  78 105 139 179 224 281 343
#     4   9  19  38  62  87 120 162 199 233 282 338
#     4  10  21  37  58  82 107 142 187 232 281 335
#     4  10  21  36  58  90 123 154 195 243 285 329
#     4  10  21  36  53  74 102 138 178 221 277 346
#     4  11  22  35  54  80 107 137 178 229 285 339
#     4  10  21  38  59  80 106 147 193 232 277 335
#
# _framework density 19.493442000000002
#
# number of rings (size 3 to 8) (size 9 to 14) (size 15 to 20)
#    0.000    2.000    1.250    1.875    0.000    6.500 
#    0.000    1.250    0.000    0.000    0.000    0.000 
#    0.000    0.000    0.000    0.000    0.000    0.000 
#
# Total GULP energy -793572.270661 kJ/mol
# GULP energy per Si atom -12399.566729 kJ/mol
# Density = 1.944907 g / cm^3
# Si number density = 19.493442 Si / 1000 Ang^3
#
#
#
# Elastic Constant Matrix: (Units=GPa)
#
#
# Indices 1 2 3 4 5 6 
#
# 1 79.4155 25.5477 48.3442 0.0000 0.0000 0.0000
# 2 25.5477 101.9193 24.6638 0.0000 0.0000 0.0000
# 3 48.3442 24.6638 106.3933 0.0000 0.0000 0.0000
# 4 0.0000 0.0000 0.0000 12.6141 0.0000 0.0000
# 5 0.0000 0.0000 0.0000 0.0000 38.1778 0.0000
# 6 0.0000 0.0000 0.0000 0.0000 0.0000 7.9582
#
#
#
# Elastic Compliance Matrix: (Units=1/GPa)
#
#
# Indices 1 2 3 4 5 6 
#
# 1 0.018080 -0.002695 -0.007591 0.000000 0.000000 0.000000
# 2 -0.002695 0.010797 -0.001278 0.000000 0.000000 0.000000
# 3 -0.007591 -0.001278 0.013144 0.000000 0.000000 0.000000
# 4 0.000000 0.000000 0.000000 0.079276 0.000000 0.000000
# 5 0.000000 0.000000 0.000000 0.000000 0.026193 0.000000
# 6 0.000000 0.000000 0.000000 0.000000 0.000000 0.125657
#
#
# Mechanical properties :
#
#
# Convention : Reuss Voigt Hill
#
# Bulk Modulus (GPa) = 52.92929 53.87106 53.40018
# Shear Modulus (GPa) = 16.52497 24.36151 20.44324
#
# Velocity S-wave (km/s) = 2.91472 3.53899 3.24191
# Velocity P-wave (km/s) = 6.20796 6.66293 6.43947
#
# Compressibility (1/GPa) = 0.01889313
#
# Stress axis : x y z
#
# Youngs Moduli (GPa) = 55.31055 92.62202 76.07771
#
# Poissons Ratio (x) = 0.24963 0.57747
# Poissons Ratio (y) = 0.14907 0.09724
# Poissons Ratio (z) = 0.41983 0.11839
#
# Static dielectric constant tensor:
#      x y z
#    x 3.554380 0.000000 0.000000 
#    y 0.000000 3.650520 0.000000 
#    z 0.000000 0.000000 3.370420 
# 
# 
# High freq. dielectric constant tensor:
#      x y z
#    x 1.751570 0.000000 0.000000 
#    y 0.000000 1.770420 0.000000 
#    z 0.000000 0.000000 1.750000 
# 
# From -- ./inp_files/31471.got.cif
#   From: 2010.03.12/outbox.cif.g09.slc.cpg/sg59_16_cif.got.tgz:31471.got - 2010.04.16 16:29:54.
