data_PCOD8244289
_publ_section_title
;
Structure prediction by ZEFSAII (Michael W. Deem and Ramdas Pophale) SiO2 
 PCOD8244289
Probable space group: P M M N
;
_chemical_formula_sum "Si O2"
_cell_formula_units_Z 48
_cell_length_a 14.525738
_cell_length_b 8.790722
_cell_length_c 20.339400
_cell_angle_alpha 90.000000
_cell_angle_beta 90.000000
_cell_angle_gamma 90.000000
_cell_volume 2597.173063
_symmetry_space_group_name_H-M "P M M N"
_symmetry_group_IT_number 59
_space_group.IT_coordinate_system_code '2'
_symmetry_cell_setting 'orthorhombic'
loop_
_space_group_symop_operation_xyz
x,y,z
1/2-x,1/2-y,z
1/2+x,-y,-z
-x,1/2+y,-z
-x,-y,-z
1/2+x,1/2+y,-z
1/2-x,y,z
x,1/2-y,z
loop_
_atom_site_type_symbol
_atom_site_label
_atom_site_fract_x
_atom_site_fract_y
_atom_site_fract_z
Si Si1 0.060935 0.428128 0.942892
Si Si2 0.750000 0.068875 0.025144
Si Si3 0.065553 0.070955 0.318037
Si Si4 0.750000 0.430288 0.481754
Si Si5 0.445751 0.929514 0.559967
Si Si6 0.250000 0.569586 0.369453
Si Si7 0.750000 0.430425 0.876208
Si Si8 0.559483 0.427512 0.816618
O O1 0.070055 0.250000 0.957020
O O2 0.160425 0.505067 0.938505
O O3 0.013534 0.460486 0.873372
O O4 0.000000 0.500000 0.000000
O O5 0.750000 0.250000 0.028733
O O6 0.750000 0.007182 0.950485
O O7 0.081241 0.250000 0.320690
O O8 0.990140 0.017750 0.371505
O O9 0.161330 0.988315 0.331097
O O10 0.027483 0.020428 0.247250
O O11 0.750000 0.250000 0.486045
O O12 0.659808 0.488300 0.442908
O O13 0.750000 0.495230 0.556173
O O14 0.450136 0.750000 0.551643
O O15 0.500000 0.000000 0.500000
O O16 0.250000 0.750000 0.367958
O O17 0.750000 0.250000 0.880026
O O18 0.659493 0.489559 0.838977
O O19 0.564671 0.250000 0.799346
#
# Coordination Sequence:
#
# PCOD8244289 Si02
#       8
#     8   4   8   4   8   4   4   8
#     4  11  22  38  61  89 118 153 196 243 290 344
#     4  11  21  38  61  88 120 151 193 243 292 347
#     4  11  23  36  54  85 120 147 185 241 288 329
#     4   9  18  34  57  82 106 144 188 223 272 341
#     4  10  20  36  57  81 111 144 185 232 277 333
#     4  11  20  34  59  83 111 152 190 224 281 355
#     4   9  17  34  57  83 111 147 189 230 279 341
#     4  10  21  38  59  82 117 158 193 229 281 353
#
# _framework density 18.481634
#
# number of rings (size 3 to 8) (size 9 to 14) (size 15 to 20)
#    0.000    1.667    3.333    2.000    0.000    2.667 
#    0.000    1.250    0.000    1.000    0.000    0.000 
#    0.000    0.000    0.000    0.000    0.000    0.000 
#
# Total GULP energy -595336.581874 kJ/mol
# GULP energy per Si atom -12402.845456 kJ/mol
# Density = 1.843957 g / cm^3
# Si number density = 18.481634 Si / 1000 Ang^3
#
#
#
# Elastic Constant Matrix: (Units=GPa)
#
#
# Indices 1 2 3 4 5 6 
#
# 1 157.0941 43.5337 71.4013 0.0000 0.0000 0.0000
# 2 43.5337 63.3528 48.5320 0.0000 0.0000 0.0000
# 3 71.4013 48.5320 138.9113 0.0000 0.0000 0.0000
# 4 0.0000 0.0000 0.0000 30.8840 0.0000 0.0000
# 5 0.0000 0.0000 0.0000 0.0000 27.4337 0.0000
# 6 0.0000 0.0000 0.0000 0.0000 0.0000 23.9774
#
#
#
# Elastic Compliance Matrix: (Units=1/GPa)
#
#
# Indices 1 2 3 4 5 6 
#
# 1 0.008854 -0.003547 -0.003312 0.000000 0.000000 0.000000
# 2 -0.003547 0.022974 -0.006203 0.000000 0.000000 0.000000
# 3 -0.003312 -0.006203 0.011068 0.000000 0.000000 0.000000
# 4 0.000000 0.000000 0.000000 0.032379 0.000000 0.000000
# 5 0.000000 0.000000 0.000000 0.000000 0.036451 0.000000
# 6 0.000000 0.000000 0.000000 0.000000 0.000000 0.041706
#
#
# Mechanical properties :
#
#
# Convention : Reuss Voigt Hill
#
# Bulk Modulus (GPa) = 59.62269 76.25468 67.93868
# Shear Modulus (GPa) = 27.00547 29.51845 28.26196
#
# Velocity S-wave (km/s) = 3.82672 4.00081 3.91473
# Velocity P-wave (km/s) = 7.20108 7.91778 7.56792
#
# Compressibility (1/GPa) = 0.01677214
#
# Stress axis : x y z
#
# Youngs Moduli (GPa) = 112.94655 43.52715 90.34783
#
# Poissons Ratio (x) = 0.15439 0.29920
# Poissons Ratio (y) = 0.40063 0.56046
# Poissons Ratio (z) = 0.37404 0.27001
#
# Static dielectric constant tensor:
#      x y z
#    x 3.785650 0.000000 0.000000 
#    y 0.000000 3.284050 0.000000 
#    z 0.000000 0.000000 3.490430 
# 
# 
# High freq. dielectric constant tensor:
#      x y z
#    x 1.722650 0.000000 0.000000 
#    y 0.000000 1.706650 0.000000 
#    z 0.000000 0.000000 1.718550 
# 
# From -- ./inp_files/27528.got.cif
#   From: 2010.03.12/outbox.cif.g09.slc.cpg/sg59_14_cif.got.tgz:27528.got - 2010.04.16 16:29:54.
