data_PCOD8244087
_publ_section_title
;
Structure prediction by ZEFSAII (Michael W. Deem and Ramdas Pophale) SiO2 
 PCOD8244087
Probable space group: P M M N
;
_chemical_formula_sum "Si O2"
_cell_formula_units_Z 48
_cell_length_a 18.039264
_cell_length_b 8.697862
_cell_length_c 15.841886
_cell_angle_alpha 90.000000
_cell_angle_beta 90.000000
_cell_angle_gamma 90.000000
_cell_volume 2485.639896
_symmetry_space_group_name_H-M "P M M N"
_symmetry_group_IT_number 59
_space_group.IT_coordinate_system_code '2'
_symmetry_cell_setting 'orthorhombic'
loop_
_space_group_symop_operation_xyz
x,y,z
1/2-x,1/2-y,z
1/2+x,-y,-z
-x,1/2+y,-z
-x,-y,-z
1/2+x,1/2+y,-z
1/2-x,y,z
x,1/2-y,z
loop_
_atom_site_type_symbol
_atom_site_label
_atom_site_fract_x
_atom_site_fract_y
_atom_site_fract_z
Si Si1 0.536874 0.568110 0.818093
Si Si2 0.250000 0.429496 0.777034
Si Si3 0.379476 0.568162 0.884012
Si Si4 0.016310 0.072786 0.370887
Si Si5 0.250000 0.574228 0.598645
Si Si6 0.165406 0.430534 0.060917
Si Si7 0.112412 0.075452 0.529191
O O1 0.537322 0.750000 0.820518
O O2 0.462297 0.506545 0.863657
O O3 0.539971 0.511823 0.721282
O O4 0.610042 0.507144 0.866483
O O5 0.250000 0.250000 0.796185
O O6 0.324068 0.501056 0.815147
O O7 0.250000 0.461105 0.677985
O O8 0.376067 0.750000 0.877288
O O9 0.354843 0.517659 0.976007
O O10 0.988862 0.250000 0.367593
O O11 0.085896 0.055704 0.433024
O O12 0.950894 0.965370 0.403709
O O13 0.250000 0.750000 0.629196
O O14 0.320535 0.541372 0.540555
O O15 0.250000 0.468154 0.087539
O O16 0.154959 0.250000 0.044774
O O17 0.137617 0.250000 0.546358
#
# Coordination Sequence:
#
# PCOD8244087 Si02
#       7
#     8   4   8   8   4   8   8
#     4   9  19  35  56  84 110 145 194 236 274 329
#     4  12  24  38  58  85 116 143 184 239 288 339
#     4  11  21  35  57  83 116 150 186 228 282 343
#     4   9  18  36  59  82 112 149 190 234 283 339
#     4  12  24  38  56  81 114 151 186 227 284 343
#     4  10  20  36  56  79 112 151 191 235 280 324
#     4  10  20  35  57  85 115 146 186 235 286 341
#
# _framework density 19.310924
#
# number of rings (size 3 to 8) (size 9 to 14) (size 15 to 20)
#    0.000    1.833    0.833    4.000    0.000    2.000 
#    1.500    2.500    0.000    0.000    0.000    0.000 
#    0.000    0.000    0.000    0.000    0.000    0.000 
#
# Total GULP energy -595306.324801 kJ/mol
# GULP energy per Si atom -12402.215100 kJ/mol
# Density = 1.926697 g / cm^3
# Si number density = 19.310924 Si / 1000 Ang^3
#
#
#
# Elastic Constant Matrix: (Units=GPa)
#
#
# Indices 1 2 3 4 5 6 
#
# 1 146.3554 36.4972 60.5763 0.0000 0.0000 0.0000
# 2 36.4972 60.2809 30.3035 0.0000 0.0000 0.0000
# 3 60.5763 30.3035 83.6611 0.0000 0.0000 0.0000
# 4 0.0000 0.0000 0.0000 22.1327 0.0000 0.0000
# 5 0.0000 0.0000 0.0000 0.0000 26.0923 0.0000
# 6 0.0000 0.0000 0.0000 0.0000 0.0000 24.5643
#
#
#
# Elastic Compliance Matrix: (Units=1/GPa)
#
#
# Indices 1 2 3 4 5 6 
#
# 1 0.010184 -0.003006 -0.006285 0.000000 0.000000 0.000000
# 2 -0.003006 0.021170 -0.005491 0.000000 0.000000 0.000000
# 3 -0.006285 -0.005491 0.018493 0.000000 0.000000 0.000000
# 4 0.000000 0.000000 0.000000 0.045182 0.000000 0.000000
# 5 0.000000 0.000000 0.000000 0.000000 0.038325 0.000000
# 6 0.000000 0.000000 0.000000 0.000000 0.000000 0.040709
#
#
# Mechanical properties :
#
#
# Convention : Reuss Voigt Hill
#
# Bulk Modulus (GPa) = 49.30645 60.56128 54.93386
# Shear Modulus (GPa) = 23.76564 25.41921 24.59243
#
# Velocity S-wave (km/s) = 3.51192 3.63204 3.57248
# Velocity P-wave (km/s) = 6.48329 7.00130 6.74727
#
# Compressibility (1/GPa) = 0.02028132
#
# Stress axis : x y z
#
# Youngs Moduli (GPa) = 98.19712 47.23733 54.07592
#
# Poissons Ratio (x) = 0.14201 0.33985
# Poissons Ratio (y) = 0.29522 0.29694
# Poissons Ratio (z) = 0.61714 0.25939
#
# Static dielectric constant tensor:
#      x y z
#    x 3.678490 0.000000 0.000000 
#    y 0.000000 3.393630 0.000000 
#    z 0.000000 0.000000 3.659130 
# 
# 
# High freq. dielectric constant tensor:
#      x y z
#    x 1.758000 0.000000 0.000000 
#    y 0.000000 1.738580 0.000000 
#    z 0.000000 0.000000 1.755610 
# 
# From -- ./inp_files/23739.got.cif
#   From: 2010.03.12/outbox.cif.g09.slc.cpg/sg59_12_cif.got.tgz:23739.got - 2010.04.16 16:29:54.
