data_PCOD8244862
_publ_section_title
;
Structure prediction by ZEFSAII (Michael W. Deem and Ramdas Pophale) SiO2 
 PCOD8244862
Probable space group: P M M N
;
_chemical_formula_sum "Si O2"
_cell_formula_units_Z 48
_cell_length_a 28.619260
_cell_length_b 7.818791
_cell_length_c 10.176203
_cell_angle_alpha 90.000000
_cell_angle_beta 90.000000
_cell_angle_gamma 90.000000
_cell_volume 2277.108720
_symmetry_space_group_name_H-M "P M M N"
_symmetry_group_IT_number 59
_space_group.IT_coordinate_system_code '2'
_symmetry_cell_setting 'orthorhombic'
loop_
_space_group_symop_operation_xyz
x,y,z
1/2-x,1/2-y,z
1/2+x,-y,-z
-x,1/2+y,-z
-x,-y,-z
1/2+x,1/2+y,-z
1/2-x,y,z
x,1/2-y,z
loop_
_atom_site_type_symbol
_atom_site_label
_atom_site_fract_x
_atom_site_fract_y
_atom_site_fract_z
Si Si1 0.305467 0.250000 0.217894
Si Si2 0.390100 0.557834 0.860882
Si Si3 0.195018 0.250000 0.513619
Si Si4 0.045273 0.443645 0.640181
Si Si5 0.869436 0.048062 0.847849
Si Si6 0.557747 0.054621 0.636306
Si Si7 0.696546 0.443858 0.305289
O O1 0.250000 0.250000 0.204493
O O2 0.324121 0.250000 0.367190
O O3 0.324051 0.425816 0.152365
O O4 0.405521 0.750000 0.829778
O O5 0.424504 0.444711 0.772725
O O6 0.335686 0.530030 0.822604
O O7 0.395922 0.516294 0.014077
O O8 0.250000 0.250000 0.510315
O O9 0.177891 0.423091 0.585584
O O10 0.037914 0.250000 0.595115
O O11 0.071713 0.534129 0.517559
O O12 0.993795 0.527794 0.661121
O O13 0.855199 0.250000 0.833079
O O14 0.903477 0.975780 0.733459
O O15 0.556153 0.250000 0.678564
O O16 0.750000 0.483147 0.263727
O O17 0.692117 0.250000 0.361360
#
# Coordination Sequence:
#
# PCOD8244862 Si02
#       7
#     4   8   4   8   8   8   8
#     4  11  26  43  63  95 125 161 213 257 310 380
#     4  10  22  38  57  87 120 157 205 250 305 365
#     4   9  20  37  57  85 117 151 195 247 305 356
#     4  10  21  35  61  92 120 159 206 259 310 371
#     4  10  24  43  63  88 125 167 205 255 310 370
#     4   9  20  40  59  87 125 163 207 250 313 377
#     4   9  19  35  56  83 116 152 195 247 299 358
#
# _framework density 21.079360999999999
#
# number of rings (size 3 to 8) (size 9 to 14) (size 15 to 20)
#    0.000    2.333    0.000    0.500    5.833    3.000 
#    0.000    4.167    0.000    0.000    0.000    0.000 
#    0.000    0.000    0.000    0.000    0.000    0.000 
#
# Total GULP energy -594972.897722 kJ/mol
# GULP energy per Si atom -12395.268703 kJ/mol
# Density = 2.103138 g / cm^3
# Si number density = 21.079361 Si / 1000 Ang^3
#
#
#
# Elastic Constant Matrix: (Units=GPa)
#
#
# Indices 1 2 3 4 5 6 
#
# 1 97.1496 37.0406 48.2113 0.0000 0.0000 0.0000
# 2 37.0406 87.2558 33.5547 0.0000 0.0000 0.0000
# 3 48.2113 33.5547 115.4771 0.0000 0.0000 0.0000
# 4 0.0000 0.0000 0.0000 26.6200 0.0000 0.0000
# 5 0.0000 0.0000 0.0000 0.0000 29.0908 0.0000
# 6 0.0000 0.0000 0.0000 0.0000 0.0000 25.1180
#
#
#
# Elastic Compliance Matrix: (Units=1/GPa)
#
#
# Indices 1 2 3 4 5 6 
#
# 1 0.014250 -0.004234 -0.004719 0.000000 0.000000 0.000000
# 2 -0.004234 0.014161 -0.002347 0.000000 0.000000 0.000000
# 3 -0.004719 -0.002347 0.011312 0.000000 0.000000 0.000000
# 4 0.000000 0.000000 0.000000 0.037566 0.000000 0.000000
# 5 0.000000 0.000000 0.000000 0.000000 0.034375 0.000000
# 6 0.000000 0.000000 0.000000 0.000000 0.000000 0.039812
#
#
# Mechanical properties :
#
#
# Convention : Reuss Voigt Hill
#
# Bulk Modulus (GPa) = 58.40482 59.72175 59.06328
# Shear Modulus (GPa) = 27.81142 28.23748 28.02445
#
# Velocity S-wave (km/s) = 3.63625 3.66400 3.65015
# Velocity P-wave (km/s) = 6.73773 6.80391 6.77090
#
# Compressibility (1/GPa) = 0.01712188
#
# Stress axis : x y z
#
# Youngs Moduli (GPa) = 70.17741 70.61846 88.40393
#
# Poissons Ratio (x) = 0.29903 0.41715
# Poissons Ratio (y) = 0.29716 0.20747
# Poissons Ratio (z) = 0.33115 0.16573
#
# Static dielectric constant tensor:
#      x y z
#    x 3.740960 0.000000 0.000000 
#    y 0.000000 3.903340 0.000000 
#    z 0.000000 0.000000 3.734020 
# 
# 
# High freq. dielectric constant tensor:
#      x y z
#    x 1.820270 0.000000 0.000000 
#    y 0.000000 1.826600 0.000000 
#    z 0.000000 0.000000 1.815510 
# 
# From -- ./inp_files/12989.got.cif
#   From: 2010.03.12/outbox.cif.g09.slc.cpg/sg59_7_cif.got.tgz:12989.got - 2010.04.16 16:29:54.
