data_PCOD8244610
_publ_section_title
;
Structure prediction by ZEFSAII (Michael W. Deem and Ramdas Pophale) SiO2 
 PCOD8244610
Probable space group: P M M N
;
_chemical_formula_sum "Si O2"
_cell_formula_units_Z 64
_cell_length_a 22.764341
_cell_length_b 14.028420
_cell_length_c 10.116766
_cell_angle_alpha 90.000000
_cell_angle_beta 90.000000
_cell_angle_gamma 90.000000
_cell_volume 3230.766324
_symmetry_space_group_name_H-M "P M M N"
_symmetry_group_IT_number 59
_space_group.IT_coordinate_system_code '2'
_symmetry_cell_setting 'orthorhombic'
loop_
_space_group_symop_operation_xyz
x,y,z
1/2-x,1/2-y,z
1/2+x,-y,-z
-x,1/2+y,-z
-x,-y,-z
1/2+x,1/2+y,-z
1/2-x,y,z
x,1/2-y,z
loop_
_atom_site_type_symbol
_atom_site_label
_atom_site_fract_x
_atom_site_fract_y
_atom_site_fract_z
Si Si1 0.861525 0.635359 0.866801
Si Si2 0.485446 0.144013 0.211785
Si Si3 0.630509 0.641745 0.364713
Si Si4 0.115440 0.637766 0.783141
Si Si5 0.119593 0.853883 0.475587
Si Si6 0.181723 0.465978 0.876796
Si Si7 0.817656 0.965170 0.610184
Si Si8 0.010320 0.110514 0.508768
O O1 0.856181 0.750000 0.881637
O O2 0.831809 0.604274 0.730579
O O3 0.929921 0.599513 0.866476
O O4 0.827268 0.580169 0.980458
O O5 0.492485 0.250000 0.158418
O O6 0.549307 0.096473 0.188757
O O7 0.468589 0.147528 0.366459
O O8 0.652053 0.750000 0.360283
O O9 0.643612 0.594792 0.224684
O O10 0.666642 0.588375 0.476497
O O11 0.560500 0.636116 0.386560
O O12 0.121929 0.750000 0.817036
O O13 0.129755 0.618974 0.629178
O O14 0.159866 0.576198 0.872699
O O15 0.148143 0.750000 0.445246
O O16 0.050352 0.841946 0.446239
O O17 0.147093 0.934703 0.382073
O O18 0.250000 0.463324 0.839678
O O19 0.750000 0.992893 0.609740
O O20 0.000000 0.000000 0.500000
#
# Coordination Sequence:
#
# PCOD8244610 Si02
#       8
#     8   8   8   8   8   8   8   8
#     4  11  24  43  64  85 118 165 206 250 311 370
#     4   9  17  34  60  89 116 146 194 246 301 366
#     4  12  23  37  60  90 120 152 198 258 307 351
#     4   9  19  38  65  93 122 157 197 249 309 366
#     4  10  20  37  63  95 127 158 194 248 315 370
#     4  12  26  42  58  85 124 167 210 247 297 363
#     4  12  24  39  60  89 118 158 212 251 293 357
#     4  11  17  33  61  92 124 153 190 249 313 370
#
# _framework density 19.809540999999999
#
# number of rings (size 3 to 8) (size 9 to 14) (size 15 to 20)
#    0.000    1.250    3.750    4.125    0.000    4.000 
#    0.000    1.875    0.000    3.000    0.000    0.000 
#    0.000    0.000    0.000    0.000    0.000    0.000 
#
# Total GULP energy -793416.114431 kJ/mol
# GULP energy per Si atom -12397.126788 kJ/mol
# Density = 1.976445 g / cm^3
# Si number density = 19.809541 Si / 1000 Ang^3
#
#
#
# Elastic Constant Matrix: (Units=GPa)
#
#
# Indices 1 2 3 4 5 6 
#
# 1 107.5571 36.2012 23.5063 0.0000 0.0000 0.0000
# 2 36.2012 112.8114 20.7892 0.0000 0.0000 0.0000
# 3 23.5063 20.7892 43.2435 0.0000 0.0000 0.0000
# 4 0.0000 0.0000 0.0000 28.0627 0.0000 0.0000
# 5 0.0000 0.0000 0.0000 0.0000 20.7834 0.0000
# 6 0.0000 0.0000 0.0000 0.0000 0.0000 1.9731
#
#
#
# Elastic Compliance Matrix: (Units=1/GPa)
#
#
# Indices 1 2 3 4 5 6 
#
# 1 0.011268 -0.002729 -0.004813 0.000000 0.000000 0.000000
# 2 -0.002729 0.010387 -0.003510 0.000000 0.000000 0.000000
# 3 -0.004813 -0.003510 0.027429 0.000000 0.000000 0.000000
# 4 0.000000 0.000000 0.000000 0.035635 0.000000 0.000000
# 5 0.000000 0.000000 0.000000 0.000000 0.048115 0.000000
# 6 0.000000 0.000000 0.000000 0.000000 0.000000 0.506814
#
#
# Mechanical properties :
#
#
# Convention : Reuss Voigt Hill
#
# Bulk Modulus (GPa) = 37.06553 47.17837 42.12195
# Shear Modulus (GPa) = 7.45440 22.37152 14.91296
#
# Velocity S-wave (km/s) = 1.94196 3.36420 2.74673
# Velocity P-wave (km/s) = 4.87646 6.24164 5.60080
#
# Compressibility (1/GPa) = 0.02697924
#
# Stress axis : x y z
#
# Youngs Moduli (GPa) = 88.74904 96.27513 36.45831
#
# Poissons Ratio (x) = 0.26272 0.17547
# Poissons Ratio (y) = 0.24218 0.12797
# Poissons Ratio (z) = 0.42715 0.33794
#
# Static dielectric constant tensor:
#      x y z
#    x 3.877410 0.000000 0.000000 
#    y 0.000000 3.727820 0.000000 
#    z 0.000000 0.000000 3.336800 
# 
# 
# High freq. dielectric constant tensor:
#      x y z
#    x 1.779830 0.000000 0.000000 
#    y 0.000000 1.782360 0.000000 
#    z 0.000000 0.000000 1.736520 
# 
# From -- ./inp_files/12217.got.cif
#   From: 2010.03.12/outbox.cif.g09.slc.cpg/sg59_7_cif.got.tgz:12217.got - 2010.04.16 16:29:54.
