data_PCOD8244849
_publ_section_title
;
Structure prediction by ZEFSAII (Michael W. Deem and Ramdas Pophale) SiO2 
 PCOD8244849
Probable space group: P M M N
;
_chemical_formula_sum "Si O2"
_cell_formula_units_Z 40
_cell_length_a 9.694053
_cell_length_b 7.513182
_cell_length_c 27.369577
_cell_angle_alpha 90.000000
_cell_angle_beta 90.000000
_cell_angle_gamma 90.000000
_cell_volume 1993.413452
_symmetry_space_group_name_H-M "P M M N"
_symmetry_group_IT_number 59
_space_group.IT_coordinate_system_code '2'
_symmetry_cell_setting 'orthorhombic'
loop_
_space_group_symop_operation_xyz
x,y,z
1/2-x,1/2-y,z
1/2+x,-y,-z
-x,1/2+y,-z
-x,-y,-z
1/2+x,1/2+y,-z
1/2-x,y,z
x,1/2-y,z
loop_
_atom_site_type_symbol
_atom_site_label
_atom_site_fract_x
_atom_site_fract_y
_atom_site_fract_z
Si Si1 0.408521 0.956983 0.864761
Si Si2 0.750000 0.959384 0.537392
Si Si3 0.966102 0.547806 0.615044
Si Si4 0.405906 0.750000 0.307997
Si Si5 0.750000 0.961903 0.428301
Si Si6 0.594486 0.957747 0.953949
Si Si7 0.592062 0.750000 0.213561
O O1 0.250000 0.987954 0.882043
O O2 0.433896 0.750000 0.852212
O O3 0.511683 0.028228 0.906724
O O4 0.441270 0.072197 0.817016
O O5 0.750000 0.750000 0.530750
O O6 0.616694 0.023701 0.567641
O O7 0.750000 0.043185 0.483235
O O8 0.922422 0.750000 0.627943
O O9 0.124491 0.539306 0.601850
O O10 0.933440 0.427299 0.661287
O O11 0.250000 0.750000 0.289268
O O12 0.501929 0.750000 0.261444
O O13 0.750000 0.750000 0.427978
O O14 0.750000 0.042826 0.957603
O O15 0.612119 0.750000 0.949028
O O16 0.500000 0.000000 0.000000
O O17 0.750000 0.750000 0.230443
#
# Coordination Sequence:
#
# PCOD8244849 Si02
#       7
#     8   4   8   4   4   8   4
#     4   9  19  39  62  87 123 159 202 259 313 367
#     4   9  20  38  62  90 124 166 204 242 304 371
#     4  11  23  42  61  89 126 163 203 253 307 370
#     4  12  26  44  66  90 122 164 208 262 319 368
#     4  11  21  37  63  94 125 161 206 251 299 367
#     4  10  21  35  55  87 126 169 210 251 305 365
#     4  10  24  42  66  92 118 158 210 264 317 374
#
# _framework density 20.066082000000002
#
# number of rings (size 3 to 8) (size 9 to 14) (size 15 to 20)
#    0.000    1.800    2.000    1.500    2.800    2.800 
#    3.600    0.000    0.000    0.000    0.000    0.000 
#    0.000    0.000    0.000    0.000    0.000    0.000 
#
# Total GULP energy -495969.792566 kJ/mol
# GULP energy per Si atom -12399.244814 kJ/mol
# Density = 2.002041 g / cm^3
# Si number density = 20.066082 Si / 1000 Ang^3
#
#
#
# Elastic Constant Matrix: (Units=GPa)
#
#
# Indices 1 2 3 4 5 6 
#
# 1 138.6943 27.1570 63.2977 0.0000 0.0000 0.0000
# 2 27.1570 87.0969 47.5130 0.0000 0.0000 0.0000
# 3 63.2977 47.5130 130.9418 0.0000 0.0000 0.0000
# 4 0.0000 0.0000 0.0000 29.9732 0.0000 0.0000
# 5 0.0000 0.0000 0.0000 0.0000 45.7033 0.0000
# 6 0.0000 0.0000 0.0000 0.0000 0.0000 47.8028
#
#
#
# Elastic Compliance Matrix: (Units=1/GPa)
#
#
# Indices 1 2 3 4 5 6 
#
# 1 0.009273 -0.000556 -0.004281 0.000000 0.000000 0.000000
# 2 -0.000556 0.014348 -0.004938 0.000000 0.000000 0.000000
# 3 -0.004281 -0.004938 0.011498 0.000000 0.000000 0.000000
# 4 0.000000 0.000000 0.000000 0.033363 0.000000 0.000000
# 5 0.000000 0.000000 0.000000 0.000000 0.021880 0.000000
# 6 0.000000 0.000000 0.000000 0.000000 0.000000 0.020919
#
#
# Mechanical properties :
#
#
# Convention : Reuss Voigt Hill
#
# Bulk Modulus (GPa) = 64.22481 70.29649 67.26065
# Shear Modulus (GPa) = 36.75925 39.28022 38.01974
#
# Velocity S-wave (km/s) = 4.28472 4.42921 4.35757
# Velocity P-wave (km/s) = 7.52028 7.82725 7.67530
#
# Compressibility (1/GPa) = 0.01557031
#
# Stress axis : x y z
#
# Youngs Moduli (GPa) = 107.84481 69.69415 86.97251
#
# Poissons Ratio (x) = 0.03875 0.37230
# Poissons Ratio (y) = 0.05997 0.42944
# Poissons Ratio (z) = 0.46164 0.34412
#
# Static dielectric constant tensor:
#      x y z
#    x 3.983820 0.000000 0.000000 
#    y 0.000000 3.693990 0.000000 
#    z 0.000000 0.000000 3.387960 
# 
# 
# High freq. dielectric constant tensor:
#      x y z
#    x 1.798550 0.000000 0.000000 
#    y 0.000000 1.786990 0.000000 
#    z 0.000000 0.000000 1.767650 
# 
# From -- ./inp_files/32455.got.cif
#   From: 2010.03.12/outbox.cif.g09.slc.cpg/sg59_17_cif.got.tgz:32455.got - 2010.04.16 16:29:54.
