data_PCOD8244853
_publ_section_title
;
Structure prediction by ZEFSAII (Michael W. Deem and Ramdas Pophale) SiO2 
 PCOD8244853
Probable space group: P M M N
;
_chemical_formula_sum "Si O2"
_cell_formula_units_Z 56
_cell_length_a 16.393980
_cell_length_b 20.947998
_cell_length_c 8.667745
_cell_angle_alpha 90.000000
_cell_angle_beta 90.000000
_cell_angle_gamma 90.000000
_cell_volume 2976.686178
_symmetry_space_group_name_H-M "P M M N"
_symmetry_group_IT_number 59
_space_group.IT_coordinate_system_code '2'
_symmetry_cell_setting 'orthorhombic'
loop_
_space_group_symop_operation_xyz
x,y,z
1/2-x,1/2-y,z
1/2+x,-y,-z
-x,1/2+y,-z
-x,-y,-z
1/2+x,1/2+y,-z
1/2-x,y,z
x,1/2-y,z
loop_
_atom_site_type_symbol
_atom_site_label
_atom_site_fract_x
_atom_site_fract_y
_atom_site_fract_z
Si Si1 0.013849 0.932726 0.917049
Si Si2 0.659279 0.557604 0.391760
Si Si3 0.586653 0.628674 0.667297
Si Si4 0.436910 0.676394 0.481988
Si Si5 0.657530 0.750000 0.178226
Si Si6 0.037080 0.135197 0.787739
Si Si7 0.337922 0.250000 0.183277
Si Si8 0.842095 0.417502 0.310107
O O1 0.104182 0.922331 0.846613
O O2 0.951106 0.926325 0.775361
O O3 0.994789 0.876379 0.039372
O O4 0.000000 0.000000 0.000000
O O5 0.750000 0.574953 0.327102
O O6 0.649801 0.592682 0.556061
O O7 0.585910 0.573533 0.274141
O O8 0.651798 0.481664 0.411870
O O9 0.521280 0.666804 0.568809
O O10 0.623324 0.683492 0.771248
O O11 0.410484 0.750000 0.477879
O O12 0.454835 0.650854 0.308934
O O13 0.366935 0.638426 0.572193
O O14 0.750000 0.750000 0.251553
O O15 0.605243 0.810304 0.232244
O O16 0.666868 0.750000 0.997968
O O17 0.250000 0.250000 0.261793
O O18 0.750000 0.404685 0.253639
#
# Coordination Sequence:
#
# PCOD8244853 Si02
#       8
#     8   8   8   8   4   8   4   8
#     4  11  22  38  61  86 117 155 195 242 292 360
#     4  10  21  37  56  85 121 153 193 242 291 343
#     4  10  21  35  56  84 115 157 198 232 285 347
#     4  10  21  37  62  84 110 150 198 244 293 347
#     4  11  22  35  55  89 126 160 187 230 291 349
#     4  11  21  37  60  88 119 157 195 234 287 358
#     4  11  20  33  51  83 124 158 189 230 281 349
#     4  10  23  42  62  85 114 150 198 254 303 348
#
# _framework density 18.812864999999999
#
# number of rings (size 3 to 8) (size 9 to 14) (size 15 to 20)
#    0.000    1.571    4.286    0.857    2.000    2.000 
#    0.000    4.286    0.000    0.000    0.000    0.000 
#    0.000    0.000    0.000    0.000    0.000    0.000 
#
# Total GULP energy -694127.614244 kJ/mol
# GULP energy per Si atom -12395.135969 kJ/mol
# Density = 1.877005 g / cm^3
# Si number density = 18.812865 Si / 1000 Ang^3
#
#
#
# Elastic Constant Matrix: (Units=GPa)
#
#
# Indices 1 2 3 4 5 6 
#
# 1 110.9937 43.4654 37.5592 0.0000 0.0000 0.0000
# 2 43.4654 89.7170 22.0491 0.0000 0.0000 0.0000
# 3 37.5592 22.0491 83.4269 0.0000 0.0000 0.0000
# 4 0.0000 0.0000 0.0000 28.6309 0.0000 0.0000
# 5 0.0000 0.0000 0.0000 0.0000 22.9867 0.0000
# 6 0.0000 0.0000 0.0000 0.0000 0.0000 23.5417
#
#
#
# Elastic Compliance Matrix: (Units=1/GPa)
#
#
# Indices 1 2 3 4 5 6 
#
# 1 0.012395 -0.004956 -0.004271 0.000000 0.000000 0.000000
# 2 -0.004956 0.013902 -0.001443 0.000000 0.000000 0.000000
# 3 -0.004271 -0.001443 0.014291 0.000000 0.000000 0.000000
# 4 0.000000 0.000000 0.000000 0.034927 0.000000 0.000000
# 5 0.000000 0.000000 0.000000 0.000000 0.043503 0.000000
# 6 0.000000 0.000000 0.000000 0.000000 0.000000 0.042478
#
#
# Mechanical properties :
#
#
# Convention : Reuss Voigt Hill
#
# Bulk Modulus (GPa) = 51.95113 54.47609 53.21361
# Shear Modulus (GPa) = 26.41992 27.10279 26.76136
#
# Velocity S-wave (km/s) = 3.75154 3.79971 3.77570
# Velocity P-wave (km/s) = 6.81469 6.94767 6.88150
#
# Compressibility (1/GPa) = 0.01924886
#
# Stress axis : x y z
#
# Youngs Moduli (GPa) = 80.67566 71.93381 69.97595
#
# Poissons Ratio (x) = 0.35648 0.29885
# Poissons Ratio (y) = 0.39980 0.10098
# Poissons Ratio (z) = 0.34454 0.10381
#
# Static dielectric constant tensor:
#      x y z
#    x 3.483310 0.000000 0.000000 
#    y 0.000000 3.445760 0.000000 
#    z 0.000000 0.000000 3.520060 
# 
# 
# High freq. dielectric constant tensor:
#      x y z
#    x 1.721180 0.000000 0.000000 
#    y 0.000000 1.739010 0.000000 
#    z 0.000000 0.000000 1.728610 
# 
# From -- ./inp_files/9404.got.cif
#   From: 2010.03.12/outbox.cif.g09.slc.cpg/sg59_5_cif.got.tgz:9404.got - 2010.04.16 16:29:54.
