data_PCOD8244546
_publ_section_title
;
Structure prediction by ZEFSAII (Michael W. Deem and Ramdas Pophale) SiO2 
 PCOD8244546
Probable space group: P M M N
;
_chemical_formula_sum "Si O2"
_cell_formula_units_Z 64
_cell_length_a 28.322317
_cell_length_b 9.047633
_cell_length_c 12.277922
_cell_angle_alpha 90.000000
_cell_angle_beta 90.000000
_cell_angle_gamma 90.000000
_cell_volume 3146.216652
_symmetry_space_group_name_H-M "P M M N"
_symmetry_group_IT_number 59
_space_group.IT_coordinate_system_code '2'
_symmetry_cell_setting 'orthorhombic'
loop_
_space_group_symop_operation_xyz
x,y,z
1/2-x,1/2-y,z
1/2+x,-y,-z
-x,1/2+y,-z
-x,-y,-z
1/2+x,1/2+y,-z
1/2-x,y,z
x,1/2-y,z
loop_
_atom_site_type_symbol
_atom_site_label
_atom_site_fract_x
_atom_site_fract_y
_atom_site_fract_z
Si Si1 0.632884 0.424309 0.876270
Si Si2 0.804091 0.577446 0.050392
Si Si3 0.805311 0.586406 0.298091
Si Si4 0.438296 0.585836 0.478907
Si Si5 0.830037 0.414617 0.500977
Si Si6 0.002611 0.920994 0.679498
Si Si7 0.976895 0.074627 0.894897
Si Si8 0.802770 0.920393 0.703825
O O1 0.637625 0.250000 0.867531
O O2 0.578091 0.471837 0.883439
O O3 0.657907 0.492194 0.770796
O O4 0.659809 0.480218 0.982485
O O5 0.750000 0.533406 0.024130
O O6 0.811549 0.750000 0.023654
O O7 0.816512 0.540923 0.174761
O O8 0.750000 0.585966 0.318792
O O9 0.825604 0.750000 0.321610
O O10 0.829339 0.469608 0.377194
O O11 0.458737 0.750000 0.451994
O O12 0.383287 0.585058 0.459361
O O13 0.451136 0.547839 0.604909
O O14 0.458268 0.466836 0.394846
O O15 0.808562 0.250000 0.505919
O O16 0.800605 0.520615 0.580226
O O17 0.997822 0.750000 0.712920
O O18 0.005150 0.017570 0.788985
O O19 0.982550 0.250000 0.904440
O O20 0.000000 0.000000 0.000000
O O21 0.750000 0.940225 0.754131
O O22 0.817391 0.750000 0.703066
#
# Coordination Sequence:
#
# PCOD8244546 Si02
#       8
#     8   8   8   8   8   8   8   8
#     4  11  24  40  60  87 117 148 188 241 295 346
#     4   9  19  37  60  85 114 150 193 238 284 342
#     4   9  19  36  55  76 107 145 182 223 270 321
#     4   9  20  37  56  82 115 147 181 228 281 331
#     4  11  22  35  54  82 116 150 185 229 280 331
#     4  10  20  37  61  85 110 143 185 230 278 335
#     4  11  25  43  61  84 116 152 191 239 294 350
#     4  11  24  40  59  85 119 158 197 237 282 338
#
# _framework density 20.341892000000001
#
# number of rings (size 3 to 8) (size 9 to 14) (size 15 to 20)
#    0.000    1.875    0.000    4.125    0.000   12.500 
#    0.000    5.000    0.000    0.000    0.000    0.000 
#    0.000    0.000    0.000    0.000    0.000    0.000 
#
# Total GULP energy -793632.002551 kJ/mol
# GULP energy per Si atom -12400.500040 kJ/mol
# Density = 2.029559 g / cm^3
# Si number density = 20.341892 Si / 1000 Ang^3
#
#
#
# Elastic Constant Matrix: (Units=GPa)
#
#
# Indices 1 2 3 4 5 6 
#
# 1 64.7380 39.7668 31.5147 0.0000 0.0000 0.0000
# 2 39.7668 99.4816 53.6030 0.0000 0.0000 0.0000
# 3 31.5147 53.6030 123.6940 0.0000 0.0000 0.0000
# 4 0.0000 0.0000 0.0000 39.9693 0.0000 0.0000
# 5 0.0000 0.0000 0.0000 0.0000 23.0701 0.0000
# 6 0.0000 0.0000 0.0000 0.0000 0.0000 29.9439
#
#
#
# Elastic Compliance Matrix: (Units=1/GPa)
#
#
# Indices 1 2 3 4 5 6 
#
# 1 0.020934 -0.007168 -0.002227 0.000000 0.000000 0.000000
# 2 -0.007168 0.015569 -0.004920 0.000000 0.000000 0.000000
# 3 -0.002227 -0.004920 0.010784 0.000000 0.000000 0.000000
# 4 0.000000 0.000000 0.000000 0.025019 0.000000 0.000000
# 5 0.000000 0.000000 0.000000 0.000000 0.043346 0.000000
# 6 0.000000 0.000000 0.000000 0.000000 0.000000 0.033396
#
#
# Mechanical properties :
#
#
# Convention : Reuss Voigt Hill
#
# Bulk Modulus (GPa) = 53.60357 59.74254 56.67305
# Shear Modulus (GPa) = 27.18887 29.46528 28.32707
#
# Velocity S-wave (km/s) = 3.65991 3.81005 3.73574
# Velocity P-wave (km/s) = 6.65346 6.98486 6.82117
#
# Compressibility (1/GPa) = 0.01865548
#
# Stress axis : x y z
#
# Youngs Moduli (GPa) = 47.76837 64.23111 92.72801
#
# Poissons Ratio (x) = 0.46042 0.20653
# Poissons Ratio (y) = 0.34241 0.45626
# Poissons Ratio (z) = 0.10639 0.31605
#
# Static dielectric constant tensor:
#      x y z
#    x 3.606680 0.000000 0.000000 
#    y 0.000000 3.903400 0.000000 
#    z 0.000000 0.000000 3.839000 
# 
# 
# High freq. dielectric constant tensor:
#      x y z
#    x 1.786890 0.000000 0.000000 
#    y 0.000000 1.799490 0.000000 
#    z 0.000000 0.000000 1.804980 
# 
# From -- ./inp_files/19336.got.cif
#   From: 2010.03.12/outbox.cif.g09.slc.cpg/sg59_10_cif.got.tgz:19336.got - 2010.04.16 16:29:54.
