data_PCOD8244914
_publ_section_title
;
Structure prediction by ZEFSAII (Michael W. Deem and Ramdas Pophale) SiO2 
 PCOD8244914
Probable space group: P M M N
;
_chemical_formula_sum "Si O2"
_cell_formula_units_Z 64
_cell_length_a 22.090472
_cell_length_b 9.114295
_cell_length_c 16.548813
_cell_angle_alpha 90.000000
_cell_angle_beta 90.000000
_cell_angle_gamma 90.000000
_cell_volume 3331.922760
_symmetry_space_group_name_H-M "P M M N"
_symmetry_group_IT_number 59
_space_group.IT_coordinate_system_code '2'
_symmetry_cell_setting 'orthorhombic'
loop_
_space_group_symop_operation_xyz
x,y,z
1/2-x,1/2-y,z
1/2+x,-y,-z
-x,1/2+y,-z
-x,-y,-z
1/2+x,1/2+y,-z
1/2-x,y,z
x,1/2-y,z
loop_
_atom_site_type_symbol
_atom_site_label
_atom_site_fract_x
_atom_site_fract_y
_atom_site_fract_z
Si Si1 0.459857 0.578333 0.613924
Si Si2 0.678031 0.417346 0.648502
Si Si3 0.182604 0.409599 0.200063
Si Si4 0.428014 0.420907 0.777901
Si Si5 0.850149 0.416154 0.946988
Si Si6 0.412403 0.421534 0.459532
Si Si7 0.012880 0.914082 0.080104
Si Si8 0.319627 0.080634 0.892290
O O1 0.445137 0.750000 0.608558
O O2 0.437703 0.518264 0.699458
O O3 0.422196 0.494644 0.546018
O O4 0.531139 0.548194 0.600372
O O5 0.750000 0.426484 0.639098
O O6 0.655638 0.250000 0.646098
O O7 0.652700 0.485409 0.732714
O O8 0.648055 0.507498 0.576213
O O9 0.250000 0.380070 0.230693
O O10 0.149085 0.250000 0.194460
O O11 0.189271 0.486251 0.113059
O O12 0.438616 0.250000 0.756919
O O13 0.477146 0.479024 0.843276
O O14 0.360183 0.446975 0.812618
O O15 0.825400 0.250000 0.951444
O O16 0.915832 0.419441 0.905538
O O17 0.847624 0.483323 0.036206
O O18 0.401681 0.250000 0.472565
O O19 0.988694 0.750000 0.066183
O O20 0.000000 0.000000 0.000000
O O21 0.250000 0.035970 0.873985
O O22 0.323785 0.250000 0.918984
#
# Coordination Sequence:
#
# PCOD8244914 Si02
#       8
#     8   8   8   8   8   8   8   8
#     4  10  22  39  61  89 116 147 188 237 286 340
#     4  10  21  37  58  85 118 153 188 232 284 338
#     4  10  21  36  53  76 109 149 191 229 268 325
#     4  10  21  38  58  82 113 148 186 235 288 339
#     4  11  22  34  52  81 111 144 187 233 282 333
#     4  10  21  39  62  89 117 150 189 229 280 343
#     4  10  21  36  54  79 109 145 184 226 278 333
#     4  10  21  38  59  80 106 147 195 237 281 335
#
# _framework density 19.208129
#
# number of rings (size 3 to 8) (size 9 to 14) (size 15 to 20)
#    0.000    1.875    1.250    2.250    1.750    6.250 
#    0.000    0.625    0.000    2.250    0.000    0.000 
#    0.000    0.000    0.000    0.000    0.000    0.000 
#
# Total GULP energy -793537.855584 kJ/mol
# GULP energy per Si atom -12399.028993 kJ/mol
# Density = 1.916441 g / cm^3
# Si number density = 19.208129 Si / 1000 Ang^3
#
#
#
# Elastic Constant Matrix: (Units=GPa)
#
#
# Indices 1 2 3 4 5 6 
#
# 1 70.5168 34.7760 40.6078 0.0000 0.0000 0.0000
# 2 34.7760 134.8799 75.8813 0.0000 0.0000 0.0000
# 3 40.6078 75.8813 134.0014 0.0000 0.0000 0.0000
# 4 0.0000 0.0000 0.0000 40.5581 0.0000 0.0000
# 5 0.0000 0.0000 0.0000 0.0000 27.2529 0.0000
# 6 0.0000 0.0000 0.0000 0.0000 0.0000 25.0426
#
#
#
# Elastic Compliance Matrix: (Units=1/GPa)
#
#
# Indices 1 2 3 4 5 6 
#
# 1 0.017636 -0.002261 -0.004064 0.000000 0.000000 0.000000
# 2 -0.002261 0.011170 -0.005640 0.000000 0.000000 0.000000
# 3 -0.004064 -0.005640 0.011888 0.000000 0.000000 0.000000
# 4 0.000000 0.000000 0.000000 0.024656 0.000000 0.000000
# 5 0.000000 0.000000 0.000000 0.000000 0.036693 0.000000
# 6 0.000000 0.000000 0.000000 0.000000 0.000000 0.039932
#
#
# Mechanical properties :
#
#
# Convention : Reuss Voigt Hill
#
# Bulk Modulus (GPa) = 59.65129 71.32538 65.48834
# Shear Modulus (GPa) = 29.15551 31.11292 30.13422
#
# Velocity S-wave (km/s) = 3.90022 4.02901 3.96514
# Velocity P-wave (km/s) = 7.16972 7.67186 7.42504
#
# Compressibility (1/GPa) = 0.01676410
#
# Stress axis : x y z
#
# Youngs Moduli (GPa) = 56.70094 89.52617 84.11733
#
# Poissons Ratio (x) = 0.20238 0.34189
# Poissons Ratio (y) = 0.12818 0.47444
# Poissons Ratio (z) = 0.23046 0.50494
#
# Static dielectric constant tensor:
#      x y z
#    x 3.664870 0.000000 0.000000 
#    y 0.000000 3.706360 0.000000 
#    z 0.000000 0.000000 3.352470 
# 
# 
# High freq. dielectric constant tensor:
#      x y z
#    x 1.740510 0.000000 0.000000 
#    y 0.000000 1.758420 0.000000 
#    z 0.000000 0.000000 1.738890 
# 
# From -- ./inp_files/24680.got.cif
#   From: 2010.03.12/outbox.cif.g09.slc.cpg/sg59_13_cif.got.tgz:24680.got - 2010.04.16 16:29:54.
