data_PCOD8244076
_publ_section_title
;
Structure prediction by ZEFSAII (Michael W. Deem and Ramdas Pophale) SiO2 
 PCOD8244076
Probable space group: P M M N
;
_chemical_formula_sum "Si O2"
_cell_formula_units_Z 48
_cell_length_a 16.623508
_cell_length_b 9.336850
_cell_length_c 15.047874
_cell_angle_alpha 90.000000
_cell_angle_beta 90.000000
_cell_angle_gamma 90.000000
_cell_volume 2335.598591
_symmetry_space_group_name_H-M "P M M N"
_symmetry_group_IT_number 59
_space_group.IT_coordinate_system_code '2'
_symmetry_cell_setting 'orthorhombic'
loop_
_space_group_symop_operation_xyz
x,y,z
1/2-x,1/2-y,z
1/2+x,-y,-z
-x,1/2+y,-z
-x,-y,-z
1/2+x,1/2+y,-z
1/2-x,y,z
x,1/2-y,z
loop_
_atom_site_type_symbol
_atom_site_label
_atom_site_fract_x
_atom_site_fract_y
_atom_site_fract_z
Si Si1 0.158286 0.904625 0.723074
Si Si2 0.156747 0.404973 0.874225
Si Si3 0.916086 0.413293 0.603136
Si Si4 0.155834 0.582181 0.205922
Si Si5 0.101628 0.414207 0.568295
Si Si6 0.426737 0.418333 0.047121
O O1 0.250000 0.877256 0.748637
O O2 0.115846 0.750000 0.706703
O O3 0.114976 0.980785 0.807762
O O4 0.157503 0.002867 0.636700
O O5 0.250000 0.397938 0.852069
O O6 0.116776 0.250000 0.853585
O O7 0.145966 0.440819 0.977639
O O8 0.893232 0.250000 0.578721
O O9 0.876581 0.457380 0.696324
O O10 0.882043 0.518047 0.527953
O O11 0.011735 0.432746 0.605309
O O12 0.250000 0.540125 0.199088
O O13 0.143522 0.750000 0.185977
O O14 0.101579 0.491432 0.138098
O O15 0.128117 0.250000 0.563522
O O16 0.446445 0.250000 0.063444
O O17 0.500000 0.500000 0.000000
#
# Coordination Sequence:
#
# PCOD8244076 Si02
#       6
#     8   8   8   8   8   8
#     4  10  21  35  54  82 114 148 188 235 286 343
#     4   9  19  37  58  79 109 149 189 233 287 343
#     4   9  20  38  58  83 116 156 198 240 293 351
#     4  10  22  41  64  89 120 159 202 250 305 364
#     4  10  20  35  57  84 117 155 197 244 290 346
#     4  11  24  40  60  88 120 155 198 246 297 354
#
# _framework density 20.551476999999998
#
# number of rings (size 3 to 8) (size 9 to 14) (size 15 to 20)
#    0.000    2.167    0.000    2.000    2.333    5.333 
#    0.000    3.333    0.000    0.000    0.000    0.000 
#    0.000    0.000    0.000    0.000    0.000    0.000 
#
# Total GULP energy -594987.457180 kJ/mol
# GULP energy per Si atom -12395.572025 kJ/mol
# Density = 2.050470 g / cm^3
# Si number density = 20.551477 Si / 1000 Ang^3
#
#
#
# Elastic Constant Matrix: (Units=GPa)
#
#
# Indices 1 2 3 4 5 6 
#
# 1 50.7711 34.3992 36.0386 0.0000 0.0000 0.0000
# 2 34.3992 154.4964 93.4284 0.0000 0.0000 0.0000
# 3 36.0386 93.4284 150.5832 0.0000 0.0000 0.0000
# 4 0.0000 0.0000 0.0000 44.1762 0.0000 0.0000
# 5 0.0000 0.0000 0.0000 0.0000 36.2679 0.0000
# 6 0.0000 0.0000 0.0000 0.0000 0.0000 22.3949
#
#
#
# Elastic Compliance Matrix: (Units=1/GPa)
#
#
# Indices 1 2 3 4 5 6 
#
# 1 0.024604 -0.003069 -0.003984 0.000000 0.000000 0.000000
# 2 -0.003069 0.010742 -0.005931 0.000000 0.000000 0.000000
# 3 -0.003984 -0.005931 0.011274 0.000000 0.000000 0.000000
# 4 0.000000 0.000000 0.000000 0.022637 0.000000 0.000000
# 5 0.000000 0.000000 0.000000 0.000000 0.027573 0.000000
# 6 0.000000 0.000000 0.000000 0.000000 0.000000 0.044653
#
#
# Mechanical properties :
#
#
# Convention : Reuss Voigt Hill
#
# Bulk Modulus (GPa) = 48.41983 75.95367 62.18675
# Shear Modulus (GPa) = 28.68069 33.36679 31.02374
#
# Velocity S-wave (km/s) = 3.73976 4.03373 3.88952
# Velocity P-wave (km/s) = 6.50071 7.66372 7.10605
#
# Compressibility (1/GPa) = 0.02065269
#
# Stress axis : x y z
#
# Youngs Moduli (GPa) = 40.64455 93.09024 88.69954
#
# Poissons Ratio (x) = 0.28565 0.35342
# Poissons Ratio (y) = 0.12472 0.52604
# Poissons Ratio (z) = 0.16194 0.55208
#
# Static dielectric constant tensor:
#      x y z
#    x 3.518340 0.000000 0.000000 
#    y 0.000000 4.143920 0.000000 
#    z 0.000000 0.000000 3.779820 
# 
# 
# High freq. dielectric constant tensor:
#      x y z
#    x 1.782440 0.000000 0.000000 
#    y 0.000000 1.814650 0.000000 
#    z 0.000000 0.000000 1.812260 
# 
# From -- ./inp_files/23677.got.cif
#   From: 2010.03.12/outbox.cif.g09.slc.cpg/sg59_12_cif.got.tgz:23677.got - 2010.04.16 16:29:54.
