data_PCOD8244276
_publ_section_title
;
Structure prediction by ZEFSAII (Michael W. Deem and Ramdas Pophale) SiO2 
 PCOD8244276
Probable space group: P M M N
;
_chemical_formula_sum "Si O2"
_cell_formula_units_Z 48
_cell_length_a 15.611129
_cell_length_b 13.426530
_cell_length_c 11.988981
_cell_angle_alpha 90.000000
_cell_angle_beta 90.000000
_cell_angle_gamma 90.000000
_cell_volume 2512.929884
_symmetry_space_group_name_H-M "P M M N"
_symmetry_group_IT_number 59
_space_group.IT_coordinate_system_code '2'
_symmetry_cell_setting 'orthorhombic'
loop_
_space_group_symop_operation_xyz
x,y,z
1/2-x,1/2-y,z
1/2+x,-y,-z
-x,1/2+y,-z
-x,-y,-z
1/2+x,1/2+y,-z
1/2-x,y,z
x,1/2-y,z
loop_
_atom_site_type_symbol
_atom_site_label
_atom_site_fract_x
_atom_site_fract_y
_atom_site_fract_z
Si Si1 0.937502 0.499499 0.239436
Si Si2 0.651151 0.861388 0.062692
Si Si3 0.343896 0.367861 0.411192
Si Si4 0.087389 0.366406 0.176569
Si Si5 0.003100 0.366124 0.568971
Si Si6 0.152426 0.863666 0.590551
O O1 0.893768 0.563612 0.144921
O O2 0.866595 0.437922 0.307831
O O3 0.997443 0.422226 0.175846
O O4 0.993371 0.572328 0.317404
O O5 0.750000 0.862539 0.092301
O O6 0.613772 0.750000 0.080091
O O7 0.638730 0.894912 0.934703
O O8 0.250000 0.407727 0.450876
O O9 0.345147 0.250000 0.419093
O O10 0.357735 0.401116 0.283553
O O11 0.420744 0.408382 0.488833
O O12 0.067291 0.250000 0.183913
O O13 0.016692 0.250000 0.595735
O O14 0.911457 0.386038 0.511981
O O15 0.250000 0.879764 0.549700
O O16 0.137944 0.750000 0.631418
#
# Coordination Sequence:
#
# PCOD8244276 Si02
#       6
#     8   8   8   8   8   8
#     4  12  21  35  56  86 110 143 182 235 274 332
#     4  10  22  39  57  80 110 144 182 227 285 342
#     4   9  17  31  53  80 109 143 183 227 274 325
#     4  10  20  36  57  79 109 146 185 229 274 328
#     4  10  21  37  54  80 116 148 183 226 278 333
#     4  10  21  37  55  77 111 153 190 223 266 326
#
# _framework density 19.101209000000001
#
# number of rings (size 3 to 8) (size 9 to 14) (size 15 to 20)
#    0.000    1.833    1.667    3.000    0.000    3.333 
#    0.000    2.500    0.000    0.000    0.000    0.000 
#    0.000    0.000    0.000    0.000    0.000    0.000 
#
# Total GULP energy -595185.724437 kJ/mol
# GULP energy per Si atom -12399.702592 kJ/mol
# Density = 1.905773 g / cm^3
# Si number density = 19.101209 Si / 1000 Ang^3
#
#
#
# Elastic Constant Matrix: (Units=GPa)
#
#
# Indices 1 2 3 4 5 6 
#
# 1 119.2996 21.5223 19.2668 0.0000 0.0000 0.0000
# 2 21.5223 61.9757 28.0634 0.0000 0.0000 0.0000
# 3 19.2668 28.0634 61.9438 0.0000 0.0000 0.0000
# 4 0.0000 0.0000 0.0000 32.6567 0.0000 0.0000
# 5 0.0000 0.0000 0.0000 0.0000 -24.4730 0.0000
# 6 0.0000 0.0000 0.0000 0.0000 0.0000 3.2480
#
#
#
# Elastic Compliance Matrix: (Units=1/GPa)
#
#
# Indices 1 2 3 4 5 6 
#
# 1 0.009092 -0.002361 -0.001758 0.000000 0.000000 0.000000
# 2 -0.002361 0.020913 -0.008740 0.000000 0.000000 0.000000
# 3 -0.001758 -0.008740 0.020650 0.000000 0.000000 0.000000
# 4 0.000000 0.000000 0.000000 0.030622 0.000000 0.000000
# 5 0.000000 0.000000 0.000000 0.000000 -0.040861 0.000000
# 6 0.000000 0.000000 0.000000 0.000000 0.000000 0.307882
#
#
# Mechanical properties :
#
#
# Convention : Reuss Voigt Hill
#
# Bulk Modulus (GPa) = 40.10243 42.32490 41.21366
# Shear Modulus (GPa) = 13.07776 13.91079 13.49428
#
# Velocity S-wave (km/s) = 2.61943 2.70157 2.66082
# Velocity P-wave (km/s) = 5.49444 5.65134 5.57344
#
# Compressibility (1/GPa) = 0.02493614
#
# Stress axis : x y z
#
# Youngs Moduli (GPa) = 109.98430 47.81719 48.42574
#
# Poissons Ratio (x) = 0.11291 0.08514
# Poissons Ratio (y) = 0.25971 0.42324
# Poissons Ratio (z) = 0.19338 0.41793
#
# Static dielectric constant tensor:
#      x y z
#    x 3.610800 0.000000 0.000000 
#    y 0.000000 3.620490 0.000000 
#    z 0.000000 0.000000 3.408420 
# 
# 
# High freq. dielectric constant tensor:
#      x y z
#    x 1.744500 0.000000 0.000000 
#    y 0.000000 1.749910 0.000000 
#    z 0.000000 0.000000 1.730540 
# 
# From -- ./inp_files/16800.got.cif
#   From: 2010.03.12/outbox.cif.g09.slc.cpg/sg59_9_cif.got.tgz:16800.got - 2010.04.16 16:29:54.
