data_PCOD8244898
_publ_section_title
;
Structure prediction by ZEFSAII (Michael W. Deem and Ramdas Pophale) SiO2 
 PCOD8244898
Probable space group: P M M N
;
_chemical_formula_sum "Si O2"
_cell_formula_units_Z 56
_cell_length_a 9.607209
_cell_length_b 15.041035
_cell_length_c 19.874613
_cell_angle_alpha 90.000000
_cell_angle_beta 90.000000
_cell_angle_gamma 90.000000
_cell_volume 2871.928618
_symmetry_space_group_name_H-M "P M M N"
_symmetry_group_IT_number 59
_space_group.IT_coordinate_system_code '2'
_symmetry_cell_setting 'orthorhombic'
loop_
_space_group_symop_operation_xyz
x,y,z
1/2-x,1/2-y,z
1/2+x,-y,-z
-x,1/2+y,-z
-x,-y,-z
1/2+x,1/2+y,-z
1/2-x,y,z
x,1/2-y,z
loop_
_atom_site_type_symbol
_atom_site_label
_atom_site_fract_x
_atom_site_fract_y
_atom_site_fract_z
Si Si1 0.915497 0.151370 0.667744
Si Si2 0.913079 0.499874 0.567434
Si Si3 0.093066 0.356119 0.936918
Si Si4 0.093454 0.855730 0.942266
Si Si5 0.593971 0.144422 0.206483
Si Si6 0.410527 0.351624 0.327784
Si Si7 0.094782 0.855479 0.183612
O O1 0.750000 0.154331 0.668637
O O2 0.974431 0.250000 0.650709
O O3 0.968989 0.082080 0.612356
O O4 0.963575 0.119778 0.742158
O O5 0.750000 0.489587 0.550881
O O6 0.943951 0.591712 0.605966
O O7 0.000000 0.500000 0.500000
O O8 0.250000 0.393873 0.936204
O O9 0.094381 0.250000 0.936901
O O10 0.012320 0.393627 0.871562
O O11 0.014797 0.393595 0.003089
O O12 0.250000 0.888603 0.959354
O O13 0.091469 0.750000 0.943789
O O14 0.049143 0.889948 0.867777
O O15 0.750000 0.112547 0.223063
O O16 0.585525 0.250000 0.206643
O O17 0.492517 0.107133 0.264159
O O18 0.250000 0.359360 0.307961
O O19 0.453879 0.250000 0.343480
O O20 0.250000 0.895086 0.171490
O O21 0.104139 0.750000 0.177346
#
# Coordination Sequence:
#
# PCOD8244898 Si02
#       7
#     8   8   8   8   8   8   8
#     4   8  15  30  52  74  94 121 161 204 239 274
#     4  10  21  36  53  75 101 126 156 193 233 283
#     4   9  15  20  29  52  87 122 154 190 232 278
#     4   8  13  21  33  52  82 119 157 197 237 273
#     4   8  14  25  42  64  89 120 162 206 239 272
#     4   9  18  32  49  70  99 132 159 187 232 289
#     4   8  13  23  40  59  80 111 151 192 233 275
#
# _framework density 19.499091
#
# number of rings (size 3 to 8) (size 9 to 14) (size 15 to 20)
#    0.000    3.429    0.000    2.143    0.000    3.429 
#    0.000    3.571    0.000    0.857    0.000    1.000 
#    0.000    0.000    0.000    0.000    0.000    0.000 
#
# Total GULP energy -694052.800715 kJ/mol
# GULP energy per Si atom -12393.800013 kJ/mol
# Density = 1.945471 g / cm^3
# Si number density = 19.499091 Si / 1000 Ang^3
#
#
#
# Elastic Constant Matrix: (Units=GPa)
#
#
# Indices 1 2 3 4 5 6 
#
# 1 105.3349 27.8748 96.2687 0.0000 0.0000 0.0000
# 2 27.8748 53.0475 46.2214 0.0000 0.0000 0.0000
# 3 96.2687 46.2214 192.3409 0.0000 0.0000 0.0000
# 4 0.0000 0.0000 0.0000 -8.6223 0.0000 0.0000
# 5 0.0000 0.0000 0.0000 0.0000 36.8490 0.0000
# 6 0.0000 0.0000 0.0000 0.0000 0.0000 6.7131
#
#
#
# Elastic Compliance Matrix: (Units=1/GPa)
#
#
# Indices 1 2 3 4 5 6 
#
# 1 0.017663 -0.001996 -0.008361 0.000000 0.000000 0.000000
# 2 -0.001996 0.024069 -0.004785 0.000000 0.000000 0.000000
# 3 -0.008361 -0.004785 0.010534 0.000000 0.000000 0.000000
# 4 0.000000 0.000000 0.000000 -0.115979 0.000000 0.000000
# 5 0.000000 0.000000 0.000000 0.000000 0.027138 0.000000
# 6 0.000000 0.000000 0.000000 0.000000 0.000000 0.148963
#
#
# Mechanical properties :
#
#
# Convention : Reuss Voigt Hill
#
# Bulk Modulus (GPa) = 45.49235 76.82813 61.16024
# Shear Modulus (GPa) = 33.33350 19.01186 26.17268
#
# Velocity S-wave (km/s) = 4.13908 3.12591 3.66765
# Velocity P-wave (km/s) = 6.79881 7.24671 7.02633
#
# Compressibility (1/GPa) = 0.02198172
#
# Stress axis : x y z
#
# Youngs Moduli (GPa) = 56.61559 41.54688 94.93451
#
# Poissons Ratio (x) = 0.08295 0.79372
# Poissons Ratio (y) = 0.11303 0.45424
# Poissons Ratio (z) = 0.47335 0.19879
#
# Static dielectric constant tensor:
#      x y z
#    x 3.550120 0.000000 0.000000 
#    y 0.000000 3.336590 0.000000 
#    z 0.000000 0.000000 3.777700 
# 
# 
# High freq. dielectric constant tensor:
#      x y z
#    x 1.737940 0.000000 0.000000 
#    y 0.000000 1.730080 0.000000 
#    z 0.000000 0.000000 1.761020 
# 
# From -- ./inp_files/29167.got.cif
#   From: 2010.03.12/outbox.cif.g09.slc.cpg/sg59_15_cif.got.tgz:29167.got - 2010.04.16 16:29:54.
