data_PCOD8244855
_publ_section_title
;
Structure prediction by ZEFSAII (Michael W. Deem and Ramdas Pophale) SiO2 
 PCOD8244855
Probable space group: P M M N
;
_chemical_formula_sum "Si O2"
_cell_formula_units_Z 64
_cell_length_a 13.568787
_cell_length_b 24.213256
_cell_length_c 9.860037
_cell_angle_alpha 90.000000
_cell_angle_beta 90.000000
_cell_angle_gamma 90.000000
_cell_volume 3239.461057
_symmetry_space_group_name_H-M "P M M N"
_symmetry_group_IT_number 59
_space_group.IT_coordinate_system_code '2'
_symmetry_cell_setting 'orthorhombic'
loop_
_space_group_symop_operation_xyz
x,y,z
1/2-x,1/2-y,z
1/2+x,-y,-z
-x,1/2+y,-z
-x,-y,-z
1/2+x,1/2+y,-z
1/2-x,y,z
x,1/2-y,z
loop_
_atom_site_type_symbol
_atom_site_label
_atom_site_fract_x
_atom_site_fract_y
_atom_site_fract_z
Si Si1 0.989931 0.133895 0.951934
Si Si2 0.138949 0.987194 0.360791
Si Si3 0.862040 0.312370 0.720004
Si Si4 0.858470 0.883654 0.592720
Si Si5 0.861225 0.812132 0.856478
Si Si6 0.133512 0.917337 0.802748
Si Si7 0.933440 0.387320 0.485519
Si Si8 0.479548 0.478330 0.854080
O O1 0.928233 0.167498 0.843133
O O2 0.051184 0.085909 0.871450
O O3 0.917432 0.108959 0.065893
O O4 0.067932 0.175006 0.018423
O O5 0.250000 0.964678 0.344959
O O6 0.082450 0.951355 0.474276
O O7 0.084662 0.979078 0.219401
O O8 0.139039 0.050852 0.397780
O O9 0.750000 0.316407 0.769639
O O10 0.891609 0.250000 0.682977
O O11 0.872313 0.347933 0.583311
O O12 0.750000 0.864647 0.536737
O O13 0.878287 0.856388 0.738161
O O14 0.951287 0.868772 0.497702
O O15 0.750000 0.816610 0.910773
O O16 0.882852 0.750000 0.802602
O O17 0.250000 0.915074 0.820989
O O18 0.101480 0.882050 0.670509
O O19 0.101013 0.981922 0.782658
O O20 0.500000 0.500000 0.000000
#
# Coordination Sequence:
#
# PCOD8244855 Si02
#       8
#     8   8   8   8   8   8   8   8
#     4  11  21  41  64  91 123 165 212 261 311 375
#     4  11  21  36  61  88 124 166 204 246 311 385
#     4  11  25  43  63  89 124 170 216 262 323 383
#     4  10  21  38  63  92 122 159 206 257 310 374
#     4  10  21  40  66  93 122 161 211 266 321 369
#     4  11  23  38  60  94 129 163 207 259 312 371
#     4  12  22  41  62  90 127 165 208 258 314 379
#     4  10  21  35  56  89 125 159 202 251 303 372
#
# _framework density 19.756373
#
# number of rings (size 3 to 8) (size 9 to 14) (size 15 to 20)
#    0.000    1.250    3.750    3.000    0.000    3.000 
#    0.000    0.625    0.000    3.000    0.000    0.000 
#    0.000    0.000    0.000    0.000    0.000    0.000 
#
# Total GULP energy -793301.744077 kJ/mol
# GULP energy per Si atom -12395.339751 kJ/mol
# Density = 1.971141 g / cm^3
# Si number density = 19.756373 Si / 1000 Ang^3
#
#
#
# Elastic Constant Matrix: (Units=GPa)
#
#
# Indices 1 2 3 4 5 6 
#
# 1 121.0281 38.6406 38.8456 0.0000 0.0000 0.0000
# 2 38.6406 100.7302 26.1827 0.0000 0.0000 0.0000
# 3 38.8456 26.1827 75.9821 0.0000 0.0000 0.0000
# 4 0.0000 0.0000 0.0000 67.7771 0.0000 0.0000
# 5 0.0000 0.0000 0.0000 0.0000 30.7084 0.0000
# 6 0.0000 0.0000 0.0000 0.0000 0.0000 53.7815
#
#
#
# Elastic Compliance Matrix: (Units=1/GPa)
#
#
# Indices 1 2 3 4 5 6 
#
# 1 0.010614 -0.002923 -0.004419 0.000000 0.000000 0.000000
# 2 -0.002923 0.011709 -0.002540 0.000000 0.000000 0.000000
# 3 -0.004419 -0.002540 0.016296 0.000000 0.000000 0.000000
# 4 0.000000 0.000000 0.000000 0.014754 0.000000 0.000000
# 5 0.000000 0.000000 0.000000 0.000000 0.032564 0.000000
# 6 0.000000 0.000000 0.000000 0.000000 0.000000 0.018594
#
#
# Mechanical properties :
#
#
# Convention : Reuss Voigt Hill
#
# Bulk Modulus (GPa) = 53.04013 56.11982 54.57998
# Shear Modulus (GPa) = 38.29031 43.39150 40.84090
#
# Velocity S-wave (km/s) = 4.40719 4.69159 4.55161
# Velocity P-wave (km/s) = 7.26658 7.60365 7.43703
#
# Compressibility (1/GPa) = 0.01885365
#
# Stress axis : x y z
#
# Youngs Moduli (GPa) = 94.21361 85.40356 61.36574
#
# Poissons Ratio (x) = 0.24963 0.27119
# Poissons Ratio (y) = 0.27538 0.15590
# Poissons Ratio (z) = 0.41635 0.21697
#
# Static dielectric constant tensor:
#      x y z
#    x 3.975320 0.000000 0.000000 
#    y 0.000000 3.903900 0.000000 
#    z 0.000000 0.000000 3.480310 
# 
# 
# High freq. dielectric constant tensor:
#      x y z
#    x 1.777220 0.000000 0.000000 
#    y 0.000000 1.770460 0.000000 
#    z 0.000000 0.000000 1.761710 
# 
# From -- ./inp_files/9611.got.cif
#   From: 2010.03.12/outbox.cif.g09.slc.cpg/sg59_5_cif.got.tgz:9611.got - 2010.04.16 16:29:54.
