data_PCOD8244740
_publ_section_title
;
Structure prediction by ZEFSAII (Michael W. Deem and Ramdas Pophale) SiO2 
 PCOD8244740
Probable space group: P M M N
;
_chemical_formula_sum "Si O2"
_cell_formula_units_Z 64
_cell_length_a 14.851021
_cell_length_b 9.079493
_cell_length_c 24.463868
_cell_angle_alpha 90.000000
_cell_angle_beta 90.000000
_cell_angle_gamma 90.000000
_cell_volume 3298.701630
_symmetry_space_group_name_H-M "P M M N"
_symmetry_group_IT_number 59
_space_group.IT_coordinate_system_code '2'
_symmetry_cell_setting 'orthorhombic'
loop_
_space_group_symop_operation_xyz
x,y,z
1/2-x,1/2-y,z
1/2+x,-y,-z
-x,1/2+y,-z
-x,-y,-z
1/2+x,1/2+y,-z
1/2-x,y,z
x,1/2-y,z
loop_
_atom_site_type_symbol
_atom_site_label
_atom_site_fract_x
_atom_site_fract_y
_atom_site_fract_z
Si Si1 0.849832 0.925859 0.361979
Si Si2 0.353402 0.921386 0.354684
Si Si3 0.351142 0.578071 0.861948
Si Si4 0.990959 0.575082 0.941931
Si Si5 0.501786 0.076852 0.557765
Si Si6 0.142972 0.087540 0.756778
Si Si7 0.643752 0.421931 0.862337
Si Si8 0.643072 0.583614 0.753238
O O1 0.750000 0.987545 0.374950
O O2 0.848032 0.750000 0.360104
O O3 0.916601 0.984215 0.408355
O O4 0.885135 0.979729 0.302287
O O5 0.250000 0.961679 0.366712
O O6 0.365695 0.750000 0.340668
O O7 0.408180 0.965075 0.408982
O O8 0.392316 0.010085 0.302723
O O9 0.250000 0.517926 0.874611
O O10 0.347951 0.750000 0.852878
O O11 0.416569 0.534289 0.911086
O O12 0.392481 0.512434 0.806124
O O13 0.977529 0.750000 0.947387
O O14 0.905297 0.506588 0.911322
O O15 0.000000 0.500000 0.000000
O O16 0.494831 0.250000 0.548355
O O17 0.500000 0.000000 0.500000
O O18 0.250000 0.095900 0.757608
O O19 0.101503 0.250000 0.764979
O O20 0.750000 0.446913 0.870146
O O21 0.619031 0.250000 0.863648
O O22 0.609161 0.489627 0.805008
O O23 0.750000 0.581933 0.752069
O O24 0.605890 0.750000 0.757975
#
# Coordination Sequence:
#
# PCOD8244740 Si02
#       8
#     8   8   8   8   8   8   8   8
#     4   8  15  30  51  73  97 125 159 203 252 298
#     4   9  18  33  51  72 103 140 172 206 255 316
#     4   9  19  36  56  79 110 143 171 208 264 323
#     4  11  24  40  57  80 110 146 190 234 273 319
#     4  10  21  35  50  70  96 130 173 215 255 303
#     4   8  14  27  50  78 103 128 164 208 252 304
#     4  10  21  38  60  84 112 147 183 223 276 332
#     4   9  17  31  54  84 113 138 170 215 265 319
#
# _framework density 19.401572000000002
#
# number of rings (size 3 to 8) (size 9 to 14) (size 15 to 20)
#    0.000    2.750    0.000    1.875    0.000    5.750 
#    0.000    3.125    0.000    0.750    0.000    0.000 
#    0.000    0.000    0.000    0.000    0.000    0.000 
#
# Total GULP energy -793459.684956 kJ/mol
# GULP energy per Si atom -12397.807577 kJ/mol
# Density = 1.935741 g / cm^3
# Si number density = 19.401572 Si / 1000 Ang^3
#
#
#
# Elastic Constant Matrix: (Units=GPa)
#
#
# Indices 1 2 3 4 5 6 
#
# 1 85.6087 42.5710 72.2249 0.0000 0.0000 0.0000
# 2 42.5710 75.5912 72.2654 0.0000 0.0000 0.0000
# 3 72.2249 72.2654 199.1534 0.0000 0.0000 0.0000
# 4 0.0000 0.0000 0.0000 40.3028 0.0000 0.0000
# 5 0.0000 0.0000 0.0000 0.0000 28.8454 0.0000
# 6 0.0000 0.0000 0.0000 0.0000 0.0000 19.0033
#
#
#
# Elastic Compliance Matrix: (Units=1/GPa)
#
#
# Indices 1 2 3 4 5 6 
#
# 1 0.018521 -0.006139 -0.004489 0.000000 0.000000 0.000000
# 2 -0.006139 0.022290 -0.005862 0.000000 0.000000 0.000000
# 3 -0.004489 -0.005862 0.008776 0.000000 0.000000 0.000000
# 4 0.000000 0.000000 0.000000 0.024812 0.000000 0.000000
# 5 0.000000 0.000000 0.000000 0.000000 0.034668 0.000000
# 6 0.000000 0.000000 0.000000 0.000000 0.000000 0.052623
#
#
# Mechanical properties :
#
#
# Convention : Reuss Voigt Hill
#
# Bulk Modulus (GPa) = 60.21322 81.60843 70.91083
# Shear Modulus (GPa) = 24.97417 29.18309 27.07863
#
# Velocity S-wave (km/s) = 3.59168 3.88256 3.73995
# Velocity P-wave (km/s) = 6.95003 7.89007 7.43492
#
# Compressibility (1/GPa) = 0.01660765
#
# Stress axis : x y z
#
# Youngs Moduli (GPa) = 53.99210 44.86225 113.94083
#
# Poissons Ratio (x) = 0.27540 0.51152
# Poissons Ratio (y) = 0.33145 0.66793
# Poissons Ratio (z) = 0.24239 0.26299
#
# Static dielectric constant tensor:
#      x y z
#    x 3.708020 0.000000 0.000000 
#    y 0.000000 3.404450 0.000000 
#    z 0.000000 0.000000 3.634680 
# 
# 
# High freq. dielectric constant tensor:
#      x y z
#    x 1.752670 0.000000 0.000000 
#    y 0.000000 1.738800 0.000000 
#    z 0.000000 0.000000 1.757020 
# 
# From -- ./inp_files/32123.got.cif
#   From: 2010.03.12/outbox.cif.g09.slc.cpg/sg59_17_cif.got.tgz:32123.got - 2010.04.16 16:29:54.
