data_PCOD8244489
_publ_section_title
;
Structure prediction by ZEFSAII (Michael W. Deem and Ramdas Pophale) SiO2 
 PCOD8244489
Probable space group: P M M N
;
_chemical_formula_sum "Si O2"
_cell_formula_units_Z 64
_cell_length_a 8.752218
_cell_length_b 27.973638
_cell_length_c 13.929031
_cell_angle_alpha 90.000000
_cell_angle_beta 90.000000
_cell_angle_gamma 90.000000
_cell_volume 3410.263854
_symmetry_space_group_name_H-M "P M M N"
_symmetry_group_IT_number 59
_space_group.IT_coordinate_system_code '2'
_symmetry_cell_setting 'orthorhombic'
loop_
_space_group_symop_operation_xyz
x,y,z
1/2-x,1/2-y,z
1/2+x,-y,-z
-x,1/2+y,-z
-x,-y,-z
1/2+x,1/2+y,-z
1/2-x,y,z
x,1/2-y,z
loop_
_atom_site_type_symbol
_atom_site_label
_atom_site_fract_x
_atom_site_fract_y
_atom_site_fract_z
Si Si1 0.431212 0.014221 0.898713
Si Si2 0.068233 0.028758 0.286026
Si Si3 0.917542 0.693478 0.875104
Si Si4 0.070684 0.697025 0.066110
Si Si5 0.431334 0.195542 0.336935
Si Si6 0.570683 0.432362 0.618079
Si Si7 0.568765 0.105996 0.417800
Si Si8 0.569444 0.392090 0.816339
O O1 0.250000 0.009882 0.901071
O O2 0.479636 0.068346 0.876386
O O3 0.497333 0.977947 0.819143
O O4 0.500000 0.000000 0.000000
O O5 0.250000 0.029607 0.276239
O O6 0.007825 0.077829 0.330105
O O7 0.011737 0.985333 0.354823
O O8 0.750000 0.670426 0.890368
O O9 0.902222 0.750000 0.876367
O O10 0.025009 0.676163 0.961696
O O11 0.982978 0.679379 0.770575
O O12 0.250000 0.701441 0.067881
O O13 0.998838 0.750000 0.085102
O O14 0.015515 0.660159 0.147766
O O15 0.250000 0.190078 0.347518
O O16 0.481190 0.250000 0.358868
O O17 0.519100 0.161333 0.411067
O O18 0.750000 0.433824 0.604843
O O19 0.499556 0.414381 0.517912
O O20 0.526454 0.395927 0.703876
O O21 0.750000 0.101263 0.412443
O O22 0.750000 0.400548 0.832315
#
# Coordination Sequence:
#
# PCOD8244489 Si02
#       8
#     8   8   8   8   8   8   8   8
#     4  11  22  37  56  80 109 140 174 211 257 313
#     4  10  20  37  58  79 105 138 174 213 259 310
#     4   8  15  29  48  67  91 126 165 205 249 296
#     4   9  17  29  49  77 104 132 170 213 254 299
#     4   9  19  36  53  70  99 140 179 213 257 314
#     4   8  17  34  54  75 102 136 172 213 261 310
#     4  11  21  33  53  82 108 132 171 220 267 315
#     4   9  18  35  54  73 104 143 177 212 258 309
#
# _framework density 18.766877000000001
#
# number of rings (size 3 to 8) (size 9 to 14) (size 15 to 20)
#    0.000    2.625    0.000    3.750    0.000    2.250 
#    0.000   10.000    0.000    2.250    0.000    1.750 
#    0.000    0.000    0.000    0.000    0.000    0.000 
#
# Total GULP energy -793361.483186 kJ/mol
# GULP energy per Si atom -12396.273175 kJ/mol
# Density = 1.872416 g / cm^3
# Si number density = 18.766877 Si / 1000 Ang^3
#
#
#
# Elastic Constant Matrix: (Units=GPa)
#
#
# Indices 1 2 3 4 5 6 
#
# 1 64.0951 34.3481 39.8823 0.0000 0.0000 0.0000
# 2 34.3481 95.6202 64.2032 0.0000 0.0000 0.0000
# 3 39.8823 64.2032 123.0909 0.0000 0.0000 0.0000
# 4 0.0000 0.0000 0.0000 30.0434 0.0000 0.0000
# 5 0.0000 0.0000 0.0000 0.0000 22.8644 0.0000
# 6 0.0000 0.0000 0.0000 0.0000 0.0000 26.7655
#
#
#
# Elastic Compliance Matrix: (Units=1/GPa)
#
#
# Indices 1 2 3 4 5 6 
#
# 1 0.020738 -0.004521 -0.004361 0.000000 0.000000 0.000000
# 2 -0.004521 0.017080 -0.007444 0.000000 0.000000 0.000000
# 3 -0.004361 -0.007444 0.013420 0.000000 0.000000 0.000000
# 4 0.000000 0.000000 0.000000 0.033285 0.000000 0.000000
# 5 0.000000 0.000000 0.000000 0.000000 0.043736 0.000000
# 6 0.000000 0.000000 0.000000 0.000000 0.000000 0.037362
#
#
# Mechanical properties :
#
#
# Convention : Reuss Voigt Hill
#
# Bulk Modulus (GPa) = 53.80473 62.18593 57.99533
# Shear Modulus (GPa) = 24.45350 25.55949 25.00649
#
# Velocity S-wave (km/s) = 3.61364 3.69446 3.65428
# Velocity P-wave (km/s) = 6.79290 7.16984 6.98392
#
# Compressibility (1/GPa) = 0.01858572
#
# Stress axis : x y z
#
# Youngs Moduli (GPa) = 48.21975 58.54668 74.51633
#
# Poissons Ratio (x) = 0.26471 0.32497
# Poissons Ratio (y) = 0.21802 0.55470
# Poissons Ratio (z) = 0.21029 0.43583
#
# Static dielectric constant tensor:
#      x y z
#    x 3.312770 0.000000 0.000000 
#    y 0.000000 3.652710 0.000000 
#    z 0.000000 0.000000 3.740050 
# 
# 
# High freq. dielectric constant tensor:
#      x y z
#    x 1.713550 0.000000 0.000000 
#    y 0.000000 1.721290 0.000000 
#    z 0.000000 0.000000 1.728500 
# 
# From -- ./inp_files/15068.got.cif
#   From: 2010.03.12/outbox.cif.g09.slc.cpg/sg59_8_cif.got.tgz:15068.got - 2010.04.16 16:29:54.
