data_PCOD8244554
_publ_section_title
;
Structure prediction by ZEFSAII (Michael W. Deem and Ramdas Pophale) SiO2 
 PCOD8244554
Probable space group: P M M N
;
_chemical_formula_sum "Si O2"
_cell_formula_units_Z 56
_cell_length_a 14.699434
_cell_length_b 8.673629
_cell_length_c 22.565043
_cell_angle_alpha 90.000000
_cell_angle_beta 90.000000
_cell_angle_gamma 90.000000
_cell_volume 2876.985149
_symmetry_space_group_name_H-M "P M M N"
_symmetry_group_IT_number 59
_space_group.IT_coordinate_system_code '2'
_symmetry_cell_setting 'orthorhombic'
loop_
_space_group_symop_operation_xyz
x,y,z
1/2-x,1/2-y,z
1/2+x,-y,-z
-x,1/2+y,-z
-x,-y,-z
1/2+x,1/2+y,-z
1/2-x,y,z
x,1/2-y,z
loop_
_atom_site_type_symbol
_atom_site_label
_atom_site_fract_x
_atom_site_fract_y
_atom_site_fract_z
Si Si1 0.984673 0.930586 0.714371
Si Si2 0.643626 0.430616 0.619791
Si Si3 0.750000 0.567806 0.882656
Si Si4 0.434400 0.569012 0.162520
Si Si5 0.357611 0.918547 0.508342
Si Si6 0.148784 0.565938 0.635236
Si Si7 0.944615 0.932303 0.054031
Si Si8 0.750000 0.566935 0.016806
O O1 0.985152 0.750000 0.729099
O O2 0.079846 0.987687 0.685997
O O3 0.904594 0.966661 0.668853
O O4 0.972671 0.026820 0.773668
O O5 0.750000 0.454174 0.630009
O O6 0.618225 0.250000 0.626079
O O7 0.613526 0.496997 0.554287
O O8 0.750000 0.750000 0.883263
O O9 0.838497 0.512277 0.847854
O O10 0.750000 0.501241 0.949628
O O11 0.418489 0.750000 0.157779
O O12 0.509137 0.511631 0.114852
O O13 0.250000 0.898734 0.507356
O O14 0.403365 0.750000 0.508393
O O15 0.383014 0.003850 0.570554
O O16 0.250000 0.506607 0.652001
O O17 0.149009 0.750000 0.629059
O O18 0.946818 0.750000 0.048255
O O19 0.840116 0.992659 0.051072
O O20 0.000000 0.000000 0.000000
O O21 0.750000 0.750000 0.014108
#
# Coordination Sequence:
#
# PCOD8244554 Si02
#       8
#     8   8   4   8   8   8   8   4
#     4  11  23  36  53  78 109 146 189 231 275 326
#     4   9  18  33  53  77 107 141 178 224 278 339
#     4  11  21  37  65  91 115 147 182 223 272 325
#     4  11  24  40  58  83 117 153 187 225 269 329
#     4   7  11  24  49  77 101 131 174 223 279 338
#     4   8  15  31  54  77 103 138 182 232 283 337
#     4  10  20  37  61  87 116 147 183 226 274 324
#     4   9  18  35  61  91 117 143 174 219 278 327
#
# _framework density 19.464821000000001
#
# number of rings (size 3 to 8) (size 9 to 14) (size 15 to 20)
#    0.000    2.571    1.429    2.786    1.000    1.429 
#    1.286    0.357    0.000    2.143    0.000    4.000 
#    0.000    0.000    0.000    0.000    0.000    0.000 
#
# Total GULP energy -693943.309820 kJ/mol
# GULP energy per Si atom -12391.844818 kJ/mol
# Density = 1.942052 g / cm^3
# Si number density = 19.464821 Si / 1000 Ang^3
#
#
#
# Elastic Constant Matrix: (Units=GPa)
#
#
# Indices 1 2 3 4 5 6 
#
# 1 126.6051 19.6630 74.4797 0.0000 0.0000 0.0000
# 2 19.6630 27.5782 18.9928 0.0000 0.0000 0.0000
# 3 74.4797 18.9928 155.4658 0.0000 0.0000 0.0000
# 4 0.0000 0.0000 0.0000 16.9608 0.0000 0.0000
# 5 0.0000 0.0000 0.0000 0.0000 34.2912 0.0000
# 6 0.0000 0.0000 0.0000 0.0000 0.0000 16.4661
#
#
#
# Elastic Compliance Matrix: (Units=1/GPa)
#
#
# Indices 1 2 3 4 5 6 
#
# 1 0.011560 -0.004835 -0.004947 0.000000 0.000000 0.000000
# 2 -0.004835 0.041614 -0.002768 0.000000 0.000000 0.000000
# 3 -0.004947 -0.002768 0.009141 0.000000 0.000000 0.000000
# 4 0.000000 0.000000 0.000000 0.058959 0.000000 0.000000
# 5 0.000000 0.000000 0.000000 0.000000 0.029162 0.000000
# 6 0.000000 0.000000 0.000000 0.000000 0.000000 0.060731
#
#
# Mechanical properties :
#
#
# Convention : Reuss Voigt Hill
#
# Bulk Modulus (GPa) = 26.87121 59.54667 43.20894
# Shear Modulus (GPa) = 20.10686 26.64452 23.37569
#
# Velocity S-wave (km/s) = 3.21749 3.70382 3.46919
# Velocity P-wave (km/s) = 5.25719 6.99638 6.18819
#
# Compressibility (1/GPa) = 0.03721455
#
# Stress axis : x y z
#
# Youngs Moduli (GPa) = 86.50538 24.03051 109.40235
#
# Poissons Ratio (x) = 0.11619 0.54126
# Poissons Ratio (y) = 0.41825 0.30277
# Poissons Ratio (z) = 0.42798 0.06651
#
# Static dielectric constant tensor:
#      x y z
#    x 3.717790 0.000000 0.000000 
#    y 0.000000 3.175250 0.000000 
#    z 0.000000 0.000000 3.785840 
# 
# 
# High freq. dielectric constant tensor:
#      x y z
#    x 1.760260 0.000000 0.000000 
#    y 0.000000 1.719740 0.000000 
#    z 0.000000 0.000000 1.765820 
# 
# From -- ./inp_files/30440.got.cif
#   From: 2010.03.12/outbox.cif.g09.slc.cpg/sg59_16_cif.got.tgz:30440.got - 2010.04.16 16:29:54.
