data_PCOD8244376
_publ_section_title
;
Structure prediction by ZEFSAII (Michael W. Deem and Ramdas Pophale) SiO2 
 PCOD8244376
Probable space group: P M M N
;
_chemical_formula_sum "Si O2"
_cell_formula_units_Z 48
_cell_length_a 23.305931
_cell_length_b 9.230466
_cell_length_c 10.995884
_cell_angle_alpha 90.000000
_cell_angle_beta 90.000000
_cell_angle_gamma 90.000000
_cell_volume 2365.485188
_symmetry_space_group_name_H-M "P M M N"
_symmetry_group_IT_number 59
_space_group.IT_coordinate_system_code '2'
_symmetry_cell_setting 'orthorhombic'
loop_
_space_group_symop_operation_xyz
x,y,z
1/2-x,1/2-y,z
1/2+x,-y,-z
-x,1/2+y,-z
-x,-y,-z
1/2+x,1/2+y,-z
1/2-x,y,z
x,1/2-y,z
loop_
_atom_site_type_symbol
_atom_site_label
_atom_site_fract_x
_atom_site_fract_y
_atom_site_fract_z
Si Si1 0.478751 0.420625 0.291483
Si Si2 0.586405 0.581958 0.219585
Si Si3 0.880355 0.082294 0.587809
Si Si4 0.816722 0.080206 0.339559
Si Si5 0.591394 0.914348 0.944264
Si Si6 0.313495 0.581300 0.170704
O O1 0.485994 0.250000 0.312634
O O2 0.540818 0.495912 0.303101
O O3 0.437461 0.485486 0.395895
O O4 0.455072 0.460059 0.157045
O O5 0.587496 0.750000 0.257510
O O6 0.649431 0.512187 0.238128
O O7 0.566978 0.563349 0.079369
O O8 0.899081 0.250000 0.588592
O O9 0.846041 0.040039 0.467368
O O10 0.837173 0.045601 0.696318
O O11 0.750000 0.033831 0.341114
O O12 0.822572 0.250000 0.310703
O O13 0.609935 0.750000 0.921112
O O14 0.648266 0.009698 0.933162
O O15 0.250000 0.515702 0.161959
O O16 0.313113 0.750000 0.144276
#
# Coordination Sequence:
#
# PCOD8244376 Si02
#       6
#     8   8   8   8   8   8
#     4  10  20  36  59  85 110 137 176 225 273 322
#     4  11  23  38  56  79 110 147 183 220 266 320
#     4   9  18  35  58  82 109 140 176 222 274 322
#     4  10  22  40  60  81 108 145 186 224 263 312
#     4   9  20  36  53  77 109 144 180 221 271 322
#     4   9  17  30  52  81 108 137 177 224 272 322
#
# _framework density 20.291819
#
# number of rings (size 3 to 8) (size 9 to 14) (size 15 to 20)
#    0.000    2.333    0.000    2.000    0.000    6.667 
#    0.000    3.333    0.000    3.000    0.000    0.000 
#    0.000    0.000    0.000    0.000    0.000    0.000 
#
# Total GULP energy -595266.641304 kJ/mol
# GULP energy per Si atom -12401.388361 kJ/mol
# Density = 2.024563 g / cm^3
# Si number density = 20.291819 Si / 1000 Ang^3
#
#
#
# Elastic Constant Matrix: (Units=GPa)
#
#
# Indices 1 2 3 4 5 6 
#
# 1 130.4151 53.8052 18.5064 0.0000 0.0000 0.0000
# 2 53.8052 73.2972 24.4212 0.0000 0.0000 0.0000
# 3 18.5064 24.4212 44.2379 0.0000 0.0000 0.0000
# 4 0.0000 0.0000 0.0000 28.3433 0.0000 0.0000
# 5 0.0000 0.0000 0.0000 0.0000 22.2043 0.0000
# 6 0.0000 0.0000 0.0000 0.0000 0.0000 35.8203
#
#
#
# Elastic Compliance Matrix: (Units=1/GPa)
#
#
# Indices 1 2 3 4 5 6 
#
# 1 0.011000 -0.008016 -0.000177 0.000000 0.000000 0.000000
# 2 -0.008016 0.022559 -0.009100 0.000000 0.000000 0.000000
# 3 -0.000177 -0.009100 0.027703 0.000000 0.000000 0.000000
# 4 0.000000 0.000000 0.000000 0.035282 0.000000 0.000000
# 5 0.000000 0.000000 0.000000 0.000000 0.045036 0.000000
# 6 0.000000 0.000000 0.000000 0.000000 0.000000 0.027917
#
#
# Mechanical properties :
#
#
# Convention : Reuss Voigt Hill
#
# Bulk Modulus (GPa) = 37.48638 49.04619 43.26629
# Shear Modulus (GPa) = 23.47692 27.35473 25.41583
#
# Velocity S-wave (km/s) = 3.40511 3.67559 3.54293
# Velocity P-wave (km/s) = 5.82867 6.49893 6.17291
#
# Compressibility (1/GPa) = 0.02667635
#
# Stress axis : x y z
#
# Youngs Moduli (GPa) = 90.90909 44.32748 36.09752
#
# Poissons Ratio (x) = 0.35533 0.00638
# Poissons Ratio (y) = 0.72872 0.32850
# Poissons Ratio (z) = 0.01606 0.40340
#
# Static dielectric constant tensor:
#      x y z
#    x 3.796450 0.000000 0.000000 
#    y 0.000000 3.584320 0.000000 
#    z 0.000000 0.000000 3.592670 
# 
# 
# High freq. dielectric constant tensor:
#      x y z
#    x 1.796960 0.000000 0.000000 
#    y 0.000000 1.786380 0.000000 
#    z 0.000000 0.000000 1.786950 
# 
# From -- ./inp_files/14358.got.cif
#   From: 2010.03.12/outbox.cif.g09.slc.cpg/sg59_8_cif.got.tgz:14358.got - 2010.04.16 16:29:54.
