data_PCOD8244300
_publ_section_title
;
Structure prediction by ZEFSAII (Michael W. Deem and Ramdas Pophale) SiO2 
 PCOD8244300
Probable space group: P M M N
;
_chemical_formula_sum "Si O2"
_cell_formula_units_Z 40
_cell_length_a 9.706804
_cell_length_b 24.277296
_cell_length_c 9.255407
_cell_angle_alpha 90.000000
_cell_angle_beta 90.000000
_cell_angle_gamma 90.000000
_cell_volume 2181.082510
_symmetry_space_group_name_H-M "P M M N"
_symmetry_group_IT_number 59
_space_group.IT_coordinate_system_code '2'
_symmetry_cell_setting 'orthorhombic'
loop_
_space_group_symop_operation_xyz
x,y,z
1/2-x,1/2-y,z
1/2+x,-y,-z
-x,1/2+y,-z
-x,-y,-z
1/2+x,1/2+y,-z
1/2-x,y,z
x,1/2-y,z
loop_
_atom_site_type_symbol
_atom_site_label
_atom_site_fract_x
_atom_site_fract_y
_atom_site_fract_z
Si Si1 0.589231 0.750000 0.226604
Si Si2 0.411425 0.851289 0.723592
Si Si3 0.910406 0.655132 0.007413
Si Si4 0.901710 0.964794 0.094583
Si Si5 0.090741 0.750000 0.513916
Si Si6 0.595467 0.028570 0.384719
O O1 0.750000 0.750000 0.268960
O O2 0.548341 0.801836 0.129716
O O3 0.502345 0.750000 0.372523
O O4 0.250000 0.852617 0.765207
O O5 0.443347 0.804702 0.605470
O O6 0.458998 0.911090 0.663449
O O7 0.498151 0.836286 0.865294
O O8 0.750000 0.660736 0.963003
O O9 0.947064 0.598152 0.085015
O O10 0.750000 0.972169 0.028584
O O11 0.906754 0.984990 0.256835
O O12 0.000000 0.000000 0.000000
O O13 0.250000 0.750000 0.466880
O O14 0.750000 0.035132 0.447039
O O15 0.500000 0.000000 0.500000
#
# Coordination Sequence:
#
# PCOD8244300 Si02
#       6
#     4   8   8   8   4   8
#     4  10  23  40  58  84 114 144 185 234 282 328
#     4  10  21  39  59  82 112 148 187 231 276 329
#     4  10  21  37  59  85 111 144 187 231 276 332
#     4  10  20  36  57  83 114 145 182 227 274 327
#     4  10  23  40  58  82 112 146 189 230 276 332
#     4  10  22  37  55  82 116 149 185 227 276 330
#
# _framework density 18.339517000000001
#
# number of rings (size 3 to 8) (size 9 to 14) (size 15 to 20)
#    0.000    2.000    2.000    0.600    2.800    3.200 
#    0.000    0.000    0.000    0.000    0.000    0.000 
#    0.000    0.000    0.000    0.000    0.000    0.000 
#
# Total GULP energy -495977.747482 kJ/mol
# GULP energy per Si atom -12399.443687 kJ/mol
# Density = 1.829777 g / cm^3
# Si number density = 18.339517 Si / 1000 Ang^3
#
#
#
# Elastic Constant Matrix: (Units=GPa)
#
#
# Indices 1 2 3 4 5 6 
#
# 1 80.9467 61.0836 75.2500 0.0000 0.0000 0.0000
# 2 61.0836 158.6882 83.0373 0.0000 0.0000 0.0000
# 3 75.2500 83.0373 128.5791 0.0000 0.0000 0.0000
# 4 0.0000 0.0000 0.0000 33.8163 0.0000 0.0000
# 5 0.0000 0.0000 0.0000 0.0000 43.3342 0.0000
# 6 0.0000 0.0000 0.0000 0.0000 0.0000 26.7684
#
#
#
# Elastic Compliance Matrix: (Units=1/GPa)
#
#
# Indices 1 2 3 4 5 6 
#
# 1 0.028230 -0.003355 -0.014355 0.000000 0.000000 0.000000
# 2 -0.003355 0.009917 -0.004441 0.000000 0.000000 0.000000
# 3 -0.014355 -0.004441 0.019046 0.000000 0.000000 0.000000
# 4 0.000000 0.000000 0.000000 0.029572 0.000000 0.000000
# 5 0.000000 0.000000 0.000000 0.000000 0.023076 0.000000
# 6 0.000000 0.000000 0.000000 0.000000 0.000000 0.037358
#
#
# Mechanical properties :
#
#
# Convention : Reuss Voigt Hill
#
# Bulk Modulus (GPa) = 77.56813 89.66177 83.61495
# Shear Modulus (GPa) = 25.53658 30.70666 28.12162
#
# Velocity S-wave (km/s) = 3.73558 4.09631 3.92010
# Velocity P-wave (km/s) = 7.80984 8.44802 8.13519
#
# Compressibility (1/GPa) = 0.01289189
#
# Stress axis : x y z
#
# Youngs Moduli (GPa) = 35.42312 100.83757 52.50380
#
# Poissons Ratio (x) = 0.33833 0.75368
# Poissons Ratio (y) = 0.11885 0.23316
# Poissons Ratio (z) = 0.50849 0.44780
#
# Static dielectric constant tensor:
#      x y z
#    x 3.488190 0.000000 0.000000 
#    y 0.000000 4.243500 0.000000 
#    z 0.000000 0.000000 4.377960 
# 
# 
# High freq. dielectric constant tensor:
#      x y z
#    x 1.711070 0.000000 0.000000 
#    y 0.000000 1.734590 0.000000 
#    z 0.000000 0.000000 1.705520 
# 
# From -- ./inp_files/5714.got.cif
#   From: 2010.03.12/outbox.cif.g09.slc.cpg/sg59_3_cif.got.tgz:5714.got - 2010.04.16 16:29:54.
