data_PCOD8244683
_publ_section_title
;
Structure prediction by ZEFSAII (Michael W. Deem and Ramdas Pophale) SiO2 
 PCOD8244683
Probable space group: P M M N
;
_chemical_formula_sum "Si O2"
_cell_formula_units_Z 56
_cell_length_a 14.556724
_cell_length_b 22.539379
_cell_length_c 8.988931
_cell_angle_alpha 90.000000
_cell_angle_beta 90.000000
_cell_angle_gamma 90.000000
_cell_volume 2949.263940
_symmetry_space_group_name_H-M "P M M N"
_symmetry_group_IT_number 59
_space_group.IT_coordinate_system_code '2'
_symmetry_cell_setting 'orthorhombic'
loop_
_space_group_symop_operation_xyz
x,y,z
1/2-x,1/2-y,z
1/2+x,-y,-z
-x,1/2+y,-z
-x,-y,-z
1/2+x,1/2+y,-z
1/2-x,y,z
x,1/2-y,z
loop_
_atom_site_type_symbol
_atom_site_label
_atom_site_fract_x
_atom_site_fract_y
_atom_site_fract_z
Si Si1 0.357593 0.423573 0.648962
Si Si2 0.355382 0.685709 0.893552
Si Si3 0.147835 0.679821 0.213235
Si Si4 0.856169 0.020068 0.588152
Si Si5 0.003690 0.002720 0.823264
Si Si6 0.019339 0.179992 0.579198
Si Si7 0.434484 0.893319 0.654510
O O1 0.250000 0.423433 0.683005
O O2 0.380914 0.457456 0.493327
O O3 0.406815 0.458796 0.782220
O O4 0.393640 0.355872 0.644544
O O5 0.250000 0.697275 0.925528
O O6 0.401862 0.750000 0.857047
O O7 0.363144 0.640963 0.757949
O O8 0.391708 0.659007 0.051428
O O9 0.250000 0.652953 0.251336
O O10 0.156133 0.750000 0.210895
O O11 0.073396 0.660814 0.334754
O O12 0.750000 0.022181 0.632425
O O13 0.879404 0.071927 0.472433
O O14 0.913600 0.029918 0.740568
O O15 0.008823 0.936269 0.761508
O O16 0.000000 0.000000 0.000000
O O17 0.040732 0.250000 0.584323
O O18 0.003167 0.156340 0.412339
#
# Coordination Sequence:
#
# PCOD8244683 Si02
#       7
#     8   8   8   8   8   8   8
#     4  10  21  41  62  84 118 153 194 246 293 346
#     4   9  18  32  50  80 121 159 191 227 280 344
#     4   8  17  33  51  76 115 158 194 229 279 344
#     4  10  20  39  63  85 114 150 187 239 299 348
#     4  11  23  40  62  87 116 149 195 241 298 358
#     4  11  21  35  59  87 117 157 199 239 292 351
#     4  11  20  35  55  85 118 150 192 240 287 345
#
# _framework density 18.987787999999998
#
# number of rings (size 3 to 8) (size 9 to 14) (size 15 to 20)
#    0.000    2.000    2.857    2.571    2.000    2.571 
#    0.000    1.429    0.000    0.000    0.000    0.000 
#    0.000    0.000    0.000    0.000    0.000    0.000 
#
# Total GULP energy -693994.137740 kJ/mol
# GULP energy per Si atom -12392.752460 kJ/mol
# Density = 1.894457 g / cm^3
# Si number density = 18.987788 Si / 1000 Ang^3
#
#
#
# Elastic Constant Matrix: (Units=GPa)
#
#
# Indices 1 2 3 4 5 6 
#
# 1 99.0727 38.8005 53.6547 0.0000 0.0000 0.0000
# 2 38.8005 106.9298 55.1606 0.0000 0.0000 0.0000
# 3 53.6547 55.1606 135.6150 0.0000 0.0000 0.0000
# 4 0.0000 0.0000 0.0000 26.5865 0.0000 0.0000
# 5 0.0000 0.0000 0.0000 0.0000 22.5086 0.0000
# 6 0.0000 0.0000 0.0000 0.0000 0.0000 26.8392
#
#
#
# Elastic Compliance Matrix: (Units=1/GPa)
#
#
# Indices 1 2 3 4 5 6 
#
# 1 0.013435 -0.002699 -0.004217 0.000000 0.000000 0.000000
# 2 -0.002699 0.012378 -0.003967 0.000000 0.000000 0.000000
# 3 -0.004217 -0.003967 0.010656 0.000000 0.000000 0.000000
# 4 0.000000 0.000000 0.000000 0.037613 0.000000 0.000000
# 5 0.000000 0.000000 0.000000 0.000000 0.044428 0.000000
# 6 0.000000 0.000000 0.000000 0.000000 0.000000 0.037259
#
#
# Mechanical properties :
#
#
# Convention : Reuss Voigt Hill
#
# Bulk Modulus (GPa) = 68.02006 70.76101 69.39054
# Shear Modulus (GPa) = 27.40706 28.12030 27.76368
#
# Velocity S-wave (km/s) = 3.80334 3.85251 3.82800
# Velocity P-wave (km/s) = 7.42886 7.55888 7.49415
#
# Compressibility (1/GPa) = 0.01470154
#
# Stress axis : x y z
#
# Youngs Moduli (GPa) = 74.43376 80.79116 93.84602
#
# Poissons Ratio (x) = 0.21808 0.39578
# Poissons Ratio (y) = 0.20092 0.37224
# Poissons Ratio (z) = 0.31392 0.32046
#
# Static dielectric constant tensor:
#      x y z
#    x 3.333720 0.000000 0.000000 
#    y 0.000000 3.541680 0.000000 
#    z 0.000000 0.000000 3.579760 
# 
# 
# High freq. dielectric constant tensor:
#      x y z
#    x 1.715320 0.000000 0.000000 
#    y 0.000000 1.745070 0.000000 
#    z 0.000000 0.000000 1.734080 
# 
# From -- ./inp_files/9350.got.cif
#   From: 2010.03.12/outbox.cif.g09.slc.cpg/sg59_5_cif.got.tgz:9350.got - 2010.04.16 16:29:54.
