data_PCOD8244671
_publ_section_title
;
Structure prediction by ZEFSAII (Michael W. Deem and Ramdas Pophale) SiO2 
 PCOD8244671
Probable space group: P M M N
;
_chemical_formula_sum "Si O2"
_cell_formula_units_Z 64
_cell_length_a 18.467764
_cell_length_b 19.720064
_cell_length_c 8.815352
_cell_angle_alpha 90.000000
_cell_angle_beta 90.000000
_cell_angle_gamma 90.000000
_cell_volume 3210.423270
_symmetry_space_group_name_H-M "P M M N"
_symmetry_group_IT_number 59
_space_group.IT_coordinate_system_code '2'
_symmetry_cell_setting 'orthorhombic'
loop_
_space_group_symop_operation_xyz
x,y,z
1/2-x,1/2-y,z
1/2+x,-y,-z
-x,1/2+y,-z
-x,-y,-z
1/2+x,1/2+y,-z
1/2-x,y,z
x,1/2-y,z
loop_
_atom_site_type_symbol
_atom_site_label
_atom_site_fract_x
_atom_site_fract_y
_atom_site_fract_z
Si Si1 0.589719 0.550629 0.144435
Si Si2 0.930614 0.434569 0.923291
Si Si3 0.042575 0.672967 0.829423
Si Si4 0.333495 0.927876 0.354788
Si Si5 0.331919 0.826484 0.605697
Si Si6 0.833083 0.671982 0.985453
Si Si7 0.334764 0.060687 0.539834
Si Si8 0.601298 0.672092 0.665047
O O1 0.503127 0.541832 0.164663
O O2 0.614963 0.623996 0.083858
O O3 0.627813 0.536230 0.304749
O O4 0.609587 0.492564 0.022159
O O5 0.873048 0.411348 0.800656
O O6 0.957814 0.371644 0.021524
O O7 0.026094 0.750000 0.878975
O O8 0.120957 0.664891 0.755599
O O9 0.979727 0.649491 0.713186
O O10 0.250000 0.913097 0.325370
O O11 0.363954 0.875380 0.478047
O O12 0.347108 0.003986 0.411885
O O13 0.250000 0.847005 0.649812
O O14 0.336233 0.750000 0.543263
O O15 0.750000 0.654339 0.023115
O O16 0.851197 0.750000 0.027551
O O17 0.845328 0.659980 0.806825
O O18 0.250000 0.073012 0.571368
O O19 0.371985 0.128976 0.478735
O O20 0.602525 0.750000 0.611649
#
# Coordination Sequence:
#
# PCOD8244671 Si02
#       8
#     8   8   8   8   8   8   8   8
#     4  11  24  39  57  88 122 157 205 248 297 358
#     4  11  24  39  59  88 120 160 199 250 301 356
#     4  10  21  39  62  89 121 157 198 246 299 357
#     4  10  23  40  60  89 119 152 197 246 298 354
#     4   9  19  38  62  87 116 152 194 240 296 360
#     4  10  20  38  64  88 119 163 203 246 301 358
#     4  11  24  40  60  86 120 160 202 250 298 354
#     4  10  21  38  60  89 121 155 199 246 297 357
#
# _framework density 19.935067
#
# number of rings (size 3 to 8) (size 9 to 14) (size 15 to 20)
#    0.000    1.750    1.250    2.250    3.500    4.750 
#    0.000    0.000    0.000    0.000    0.000    0.000 
#    0.000    0.000    0.000    0.000    0.000    0.000 
#
# Total GULP energy -793749.116614 kJ/mol
# GULP energy per Si atom -12402.329947 kJ/mol
# Density = 1.988969 g / cm^3
# Si number density = 19.935067 Si / 1000 Ang^3
#
#
#
# Elastic Constant Matrix: (Units=GPa)
#
#
# Indices 1 2 3 4 5 6 
#
# 1 88.4130 35.8232 45.9037 0.0000 0.0000 0.0000
# 2 35.8232 72.3924 22.3680 0.0000 0.0000 0.0000
# 3 45.9037 22.3680 69.6832 0.0000 0.0000 0.0000
# 4 0.0000 0.0000 0.0000 33.9431 0.0000 0.0000
# 5 0.0000 0.0000 0.0000 0.0000 38.1872 0.0000
# 6 0.0000 0.0000 0.0000 0.0000 0.0000 29.1008
#
#
#
# Elastic Compliance Matrix: (Units=1/GPa)
#
#
# Indices 1 2 3 4 5 6 
#
# 1 0.019473 -0.006297 -0.010806 0.000000 0.000000 0.000000
# 2 -0.006297 0.017371 -0.001428 0.000000 0.000000 0.000000
# 3 -0.010806 -0.001428 0.021928 0.000000 0.000000 0.000000
# 4 0.000000 0.000000 0.000000 0.029461 0.000000 0.000000
# 5 0.000000 0.000000 0.000000 0.000000 0.026187 0.000000
# 6 0.000000 0.000000 0.000000 0.000000 0.000000 0.034363
#
#
# Mechanical properties :
#
#
# Convention : Reuss Voigt Hill
#
# Bulk Modulus (GPa) = 46.06412 48.74208 47.40310
# Shear Modulus (GPa) = 25.89595 28.67246 27.28421
#
# Velocity S-wave (km/s) = 3.60810 3.79660 3.70355
# Velocity P-wave (km/s) = 6.36514 6.61229 6.48989
#
# Compressibility (1/GPa) = 0.02170887
#
# Stress axis : x y z
#
# Youngs Moduli (GPa) = 51.35444 57.56777 45.60472
#
# Poissons Ratio (x) = 0.36250 0.49281
# Poissons Ratio (y) = 0.32338 0.06512
# Poissons Ratio (z) = 0.55495 0.08220
#
# Static dielectric constant tensor:
#      x y z
#    x 3.705790 0.000000 0.000000 
#    y 0.000000 3.699870 0.000000 
#    z 0.000000 0.000000 3.376410 
# 
# 
# High freq. dielectric constant tensor:
#      x y z
#    x 1.788190 0.000000 0.000000 
#    y 0.000000 1.785450 0.000000 
#    z 0.000000 0.000000 1.760470 
# 
# From -- ./inp_files/10667.got.cif
#   From: 2010.03.12/outbox.cif.g09.slc.cpg/sg59_6_cif.got.tgz:10667.got - 2010.04.16 16:29:54.
