data_PCOD8244994
_publ_section_title
;
Structure prediction by ZEFSAII (Michael W. Deem and Ramdas Pophale) SiO2 
 PCOD8244994
Probable space group: P M M N
;
_chemical_formula_sum "Si O2"
_cell_formula_units_Z 32
_cell_length_a 9.043432
_cell_length_b 26.507229
_cell_length_c 7.786759
_cell_angle_alpha 90.000000
_cell_angle_beta 90.000000
_cell_angle_gamma 90.000000
_cell_volume 1866.613235
_symmetry_space_group_name_H-M "P M M N"
_symmetry_group_IT_number 59
_space_group.IT_coordinate_system_code '2'
_symmetry_cell_setting 'orthorhombic'
loop_
_space_group_symop_operation_xyz
x,y,z
1/2-x,1/2-y,z
1/2+x,-y,-z
-x,1/2+y,-z
-x,-y,-z
1/2+x,1/2+y,-z
1/2-x,y,z
x,1/2-y,z
loop_
_atom_site_type_symbol
_atom_site_label
_atom_site_fract_x
_atom_site_fract_y
_atom_site_fract_z
Si Si1 0.924468 0.641309 0.839405
Si Si2 0.916631 0.354067 0.830753
Si Si3 0.082896 0.551635 0.968576
Si Si4 0.422989 0.192099 0.514785
O O1 0.750000 0.636141 0.861639
O O2 0.968499 0.673548 0.673781
O O3 0.991998 0.669700 0.007837
O O4 0.996736 0.585116 0.824505
O O5 0.750000 0.332534 0.833722
O O6 0.916153 0.415140 0.855306
O O7 0.991513 0.341435 0.651629
O O8 0.250000 0.540776 0.905790
O O9 0.000000 0.500000 0.000000
O O10 0.250000 0.184794 0.545956
O O11 0.470735 0.250000 0.534500
#
# Coordination Sequence:
#
# PCOD8244994 Si02
#       4
#     8   8   8   8
#     4   9  18  34  55  78 109 141 176 220 263 310
#     4   9  20  35  53  79 109 139 176 219 263 315
#     4   9  18  33  55  80 106 139 177 216 265 317
#     4  10  21  36  55  79 106 141 182 219 259 311
#
# _framework density 17.143348
#
# number of rings (size 3 to 8) (size 9 to 14) (size 15 to 20)
#    1.500    1.250    0.000    1.500    0.000    3.500 
#    0.000    3.750    0.000    0.000    0.000    0.000 
#    0.000    0.000    0.000    0.000    0.000    0.000 
#
# Total GULP energy -396469.810614 kJ/mol
# GULP energy per Si atom -12389.681582 kJ/mol
# Density = 1.710433 g / cm^3
# Si number density = 17.143348 Si / 1000 Ang^3
#
#
#
# Elastic Constant Matrix: (Units=GPa)
#
#
# Indices 1 2 3 4 5 6 
#
# 1 105.6240 39.8951 58.5008 0.0000 0.0000 0.0000
# 2 39.8951 69.5239 22.6533 0.0000 0.0000 0.0000
# 3 58.5008 22.6533 90.4274 0.0000 0.0000 0.0000
# 4 0.0000 0.0000 0.0000 25.1715 0.0000 0.0000
# 5 0.0000 0.0000 0.0000 0.0000 27.0271 0.0000
# 6 0.0000 0.0000 0.0000 0.0000 0.0000 17.8228
#
#
#
# Elastic Compliance Matrix: (Units=1/GPa)
#
#
# Indices 1 2 3 4 5 6 
#
# 1 0.017301 -0.006839 -0.009479 0.000000 0.000000 0.000000
# 2 -0.006839 0.018366 -0.000176 0.000000 0.000000 0.000000
# 3 -0.009479 -0.000176 0.017235 0.000000 0.000000 0.000000
# 4 0.000000 0.000000 0.000000 0.039727 0.000000 0.000000
# 5 0.000000 0.000000 0.000000 0.000000 0.037000 0.000000
# 6 0.000000 0.000000 0.000000 0.000000 0.000000 0.056108
#
#
# Mechanical properties :
#
#
# Convention : Reuss Voigt Hill
#
# Bulk Modulus (GPa) = 50.22051 56.40820 53.31435
# Shear Modulus (GPa) = 22.18632 23.63936 22.91284
#
# Velocity S-wave (km/s) = 3.60135 3.71741 3.65984
# Velocity P-wave (km/s) = 6.83016 7.16944 7.00185
#
# Compressibility (1/GPa) = 0.01991218
#
# Stress axis : x y z
#
# Youngs Moduli (GPa) = 57.80027 54.44976 58.02059
#
# Poissons Ratio (x) = 0.37239 0.54999
# Poissons Ratio (y) = 0.39531 0.01023
# Poissons Ratio (z) = 0.54791 0.00960
#
# Static dielectric constant tensor:
#      x y z
#    x 3.330570 0.000000 0.000000 
#    y 0.000000 3.007670 0.000000 
#    z 0.000000 0.000000 2.989380 
# 
# 
# High freq. dielectric constant tensor:
#      x y z
#    x 1.678520 0.000000 0.000000 
#    y 0.000000 1.645940 0.000000 
#    z 0.000000 0.000000 1.642170 
# 
# From -- ./inp_files/576.got.cif
#   From: 2010.03.12/outbox.cif.g09.slc.cpg/sg59_1_cif.got.tgz:576.got - 2010.04.16 16:29:54.
