data_PCOD8244251
_publ_section_title
;
Structure prediction by ZEFSAII (Michael W. Deem and Ramdas Pophale) SiO2 
 PCOD8244251
Probable space group: P M M N
;
_chemical_formula_sum "Si O2"
_cell_formula_units_Z 48
_cell_length_a 8.872567
_cell_length_b 13.170609
_cell_length_c 21.286245
_cell_angle_alpha 90.000000
_cell_angle_beta 90.000000
_cell_angle_gamma 90.000000
_cell_volume 2487.449090
_symmetry_space_group_name_H-M "P M M N"
_symmetry_group_IT_number 59
_space_group.IT_coordinate_system_code '2'
_symmetry_cell_setting 'orthorhombic'
loop_
_space_group_symop_operation_xyz
x,y,z
1/2-x,1/2-y,z
1/2+x,-y,-z
-x,1/2+y,-z
-x,-y,-z
1/2+x,1/2+y,-z
1/2-x,y,z
x,1/2-y,z
loop_
_atom_site_type_symbol
_atom_site_label
_atom_site_fract_x
_atom_site_fract_y
_atom_site_fract_z
Si Si1 0.573676 0.526617 0.673497
Si Si2 0.428011 0.947736 0.092116
Si Si3 0.927786 0.562615 0.445788
Si Si4 0.927705 0.250000 0.499957
Si Si5 0.928273 0.136408 0.777377
Si Si6 0.423216 0.250000 0.362287
Si Si7 0.572715 0.363862 0.040736
O O1 0.750000 0.508266 0.657988
O O2 0.463806 0.489646 0.619507
O O3 0.522859 0.457656 0.732771
O O4 0.541948 0.648732 0.679772
O O5 0.250000 0.956410 0.095963
O O6 0.491264 0.889525 0.153236
O O7 0.493309 0.061692 0.090101
O O8 0.481303 0.886774 0.030438
O O9 0.750000 0.574936 0.454445
O O10 0.000000 0.500000 0.500000
O O11 0.015135 0.665616 0.452952
O O12 0.750000 0.250000 0.492637
O O13 0.990239 0.250000 0.428873
O O14 0.750000 0.141942 0.779074
O O15 0.989028 0.250000 0.757407
O O16 0.250000 0.250000 0.382586
O O17 0.750000 0.379404 0.045854
O O18 0.524170 0.250000 0.058259
#
# Coordination Sequence:
#
# PCOD8244251 Si02
#       7
#     8   8   8   4   8   4   8
#     4  10  21  37  57  82 111 147 187 229 280 339
#     4   9  17  31  52  79 107 140 184 230 273 323
#     4  12  24  39  59  86 116 145 184 234 287 343
#     4  12  24  38  60  86 114 150 187 230 287 344
#     4   9  18  34  56  82 110 143 186 231 276 332
#     4  10  20  36  56  78 112 148 183 226 279 338
#     4   9  17  30  50  76 109 146 181 223 277 331
#
# _framework density 19.296878
#
# number of rings (size 3 to 8) (size 9 to 14) (size 15 to 20)
#    0.000    2.000    1.667    2.750    1.167    2.333 
#    1.500    0.833    0.000    2.500    0.000    0.000 
#    0.000    0.000    0.000    0.000    0.000    0.000 
#
# Total GULP energy -594699.362420 kJ/mol
# GULP energy per Si atom -12389.570050 kJ/mol
# Density = 1.925296 g / cm^3
# Si number density = 19.296878 Si / 1000 Ang^3
#
#
#
# Elastic Constant Matrix: (Units=GPa)
#
#
# Indices 1 2 3 4 5 6 
#
# 1 58.9937 32.0537 20.4985 0.0000 0.0000 0.0000
# 2 32.0537 175.4876 57.6009 0.0000 0.0000 0.0000
# 3 20.4985 57.6009 89.5057 0.0000 0.0000 0.0000
# 4 0.0000 0.0000 0.0000 36.0682 0.0000 0.0000
# 5 0.0000 0.0000 0.0000 0.0000 22.6818 0.0000
# 6 0.0000 0.0000 0.0000 0.0000 0.0000 26.9512
#
#
#
# Elastic Compliance Matrix: (Units=1/GPa)
#
#
# Indices 1 2 3 4 5 6 
#
# 1 0.019332 -0.002634 -0.002732 0.000000 0.000000 0.000000
# 2 -0.002634 0.007583 -0.004277 0.000000 0.000000 0.000000
# 3 -0.002732 -0.004277 0.014551 0.000000 0.000000 0.000000
# 4 0.000000 0.000000 0.000000 0.027725 0.000000 0.000000
# 5 0.000000 0.000000 0.000000 0.000000 0.044088 0.000000
# 6 0.000000 0.000000 0.000000 0.000000 0.000000 0.037104
#
#
# Mechanical properties :
#
#
# Convention : Reuss Voigt Hill
#
# Bulk Modulus (GPa) = 45.08763 60.47702 52.78232
# Shear Modulus (GPa) = 28.23858 31.39582 29.81720
#
# Velocity S-wave (km/s) = 3.82956 4.03797 3.93515
# Velocity P-wave (km/s) = 6.55515 7.29031 6.93248
#
# Compressibility (1/GPa) = 0.02217903
#
# Stress axis : x y z
#
# Youngs Moduli (GPa) = 51.72892 131.86671 68.72584
#
# Poissons Ratio (x) = 0.34737 0.18776
# Poissons Ratio (y) = 0.13627 0.29394
# Poissons Ratio (z) = 0.14132 0.56399
#
# Static dielectric constant tensor:
#      x y z
#    x 3.302130 0.000000 0.000000 
#    y 0.000000 4.099660 0.000000 
#    z 0.000000 0.000000 3.432320 
# 
# 
# High freq. dielectric constant tensor:
#      x y z
#    x 1.726150 0.000000 0.000000 
#    y 0.000000 1.774950 0.000000 
#    z 0.000000 0.000000 1.734420 
# 
# From -- ./inp_files/25548.got.cif
#   From: 2010.03.12/outbox.cif.g09.slc.cpg/sg59_13_cif.got.tgz:25548.got - 2010.04.16 16:29:54.
