data_PCOD8244872
_publ_section_title
;
Structure prediction by ZEFSAII (Michael W. Deem and Ramdas Pophale) SiO2 
 PCOD8244872
Probable space group: P M M N
;
_chemical_formula_sum "Si O2"
_cell_formula_units_Z 48
_cell_length_a 9.042355
_cell_length_b 9.095310
_cell_length_c 31.289628
_cell_angle_alpha 90.000000
_cell_angle_beta 90.000000
_cell_angle_gamma 90.000000
_cell_volume 2573.353559
_symmetry_space_group_name_H-M "P M M N"
_symmetry_group_IT_number 59
_space_group.IT_coordinate_system_code '2'
_symmetry_cell_setting 'orthorhombic'
loop_
_space_group_symop_operation_xyz
x,y,z
1/2-x,1/2-y,z
1/2+x,-y,-z
-x,1/2+y,-z
-x,-y,-z
1/2+x,1/2+y,-z
1/2-x,y,z
x,1/2-y,z
loop_
_atom_site_type_symbol
_atom_site_label
_atom_site_fract_x
_atom_site_fract_y
_atom_site_fract_z
Si Si1 0.579700 0.922865 0.538877
Si Si2 0.421971 0.580422 0.624500
Si Si3 0.417571 0.574473 0.300256
Si Si4 0.924041 0.419603 0.039145
Si Si5 0.420208 0.574788 0.115604
Si Si6 0.075487 0.590023 0.208238
O O1 0.750000 0.969339 0.539043
O O2 0.557379 0.750000 0.533616
O O3 0.508416 0.978366 0.583056
O O4 0.500000 0.000000 0.500000
O O5 0.250000 0.555041 0.616019
O O6 0.459914 0.750000 0.633158
O O7 0.470300 0.488502 0.665393
O O8 0.250000 0.524142 0.311139
O O9 0.427263 0.750000 0.299688
O O10 0.467313 0.510794 0.253176
O O11 0.750000 0.436891 0.034025
O O12 0.972506 0.250000 0.039119
O O13 0.973072 0.493844 0.083068
O O14 0.000000 0.500000 0.000000
O O15 0.250000 0.536054 0.104921
O O16 0.443321 0.750000 0.113184
O O17 0.465532 0.512411 0.163107
O O18 0.250000 0.612724 0.208800
O O19 0.998769 0.750000 0.207918
#
# Coordination Sequence:
#
# PCOD8244872 Si02
#       6
#     8   8   8   8   8   8
#     4  10  21  37  57  79 102 131 168 209 254 305
#     4  10  21  36  52  72 102 139 174 209 253 302
#     4   9  17  31  53  79 104 133 172 215 255 296
#     4  11  24  39  54  75 103 134 169 209 253 302
#     4   9  17  32  56  82 105 132 168 209 253 301
#     4   7  12  26  49  76 104 132 165 207 251 295
#
# _framework density 18.652701
#
# number of rings (size 3 to 8) (size 9 to 14) (size 15 to 20)
#    0.000    2.667    0.000    4.000    0.000    6.667 
#    0.000    1.667    0.000    8.000    0.000    0.000 
#    0.000    0.000    0.000    0.000    0.000    0.000 
#
# Total GULP energy -594861.634609 kJ/mol
# GULP energy per Si atom -12392.950721 kJ/mol
# Density = 1.861025 g / cm^3
# Si number density = 18.652701 Si / 1000 Ang^3
#
#
#
# Elastic Constant Matrix: (Units=GPa)
#
#
# Indices 1 2 3 4 5 6 
#
# 1 77.3352 34.1666 60.5150 0.0000 0.0000 0.0000
# 2 34.1666 49.4441 50.2713 0.0000 0.0000 0.0000
# 3 60.5150 50.2713 183.6323 0.0000 0.0000 0.0000
# 4 0.0000 0.0000 0.0000 23.2750 0.0000 0.0000
# 5 0.0000 0.0000 0.0000 0.0000 34.7015 0.0000
# 6 0.0000 0.0000 0.0000 0.0000 0.0000 27.5736
#
#
#
# Elastic Compliance Matrix: (Units=1/GPa)
#
#
# Indices 1 2 3 4 5 6 
#
# 1 0.020529 -0.010126 -0.003993 0.000000 0.000000 0.000000
# 2 -0.010126 0.033020 -0.005703 0.000000 0.000000 0.000000
# 3 -0.003993 -0.005703 0.008323 0.000000 0.000000 0.000000
# 4 0.000000 0.000000 0.000000 0.042965 0.000000 0.000000
# 5 0.000000 0.000000 0.000000 0.000000 0.028817 0.000000
# 6 0.000000 0.000000 0.000000 0.000000 0.000000 0.036267
#
#
# Mechanical properties :
#
#
# Convention : Reuss Voigt Hill
#
# Bulk Modulus (GPa) = 44.98746 66.70192 55.84469
# Shear Modulus (GPa) = 23.04434 28.14059 25.59247
#
# Velocity S-wave (km/s) = 3.51870 3.88836 3.70814
# Velocity P-wave (km/s) = 6.37802 7.48309 6.95255
#
# Compressibility (1/GPa) = 0.02222842
#
# Stress axis : x y z
#
# Youngs Moduli (GPa) = 48.71169 30.28461 120.15261
#
# Poissons Ratio (x) = 0.30666 0.47979
# Poissons Ratio (y) = 0.49325 0.68519
# Poissons Ratio (z) = 0.19451 0.17270
#
# Static dielectric constant tensor:
#      x y z
#    x 3.080930 0.000000 0.000000 
#    y 0.000000 3.180720 0.000000 
#    z 0.000000 0.000000 3.873980 
# 
# 
# High freq. dielectric constant tensor:
#      x y z
#    x 1.708910 0.000000 0.000000 
#    y 0.000000 1.694070 0.000000 
#    z 0.000000 0.000000 1.750540 
# 
# From -- ./inp_files/32912.got.cif
#   From: 2010.03.12/outbox.cif.g09.slc.cpg/sg59_17_cif.got.tgz:32912.got - 2010.04.16 16:29:54.
