data_PCOD8244553
_publ_section_title
;
Structure prediction by ZEFSAII (Michael W. Deem and Ramdas Pophale) SiO2 
 PCOD8244553
Probable space group: P M M N
;
_chemical_formula_sum "Si O2"
_cell_formula_units_Z 56
_cell_length_a 9.167410
_cell_length_b 18.891982
_cell_length_c 16.298092
_cell_angle_alpha 90.000000
_cell_angle_beta 90.000000
_cell_angle_gamma 90.000000
_cell_volume 2822.675431
_symmetry_space_group_name_H-M "P M M N"
_symmetry_group_IT_number 59
_space_group.IT_coordinate_system_code '2'
_symmetry_cell_setting 'orthorhombic'
loop_
_space_group_symop_operation_xyz
x,y,z
1/2-x,1/2-y,z
1/2+x,-y,-z
-x,1/2+y,-z
-x,-y,-z
1/2+x,1/2+y,-z
1/2-x,y,z
x,1/2-y,z
loop_
_atom_site_type_symbol
_atom_site_label
_atom_site_fract_x
_atom_site_fract_y
_atom_site_fract_z
Si Si1 0.080606 0.040589 0.427187
Si Si2 0.581267 0.439837 0.261151
Si Si3 0.083285 0.426903 0.000730
Si Si4 0.584532 0.828846 0.470745
Si Si5 0.912729 0.585277 0.182793
Si Si6 0.422441 0.167895 0.151749
Si Si7 0.920149 0.330894 0.686178
O O1 0.250000 0.016368 0.420196
O O2 0.069466 0.123975 0.448171
O O3 0.998380 0.029398 0.341683
O O4 0.000000 0.000000 0.500000
O O5 0.750000 0.423121 0.281298
O O6 0.565812 0.500677 0.192180
O O7 0.503629 0.369011 0.228190
O O8 0.250000 0.445501 0.019806
O O9 0.064970 0.391853 0.911297
O O10 0.026057 0.370453 0.067692
O O11 0.000000 0.500000 0.000000
O O12 0.750000 0.827433 0.439284
O O13 0.528814 0.750000 0.493211
O O14 0.491244 0.862571 0.396401
O O15 0.750000 0.605925 0.212777
O O16 0.031262 0.626803 0.234456
O O17 0.250000 0.160638 0.165575
O O18 0.469343 0.250000 0.147357
O O19 0.750000 0.339331 0.676309
O O20 0.969928 0.250000 0.696770
#
# Coordination Sequence:
#
# PCOD8244553 Si02
#       7
#     8   8   8   8   8   8   8
#     4  11  23  38  58  86 118 152 195 246 296 350
#     4  11  23  39  59  86 118 154 196 243 296 353
#     4  10  20  37  61  87 115 151 194 241 290 344
#     4   9  19  37  58  77 103 144 189 232 282 340
#     4  10  21  36  57  84 114 151 193 232 280 347
#     4  10  22  40  62  89 120 156 200 247 297 355
#     4  10  21  35  53  82 116 147 185 235 288 341
#
# _framework density 19.839334000000001
#
# number of rings (size 3 to 8) (size 9 to 14) (size 15 to 20)
#    0.000    1.857    1.429    2.143    0.000    8.571 
#    0.000    2.857    0.000    0.000    0.000    0.000 
#    0.000    0.000    0.000    0.000    0.000    0.000 
#
# Total GULP energy -694489.767539 kJ/mol
# GULP energy per Si atom -12401.602992 kJ/mol
# Density = 1.979418 g / cm^3
# Si number density = 19.839334 Si / 1000 Ang^3
#
#
#
# Elastic Constant Matrix: (Units=GPa)
#
#
# Indices 1 2 3 4 5 6 
#
# 1 79.9180 34.5970 36.9629 0.0000 0.0000 0.0000
# 2 34.5970 72.4076 34.0447 0.0000 0.0000 0.0000
# 3 36.9629 34.0447 98.5328 0.0000 0.0000 0.0000
# 4 0.0000 0.0000 0.0000 33.8688 0.0000 0.0000
# 5 0.0000 0.0000 0.0000 0.0000 29.8715 0.0000
# 6 0.0000 0.0000 0.0000 0.0000 0.0000 32.2818
#
#
#
# Elastic Compliance Matrix: (Units=1/GPa)
#
#
# Indices 1 2 3 4 5 6 
#
# 1 0.017183 -0.006184 -0.004309 0.000000 0.000000 0.000000
# 2 -0.006184 0.018715 -0.004147 0.000000 0.000000 0.000000
# 3 -0.004309 -0.004147 0.013198 0.000000 0.000000 0.000000
# 4 0.000000 0.000000 0.000000 0.029526 0.000000 0.000000
# 5 0.000000 0.000000 0.000000 0.000000 0.033477 0.000000
# 6 0.000000 0.000000 0.000000 0.000000 0.000000 0.030977
#
#
# Mechanical properties :
#
#
# Convention : Reuss Voigt Hill
#
# Bulk Modulus (GPa) = 50.46271 51.34086 50.90178
# Shear Modulus (GPa) = 27.93903 28.88799 28.41351
#
# Velocity S-wave (km/s) = 3.75676 3.82002 3.78852
# Velocity P-wave (km/s) = 6.65647 6.73730 6.69701
#
# Compressibility (1/GPa) = 0.01981661
#
# Stress axis : x y z
#
# Youngs Moduli (GPa) = 58.19706 53.43273 75.76826
#
# Poissons Ratio (x) = 0.33043 0.32650
# Poissons Ratio (y) = 0.35989 0.31418
# Poissons Ratio (z) = 0.25078 0.22156
#
# Static dielectric constant tensor:
#      x y z
#    x 3.614400 0.000000 0.000000 
#    y 0.000000 3.678530 0.000000 
#    z 0.000000 0.000000 3.627930 
# 
# 
# High freq. dielectric constant tensor:
#      x y z
#    x 1.774310 0.000000 0.000000 
#    y 0.000000 1.772880 0.000000 
#    z 0.000000 0.000000 1.773760 
# 
# From -- ./inp_files/20940.got.cif
#   From: 2010.03.12/outbox.cif.g09.slc.cpg/sg59_11_cif.got.tgz:20940.got - 2010.04.16 16:29:54.
