data_PCOD8244659
_publ_section_title
;
Structure prediction by ZEFSAII (Michael W. Deem and Ramdas Pophale) SiO2 
 PCOD8244659
Probable space group: P M M N
;
_chemical_formula_sum "Si O2"
_cell_formula_units_Z 48
_cell_length_a 14.885322
_cell_length_b 8.971302
_cell_length_c 18.738441
_cell_angle_alpha 90.000000
_cell_angle_beta 90.000000
_cell_angle_gamma 90.000000
_cell_volume 2502.344885
_symmetry_space_group_name_H-M "P M M N"
_symmetry_group_IT_number 59
_space_group.IT_coordinate_system_code '2'
_symmetry_cell_setting 'orthorhombic'
loop_
_space_group_symop_operation_xyz
x,y,z
1/2-x,1/2-y,z
1/2+x,-y,-z
-x,1/2+y,-z
-x,-y,-z
1/2+x,1/2+y,-z
1/2-x,y,z
x,1/2-y,z
loop_
_atom_site_type_symbol
_atom_site_label
_atom_site_fract_x
_atom_site_fract_y
_atom_site_fract_z
Si Si1 0.389792 0.924329 0.348072
Si Si2 0.646436 0.080754 0.162466
Si Si3 0.250000 0.426059 0.078378
Si Si4 0.408362 0.425700 0.979101
Si Si5 0.250000 0.920643 0.228278
Si Si6 0.750000 0.926335 0.552590
Si Si7 0.750000 0.076769 0.402625
Si Si8 0.427506 0.577521 0.685666
O O1 0.386662 0.750000 0.365941
O O2 0.338788 0.958153 0.273917
O O3 0.340023 0.009230 0.411796
O O4 0.491917 0.977595 0.343849
O O5 0.750000 0.061705 0.183974
O O6 0.627139 0.250000 0.137446
O O7 0.587011 0.040492 0.231173
O O8 0.620793 0.968251 0.100251
O O9 0.250000 0.250000 0.078103
O O10 0.250000 0.478170 0.159156
O O11 0.336488 0.486425 0.036207
O O12 0.418409 0.250000 0.982814
O O13 0.500000 0.500000 0.000000
O O14 0.250000 0.750000 0.203634
O O15 0.750000 0.750000 0.560828
O O16 0.750000 0.971004 0.470503
O O17 0.750000 0.250000 0.425316
O O18 0.662366 0.037187 0.356818
O O19 0.452920 0.750000 0.675462
#
# Coordination Sequence:
#
# PCOD8244659 Si02
#       8
#     8   8   4   8   4   4   4   8
#     4  10  22  41  62  89 121 155 195 243 297 353
#     4  10  20  38  62  87 117 156 198 244 296 353
#     4  10  23  40  57  80 113 150 195 246 294 348
#     4  11  24  41  58  84 117 156 201 248 301 355
#     4   9  21  39  59  83 113 149 193 241 296 352
#     4  11  23  41  65  91 119 157 199 241 292 351
#     4  10  21  40  63  90 125 160 195 244 292 343
#     4  10  21  38  62  91 121 157 200 241 291 352
#
# _framework density 19.182008
#
# number of rings (size 3 to 8) (size 9 to 14) (size 15 to 20)
#    0.000    1.833    1.667    2.250    2.333    5.333 
#    0.000    0.000    0.000    0.000    0.000    0.000 
#    0.000    0.000    0.000    0.000    0.000    0.000 
#
# Total GULP energy -595390.834991 kJ/mol
# GULP energy per Si atom -12403.975729 kJ/mol
# Density = 1.913835 g / cm^3
# Si number density = 19.182008 Si / 1000 Ang^3
#
#
#
# Elastic Constant Matrix: (Units=GPa)
#
#
# Indices 1 2 3 4 5 6 
#
# 1 140.8147 54.7828 46.3478 0.0000 0.0000 0.0000
# 2 54.7828 86.6544 47.9149 0.0000 0.0000 0.0000
# 3 46.3478 47.9149 108.9962 0.0000 0.0000 0.0000
# 4 0.0000 0.0000 0.0000 34.5909 0.0000 0.0000
# 5 0.0000 0.0000 0.0000 0.0000 -400.3209 0.0000
# 6 0.0000 0.0000 0.0000 0.0000 0.0000 34.6584
#
#
#
# Elastic Compliance Matrix: (Units=1/GPa)
#
#
# Indices 1 2 3 4 5 6 
#
# 1 0.009703 -0.005090 -0.001888 0.000000 0.000000 0.000000
# 2 -0.005090 0.017916 -0.005712 0.000000 0.000000 0.000000
# 3 -0.001888 -0.005712 0.012488 0.000000 0.000000 0.000000
# 4 0.000000 0.000000 0.000000 0.028909 0.000000 0.000000
# 5 0.000000 0.000000 0.000000 0.000000 -0.002498 0.000000
# 6 0.000000 0.000000 0.000000 0.000000 0.000000 0.028853
#
#
# Mechanical properties :
#
#
# Convention : Reuss Voigt Hill
#
# Bulk Modulus (GPa) = 67.89937 70.50625 69.20281
# Shear Modulus (GPa) = 39.78920 -53.71964 -6.96522
#
# Velocity S-wave (km/s) = 4.55939 -5.29774 -1.90762
# Velocity P-wave (km/s) = 7.94932 0.76493 5.59493
#
# Compressibility (1/GPa) = 0.01472768
#
# Stress axis : x y z
#
# Youngs Moduli (GPa) = 103.05632 55.81502 80.07419
#
# Poissons Ratio (x) = 0.28412 0.15121
# Poissons Ratio (y) = 0.52459 0.45734
# Poissons Ratio (z) = 0.19461 0.31879
#
# Static dielectric constant tensor:
#      x y z
#    x 3.644990 0.000000 0.000000 
#    y 0.000000 3.395910 0.000000 
#    z 0.000000 0.000000 2.802490 
# 
# 
# High freq. dielectric constant tensor:
#      x y z
#    x 1.756480 0.000000 0.000000 
#    y 0.000000 1.744120 0.000000 
#    z 0.000000 0.000000 1.751050 
# 
# From -- ./inp_files/25664.got.cif
#   From: 2010.03.12/outbox.cif.g09.slc.cpg/sg59_13_cif.got.tgz:25664.got - 2010.04.16 16:29:54.
