data_PCOD8244688
_publ_section_title
;
Structure prediction by ZEFSAII (Michael W. Deem and Ramdas Pophale) SiO2 
 PCOD8244688
Probable space group: P M M N
;
_chemical_formula_sum "Si O2"
_cell_formula_units_Z 32
_cell_length_a 13.812493
_cell_length_b 12.244585
_cell_length_c 9.645227
_cell_angle_alpha 90.000000
_cell_angle_beta 90.000000
_cell_angle_gamma 90.000000
_cell_volume 1631.280311
_symmetry_space_group_name_H-M "P M M N"
_symmetry_group_IT_number 59
_space_group.IT_coordinate_system_code '2'
_symmetry_cell_setting 'orthorhombic'
loop_
_space_group_symop_operation_xyz
x,y,z
1/2-x,1/2-y,z
1/2+x,-y,-z
-x,1/2+y,-z
-x,-y,-z
1/2+x,1/2+y,-z
1/2-x,y,z
x,1/2-y,z
loop_
_atom_site_type_symbol
_atom_site_label
_atom_site_fract_x
_atom_site_fract_y
_atom_site_fract_z
Si Si1 0.139149 0.250000 0.540141
Si Si2 0.641077 0.379644 0.350470
Si Si3 0.360841 0.250000 0.210694
Si Si4 0.015165 0.456841 0.152656
Si Si5 0.534812 0.128842 0.622753
O O1 0.250000 0.250000 0.591236
O O2 0.129093 0.250000 0.375396
O O3 0.082079 0.357295 0.597808
O O4 0.750000 0.425355 0.353673
O O5 0.638831 0.250000 0.348640
O O6 0.588711 0.421673 0.212530
O O7 0.583094 0.423197 0.485136
O O8 0.250000 0.250000 0.162680
O O9 0.410764 0.143269 0.147738
O O10 0.059502 0.553191 0.247220
O O11 0.000000 0.500000 0.000000
O O12 0.579744 0.250000 0.650776
#
# Coordination Sequence:
#
# PCOD8244688 Si02
#       5
#     4   8   4   8   8
#     4   9  18  37  67  95 124 158 207 268 309 359
#     4  10  20  39  64  89 119 157 208 262 311 365
#     4  11  24  43  63  95 126 162 211 256 319 371
#     4  12  24  40  65  88 131 171 201 253 312 377
#     4   9  20  39  60  95 123 156 209 255 308 363
#
# _framework density 19.616493999999999
#
# number of rings (size 3 to 8) (size 9 to 14) (size 15 to 20)
#    0.750    1.000    3.750    0.750    1.750    3.000 
#    0.000    1.250    0.000    3.000    0.000    0.000 
#    0.000    0.000    0.000    0.000    0.000    0.000 
#
# Total GULP energy -396744.458230 kJ/mol
# GULP energy per Si atom -12398.264320 kJ/mol
# Density = 1.957185 g / cm^3
# Si number density = 19.616494 Si / 1000 Ang^3
#
#
#
# Elastic Constant Matrix: (Units=GPa)
#
#
# Indices 1 2 3 4 5 6 
#
# 1 151.2422 57.6810 66.8786 0.0000 0.0000 0.0000
# 2 57.6810 93.9656 60.9604 0.0000 0.0000 0.0000
# 3 66.8786 60.9604 151.7661 0.0000 0.0000 0.0000
# 4 0.0000 0.0000 0.0000 15.5126 0.0000 0.0000
# 5 0.0000 0.0000 0.0000 0.0000 10.0184 0.0000
# 6 0.0000 0.0000 0.0000 0.0000 0.0000 16.7363
#
#
#
# Elastic Compliance Matrix: (Units=1/GPa)
#
#
# Indices 1 2 3 4 5 6 
#
# 1 0.009251 -0.004103 -0.002428 0.000000 0.000000 0.000000
# 2 -0.004103 0.016213 -0.004704 0.000000 0.000000 0.000000
# 3 -0.002428 -0.004704 0.009549 0.000000 0.000000 0.000000
# 4 0.000000 0.000000 0.000000 0.064464 0.000000 0.000000
# 5 0.000000 0.000000 0.000000 0.000000 0.099816 0.000000
# 6 0.000000 0.000000 0.000000 0.000000 0.000000 0.059750
#
#
# Mechanical properties :
#
#
# Convention : Reuss Voigt Hill
#
# Bulk Modulus (GPa) = 79.73917 85.33486 82.53702
# Shear Modulus (GPa) = 17.50127 22.55040 20.02584
#
# Velocity S-wave (km/s) = 2.99016 3.39420 3.19857
# Velocity P-wave (km/s) = 7.25663 7.67833 7.47046
#
# Compressibility (1/GPa) = 0.01254089
#
# Stress axis : x y z
#
# Youngs Moduli (GPa) = 108.10164 61.68013 104.72651
#
# Poissons Ratio (x) = 0.25308 0.25431
# Poissons Ratio (y) = 0.44355 0.49264
# Poissons Ratio (z) = 0.26251 0.29015
#
# Static dielectric constant tensor:
#      x y z
#    x 3.733510 0.000000 0.000000 
#    y 0.000000 3.625920 0.000000 
#    z 0.000000 0.000000 3.271040 
# 
# 
# High freq. dielectric constant tensor:
#      x y z
#    x 1.756120 0.000000 0.000000 
#    y 0.000000 1.779170 0.000000 
#    z 0.000000 0.000000 1.740650 
# 
# From -- ./inp_files/8429.got.cif
#   From: 2010.03.12/outbox.cif.g09.slc.cpg/sg59_5_cif.got.tgz:8429.got - 2010.04.16 16:29:54.
