data_PCOD8244737
_publ_section_title
;
Structure prediction by ZEFSAII (Michael W. Deem and Ramdas Pophale) SiO2 
 PCOD8244737
Probable space group: P M M N
;
_chemical_formula_sum "Si O2"
_cell_formula_units_Z 64
_cell_length_a 9.314737
_cell_length_b 26.013496
_cell_length_c 16.965690
_cell_angle_alpha 90.000000
_cell_angle_beta 90.000000
_cell_angle_gamma 90.000000
_cell_volume 4110.937235
_symmetry_space_group_name_H-M "P M M N"
_symmetry_group_IT_number 59
_space_group.IT_coordinate_system_code '2'
_symmetry_cell_setting 'orthorhombic'
loop_
_space_group_symop_operation_xyz
x,y,z
1/2-x,1/2-y,z
1/2+x,-y,-z
-x,1/2+y,-z
-x,-y,-z
1/2+x,1/2+y,-z
1/2-x,y,z
x,1/2-y,z
loop_
_atom_site_type_symbol
_atom_site_label
_atom_site_fract_x
_atom_site_fract_y
_atom_site_fract_z
Si Si1 0.086349 0.536359 0.320819
Si Si2 0.583967 0.447294 0.507038
Si Si3 0.418111 0.078686 0.366229
Si Si4 0.916428 0.555967 0.170262
Si Si5 0.090048 0.464241 0.103089
Si Si6 0.584546 0.883247 0.022699
Si Si7 0.410376 0.367685 0.211593
Si Si8 0.916538 0.189934 0.084815
O O1 0.250000 0.536056 0.291015
O O2 0.070731 0.569861 0.401336
O O3 0.035277 0.477590 0.334164
O O4 0.992795 0.564087 0.253909
O O5 0.500000 0.500000 0.500000
O O6 0.750000 0.454850 0.483891
O O7 0.508642 0.407947 0.445641
O O8 0.250000 0.078068 0.387232
O O9 0.455467 0.123034 0.302651
O O10 0.750000 0.545944 0.185756
O O11 0.939599 0.606798 0.115817
O O12 0.976724 0.507806 0.122400
O O13 0.250000 0.487994 0.094848
O O14 0.088252 0.423678 0.173585
O O15 0.042525 0.435750 0.022895
O O16 0.750000 0.869704 0.003338
O O17 0.488542 0.836477 0.991391
O O18 0.250000 0.344133 0.206851
O O19 0.517699 0.329212 0.167607
O O20 0.750000 0.175685 0.085206
O O21 0.943851 0.250000 0.076788
#
# Coordination Sequence:
#
# PCOD8244737 Si02
#       8
#     8   8   8   8   8   8   8   8
#     4   9  17  29  40  54  84 122 151 180 218 253
#     4   9  17  27  39  56  80 114 154 186 214 250
#     4   9  16  28  43  60  85 114 148 185 215 251
#     4  11  20  27  40  63  87 112 150 189 215 251
#     4   9  16  29  43  56  84 118 145 176 216 258
#     4   9  20  34  45  61  84 113 147 179 217 266
#     4   9  17  30  47  66  88 117 149 178 216 267
#     4  10  21  35  50  69  89 108 139 184 226 264
#
# _framework density 15.568227
#
# number of rings (size 3 to 8) (size 9 to 14) (size 15 to 20)
#    0.000    2.625    1.250    3.000    0.000    7.000 
#    0.000    0.000    0.000    0.000    0.000    0.000 
#    0.000    1.000    0.000   11.000    0.000    8.000 
#
# Total GULP energy -793248.210759 kJ/mol
# GULP energy per Si atom -12394.503293 kJ/mol
# Density = 1.553279 g / cm^3
# Si number density = 15.568227 Si / 1000 Ang^3
#
#
#
# Elastic Constant Matrix: (Units=GPa)
#
#
# Indices 1 2 3 4 5 6 
#
# 1 100.3091 40.5169 63.7747 0.0000 0.0000 0.0000
# 2 40.5169 42.6347 35.5979 0.0000 0.0000 0.0000
# 3 63.7747 35.5979 112.0166 0.0000 0.0000 0.0000
# 4 0.0000 0.0000 0.0000 9.7280 0.0000 0.0000
# 5 0.0000 0.0000 0.0000 0.0000 30.7230 0.0000
# 6 0.0000 0.0000 0.0000 0.0000 0.0000 18.9509
#
#
#
# Elastic Compliance Matrix: (Units=1/GPa)
#
#
# Indices 1 2 3 4 5 6 
#
# 1 0.019643 -0.012699 -0.007148 0.000000 0.000000 0.000000
# 2 -0.012699 0.040137 -0.005525 0.000000 0.000000 0.000000
# 3 -0.007148 -0.005525 0.014752 0.000000 0.000000 0.000000
# 4 0.000000 0.000000 0.000000 0.102796 0.000000 0.000000
# 5 0.000000 0.000000 0.000000 0.000000 0.032549 0.000000
# 6 0.000000 0.000000 0.000000 0.000000 0.000000 0.052768
#
#
# Mechanical properties :
#
#
# Convention : Reuss Voigt Hill
#
# Bulk Modulus (GPa) = 42.03764 59.41549 50.72656
# Shear Modulus (GPa) = 15.56090 19.55177 17.55634
#
# Velocity S-wave (km/s) = 3.16496 3.54768 3.36177
# Velocity P-wave (km/s) = 6.35742 7.41814 6.90817
#
# Compressibility (1/GPa) = 0.02378821
#
# Stress axis : x y z
#
# Youngs Moduli (GPa) = 50.90845 24.91489 67.78545
#
# Poissons Ratio (x) = 0.31640 0.48451
# Poissons Ratio (y) = 0.64651 0.37451
# Poissons Ratio (z) = 0.36388 0.13765
#
# Static dielectric constant tensor:
#      x y z
#    x 3.082760 0.000000 0.000000 
#    y 0.000000 2.479260 0.000000 
#    z 0.000000 0.000000 3.425240 
# 
# 
# High freq. dielectric constant tensor:
#      x y z
#    x 1.606520 0.000000 0.000000 
#    y 0.000000 1.530350 0.000000 
#    z 0.000000 0.000000 1.606330 
# 
# From -- ./inp_files/26511.got.cif
#   From: 2010.03.12/outbox.cif.g09.slc.cpg/sg59_14_cif.got.tgz:26511.got - 2010.04.16 16:29:54.
