data_PCOD8244148
_publ_section_title
;
Structure prediction by ZEFSAII (Michael W. Deem and Ramdas Pophale) SiO2 
 PCOD8244148
Probable space group: P M M N
;
_chemical_formula_sum "Si O2"
_cell_formula_units_Z 48
_cell_length_a 17.953955
_cell_length_b 8.698349
_cell_length_c 15.873502
_cell_angle_alpha 90.000000
_cell_angle_beta 90.000000
_cell_angle_gamma 90.000000
_cell_volume 2478.961101
_symmetry_space_group_name_H-M "P M M N"
_symmetry_group_IT_number 59
_space_group.IT_coordinate_system_code '2'
_symmetry_cell_setting 'orthorhombic'
loop_
_space_group_symop_operation_xyz
x,y,z
1/2-x,1/2-y,z
1/2+x,-y,-z
-x,1/2+y,-z
-x,-y,-z
1/2+x,1/2+y,-z
1/2-x,y,z
x,1/2-y,z
loop_
_atom_site_type_symbol
_atom_site_label
_atom_site_fract_x
_atom_site_fract_y
_atom_site_fract_z
Si Si1 0.467796 0.074053 0.874908
Si Si2 0.250000 0.073894 0.103229
Si Si3 0.032274 0.431912 0.682448
Si Si4 0.250000 0.929702 0.281115
Si Si5 0.666957 0.567667 0.431794
Si Si6 0.614825 0.075694 0.978294
Si Si7 0.117717 0.432092 0.385347
O O1 0.440556 0.250000 0.881840
O O2 0.465548 0.015221 0.779205
O O3 0.551251 0.056652 0.908395
O O4 0.413623 0.966702 0.928795
O O5 0.250000 0.250000 0.133632
O O6 0.250000 0.959732 0.181926
O O7 0.178853 0.042482 0.045564
O O8 0.020697 0.250000 0.674557
O O9 0.109392 0.487584 0.639749
O O10 0.965112 0.513525 0.634660
O O11 0.250000 0.750000 0.298661
O O12 0.324627 0.001533 0.318415
O O13 0.750000 0.502829 0.412205
O O14 0.669541 0.750000 0.434284
O O15 0.639802 0.505922 0.522351
O O16 0.644726 0.250000 0.980191
O O17 0.121638 0.250000 0.380749
#
# Coordination Sequence:
#
# PCOD8244148 Si02
#       7
#     8   4   8   4   8   8   8
#     4   9  19  36  56  82 112 148 193 238 284 339
#     4  12  24  38  58  87 118 149 188 231 286 347
#     4  10  20  35  58  86 115 152 200 245 287 344
#     4  12  24  38  58  85 118 151 190 239 292 347
#     4   9  18  35  57  81 115 155 194 240 295 347
#     4  10  20  36  58  81 116 155 188 233 287 340
#     4  11  21  36  58  84 117 152 192 240 294 349
#
# _framework density 19.362949
#
# number of rings (size 3 to 8) (size 9 to 14) (size 15 to 20)
#    0.000    1.833    0.833    4.000    0.000    2.667 
#    1.500    0.833    0.000    0.000    0.000    0.000 
#    0.000    0.000    0.000    0.000    0.000    0.000 
#
# Total GULP energy -595375.166757 kJ/mol
# GULP energy per Si atom -12403.649307 kJ/mol
# Density = 1.931888 g / cm^3
# Si number density = 19.362949 Si / 1000 Ang^3
#
#
#
# Elastic Constant Matrix: (Units=GPa)
#
#
# Indices 1 2 3 4 5 6 
#
# 1 140.0660 35.1477 73.2421 0.0000 0.0000 0.0000
# 2 35.1477 63.0302 27.0254 0.0000 0.0000 0.0000
# 3 73.2421 27.0254 114.3544 0.0000 0.0000 0.0000
# 4 0.0000 0.0000 0.0000 23.5675 0.0000 0.0000
# 5 0.0000 0.0000 0.0000 0.0000 28.8168 0.0000
# 6 0.0000 0.0000 0.0000 0.0000 0.0000 27.0969
#
#
#
# Elastic Compliance Matrix: (Units=1/GPa)
#
#
# Indices 1 2 3 4 5 6 
#
# 1 0.011424 -0.003598 -0.006466 0.000000 0.000000 0.000000
# 2 -0.003598 0.018787 -0.002136 0.000000 0.000000 0.000000
# 3 -0.006466 -0.002136 0.013391 0.000000 0.000000 0.000000
# 4 0.000000 0.000000 0.000000 0.042431 0.000000 0.000000
# 5 0.000000 0.000000 0.000000 0.000000 0.034702 0.000000
# 6 0.000000 0.000000 0.000000 0.000000 0.000000 0.036905
#
#
# Mechanical properties :
#
#
# Convention : Reuss Voigt Hill
#
# Bulk Modulus (GPa) = 52.07674 65.36456 58.72065
# Shear Modulus (GPa) = 26.53358 28.03193 27.28275
#
# Velocity S-wave (km/s) = 3.70581 3.80901 3.75776
# Velocity P-wave (km/s) = 6.72786 7.29216 7.01568
#
# Compressibility (1/GPa) = 0.01920243
#
# Stress axis : x y z
#
# Youngs Moduli (GPa) = 87.53784 53.22737 74.67615
#
# Poissons Ratio (x) = 0.19149 0.48289
# Poissons Ratio (y) = 0.31492 0.15949
# Poissons Ratio (z) = 0.56606 0.11368
#
# Static dielectric constant tensor:
#      x y z
#    x 3.580000 0.000000 0.000000 
#    y 0.000000 3.365660 0.000000 
#    z 0.000000 0.000000 3.609280 
# 
# 
# High freq. dielectric constant tensor:
#      x y z
#    x 1.759410 0.000000 0.000000 
#    y 0.000000 1.739610 0.000000 
#    z 0.000000 0.000000 1.759310 
# 
# From -- ./inp_files/20537.got.cif
#   From: 2010.03.12/outbox.cif.g09.slc.cpg/sg59_11_cif.got.tgz:20537.got - 2010.04.16 16:29:54.
