data_PCOD8244272
_publ_section_title
;
Structure prediction by ZEFSAII (Michael W. Deem and Ramdas Pophale) SiO2 
 PCOD8244272
Probable space group: P M M N
;
_chemical_formula_sum "Si O2"
_cell_formula_units_Z 48
_cell_length_a 18.092365
_cell_length_b 8.883570
_cell_length_c 16.384173
_cell_angle_alpha 90.000000
_cell_angle_beta 90.000000
_cell_angle_gamma 90.000000
_cell_volume 2633.342780
_symmetry_space_group_name_H-M "P M M N"
_symmetry_group_IT_number 59
_space_group.IT_coordinate_system_code '2'
_symmetry_cell_setting 'orthorhombic'
loop_
_space_group_symop_operation_xyz
x,y,z
1/2-x,1/2-y,z
1/2+x,-y,-z
-x,1/2+y,-z
-x,-y,-z
1/2+x,1/2+y,-z
1/2-x,y,z
x,1/2-y,z
loop_
_atom_site_type_symbol
_atom_site_label
_atom_site_fract_x
_atom_site_fract_y
_atom_site_fract_z
Si Si1 0.834863 0.074305 0.153790
Si Si2 0.543710 0.574375 0.249890
Si Si3 0.026378 0.923379 0.418524
Si Si4 0.079713 0.927365 0.010006
Si Si5 0.097171 0.428282 0.174405
Si Si6 0.667076 0.074968 0.675825
O O1 0.750000 0.024102 0.153357
O O2 0.843699 0.250000 0.172664
O O3 0.874957 0.981505 0.225709
O O4 0.869732 0.031834 0.066964
O O5 0.533308 0.750000 0.230447
O O6 0.531090 0.541947 0.345716
O O7 0.485236 0.481595 0.196544
O O8 0.030072 0.750000 0.439423
O O9 0.108372 0.980585 0.392169
O O10 0.000000 0.000000 0.500000
O O11 0.070752 0.750000 0.021418
O O12 0.120270 0.998323 0.088508
O O13 0.000000 0.000000 0.000000
O O14 0.098100 0.250000 0.166883
O O15 0.156175 0.481512 0.241505
O O16 0.750000 0.048580 0.642688
O O17 0.651853 0.250000 0.696246
#
# Coordination Sequence:
#
# PCOD8244272 Si02
#       6
#     8   8   8   8   8   8
#     4  10  22  38  55  78 108 143 185 231 278 324
#     4  10  20  36  57  79 106 141 182 223 268 324
#     4   9  19  35  57  85 110 139 178 220 270 331
#     4  11  21  34  54  79 109 147 189 232 274 321
#     4  11  21  33  53  81 110 143 183 226 272 327
#     4   9  19  37  58  80 110 145 182 228 280 330
#
# _framework density 18.227781
#
# number of rings (size 3 to 8) (size 9 to 14) (size 15 to 20)
#    0.000    2.000    1.667    3.500    0.000    5.333 
#    0.000    2.500    0.000    3.000    0.000    0.000 
#    0.000    0.000    0.000    0.000    0.000    0.000 
#
# Total GULP energy -595276.474488 kJ/mol
# GULP energy per Si atom -12401.593218 kJ/mol
# Density = 1.818629 g / cm^3
# Si number density = 18.227781 Si / 1000 Ang^3
#
#
#
# Elastic Constant Matrix: (Units=GPa)
#
#
# Indices 1 2 3 4 5 6 
#
# 1 135.9045 46.8089 68.0781 0.0000 0.0000 0.0000
# 2 46.8089 88.4712 56.7361 0.0000 0.0000 0.0000
# 3 68.0781 56.7361 131.7088 0.0000 0.0000 0.0000
# 4 0.0000 0.0000 0.0000 35.3520 0.0000 0.0000
# 5 0.0000 0.0000 0.0000 0.0000 22.6314 0.0000
# 6 0.0000 0.0000 0.0000 0.0000 0.0000 27.6235
#
#
#
# Elastic Compliance Matrix: (Units=1/GPa)
#
#
# Indices 1 2 3 4 5 6 
#
# 1 0.010423 -0.002846 -0.004162 0.000000 0.000000 0.000000
# 2 -0.002846 0.016394 -0.005591 0.000000 0.000000 0.000000
# 3 -0.004162 -0.005591 0.012152 0.000000 0.000000 0.000000
# 4 0.000000 0.000000 0.000000 0.028287 0.000000 0.000000
# 5 0.000000 0.000000 0.000000 0.000000 0.044186 0.000000
# 6 0.000000 0.000000 0.000000 0.000000 0.000000 0.036201
#
#
# Mechanical properties :
#
#
# Convention : Reuss Voigt Hill
#
# Bulk Modulus (GPa) = 72.61017 77.70342 75.15679
# Shear Modulus (GPa) = 28.17985 29.41882 28.79933
#
# Velocity S-wave (km/s) = 3.93617 4.02176 3.97919
# Velocity P-wave (km/s) = 7.78327 8.01797 7.90149
#
# Compressibility (1/GPa) = 0.01377217
#
# Stress axis : x y z
#
# Youngs Moduli (GPa) = 95.94253 60.99623 82.29051
#
# Poissons Ratio (x) = 0.17359 0.34245
# Poissons Ratio (y) = 0.27304 0.46011
# Poissons Ratio (z) = 0.39927 0.34105
#
# Static dielectric constant tensor:
#      x y z
#    x 3.467240 0.000000 0.000000 
#    y 0.000000 3.352600 0.000000 
#    z 0.000000 0.000000 3.524750 
# 
# 
# High freq. dielectric constant tensor:
#      x y z
#    x 1.699310 0.000000 0.000000 
#    y 0.000000 1.709720 0.000000 
#    z 0.000000 0.000000 1.700380 
# 
# From -- ./inp_files/27788.got.cif
#   From: 2010.03.12/outbox.cif.g09.slc.cpg/sg59_14_cif.got.tgz:27788.got - 2010.04.16 16:29:54.
