data_PCOD8244867
_publ_section_title
;
Structure prediction by ZEFSAII (Michael W. Deem and Ramdas Pophale) SiO2 
 PCOD8244867
Probable space group: P M M N
;
_chemical_formula_sum "Si O2"
_cell_formula_units_Z 64
_cell_length_a 9.161775
_cell_length_b 14.692090
_cell_length_c 24.211465
_cell_angle_alpha 90.000000
_cell_angle_beta 90.000000
_cell_angle_gamma 90.000000
_cell_volume 3258.999327
_symmetry_space_group_name_H-M "P M M N"
_symmetry_group_IT_number 59
_space_group.IT_coordinate_system_code '2'
_symmetry_cell_setting 'orthorhombic'
loop_
_space_group_symop_operation_xyz
x,y,z
1/2-x,1/2-y,z
1/2+x,-y,-z
-x,1/2+y,-z
-x,-y,-z
1/2+x,1/2+y,-z
1/2-x,y,z
x,1/2-y,z
loop_
_atom_site_type_symbol
_atom_site_label
_atom_site_fract_x
_atom_site_fract_y
_atom_site_fract_z
Si Si1 0.578474 0.501700 0.310667
Si Si2 0.580706 0.648174 0.877960
Si Si3 0.920837 0.643344 0.620557
Si Si4 0.418822 0.145613 0.595933
Si Si5 0.414405 0.858098 0.511466
Si Si6 0.923935 0.351371 0.896700
Si Si7 0.420965 0.513493 0.198184
Si Si8 0.411991 0.858494 0.983244
O O1 0.750000 0.481214 0.307473
O O2 0.495116 0.410461 0.329298
O O3 0.543019 0.585288 0.351197
O O4 0.517514 0.531584 0.251696
O O5 0.750000 0.648301 0.891576
O O6 0.522968 0.750000 0.865151
O O7 0.547611 0.587954 0.824135
O O8 0.507864 0.604693 0.932480
O O9 0.750000 0.621390 0.618201
O O10 0.949587 0.750000 0.630231
O O11 0.994266 0.607755 0.564051
O O12 0.250000 0.138584 0.579337
O O13 0.461560 0.250000 0.609530
O O14 0.510422 0.106025 0.544396
O O15 0.250000 0.896801 0.515680
O O16 0.414554 0.750000 0.510396
O O17 0.750000 0.349507 0.899282
O O18 0.984542 0.250000 0.884659
O O19 0.978156 0.416536 0.848059
O O20 0.978423 0.387796 0.956919
O O21 0.250000 0.527581 0.211801
O O22 0.250000 0.898379 0.975313
O O23 0.408587 0.750000 0.982333
#
# Coordination Sequence:
#
# PCOD8244867 Si02
#       8
#     8   8   8   8   8   8   8   8
#     4  11  24  39  55  78 107 140 182 229 269 308
#     4   9  18  32  49  71 101 133 163 201 252 308
#     4  10  21  38  60  83 109 143 178 214 263 321
#     4   9  19  37  58  79 108 145 179 214 263 320
#     4   9  17  31  55  87 116 139 171 217 264 312
#     4   8  15  30  52  76 101 130 166 211 261 310
#     4  10  21  36  52  71  98 135 178 217 255 308
#     4   8  14  27  49  75 100 127 163 206 253 307
#
# _framework density 19.637930999999998
#
# number of rings (size 3 to 8) (size 9 to 14) (size 15 to 20)
#    0.000    2.750    0.000    1.875    0.000    5.750 
#    0.000    1.875    0.000    0.750    0.000    0.000 
#    0.000    0.000    0.000    0.000    0.000    0.000 
#
# Total GULP energy -793523.011980 kJ/mol
# GULP energy per Si atom -12398.797062 kJ/mol
# Density = 1.959323 g / cm^3
# Si number density = 19.637931 Si / 1000 Ang^3
#
#
#
# Elastic Constant Matrix: (Units=GPa)
#
#
# Indices 1 2 3 4 5 6 
#
# 1 71.3624 16.6306 35.2082 0.0000 0.0000 0.0000
# 2 16.6306 44.6945 12.4394 0.0000 0.0000 0.0000
# 3 35.2082 12.4394 97.7078 0.0000 0.0000 0.0000
# 4 0.0000 0.0000 0.0000 29.3909 0.0000 0.0000
# 5 0.0000 0.0000 0.0000 0.0000 39.6259 0.0000
# 6 0.0000 0.0000 0.0000 0.0000 0.0000 17.1886
#
#
#
# Elastic Compliance Matrix: (Units=1/GPa)
#
#
# Indices 1 2 3 4 5 6 
#
# 1 0.018099 -0.005100 -0.005872 0.000000 0.000000 0.000000
# 2 -0.005100 0.024633 -0.001298 0.000000 0.000000 0.000000
# 3 -0.005872 -0.001298 0.012516 0.000000 0.000000 0.000000
# 4 0.000000 0.000000 0.000000 0.034024 0.000000 0.000000
# 5 0.000000 0.000000 0.000000 0.000000 0.025236 0.000000
# 6 0.000000 0.000000 0.000000 0.000000 0.000000 0.058178
#
#
# Mechanical properties :
#
#
# Convention : Reuss Voigt Hill
#
# Bulk Modulus (GPa) = 32.56664 38.03568 35.30116
# Shear Modulus (GPa) = 24.10063 27.20684 25.65374
#
# Velocity S-wave (km/s) = 3.50701 3.72617 3.61825
# Velocity P-wave (km/s) = 5.74616 6.15816 5.95572
#
# Compressibility (1/GPa) = 0.03070627
#
# Stress axis : x y z
#
# Youngs Moduli (GPa) = 55.25220 40.59564 79.89778
#
# Poissons Ratio (x) = 0.20704 0.46920
# Poissons Ratio (y) = 0.28179 0.10373
# Poissons Ratio (z) = 0.32447 0.05271
#
# Static dielectric constant tensor:
#      x y z
#    x 3.507060 0.000000 0.000000 
#    y 0.000000 3.650500 0.000000 
#    z 0.000000 0.000000 3.630920 
# 
# 
# High freq. dielectric constant tensor:
#      x y z
#    x 1.748940 0.000000 0.000000 
#    y 0.000000 1.759740 0.000000 
#    z 0.000000 0.000000 1.765280 
# 
# From -- ./inp_files/31651.got.cif
#   From: 2010.03.12/outbox.cif.g09.slc.cpg/sg59_16_cif.got.tgz:31651.got - 2010.04.16 16:29:54.
