data_PCOD8244463
_publ_section_title
;
Structure prediction by ZEFSAII (Michael W. Deem and Ramdas Pophale) SiO2 
 PCOD8244463
Probable space group: P M M N
;
_chemical_formula_sum "Si O2"
_cell_formula_units_Z 56
_cell_length_a 22.311090
_cell_length_b 8.858723
_cell_length_c 14.644268
_cell_angle_alpha 90.000000
_cell_angle_beta 90.000000
_cell_angle_gamma 90.000000
_cell_volume 2894.406857
_symmetry_space_group_name_H-M "P M M N"
_symmetry_group_IT_number 59
_space_group.IT_coordinate_system_code '2'
_symmetry_cell_setting 'orthorhombic'
loop_
_space_group_symop_operation_xyz
x,y,z
1/2-x,1/2-y,z
1/2+x,-y,-z
-x,1/2+y,-z
-x,-y,-z
1/2+x,1/2+y,-z
1/2-x,y,z
x,1/2-y,z
loop_
_atom_site_type_symbol
_atom_site_label
_atom_site_fract_x
_atom_site_fract_y
_atom_site_fract_z
Si Si1 0.045596 0.426008 0.614923
Si Si2 0.516983 0.078863 0.906624
Si Si3 0.636853 0.571636 0.876615
Si Si4 0.896370 0.580624 0.203047
Si Si5 0.922887 0.927053 0.588307
Si Si6 0.319293 0.576699 0.940612
Si Si7 0.682321 0.075087 0.701014
O O1 0.028791 0.250000 0.618541
O O2 0.095346 0.466920 0.691237
O O3 0.075041 0.470621 0.518529
O O4 0.984242 0.515975 0.634514
O O5 0.537280 0.250000 0.927426
O O6 0.461974 0.074281 0.839040
O O7 0.570306 0.989003 0.857662
O O8 0.500000 0.000000 0.000000
O O9 0.637692 0.750000 0.868488
O O10 0.680068 0.502305 0.800404
O O11 0.657258 0.526634 0.977769
O O12 0.869966 0.750000 0.194605
O O13 0.852149 0.465390 0.153453
O O14 0.917296 0.750000 0.605108
O O15 0.864346 0.003616 0.630612
O O16 0.250000 0.545720 0.924540
O O17 0.332532 0.750000 0.964873
O O18 0.750000 0.052612 0.663381
O O19 0.666620 0.250000 0.713249
#
# Coordination Sequence:
#
# PCOD8244463 Si02
#       7
#     8   8   8   8   8   8   8
#     4   9  19  37  61  89 120 151 188 234 289 348
#     4  11  21  34  55  85 119 152 188 234 285 336
#     4  12  24  38  59  86 115 151 193 237 289 346
#     4  10  21  37  58  83 112 150 191 231 279 334
#     4  10  20  36  61  91 119 149 188 237 291 347
#     4  11  24  40  57  78 109 150 193 238 285 335
#     4  11  24  41  60  83 115 156 198 242 294 352
#
# _framework density 19.347660000000001
#
# number of rings (size 3 to 8) (size 9 to 14) (size 15 to 20)
#    0.000    1.429    1.429    4.286    0.000    6.857 
#    0.000    0.714    0.000    4.286    0.000    0.000 
#    0.000    0.000    0.000    0.000    0.000    0.000 
#
# Total GULP energy -694616.653388 kJ/mol
# GULP energy per Si atom -12403.868811 kJ/mol
# Density = 1.930362 g / cm^3
# Si number density = 19.347660 Si / 1000 Ang^3
#
#
#
# Elastic Constant Matrix: (Units=GPa)
#
#
# Indices 1 2 3 4 5 6 
#
# 1 98.3342 50.3855 33.6551 0.0000 0.0000 0.0000
# 2 50.3855 119.9195 32.6897 0.0000 0.0000 0.0000
# 3 33.6551 32.6897 90.2156 0.0000 0.0000 0.0000
# 4 0.0000 0.0000 0.0000 30.2702 0.0000 0.0000
# 5 0.0000 0.0000 0.0000 0.0000 28.5343 0.0000
# 6 0.0000 0.0000 0.0000 0.0000 0.0000 31.2716
#
#
#
# Elastic Compliance Matrix: (Units=1/GPa)
#
#
# Indices 1 2 3 4 5 6 
#
# 1 0.013834 -0.004889 -0.003390 0.000000 0.000000 0.000000
# 2 -0.004889 0.010980 -0.002155 0.000000 0.000000 0.000000
# 3 -0.003390 -0.002155 0.013130 0.000000 0.000000 0.000000
# 4 0.000000 0.000000 0.000000 0.033036 0.000000 0.000000
# 5 0.000000 0.000000 0.000000 0.000000 0.035046 0.000000
# 6 0.000000 0.000000 0.000000 0.000000 0.000000 0.031978
#
#
# Mechanical properties :
#
#
# Convention : Reuss Voigt Hill
#
# Bulk Modulus (GPa) = 58.55410 60.21442 59.38426
# Shear Modulus (GPa) = 30.38349 30.79785 30.59067
#
# Velocity S-wave (km/s) = 3.96712 3.99408 3.98062
# Velocity P-wave (km/s) = 7.16338 7.24294 7.20327
#
# Compressibility (1/GPa) = 0.01707822
#
# Stress axis : x y z
#
# Youngs Moduli (GPa) = 72.28367 91.07119 76.16208
#
# Poissons Ratio (x) = 0.44522 0.25815
# Poissons Ratio (y) = 0.35337 0.16413
# Poissons Ratio (z) = 0.24501 0.19626
#
# Static dielectric constant tensor:
#      x y z
#    x 3.486520 0.000000 0.000000 
#    y 0.000000 3.607310 0.000000 
#    z 0.000000 0.000000 3.994130 
# 
# 
# High freq. dielectric constant tensor:
#      x y z
#    x 1.748190 0.000000 0.000000 
#    y 0.000000 1.763380 0.000000 
#    z 0.000000 0.000000 1.755070 
# 
# From -- ./inp_files/24261.got.cif
#   From: 2010.03.12/outbox.cif.g09.slc.cpg/sg59_13_cif.got.tgz:24261.got - 2010.04.16 16:29:54.
