data_PCOD8244091
_publ_section_title
;
Structure prediction by ZEFSAII (Michael W. Deem and Ramdas Pophale) SiO2 
 PCOD8244091
Probable space group: P M M N
;
_chemical_formula_sum "Si O2"
_cell_formula_units_Z 64
_cell_length_a 22.290464
_cell_length_b 8.844362
_cell_length_c 17.342554
_cell_angle_alpha 90.000000
_cell_angle_beta 90.000000
_cell_angle_gamma 90.000000
_cell_volume 3418.996642
_symmetry_space_group_name_H-M "P M M N"
_symmetry_group_IT_number 59
_space_group.IT_coordinate_system_code '2'
_symmetry_cell_setting 'orthorhombic'
loop_
_space_group_symop_operation_xyz
x,y,z
1/2-x,1/2-y,z
1/2+x,-y,-z
-x,1/2+y,-z
-x,-y,-z
1/2+x,1/2+y,-z
1/2-x,y,z
x,1/2-y,z
loop_
_atom_site_type_symbol
_atom_site_label
_atom_site_fract_x
_atom_site_fract_y
_atom_site_fract_z
Si Si1 0.859503 0.071051 0.906037
Si Si2 0.018436 0.075861 0.079018
Si Si3 0.450370 0.076655 0.672845
Si Si4 0.587863 0.071761 0.645515
Si Si5 0.182753 0.424408 0.241288
Si Si6 0.680225 0.575702 0.063187
Si Si7 0.563693 0.576314 0.497258
Si Si8 0.597212 0.422534 0.181549
O O1 0.856018 0.250000 0.898927
O O2 0.925939 0.014191 0.885302
O O3 0.815355 0.995109 0.844379
O O4 0.842281 0.024549 0.992282
O O5 0.035533 0.250000 0.064022
O O6 0.965608 0.058517 0.139192
O O7 0.000000 0.000000 0.000000
O O8 0.449711 0.250000 0.700696
O O9 0.519919 0.021958 0.667378
O O10 0.414823 0.059865 0.591336
O O11 0.412417 0.975387 0.731190
O O12 0.593386 0.250000 0.641525
O O13 0.635053 0.011085 0.706867
O O14 0.605584 0.005326 0.560927
O O15 0.250000 0.441228 0.275552
O O16 0.163648 0.250000 0.235951
O O17 0.750000 0.548745 0.076767
O O18 0.665414 0.750000 0.045596
O O19 0.647171 0.524731 0.140847
O O20 0.500000 0.500000 0.500000
O O21 0.558030 0.750000 0.521225
O O22 0.619398 0.250000 0.180776
#
# Coordination Sequence:
#
# PCOD8244091 Si02
#       8
#     8   8   8   8   8   8   8   8
#     4  12  24  38  58  83 111 145 185 232 282 330
#     4  11  22  36  55  81 112 146 183 225 278 334
#     4   9  19  34  54  83 116 148 181 221 273 333
#     4  10  20  35  57  85 115 148 185 226 280 336
#     4  11  24  40  57  79 110 150 194 237 282 335
#     4  11  24  41  60  78 101 140 186 231 279 330
#     4   9  17  31  53  82 115 148 181 217 265 324
#     4  11  23  36  55  83 111 143 182 226 278 327
#
# _framework density 18.718942999999999
#
# number of rings (size 3 to 8) (size 9 to 14) (size 15 to 20)
#    0.000    1.500    1.250    5.250    0.000   10.000 
#    0.000    0.000    0.000    0.750    0.000    5.250 
#    0.000    0.000    0.000    0.000    0.000    0.000 
#
# Total GULP energy -793670.793312 kJ/mol
# GULP energy per Si atom -12401.106145 kJ/mol
# Density = 1.867634 g / cm^3
# Si number density = 18.718943 Si / 1000 Ang^3
#
#
#
# Elastic Constant Matrix: (Units=GPa)
#
#
# Indices 1 2 3 4 5 6 
#
# 1 68.2413 32.9028 26.3294 0.0000 0.0000 0.0000
# 2 32.9028 110.0399 40.6156 0.0000 0.0000 0.0000
# 3 26.3294 40.6156 105.1760 0.0000 0.0000 0.0000
# 4 0.0000 0.0000 0.0000 37.1060 0.0000 0.0000
# 5 0.0000 0.0000 0.0000 0.0000 17.1834 0.0000
# 6 0.0000 0.0000 0.0000 0.0000 0.0000 25.1125
#
#
#
# Elastic Compliance Matrix: (Units=1/GPa)
#
#
# Indices 1 2 3 4 5 6 
#
# 1 0.017802 -0.004290 -0.002800 0.000000 0.000000 0.000000
# 2 -0.004290 0.011632 -0.003418 0.000000 0.000000 0.000000
# 3 -0.002800 -0.003418 0.011529 0.000000 0.000000 0.000000
# 4 0.000000 0.000000 0.000000 0.026950 0.000000 0.000000
# 5 0.000000 0.000000 0.000000 0.000000 0.058196 0.000000
# 6 0.000000 0.000000 0.000000 0.000000 0.000000 0.039821
#
#
# Mechanical properties :
#
#
# Convention : Reuss Voigt Hill
#
# Bulk Modulus (GPa) = 50.13111 53.68365 51.90738
# Shear Modulus (GPa) = 25.82726 28.12100 26.97413
#
# Velocity S-wave (km/s) = 3.71851 3.88012 3.80018
# Velocity P-wave (km/s) = 6.72871 6.98676 6.85895
#
# Compressibility (1/GPa) = 0.01994769
#
# Stress axis : x y z
#
# Youngs Moduli (GPa) = 56.17193 85.97112 86.73955
#
# Poissons Ratio (x) = 0.36878 0.24288
# Poissons Ratio (y) = 0.24095 0.29648
# Poissons Ratio (z) = 0.15729 0.29385
#
# Static dielectric constant tensor:
#      x y z
#    x 3.290850 0.000000 0.000000 
#    y 0.000000 3.681680 0.000000 
#    z 0.000000 0.000000 3.572080 
# 
# 
# High freq. dielectric constant tensor:
#      x y z
#    x 1.700790 0.000000 0.000000 
#    y 0.000000 1.744390 0.000000 
#    z 0.000000 0.000000 1.731700 
# 
# From -- ./inp_files/28187.got.cif
#   From: 2010.03.12/outbox.cif.g09.slc.cpg/sg59_15_cif.got.tgz:28187.got - 2010.04.16 16:29:54.
