data_PCOD8244910
_publ_section_title
;
Structure prediction by ZEFSAII (Michael W. Deem and Ramdas Pophale) SiO2 
 PCOD8244910
Probable space group: P M M N
;
_chemical_formula_sum "Si O2"
_cell_formula_units_Z 40
_cell_length_a 12.480130
_cell_length_b 20.362029
_cell_length_c 8.008512
_cell_angle_alpha 90.000000
_cell_angle_beta 90.000000
_cell_angle_gamma 90.000000
_cell_volume 2035.129228
_symmetry_space_group_name_H-M "P M M N"
_symmetry_group_IT_number 59
_space_group.IT_coordinate_system_code '2'
_symmetry_cell_setting 'orthorhombic'
loop_
_space_group_symop_operation_xyz
x,y,z
1/2-x,1/2-y,z
1/2+x,-y,-z
-x,1/2+y,-z
-x,-y,-z
1/2+x,1/2+y,-z
1/2-x,y,z
x,1/2-y,z
loop_
_atom_site_type_symbol
_atom_site_label
_atom_site_fract_x
_atom_site_fract_y
_atom_site_fract_z
Si Si1 0.052137 0.604775 0.991796
Si Si2 0.050607 0.487592 0.766435
Si Si3 0.515624 0.327435 0.333608
Si Si4 0.750000 0.321858 0.342627
Si Si5 0.871848 0.940488 0.571382
Si Si6 0.250000 0.677833 0.053587
O O1 0.144163 0.637841 0.106076
O O2 0.101494 0.545043 0.880178
O O3 0.000704 0.658216 0.864950
O O4 0.963857 0.577124 0.119585
O O5 0.934711 0.512360 0.699188
O O6 0.128667 0.470958 0.614087
O O7 0.500542 0.250000 0.365959
O O8 0.635125 0.353825 0.393601
O O9 0.427909 0.368598 0.436156
O O10 0.750000 0.250000 0.424134
O O11 0.750000 0.315354 0.144507
O O12 0.750000 0.933527 0.633212
O O13 0.250000 0.750000 0.138191
#
# Coordination Sequence:
#
# PCOD8244910 Si02
#       6
#     8   8   8   4   8   4
#     4   9  17  32  55  78 105 135 178 232 270 325
#     4   9  20  36  50  80 104 142 187 224 277 311
#     4   9  17  33  55  81 109 141 179 218 268 326
#     4   7  12  26  49  75 101 129 169 208 254 316
#     4  10  21  36  53  75 109 147 184 225 266 330
#     4   9  16  26  49  83 107 133 162 214 288 328
#
# _framework density 19.654772000000001
#
# number of rings (size 3 to 8) (size 9 to 14) (size 15 to 20)
#    0.000    3.000    0.000    1.800    2.800    0.400 
#   10.800    3.000    0.000    1.200    0.000    1.400 
#    0.000    0.000    0.000    0.000    0.000    0.000 
#
# Total GULP energy -495564.043725 kJ/mol
# GULP energy per Si atom -12389.101093 kJ/mol
# Density = 1.961004 g / cm^3
# Si number density = 19.654772 Si / 1000 Ang^3
#
#
#
# Elastic Constant Matrix: (Units=GPa)
#
#
# Indices 1 2 3 4 5 6 
#
# 1 100.4918 30.3969 5.1055 0.0000 0.0000 0.0000
# 2 30.3969 89.4338 13.1032 0.0000 0.0000 0.0000
# 3 5.1055 13.1032 40.5801 0.0000 0.0000 0.0000
# 4 0.0000 0.0000 0.0000 18.6658 0.0000 0.0000
# 5 0.0000 0.0000 0.0000 0.0000 12.7356 0.0000
# 6 0.0000 0.0000 0.0000 0.0000 0.0000 31.2498
#
#
#
# Elastic Compliance Matrix: (Units=1/GPa)
#
#
# Indices 1 2 3 4 5 6 
#
# 1 0.011093 -0.003743 -0.000187 0.000000 0.000000 0.000000
# 2 -0.003743 0.013000 -0.003727 0.000000 0.000000 0.000000
# 3 -0.000187 -0.003727 0.025869 0.000000 0.000000 0.000000
# 4 0.000000 0.000000 0.000000 0.053574 0.000000 0.000000
# 5 0.000000 0.000000 0.000000 0.000000 0.078520 0.000000
# 6 0.000000 0.000000 0.000000 0.000000 0.000000 0.032000
#
#
# Mechanical properties :
#
#
# Convention : Reuss Voigt Hill
#
# Bulk Modulus (GPa) = 28.86107 36.41299 32.63703
# Shear Modulus (GPa) = 20.75391 24.65691 22.70541
#
# Velocity S-wave (km/s) = 3.25302 3.54573 3.40253
# Velocity P-wave (km/s) = 5.36893 5.94386 5.66370
#
# Compressibility (1/GPa) = 0.03464875
#
# Stress axis : x y z
#
# Youngs Moduli (GPa) = 90.14941 76.92563 38.65559
#
# Poissons Ratio (x) = 0.28792 0.00723
# Poissons Ratio (y) = 0.33741 0.14406
# Poissons Ratio (z) = 0.01686 0.28667
#
# Static dielectric constant tensor:
#      x y z
#    x 3.432830 0.000000 0.000000 
#    y 0.000000 3.692690 0.000000 
#    z 0.000000 0.000000 3.277010 
# 
# 
# High freq. dielectric constant tensor:
#      x y z
#    x 1.738100 0.000000 0.000000 
#    y 0.000000 1.766270 0.000000 
#    z 0.000000 0.000000 1.737560 
# 
# From -- ./inp_files/7417.got.cif
#   From: 2010.03.12/outbox.cif.g09.slc.cpg/sg59_4_cif.got.tgz:7417.got - 2010.04.16 16:29:54.
