data_PCOD8244812
_publ_section_title
;
Structure prediction by ZEFSAII (Michael W. Deem and Ramdas Pophale) SiO2 
 PCOD8244812
Probable space group: P M M N
;
_chemical_formula_sum "Si O2"
_cell_formula_units_Z 48
_cell_length_a 18.846448
_cell_length_b 8.688505
_cell_length_c 15.105823
_cell_angle_alpha 90.000000
_cell_angle_beta 90.000000
_cell_angle_gamma 90.000000
_cell_volume 2473.540112
_symmetry_space_group_name_H-M "P M M N"
_symmetry_group_IT_number 59
_space_group.IT_coordinate_system_code '2'
_symmetry_cell_setting 'orthorhombic'
loop_
_space_group_symop_operation_xyz
x,y,z
1/2-x,1/2-y,z
1/2+x,-y,-z
-x,1/2+y,-z
-x,-y,-z
1/2+x,1/2+y,-z
1/2-x,y,z
x,1/2-y,z
loop_
_atom_site_type_symbol
_atom_site_label
_atom_site_fract_x
_atom_site_fract_y
_atom_site_fract_z
Si Si1 0.921839 0.429792 0.657283
Si Si2 0.832778 0.429044 0.999488
Si Si3 0.415951 0.426016 0.656313
Si Si4 0.417829 0.430552 0.154283
Si Si5 0.829020 0.068777 0.495256
Si Si6 0.068094 0.069990 0.856307
O O1 0.908437 0.250000 0.677091
O O2 0.903010 0.525037 0.744533
O O3 0.873664 0.496422 0.578113
O O4 0.002932 0.457563 0.629063
O O5 0.750000 0.465840 0.005972
O O6 0.848891 0.250000 0.013908
O O7 0.859889 0.481035 0.903806
O O8 0.871399 0.526487 0.075089
O O9 0.395183 0.250000 0.639384
O O10 0.364985 0.529697 0.597621
O O11 0.404044 0.472152 0.758465
O O12 0.408419 0.250000 0.140697
O O13 0.496317 0.477984 0.122321
O O14 0.750000 0.997858 0.498377
O O15 0.825885 0.250000 0.503695
O O16 0.049637 0.250000 0.861944
#
# Coordination Sequence:
#
# PCOD8244812 Si02
#       6
#     8   8   8   8   8   8
#     4   9  19  37  57  79 109 144 185 228 273 325
#     4  11  24  40  58  82 114 151 187 226 276 331
#     4   9  19  35  56  80 106 141 182 226 272 319
#     4  11  22  37  60  87 113 143 184 232 280 331
#     4  10  21  35  53  79 111 146 181 222 274 330
#     4  10  21  39  61  84 112 146 187 232 278 329
#
# _framework density 19.405384999999999
#
# number of rings (size 3 to 8) (size 9 to 14) (size 15 to 20)
#    0.000    2.000    0.000    4.500    0.000    7.000 
#    0.000    5.000    0.000    0.000    0.000    0.000 
#    0.000    0.000    0.000    0.000    0.000    0.000 
#
# Total GULP energy -595397.639580 kJ/mol
# GULP energy per Si atom -12404.117491 kJ/mol
# Density = 1.936122 g / cm^3
# Si number density = 19.405385 Si / 1000 Ang^3
#
#
#
# Elastic Constant Matrix: (Units=GPa)
#
#
# Indices 1 2 3 4 5 6 
#
# 1 79.6492 20.4483 43.1368 0.0000 0.0000 0.0000
# 2 20.4483 29.8983 18.7469 0.0000 0.0000 0.0000
# 3 43.1368 18.7469 89.0642 0.0000 0.0000 0.0000
# 4 0.0000 0.0000 0.0000 33.3901 0.0000 0.0000
# 5 0.0000 0.0000 0.0000 0.0000 13.5121 0.0000
# 6 0.0000 0.0000 0.0000 0.0000 0.0000 26.6656
#
#
#
# Elastic Compliance Matrix: (Units=1/GPa)
#
#
# Indices 1 2 3 4 5 6 
#
# 1 0.018595 -0.008146 -0.007292 0.000000 0.000000 0.000000
# 2 -0.008146 0.042101 -0.004916 0.000000 0.000000 0.000000
# 3 -0.007292 -0.004916 0.015794 0.000000 0.000000 0.000000
# 4 0.000000 0.000000 0.000000 0.029949 0.000000 0.000000
# 5 0.000000 0.000000 0.000000 0.000000 0.074008 0.000000
# 6 0.000000 0.000000 0.000000 0.000000 0.000000 0.037502
#
#
# Mechanical properties :
#
#
# Convention : Reuss Voigt Hill
#
# Bulk Modulus (GPa) = 27.94670 40.36396 34.15533
# Shear Modulus (GPa) = 18.47853 22.46553 20.47203
#
# Velocity S-wave (km/s) = 3.08918 3.40618 3.25155
# Velocity P-wave (km/s) = 5.21122 6.02619 5.63346
#
# Compressibility (1/GPa) = 0.03578240
#
# Stress axis : x y z
#
# Youngs Moduli (GPa) = 53.77656 23.75264 63.31374
#
# Poissons Ratio (x) = 0.19348 0.46167
# Poissons Ratio (y) = 0.43805 0.31127
# Poissons Ratio (z) = 0.39213 0.11678
#
# Static dielectric constant tensor:
#      x y z
#    x 3.625770 0.000000 0.000000 
#    y 0.000000 3.430340 0.000000 
#    z 0.000000 0.000000 3.595020 
# 
# 
# High freq. dielectric constant tensor:
#      x y z
#    x 1.752140 0.000000 0.000000 
#    y 0.000000 1.751840 0.000000 
#    z 0.000000 0.000000 1.767000 
# 
# From -- ./inp_files/20282.got.cif
#   From: 2010.03.12/outbox.cif.g09.slc.cpg/sg59_11_cif.got.tgz:20282.got - 2010.04.16 16:29:54.
