data_PCOD8244811
_publ_section_title
;
Structure prediction by ZEFSAII (Michael W. Deem and Ramdas Pophale) SiO2 
 PCOD8244811
Probable space group: P M M N
;
_chemical_formula_sum "Si O2"
_cell_formula_units_Z 64
_cell_length_a 18.965852
_cell_length_b 9.011929
_cell_length_c 20.465283
_cell_angle_alpha 90.000000
_cell_angle_beta 90.000000
_cell_angle_gamma 90.000000
_cell_volume 3497.903897
_symmetry_space_group_name_H-M "P M M N"
_symmetry_group_IT_number 59
_space_group.IT_coordinate_system_code '2'
_symmetry_cell_setting 'orthorhombic'
loop_
_space_group_symop_operation_xyz
x,y,z
1/2-x,1/2-y,z
1/2+x,-y,-z
-x,1/2+y,-z
-x,-y,-z
1/2+x,1/2+y,-z
1/2-x,y,z
x,1/2-y,z
loop_
_atom_site_type_symbol
_atom_site_label
_atom_site_fract_x
_atom_site_fract_y
_atom_site_fract_z
Si Si1 0.426192 0.574869 0.250976
Si Si2 0.571805 0.077293 0.261252
Si Si3 0.575869 0.575849 0.884441
Si Si4 0.329517 0.425574 0.996394
Si Si5 0.915015 0.080176 0.112432
Si Si6 0.834131 0.919439 0.645484
Si Si7 0.166008 0.080248 0.636769
Si Si8 0.673226 0.574887 0.504316
O O1 0.431635 0.750000 0.245581
O O2 0.500497 0.511439 0.275754
O O3 0.403689 0.510063 0.181052
O O4 0.366258 0.530927 0.302247
O O5 0.554803 0.250000 0.270136
O O6 0.599177 0.044854 0.188259
O O7 0.632499 0.027993 0.310363
O O8 0.586081 0.750000 0.870720
O O9 0.495725 0.541458 0.905248
O O10 0.626090 0.515504 0.941816
O O11 0.250000 0.486368 0.002436
O O12 0.330855 0.250000 0.995428
O O13 0.362968 0.479440 0.929032
O O14 0.898282 0.250000 0.095734
O O15 0.750000 0.934761 0.646110
O O16 0.856058 0.750000 0.661921
O O17 0.864550 0.966890 0.573093
O O18 0.250000 0.061320 0.638383
O O19 0.145078 0.250000 0.652696
O O20 0.135684 0.031935 0.564544
O O21 0.750000 0.498113 0.504371
O O22 0.684128 0.750000 0.503680
#
# Coordination Sequence:
#
# PCOD8244811 Si02
#       8
#     8   8   8   8   8   8   8   8
#     4  11  22  35  53  78 106 134 170 217 264 305
#     4  10  21  37  54  74 103 139 179 215 253 308
#     4   9  19  37  56  74 100 135 173 206 245 304
#     4  10  21  35  53  79 107 132 162 204 250 298
#     4   9  19  35  54  73  96 132 173 211 248 292
#     4   9  17  32  55  78 102 137 175 209 253 311
#     4   9  17  31  53  80 107 134 169 216 264 306
#     4   7  12  26  49  75 101 132 171 210 251 305
#
# _framework density 18.296672000000001
#
# number of rings (size 3 to 8) (size 9 to 14) (size 15 to 20)
#    0.000    2.750    0.000    4.125    0.000    4.750 
#    0.000    5.000    0.000    2.250    0.000    0.000 
#    0.000    0.000    0.000    0.000    0.000    0.000 
#
# Total GULP energy -793274.323019 kJ/mol
# GULP energy per Si atom -12394.911297 kJ/mol
# Density = 1.825503 g / cm^3
# Si number density = 18.296672 Si / 1000 Ang^3
#
#
#
# Elastic Constant Matrix: (Units=GPa)
#
#
# Indices 1 2 3 4 5 6 
#
# 1 71.5966 30.3168 62.3196 0.0000 0.0000 0.0000
# 2 30.3168 64.4718 48.4522 0.0000 0.0000 0.0000
# 3 62.3196 48.4522 133.0562 0.0000 0.0000 0.0000
# 4 0.0000 0.0000 0.0000 24.8100 0.0000 0.0000
# 5 0.0000 0.0000 0.0000 0.0000 23.2127 0.0000
# 6 0.0000 0.0000 0.0000 0.0000 0.0000 27.4537
#
#
#
# Elastic Compliance Matrix: (Units=1/GPa)
#
#
# Indices 1 2 3 4 5 6 
#
# 1 0.024291 -0.003954 -0.009937 0.000000 0.000000 0.000000
# 2 -0.003954 0.021999 -0.006159 0.000000 0.000000 0.000000
# 3 -0.009937 -0.006159 0.014413 0.000000 0.000000 0.000000
# 4 0.000000 0.000000 0.000000 0.040306 0.000000 0.000000
# 5 0.000000 0.000000 0.000000 0.000000 0.043080 0.000000
# 6 0.000000 0.000000 0.000000 0.000000 0.000000 0.036425
#
#
# Mechanical properties :
#
#
# Convention : Reuss Voigt Hill
#
# Bulk Modulus (GPa) = 48.53960 61.25576 54.89768
# Shear Modulus (GPa) = 21.97980 23.63100 22.80540
#
# Velocity S-wave (km/s) = 3.46974 3.59771 3.53430
# Velocity P-wave (km/s) = 6.52985 7.12810 6.83552
#
# Compressibility (1/GPa) = 0.02060173
#
# Stress axis : x y z
#
# Youngs Moduli (GPa) = 41.16699 45.45759 69.38363
#
# Poissons Ratio (x) = 0.17976 0.68949
# Poissons Ratio (y) = 0.16279 0.42731
# Poissons Ratio (z) = 0.40909 0.27995
#
# Static dielectric constant tensor:
#      x y z
#    x 3.208330 0.000000 0.000000 
#    y 0.000000 3.150150 0.000000 
#    z 0.000000 0.000000 3.657580 
# 
# 
# High freq. dielectric constant tensor:
#      x y z
#    x 1.688010 0.000000 0.000000 
#    y 0.000000 1.690330 0.000000 
#    z 0.000000 0.000000 1.726120 
# 
# From -- ./inp_files/30740.got.cif
#   From: 2010.03.12/outbox.cif.g09.slc.cpg/sg59_16_cif.got.tgz:30740.got - 2010.04.16 16:29:54.
