data_PCOD8244358
_publ_section_title
;
Structure prediction by ZEFSAII (Michael W. Deem and Ramdas Pophale) SiO2 
 PCOD8244358
Probable space group: P M M N
;
_chemical_formula_sum "Si O2"
_cell_formula_units_Z 48
_cell_length_a 30.184235
_cell_length_b 9.155815
_cell_length_c 9.377093
_cell_angle_alpha 90.000000
_cell_angle_beta 90.000000
_cell_angle_gamma 90.000000
_cell_volume 2591.465345
_symmetry_space_group_name_H-M "P M M N"
_symmetry_group_IT_number 59
_space_group.IT_coordinate_system_code '2'
_symmetry_cell_setting 'orthorhombic'
loop_
_space_group_symop_operation_xyz
x,y,z
1/2-x,1/2-y,z
1/2+x,-y,-z
-x,1/2+y,-z
-x,-y,-z
1/2+x,1/2+y,-z
1/2-x,y,z
x,1/2-y,z
loop_
_atom_site_type_symbol
_atom_site_label
_atom_site_fract_x
_atom_site_fract_y
_atom_site_fract_z
Si Si1 0.200048 0.079441 0.142473
Si Si2 0.374977 0.580392 0.640963
Si Si3 0.042050 0.917436 0.839346
Si Si4 0.300429 0.919840 0.857534
Si Si5 0.121499 0.077738 0.344517
Si Si6 0.546473 0.419756 0.832805
O O1 0.250000 0.029897 0.182779
O O2 0.197816 0.250000 0.111527
O O3 0.168077 0.034374 0.271658
O O4 0.183554 0.001652 0.999112
O O5 0.373508 0.750000 0.596449
O O6 0.416825 0.546065 0.739583
O O7 0.330771 0.533532 0.725166
O O8 0.377924 0.480357 0.503810
O O9 0.026471 0.750000 0.823644
O O10 0.056719 0.948972 0.001405
O O11 0.002123 0.021785 0.792482
O O12 0.250000 0.961101 0.818153
O O13 0.306249 0.750000 0.890615
O O14 0.114046 0.250000 0.346089
O O15 0.081806 0.005832 0.259007
O O16 0.548829 0.250000 0.792897
#
# Coordination Sequence:
#
# PCOD8244358 Si02
#       6
#     8   8   8   8   8   8
#     4   9  19  36  56  78 105 138 176 217 260 307
#     4  10  21  36  53  76 109 144 175 212 260 312
#     4   9  19  36  57  80 105 135 174 218 262 311
#     4   9  18  34  57  83 108 136 174 219 264 311
#     4  11  23  36  52  77 109 143 178 216 259 310
#     4  10  20  36  59  82 104 134 173 218 267 315
#
# _framework density 18.522338999999999
#
# number of rings (size 3 to 8) (size 9 to 14) (size 15 to 20)
#    0.000    2.333    0.000    2.000    0.000    6.000 
#    0.000    0.000    0.000    0.000    0.000    0.000 
#    0.000    0.000    0.000    0.000    0.000    0.000 
#
# Total GULP energy -595361.425657 kJ/mol
# GULP energy per Si atom -12403.363035 kJ/mol
# Density = 1.848018 g / cm^3
# Si number density = 18.522339 Si / 1000 Ang^3
#
#
#
# Elastic Constant Matrix: (Units=GPa)
#
#
# Indices 1 2 3 4 5 6 
#
# 1 123.2293 62.6958 84.2644 0.0000 0.0000 0.0000
# 2 62.6958 76.2331 63.6624 0.0000 0.0000 0.0000
# 3 84.2644 63.6624 124.0240 0.0000 0.0000 0.0000
# 4 0.0000 0.0000 0.0000 34.4116 0.0000 0.0000
# 5 0.0000 0.0000 0.0000 0.0000 -31.6691 0.0000
# 6 0.0000 0.0000 0.0000 0.0000 0.0000 17.4329
#
#
#
# Elastic Compliance Matrix: (Units=1/GPa)
#
#
# Indices 1 2 3 4 5 6 
#
# 1 0.017452 -0.007790 -0.007858 0.000000 0.000000 0.000000
# 2 -0.007790 0.026437 -0.008277 0.000000 0.000000 0.000000
# 3 -0.007858 -0.008277 0.017651 0.000000 0.000000 0.000000
# 4 0.000000 0.000000 0.000000 0.029060 0.000000 0.000000
# 5 0.000000 0.000000 0.000000 0.000000 -0.031577 0.000000
# 6 0.000000 0.000000 0.000000 0.000000 0.000000 0.057363
#
#
# Mechanical properties :
#
#
# Convention : Reuss Voigt Hill
#
# Bulk Modulus (GPa) = 73.05815 82.74796 77.90305
# Shear Modulus (GPa) = 29.62053 11.55933 20.58993
#
# Velocity S-wave (km/s) = 4.00331 2.50086 3.33772
# Velocity P-wave (km/s) = 7.80369 7.28771 7.55011
#
# Compressibility (1/GPa) = 0.01368773
#
# Stress axis : x y z
#
# Youngs Moduli (GPa) = 57.29953 37.82554 56.65392
#
# Poissons Ratio (x) = 0.29468 0.44521
# Poissons Ratio (y) = 0.44639 0.46895
# Poissons Ratio (z) = 0.45029 0.31310
#
# Static dielectric constant tensor:
#      x y z
#    x 3.624670 0.000000 0.000000 
#    y 0.000000 3.414330 0.000000 
#    z 0.000000 0.000000 3.353850 
# 
# 
# High freq. dielectric constant tensor:
#      x y z
#    x 1.730910 0.000000 0.000000 
#    y 0.000000 1.719810 0.000000 
#    z 0.000000 0.000000 1.713860 
# 
# From -- ./inp_files/6245.got.cif
#   From: 2010.03.12/outbox.cif.g09.slc.cpg/sg59_4_cif.got.tgz:6245.got - 2010.04.16 16:29:54.
