data_PCOD8244825
_publ_section_title
;
Structure prediction by ZEFSAII (Michael W. Deem and Ramdas Pophale) SiO2 
 PCOD8244825
Probable space group: P M M N
;
_chemical_formula_sum "Si O2"
_cell_formula_units_Z 64
_cell_length_a 9.004209
_cell_length_b 19.470425
_cell_length_c 19.989839
_cell_angle_alpha 90.000000
_cell_angle_beta 90.000000
_cell_angle_gamma 90.000000
_cell_volume 3504.534137
_symmetry_space_group_name_H-M "P M M N"
_symmetry_group_IT_number 59
_space_group.IT_coordinate_system_code '2'
_symmetry_cell_setting 'orthorhombic'
loop_
_space_group_symop_operation_xyz
x,y,z
1/2-x,1/2-y,z
1/2+x,-y,-z
-x,1/2+y,-z
-x,-y,-z
1/2+x,1/2+y,-z
1/2-x,y,z
x,1/2-y,z
loop_
_atom_site_type_symbol
_atom_site_label
_atom_site_fract_x
_atom_site_fract_y
_atom_site_fract_z
Si Si1 0.081338 0.393433 0.701160
Si Si2 0.081229 0.948584 0.677477
Si Si3 0.575898 0.067377 0.472016
Si Si4 0.077096 0.427975 0.189945
Si Si5 0.580932 0.829463 0.434953
Si Si6 0.424666 0.328706 0.948471
Si Si7 0.577167 0.413762 0.833650
Si Si8 0.423277 0.829174 0.913307
O O1 0.250000 0.378242 0.724196
O O2 0.064617 0.469793 0.673031
O O3 0.030966 0.343245 0.641458
O O4 0.974622 0.380152 0.763983
O O5 0.250000 0.927904 0.695641
O O6 0.033090 0.919338 0.605420
O O7 0.972754 0.917471 0.733392
O O8 0.750000 0.056567 0.479425
O O9 0.525533 0.133308 0.513128
O O10 0.500000 0.000000 0.500000
O O11 0.250000 0.410931 0.183912
O O12 0.041282 0.505234 0.166016
O O13 0.984862 0.375390 0.145898
O O14 0.750000 0.856013 0.443948
O O15 0.566814 0.750000 0.450815
O O16 0.250000 0.339296 0.954100
O O17 0.465637 0.250000 0.930535
O O18 0.487365 0.379264 0.893018
O O19 0.495651 0.350461 0.018623
O O20 0.750000 0.398848 0.843367
O O21 0.250000 0.843428 0.922711
O O22 0.455419 0.750000 0.895348
#
# Coordination Sequence:
#
# PCOD8244825 Si02
#       8
#     8   8   8   8   8   8   8   8
#     4   9  17  33  53  75 106 144 184 222 268 325
#     4   9  18  34  55  79 107 141 182 225 270 324
#     4  11  21  35  58  84 110 143 187 231 278 334
#     4  10  21  36  56  84 114 143 179 226 275 326
#     4  10  21  37  55  79 113 149 187 231 279 332
#     4  10  21  37  57  80 107 144 188 228 271 327
#     4  10  21  35  53  82 115 145 181 226 274 322
#     4  10  21  38  60  83 108 142 183 227 277 330
#
# _framework density 18.262056000000001
#
# number of rings (size 3 to 8) (size 9 to 14) (size 15 to 20)
#    0.000    2.125    1.250    1.875    0.000    5.750 
#    0.000    1.875    0.000    0.750    0.000    0.000 
#    0.000    0.000    0.000    0.000    0.000    0.000 
#
# Total GULP energy -793816.874334 kJ/mol
# GULP energy per Si atom -12403.388661 kJ/mol
# Density = 1.822049 g / cm^3
# Si number density = 18.262056 Si / 1000 Ang^3
#
#
#
# Elastic Constant Matrix: (Units=GPa)
#
#
# Indices 1 2 3 4 5 6 
#
# 1 91.6047 42.4130 67.7788 0.0000 0.0000 0.0000
# 2 42.4130 66.5548 60.5726 0.0000 0.0000 0.0000
# 3 67.7788 60.5726 133.9225 0.0000 0.0000 0.0000
# 4 0.0000 0.0000 0.0000 29.2895 0.0000 0.0000
# 5 0.0000 0.0000 0.0000 0.0000 39.5851 0.0000
# 6 0.0000 0.0000 0.0000 0.0000 0.0000 28.3011
#
#
#
# Elastic Compliance Matrix: (Units=1/GPa)
#
#
# Indices 1 2 3 4 5 6 
#
# 1 0.018597 -0.005584 -0.006887 0.000000 0.000000 0.000000
# 2 -0.005584 0.027214 -0.009483 0.000000 0.000000 0.000000
# 3 -0.006887 -0.009483 0.015241 0.000000 0.000000 0.000000
# 4 0.000000 0.000000 0.000000 0.034142 0.000000 0.000000
# 5 0.000000 0.000000 0.000000 0.000000 0.025262 0.000000
# 6 0.000000 0.000000 0.000000 0.000000 0.000000 0.035334
#
#
# Mechanical properties :
#
#
# Convention : Reuss Voigt Hill
#
# Bulk Modulus (GPa) = 58.32180 70.40119 64.36149
# Shear Modulus (GPa) = 24.34126 27.52299 25.93213
#
# Velocity S-wave (km/s) = 3.65483 3.88637 3.77238
# Velocity P-wave (km/s) = 7.05803 7.66633 7.36846
#
# Compressibility (1/GPa) = 0.01714625
#
# Stress axis : x y z
#
# Youngs Moduli (GPa) = 53.77159 36.74584 65.61069
#
# Poissons Ratio (x) = 0.20518 0.45184
# Poissons Ratio (y) = 0.30024 0.62218
# Poissons Ratio (z) = 0.37031 0.34845
#
# Static dielectric constant tensor:
#      x y z
#    x 1.478150 0.000000 0.000000 
#    y 0.000000 3.244530 0.000000 
#    z 0.000000 0.000000 3.471950 
# 
# 
# High freq. dielectric constant tensor:
#      x y z
#    x 1.715520 0.000000 0.000000 
#    y 0.000000 1.692560 0.000000 
#    z 0.000000 0.000000 1.716480 
# 
# From -- ./inp_files/26229.got.cif
#   From: 2010.03.12/outbox.cif.g09.slc.cpg/sg59_14_cif.got.tgz:26229.got - 2010.04.16 16:29:54.
