data_PCOD8244617
_publ_section_title
;
Structure prediction by ZEFSAII (Michael W. Deem and Ramdas Pophale) SiO2 
 PCOD8244617
Probable space group: P M M N
;
_chemical_formula_sum "Si O2"
_cell_formula_units_Z 64
_cell_length_a 21.772501
_cell_length_b 14.937325
_cell_length_c 9.338845
_cell_angle_alpha 90.000000
_cell_angle_beta 90.000000
_cell_angle_gamma 90.000000
_cell_volume 3037.206473
_symmetry_space_group_name_H-M "P M M N"
_symmetry_group_IT_number 59
_space_group.IT_coordinate_system_code '2'
_symmetry_cell_setting 'orthorhombic'
loop_
_space_group_symop_operation_xyz
x,y,z
1/2-x,1/2-y,z
1/2+x,-y,-z
-x,1/2+y,-z
-x,-y,-z
1/2+x,1/2+y,-z
1/2-x,y,z
x,1/2-y,z
loop_
_atom_site_type_symbol
_atom_site_label
_atom_site_fract_x
_atom_site_fract_y
_atom_site_fract_z
Si Si1 0.318415 0.476923 0.103805
Si Si2 0.983359 0.897619 0.659133
Si Si3 0.636708 0.645800 0.127543
Si Si4 0.388043 0.651418 0.152748
Si Si5 0.319484 0.444761 0.592203
Si Si6 0.644333 0.845762 0.661171
Si Si7 0.493470 0.394985 0.010503
Si Si8 0.582241 0.430770 0.556095
O O1 0.250000 0.490320 0.162217
O O2 0.347540 0.574402 0.076139
O O3 0.357857 0.424583 0.222031
O O4 0.316556 0.415148 0.963790
O O5 0.925869 0.838090 0.605170
O O6 0.998035 0.870094 0.822396
O O7 0.042953 0.876479 0.562359
O O8 0.963558 0.001324 0.638789
O O9 0.657237 0.750000 0.130603
O O10 0.640987 0.601899 0.283500
O O11 0.569652 0.637763 0.059648
O O12 0.358039 0.750000 0.130894
O O13 0.392193 0.635863 0.323383
O O14 0.453971 0.654303 0.077646
O O15 0.250000 0.474999 0.637904
O O16 0.311018 0.370141 0.468849
O O17 0.359594 0.525463 0.526159
O O18 0.665592 0.750000 0.726292
O O19 0.500000 0.500000 0.000000
#
# Coordination Sequence:
#
# PCOD8244617 Si02
#       8
#     8   8   8   8   8   8   8   8
#     4  12  25  44  66  91 128 175 220 268 323 382
#     4  10  20  37  65  92 131 166 207 262 326 399
#     4  12  25  41  66 102 138 175 217 265 327 401
#     4  12  26  44  68  98 128 168 227 281 331 387
#     4  11  24  41  62  92 132 175 219 263 318 390
#     4  11  22  38  63  96 131 166 208 260 322 395
#     4  12  20  41  67  95 135 175 212 270 335 394
#     4  10  21  40  64  96 125 171 217 269 329 384
#
# _framework density 21.071995999999999
#
# number of rings (size 3 to 8) (size 9 to 14) (size 15 to 20)
#    0.000    0.750    6.250    2.625    3.500    4.250 
#    0.000    0.000    0.000    0.000    0.000    0.000 
#    0.000    0.000    0.000    0.000    0.000    0.000 
#
# Total GULP energy -793296.812463 kJ/mol
# GULP energy per Si atom -12395.262695 kJ/mol
# Density = 2.102403 g / cm^3
# Si number density = 21.071996 Si / 1000 Ang^3
#
#
#
# Elastic Constant Matrix: (Units=GPa)
#
#
# Indices 1 2 3 4 5 6 
#
# 1 108.9030 31.3942 28.8728 0.0000 0.0000 0.0000
# 2 31.3942 114.1974 32.6773 0.0000 0.0000 0.0000
# 3 28.8728 32.6773 116.9112 0.0000 0.0000 0.0000
# 4 0.0000 0.0000 0.0000 18.4829 0.0000 0.0000
# 5 0.0000 0.0000 0.0000 0.0000 26.8441 0.0000
# 6 0.0000 0.0000 0.0000 0.0000 0.0000 7.7744
#
#
#
# Elastic Compliance Matrix: (Units=1/GPa)
#
#
# Indices 1 2 3 4 5 6 
#
# 1 0.010353 -0.002298 -0.001914 0.000000 0.000000 0.000000
# 2 -0.002298 0.010028 -0.002235 0.000000 0.000000 0.000000
# 3 -0.001914 -0.002235 0.009651 0.000000 0.000000 0.000000
# 4 0.000000 0.000000 0.000000 0.054104 0.000000 0.000000
# 5 0.000000 0.000000 0.000000 0.000000 0.037252 0.000000
# 6 0.000000 0.000000 0.000000 0.000000 0.000000 0.128627
#
#
# Mechanical properties :
#
#
# Convention : Reuss Voigt Hill
#
# Bulk Modulus (GPa) = 58.35682 58.43336 58.39509
# Shear Modulus (GPa) = 18.61348 27.09145 22.85247
#
# Velocity S-wave (km/s) = 2.97531 3.58950 3.29674
# Velocity P-wave (km/s) = 6.28947 6.70596 6.50105
#
# Compressibility (1/GPa) = 0.01713596
#
# Stress axis : x y z
#
# Youngs Moduli (GPa) = 96.59454 99.71855 103.61547
#
# Poissons Ratio (x) = 0.22918 0.19835
# Poissons Ratio (y) = 0.22200 0.23162
# Poissons Ratio (z) = 0.18491 0.22291
#
# Static dielectric constant tensor:
#      x y z
#    x 3.900260 0.000000 0.000000 
#    y 0.000000 3.753780 0.000000 
#    z 0.000000 0.000000 4.050370 
# 
# 
# High freq. dielectric constant tensor:
#      x y z
#    x 1.819640 0.000000 0.000000 
#    y 0.000000 1.808260 0.000000 
#    z 0.000000 0.000000 1.831370 
# 
# From -- ./inp_files/12187.got.cif
#   From: 2010.03.12/outbox.cif.g09.slc.cpg/sg59_7_cif.got.tgz:12187.got - 2010.04.16 16:29:54.
