data_PCOD8244410
_publ_section_title
;
Structure prediction by ZEFSAII (Michael W. Deem and Ramdas Pophale) SiO2 
 PCOD8244410
Probable space group: P M M N
;
_chemical_formula_sum "Si O2"
_cell_formula_units_Z 56
_cell_length_a 15.855402
_cell_length_b 9.107508
_cell_length_c 19.548892
_cell_angle_alpha 90.000000
_cell_angle_beta 90.000000
_cell_angle_gamma 90.000000
_cell_volume 2822.922572
_symmetry_space_group_name_H-M "P M M N"
_symmetry_group_IT_number 59
_space_group.IT_coordinate_system_code '2'
_symmetry_cell_setting 'orthorhombic'
loop_
_space_group_symop_operation_xyz
x,y,z
1/2-x,1/2-y,z
1/2+x,-y,-z
-x,1/2+y,-z
-x,-y,-z
1/2+x,1/2+y,-z
1/2-x,y,z
x,1/2-y,z
loop_
_atom_site_type_symbol
_atom_site_label
_atom_site_fract_x
_atom_site_fract_y
_atom_site_fract_z
Si Si1 0.397154 0.421131 0.793795
Si Si2 0.653202 0.420824 0.927920
Si Si3 0.750000 0.421260 0.446135
Si Si4 0.587390 0.079364 0.782677
Si Si5 0.917479 0.423794 0.530353
Si Si6 0.653099 0.581109 0.656510
Si Si7 0.850094 0.583866 0.060468
Si Si8 0.750000 0.575177 0.301871
O O1 0.376878 0.250000 0.802460
O O2 0.489993 0.450027 0.764953
O O3 0.385422 0.490063 0.869631
O O4 0.331689 0.485759 0.738705
O O5 0.750000 0.465995 0.917017
O O6 0.642547 0.250000 0.940931
O O7 0.603290 0.471042 0.860443
O O8 0.614153 0.499310 0.994389
O O9 0.750000 0.250000 0.429403
O O10 0.834274 0.465208 0.487272
O O11 0.750000 0.510605 0.376870
O O12 0.612357 0.250000 0.773314
O O13 0.643592 0.981058 0.732896
O O14 0.932156 0.250000 0.533819
O O15 0.905027 0.484986 0.606643
O O16 0.000000 0.500000 0.500000
O O17 0.750000 0.566056 0.634161
O O18 0.623637 0.750000 0.654119
O O19 0.750000 0.573964 0.063304
O O20 0.882464 0.750000 0.053581
O O21 0.750000 0.750000 0.308671
#
# Coordination Sequence:
#
# PCOD8244410 Si02
#       8
#     8   8   4   8   8   8   8   4
#     4   9  18  34  55  82 110 145 193 240 287 346
#     4   9  18  32  49  73 106 144 188 237 292 352
#     4  10  24  44  64  92 127 160 195 242 301 358
#     4  10  21  36  56  82 114 152 194 241 295 352
#     4  11  24  44  68  95 128 164 203 248 300 361
#     4  11  24  42  64  90 121 157 200 247 293 352
#     4   9  16  30  53  75 103 144 189 235 284 342
#     4  10  20  36  60  84 113 150 193 238 285 346
#
# _framework density 19.837596999999999
#
# number of rings (size 3 to 8) (size 9 to 14) (size 15 to 20)
#    0.000    2.143    1.429    1.286    2.000    3.714 
#    0.000    2.857    0.000    0.000    0.000    0.000 
#    0.000    0.000    0.000    0.000    0.000    0.000 
#
# Total GULP energy -694461.412476 kJ/mol
# GULP energy per Si atom -12401.096651 kJ/mol
# Density = 1.979245 g / cm^3
# Si number density = 19.837597 Si / 1000 Ang^3
#
#
#
# Elastic Constant Matrix: (Units=GPa)
#
#
# Indices 1 2 3 4 5 6 
#
# 1 80.5668 37.8388 35.0725 0.0000 0.0000 0.0000
# 2 37.8388 69.7616 52.8739 0.0000 0.0000 0.0000
# 3 35.0725 52.8739 126.7771 0.0000 0.0000 0.0000
# 4 0.0000 0.0000 0.0000 37.5142 0.0000 0.0000
# 5 0.0000 0.0000 0.0000 0.0000 30.3543 0.0000
# 6 0.0000 0.0000 0.0000 0.0000 0.0000 23.2118
#
#
#
# Elastic Compliance Matrix: (Units=1/GPa)
#
#
# Indices 1 2 3 4 5 6 
#
# 1 0.016787 -0.008167 -0.001238 0.000000 0.000000 0.000000
# 2 -0.008167 0.024933 -0.008139 0.000000 0.000000 0.000000
# 3 -0.001238 -0.008139 0.011625 0.000000 0.000000 0.000000
# 4 0.000000 0.000000 0.000000 0.026657 0.000000 0.000000
# 5 0.000000 0.000000 0.000000 0.000000 0.032944 0.000000
# 6 0.000000 0.000000 0.000000 0.000000 0.000000 0.043082
#
#
# Mechanical properties :
#
#
# Convention : Reuss Voigt Hill
#
# Bulk Modulus (GPa) = 54.77483 58.74178 56.75830
# Shear Modulus (GPa) = 25.35486 28.30409 26.82948
#
# Velocity S-wave (km/s) = 3.57896 3.78139 3.68156
# Velocity P-wave (km/s) = 6.68956 6.98146 6.83707
#
# Compressibility (1/GPa) = 0.01825656
#
# Stress axis : x y z
#
# Youngs Moduli (GPa) = 59.57146 40.10702 86.02198
#
# Poissons Ratio (x) = 0.32755 0.10648
# Poissons Ratio (y) = 0.48651 0.70017
# Poissons Ratio (z) = 0.07374 0.32645
#
# Static dielectric constant tensor:
#      x y z
#    x 3.583850 0.000000 0.000000 
#    y 0.000000 3.537690 0.000000 
#    z 0.000000 0.000000 3.684430 
# 
# 
# High freq. dielectric constant tensor:
#      x y z
#    x 1.774890 0.000000 0.000000 
#    y 0.000000 1.747780 0.000000 
#    z 0.000000 0.000000 1.786690 
# 
# From -- ./inp_files/30451.got.cif
#   From: 2010.03.12/outbox.cif.g09.slc.cpg/sg59_16_cif.got.tgz:30451.got - 2010.04.16 16:29:54.
