data_PCOD8244539
_publ_section_title
;
Structure prediction by ZEFSAII (Michael W. Deem and Ramdas Pophale) SiO2 
 PCOD8244539
Probable space group: P M M N
;
_chemical_formula_sum "Si O2"
_cell_formula_units_Z 64
_cell_length_a 9.314878
_cell_length_b 27.798133
_cell_length_c 12.839551
_cell_angle_alpha 90.000000
_cell_angle_beta 90.000000
_cell_angle_gamma 90.000000
_cell_volume 3324.624771
_symmetry_space_group_name_H-M "P M M N"
_symmetry_group_IT_number 59
_space_group.IT_coordinate_system_code '2'
_symmetry_cell_setting 'orthorhombic'
loop_
_space_group_symop_operation_xyz
x,y,z
1/2-x,1/2-y,z
1/2+x,-y,-z
-x,1/2+y,-z
-x,-y,-z
1/2+x,1/2+y,-z
1/2-x,y,z
x,1/2-y,z
loop_
_atom_site_type_symbol
_atom_site_label
_atom_site_fract_x
_atom_site_fract_y
_atom_site_fract_z
Si Si1 0.415676 0.647417 0.973451
Si Si2 0.413834 0.694195 0.183917
Si Si3 0.085052 0.544045 0.046700
Si Si4 0.583242 0.029776 0.412978
Si Si5 0.082063 0.305186 0.215426
Si Si6 0.412750 0.146520 0.639064
Si Si7 0.589248 0.549419 0.249478
Si Si8 0.582270 0.628293 0.591635
O O1 0.250000 0.663004 0.961862
O O2 0.503094 0.670319 0.880397
O O3 0.477839 0.666501 0.083730
O O4 0.432811 0.589762 0.970733
O O5 0.250000 0.678781 0.199782
O O6 0.432167 0.750000 0.161177
O O7 0.492971 0.680946 0.289920
O O8 0.250000 0.529185 0.057858
O O9 0.026648 0.557061 0.160130
O O10 0.000000 0.500000 0.000000
O O11 0.750000 0.035118 0.445968
O O12 0.513897 0.081385 0.392923
O O13 0.500000 0.000000 0.500000
O O14 0.569418 0.001973 0.303735
O O15 0.250000 0.308446 0.192667
O O16 0.032102 0.250000 0.227517
O O17 0.041226 0.333162 0.320551
O O18 0.250000 0.162220 0.659121
O O19 0.436963 0.090447 0.664645
O O20 0.454538 0.153425 0.518422
O O21 0.750000 0.553390 0.202108
O O22 0.750000 0.613428 0.595713
#
# Coordination Sequence:
#
# PCOD8244539 Si02
#       8
#     8   8   8   8   8   8   8   8
#     4  10  22  41  63  86 117 157 197 241 298 359
#     4  10  21  38  60  87 117 148 190 245 299 354
#     4  11  24  40  60  88 122 159 196 239 298 359
#     4  11  22  37  59  88 121 156 197 243 290 349
#     4  10  23  42  64  89 118 157 206 258 305 355
#     4  10  20  37  60  86 119 155 193 240 294 353
#     4  10  21  38  58  84 120 157 196 241 289 352
#     4  10  22  41  61  88 123 160 203 248 299 356
#
# _framework density 19.250292000000002
#
# number of rings (size 3 to 8) (size 9 to 14) (size 15 to 20)
#    0.000    1.750    2.500    1.125    1.750    5.000 
#    0.000    1.250    0.000    0.000    0.000    0.000 
#    0.000    0.000    0.000    0.000    0.000    0.000 
#
# Total GULP energy -793819.933095 kJ/mol
# GULP energy per Si atom -12403.436455 kJ/mol
# Density = 1.920648 g / cm^3
# Si number density = 19.250292 Si / 1000 Ang^3
#
#
#
# Elastic Constant Matrix: (Units=GPa)
#
#
# Indices 1 2 3 4 5 6 
#
# 1 96.1804 59.0248 62.9465 0.0000 0.0000 0.0000
# 2 59.0248 105.7672 61.0698 0.0000 0.0000 0.0000
# 3 62.9465 61.0698 133.0222 0.0000 0.0000 0.0000
# 4 0.0000 0.0000 0.0000 31.6781 0.0000 0.0000
# 5 0.0000 0.0000 0.0000 0.0000 33.3417 0.0000
# 6 0.0000 0.0000 0.0000 0.0000 0.0000 33.1194
#
#
#
# Elastic Compliance Matrix: (Units=1/GPa)
#
#
# Indices 1 2 3 4 5 6 
#
# 1 0.018276 -0.007083 -0.005396 0.000000 0.000000 0.000000
# 2 -0.007083 0.015610 -0.003815 0.000000 0.000000 0.000000
# 3 -0.005396 -0.003815 0.011822 0.000000 0.000000 0.000000
# 4 0.000000 0.000000 0.000000 0.031568 0.000000 0.000000
# 5 0.000000 0.000000 0.000000 0.000000 0.029992 0.000000
# 6 0.000000 0.000000 0.000000 0.000000 0.000000 0.030194
#
#
# Mechanical properties :
#
#
# Convention : Reuss Voigt Hill
#
# Bulk Modulus (GPa) = 76.22033 77.89468 77.05750
# Shear Modulus (GPa) = 28.66578 29.75640 29.21109
#
# Velocity S-wave (km/s) = 3.86308 3.93588 3.89965
# Velocity P-wave (km/s) = 7.71869 7.82348 7.77127
#
# Compressibility (1/GPa) = 0.01311986
#
# Stress axis : x y z
#
# Youngs Moduli (GPa) = 54.71760 64.06038 84.58509
#
# Poissons Ratio (x) = 0.45375 0.45644
# Poissons Ratio (y) = 0.38758 0.32268
# Poissons Ratio (z) = 0.29527 0.24438
#
# Static dielectric constant tensor:
#      x y z
#    x 3.623340 0.000000 0.000000 
#    y 0.000000 3.577900 0.000000 
#    z 0.000000 0.000000 3.571170 
# 
# 
# High freq. dielectric constant tensor:
#      x y z
#    x 1.747430 0.000000 0.000000 
#    y 0.000000 1.754790 0.000000 
#    z 0.000000 0.000000 1.752920 
# 
# From -- ./inp_files/14997.got.cif
#   From: 2010.03.12/outbox.cif.g09.slc.cpg/sg59_8_cif.got.tgz:14997.got - 2010.04.16 16:29:54.
