data_PCOD8244587
_publ_section_title
;
Structure prediction by ZEFSAII (Michael W. Deem and Ramdas Pophale) SiO2 
 PCOD8244587
Probable space group: P M M N
;
_chemical_formula_sum "Si O2"
_cell_formula_units_Z 48
_cell_length_a 8.704024
_cell_length_b 15.130709
_cell_length_c 18.784717
_cell_angle_alpha 90.000000
_cell_angle_beta 90.000000
_cell_angle_gamma 90.000000
_cell_volume 2473.910679
_symmetry_space_group_name_H-M "P M M N"
_symmetry_group_IT_number 59
_space_group.IT_coordinate_system_code '2'
_symmetry_cell_setting 'orthorhombic'
loop_
_space_group_symop_operation_xyz
x,y,z
1/2-x,1/2-y,z
1/2+x,-y,-z
-x,1/2+y,-z
-x,-y,-z
1/2+x,1/2+y,-z
1/2-x,y,z
x,1/2-y,z
loop_
_atom_site_type_symbol
_atom_site_label
_atom_site_fract_x
_atom_site_fract_y
_atom_site_fract_z
Si Si1 0.419403 0.461611 0.305007
Si Si2 0.927181 0.519268 0.924541
Si Si3 0.429203 0.647789 0.809750
Si Si4 0.086084 0.610156 0.191582
Si Si5 0.569879 0.250000 0.584372
Si Si6 0.420639 0.250000 0.730862
Si Si7 0.432696 0.440922 0.562475
O O1 0.250000 0.435783 0.336246
O O2 0.501952 0.377687 0.268482
O O3 0.394896 0.525276 0.239624
O O4 0.519490 0.511900 0.364341
O O5 0.750000 0.546179 0.932798
O O6 0.948192 0.424015 0.887139
O O7 0.007525 0.595943 0.878488
O O8 0.000000 0.500000 0.000000
O O9 0.250000 0.628086 0.804910
O O10 0.466936 0.750000 0.822539
O O11 0.250000 0.662473 0.193273
O O12 0.942903 0.666470 0.218591
O O13 0.750000 0.250000 0.566597
O O14 0.546516 0.250000 0.669062
O O15 0.495660 0.340349 0.553983
O O16 0.250000 0.250000 0.697721
O O17 0.500000 0.500000 0.500000
O O18 0.250000 0.436777 0.558138
#
# Coordination Sequence:
#
# PCOD8244587 Si02
#       7
#     8   8   8   8   4   4   8
#     4  10  20  37  62  89 118 155 198 246 301 354
#     4  10  21  38  60  84 115 155 198 244 304 362
#     4  10  21  38  61  88 119 158 204 251 303 362
#     4   9  19  35  56  81 113 151 188 235 294 351
#     4  12  24  42  66  92 126 165 206 255 312 374
#     4  12  22  32  56  90 118 149 194 245 292 348
#     4  12  25  43  66  94 128 166 209 257 314 376
#
# _framework density 19.402479
#
# number of rings (size 3 to 8) (size 9 to 14) (size 15 to 20)
#    0.000    1.500    1.667    5.500    0.000    4.667 
#    3.000    0.000    0.000    0.000    0.000    0.000 
#    0.000    0.000    0.000    0.000    0.000    0.000 
#
# Total GULP energy -594817.301963 kJ/mol
# GULP energy per Si atom -12392.027124 kJ/mol
# Density = 1.935832 g / cm^3
# Si number density = 19.402479 Si / 1000 Ang^3
#
#
#
# Elastic Constant Matrix: (Units=GPa)
#
#
# Indices 1 2 3 4 5 6 
#
# 1 154.3292 62.8103 43.6272 0.0000 0.0000 0.0000
# 2 62.8103 117.4812 50.9464 0.0000 0.0000 0.0000
# 3 43.6272 50.9464 103.1694 0.0000 0.0000 0.0000
# 4 0.0000 0.0000 0.0000 22.8611 0.0000 0.0000
# 5 0.0000 0.0000 0.0000 0.0000 32.1980 0.0000
# 6 0.0000 0.0000 0.0000 0.0000 0.0000 33.5097
#
#
#
# Elastic Compliance Matrix: (Units=1/GPa)
#
#
# Indices 1 2 3 4 5 6 
#
# 1 0.008515 -0.003806 -0.001721 0.000000 0.000000 0.000000
# 2 -0.003806 0.012533 -0.004579 0.000000 0.000000 0.000000
# 3 -0.001721 -0.004579 0.012682 0.000000 0.000000 0.000000
# 4 0.000000 0.000000 0.000000 0.043742 0.000000 0.000000
# 5 0.000000 0.000000 0.000000 0.000000 0.031058 0.000000
# 6 0.000000 0.000000 0.000000 0.000000 0.000000 0.029842
#
#
# Mechanical properties :
#
#
# Convention : Reuss Voigt Hill
#
# Bulk Modulus (GPa) = 73.98391 76.63864 75.31127
# Shear Modulus (GPa) = 30.65759 32.22015 31.43887
#
# Velocity S-wave (km/s) = 3.97934 4.07949 4.02973
# Velocity P-wave (km/s) = 7.70243 7.85970 7.78146
#
# Compressibility (1/GPa) = 0.01351645
#
# Stress axis : x y z
#
# Youngs Moduli (GPa) = 117.43518 79.79054 78.85161
#
# Poissons Ratio (x) = 0.30370 0.13573
# Poissons Ratio (y) = 0.44698 0.36109
# Poissons Ratio (z) = 0.20215 0.36539
#
# Static dielectric constant tensor:
#      x y z
#    x 3.942290 0.000000 0.000000 
#    y 0.000000 3.684910 0.000000 
#    z 0.000000 0.000000 3.630390 
# 
# 
# High freq. dielectric constant tensor:
#      x y z
#    x 1.772820 0.000000 0.000000 
#    y 0.000000 1.752080 0.000000 
#    z 0.000000 0.000000 1.748260 
# 
# From -- ./inp_files/25574.got.cif
#   From: 2010.03.12/outbox.cif.g09.slc.cpg/sg59_13_cif.got.tgz:25574.got - 2010.04.16 16:29:54.
