data_PCOD8244528
_publ_section_title
;
Structure prediction by ZEFSAII (Michael W. Deem and Ramdas Pophale) SiO2 
 PCOD8244528
Probable space group: P M M N
;
_chemical_formula_sum "Si O2"
_cell_formula_units_Z 64
_cell_length_a 9.127549
_cell_length_b 25.696939
_cell_length_c 14.225800
_cell_angle_alpha 90.000000
_cell_angle_beta 90.000000
_cell_angle_gamma 90.000000
_cell_volume 3336.662384
_symmetry_space_group_name_H-M "P M M N"
_symmetry_group_IT_number 59
_space_group.IT_coordinate_system_code '2'
_symmetry_cell_setting 'orthorhombic'
loop_
_space_group_symop_operation_xyz
x,y,z
1/2-x,1/2-y,z
1/2+x,-y,-z
-x,1/2+y,-z
-x,-y,-z
1/2+x,1/2+y,-z
1/2-x,y,z
x,1/2-y,z
loop_
_atom_site_type_symbol
_atom_site_label
_atom_site_fract_x
_atom_site_fract_y
_atom_site_fract_z
Si Si1 0.921524 0.634693 0.919784
Si Si2 0.077320 0.101011 0.598465
Si Si3 0.919143 0.027943 0.084657
Si Si4 0.422343 0.307342 0.267049
Si Si5 0.923746 0.595869 0.615815
Si Si6 0.579735 0.190894 0.702970
Si Si7 0.581488 0.999872 0.291320
Si Si8 0.582630 0.189466 0.917954
O O1 0.750000 0.621609 0.924122
O O2 0.959428 0.676589 0.839668
O O3 0.008709 0.583075 0.894222
O O4 0.971531 0.656383 0.019926
O O5 0.250000 0.106876 0.605411
O O6 0.025660 0.092073 0.491788
O O7 0.009785 0.154440 0.634048
O O8 0.020782 0.052677 0.660738
O O9 0.750000 0.035559 0.057157
O O10 0.935357 0.993583 0.179036
O O11 0.000000 0.000000 0.000000
O O12 0.250000 0.303897 0.280861
O O13 0.491880 0.250000 0.286133
O O14 0.484952 0.350048 0.340063
O O15 0.750000 0.592969 0.626914
O O16 0.988686 0.548105 0.672775
O O17 0.750000 0.184562 0.680689
O O18 0.529192 0.250000 0.684365
O O19 0.547548 0.175374 0.810463
O O20 0.750000 0.009313 0.319813
O O21 0.750000 0.174802 0.942807
O O22 0.555241 0.250000 0.936500
#
# Coordination Sequence:
#
# PCOD8244528 Si02
#       8
#     8   8   8   8   8   8   8   8
#     4  11  21  35  57  83 114 150 191 236 285 347
#     4  10  22  37  58  88 115 148 193 240 289 342
#     4  11  24  40  58  83 117 153 189 238 293 344
#     4   9  18  33  54  82 115 150 189 234 284 340
#     4  10  20  37  60  85 114 150 194 239 288 343
#     4   9  20  39  59  82 115 153 190 232 285 343
#     4  10  22  40  59  83 118 150 187 240 291 341
#     4   9  19  36  56  80 112 149 190 234 280 335
#
# _framework density 19.180842999999999
#
# number of rings (size 3 to 8) (size 9 to 14) (size 15 to 20)
#    0.000    2.125    1.250    2.250    1.750    3.500 
#    0.000    2.500    0.000    1.125    0.000    0.000 
#    0.000    0.000    0.000    0.000    0.000    0.000 
#
# Total GULP energy -793711.471092 kJ/mol
# GULP energy per Si atom -12401.741736 kJ/mol
# Density = 1.913719 g / cm^3
# Si number density = 19.180843 Si / 1000 Ang^3
#
#
#
# Elastic Constant Matrix: (Units=GPa)
#
#
# Indices 1 2 3 4 5 6 
#
# 1 59.3898 37.1800 42.4410 0.0000 0.0000 0.0000
# 2 37.1800 120.0402 55.1053 0.0000 0.0000 0.0000
# 3 42.4410 55.1053 111.0734 0.0000 0.0000 0.0000
# 4 0.0000 0.0000 0.0000 35.0820 0.0000 0.0000
# 5 0.0000 0.0000 0.0000 0.0000 25.9167 0.0000
# 6 0.0000 0.0000 0.0000 0.0000 0.0000 34.4739
#
#
#
# Elastic Compliance Matrix: (Units=1/GPa)
#
#
# Indices 1 2 3 4 5 6 
#
# 1 0.024772 -0.004309 -0.007328 0.000000 0.000000 0.000000
# 2 -0.004309 0.011537 -0.004077 0.000000 0.000000 0.000000
# 3 -0.007328 -0.004077 0.013826 0.000000 0.000000 0.000000
# 4 0.000000 0.000000 0.000000 0.028505 0.000000 0.000000
# 5 0.000000 0.000000 0.000000 0.000000 0.038585 0.000000
# 6 0.000000 0.000000 0.000000 0.000000 0.000000 0.029007
#
#
# Mechanical properties :
#
#
# Convention : Reuss Voigt Hill
#
# Bulk Modulus (GPa) = 53.45571 62.21735 57.83653
# Shear Modulus (GPa) = 27.18951 29.47965 28.33458
#
# Velocity S-wave (km/s) = 3.76910 3.92463 3.84765
# Velocity P-wave (km/s) = 6.84626 7.28317 7.06809
#
# Compressibility (1/GPa) = 0.01870708
#
# Stress axis : x y z
#
# Youngs Moduli (GPa) = 40.36847 86.67942 72.32903
#
# Poissons Ratio (x) = 0.37348 0.53000
# Poissons Ratio (y) = 0.17394 0.29490
# Poissons Ratio (z) = 0.29581 0.35341
#
# Static dielectric constant tensor:
#      x y z
#    x 3.330530 0.000000 0.000000 
#    y 0.000000 3.738420 0.000000 
#    z 0.000000 0.000000 3.619980 
# 
# 
# High freq. dielectric constant tensor:
#      x y z
#    x 1.729320 0.000000 0.000000 
#    y 0.000000 1.753320 0.000000 
#    z 0.000000 0.000000 1.754660 
# 
# From -- ./inp_files/21479.got.cif
#   From: 2010.03.12/outbox.cif.g09.slc.cpg/sg59_11_cif.got.tgz:21479.got - 2010.04.16 16:29:54.
