data_PCOD8244325
_publ_section_title
;
Structure prediction by ZEFSAII (Michael W. Deem and Ramdas Pophale) SiO2 
 PCOD8244325
Probable space group: P M M N
;
_chemical_formula_sum "Si O2"
_cell_formula_units_Z 64
_cell_length_a 8.735237
_cell_length_b 18.503982
_cell_length_c 21.355712
_cell_angle_alpha 90.000000
_cell_angle_beta 90.000000
_cell_angle_gamma 90.000000
_cell_volume 3451.866135
_symmetry_space_group_name_H-M "P M M N"
_symmetry_group_IT_number 59
_space_group.IT_coordinate_system_code '2'
_symmetry_cell_setting 'orthorhombic'
loop_
_space_group_symop_operation_xyz
x,y,z
1/2-x,1/2-y,z
1/2+x,-y,-z
-x,1/2+y,-z
-x,-y,-z
1/2+x,1/2+y,-z
1/2-x,y,z
x,1/2-y,z
loop_
_atom_site_type_symbol
_atom_site_label
_atom_site_fract_x
_atom_site_fract_y
_atom_site_fract_z
Si Si1 0.429288 0.535885 0.686196
Si Si2 0.428170 0.166043 0.250503
Si Si3 0.568807 0.027911 0.563917
Si Si4 0.431634 0.078666 0.995839
Si Si5 0.569283 0.405240 0.751229
Si Si6 0.068539 0.329211 0.110430
Si Si7 0.069281 0.666179 0.118491
Si Si8 0.431103 0.828937 0.374116
O O1 0.250000 0.526401 0.676961
O O2 0.468974 0.618106 0.703757
O O3 0.511979 0.521003 0.620736
O O4 0.488053 0.482460 0.741093
O O5 0.250000 0.148463 0.261218
O O6 0.461550 0.250000 0.264367
O O7 0.478578 0.145526 0.179799
O O8 0.750000 0.022753 0.560801
O O9 0.514230 0.110959 0.575746
O O10 0.500000 0.000000 0.500000
O O11 0.250000 0.074253 0.995109
O O12 0.485430 0.122648 0.935663
O O13 0.496164 0.117226 0.058138
O O14 0.500000 0.000000 0.000000
O O15 0.750000 0.419011 0.749832
O O16 0.516896 0.369197 0.816032
O O17 0.517093 0.351855 0.695537
O O18 0.250000 0.324808 0.106616
O O19 0.999243 0.250000 0.096755
O O20 0.250000 0.658775 0.109533
O O21 0.018681 0.750000 0.117169
O O22 0.250000 0.823693 0.375500
O O23 0.502481 0.750000 0.390125
#
# Coordination Sequence:
#
# PCOD8244325 Si02
#       8
#     8   8   8   8   8   8   8   8
#     4  11  22  35  54  82 115 146 179 222 270 325
#     4   9  18  35  59  82 103 134 181 232 280 330
#     4  10  20  36  58  82 111 149 187 225 270 322
#     4  11  23  37  53  76 107 143 185 230 278 334
#     4   9  18  33  55  80 108 143 181 221 269 327
#     4   8  16  33  56  76  95 130 178 225 275 331
#     4  10  21  37  57  81 109 143 183 228 279 334
#     4   8  14  28  53  82 106 133 176 225 267 309
#
# _framework density 18.540696000000001
#
# number of rings (size 3 to 8) (size 9 to 14) (size 15 to 20)
#    0.000    2.500    0.000    4.125    1.750    3.000 
#    0.000    1.250    0.000   16.125    0.000    0.000 
#    0.000    0.000    0.000    0.000    0.000    0.000 
#
# Total GULP energy -793449.245593 kJ/mol
# GULP energy per Si atom -12397.644462 kJ/mol
# Density = 1.849850 g / cm^3
# Si number density = 18.540696 Si / 1000 Ang^3
#
#
#
# Elastic Constant Matrix: (Units=GPa)
#
#
# Indices 1 2 3 4 5 6 
#
# 1 56.6391 40.4252 41.2436 0.0000 0.0000 0.0000
# 2 40.4252 143.1311 86.6839 0.0000 0.0000 0.0000
# 3 41.2436 86.6839 128.2113 0.0000 0.0000 0.0000
# 4 0.0000 0.0000 0.0000 29.0066 0.0000 0.0000
# 5 0.0000 0.0000 0.0000 0.0000 29.9605 0.0000
# 6 0.0000 0.0000 0.0000 0.0000 0.0000 23.1889
#
#
#
# Elastic Compliance Matrix: (Units=1/GPa)
#
#
# Indices 1 2 3 4 5 6 
#
# 1 0.024090 -0.003574 -0.005333 0.000000 0.000000 0.000000
# 2 -0.003574 0.012361 -0.007208 0.000000 0.000000 0.000000
# 3 -0.005333 -0.007208 0.014388 0.000000 0.000000 0.000000
# 4 0.000000 0.000000 0.000000 0.034475 0.000000 0.000000
# 5 0.000000 0.000000 0.000000 0.000000 0.033377 0.000000
# 6 0.000000 0.000000 0.000000 0.000000 0.000000 0.043124
#
#
# Mechanical properties :
#
#
# Convention : Reuss Voigt Hill
#
# Bulk Modulus (GPa) = 53.73451 73.85409 63.79430
# Shear Modulus (GPa) = 24.96897 27.07311 26.02104
#
# Velocity S-wave (km/s) = 3.67374 3.82540 3.75034
# Velocity P-wave (km/s) = 6.85857 7.70919 7.29628
#
# Compressibility (1/GPa) = 0.01861002
#
# Stress axis : x y z
#
# Youngs Moduli (GPa) = 41.51114 80.89799 69.50085
#
# Poissons Ratio (x) = 0.28914 0.37064
# Poissons Ratio (y) = 0.14836 0.50094
# Poissons Ratio (z) = 0.22138 0.58309
#
# Static dielectric constant tensor:
#      x y z
#    x 3.149580 0.000000 0.000000 
#    y 0.000000 3.665220 0.000000 
#    z 0.000000 0.000000 3.438190 
# 
# 
# High freq. dielectric constant tensor:
#      x y z
#    x 1.694210 0.000000 0.000000 
#    y 0.000000 1.731020 0.000000 
#    z 0.000000 0.000000 1.716240 
# 
# From -- ./inp_files/29484.got.cif
#   From: 2010.03.12/outbox.cif.g09.slc.cpg/sg59_15_cif.got.tgz:29484.got - 2010.04.16 16:29:54.
