data_PCOD8244455
_publ_section_title
;
Structure prediction by ZEFSAII (Michael W. Deem and Ramdas Pophale) SiO2 
 PCOD8244455
Probable space group: P M M N
;
_chemical_formula_sum "Si O2"
_cell_formula_units_Z 48
_cell_length_a 8.431943
_cell_length_b 16.174186
_cell_length_c 17.162555
_cell_angle_alpha 90.000000
_cell_angle_beta 90.000000
_cell_angle_gamma 90.000000
_cell_volume 2340.626066
_symmetry_space_group_name_H-M "P M M N"
_symmetry_group_IT_number 59
_space_group.IT_coordinate_system_code '2'
_symmetry_cell_setting 'orthorhombic'
loop_
_space_group_symop_operation_xyz
x,y,z
1/2-x,1/2-y,z
1/2+x,-y,-z
-x,1/2+y,-z
-x,-y,-z
1/2+x,1/2+y,-z
1/2-x,y,z
x,1/2-y,z
loop_
_atom_site_type_symbol
_atom_site_label
_atom_site_fract_x
_atom_site_fract_y
_atom_site_fract_z
Si Si1 0.060878 0.250000 0.565115
Si Si2 0.433771 0.073248 0.155058
Si Si3 0.065802 0.101735 0.847600
Si Si4 0.938075 0.750000 0.259117
Si Si5 0.438631 0.342586 0.311123
Si Si6 0.937796 0.588421 0.527416
Si Si7 0.431043 0.844042 0.993670
O O1 0.250000 0.250000 0.562859
O O2 0.994415 0.250000 0.653278
O O3 0.997710 0.165990 0.523802
O O4 0.250000 0.094586 0.141786
O O5 0.503411 0.119836 0.230613
O O6 0.456459 0.976583 0.168772
O O7 0.532384 0.098676 0.079634
O O8 0.250000 0.080514 0.834114
O O9 0.001651 0.169574 0.786843
O O10 0.045679 0.133817 0.935414
O O11 0.750000 0.750000 0.259569
O O12 0.250000 0.341460 0.309971
O O13 0.505549 0.250000 0.320437
O O14 0.497443 0.397386 0.384044
O O15 0.750000 0.586910 0.522216
O O16 0.000000 0.500000 0.500000
O O17 0.250000 0.859229 0.019676
O O18 0.461292 0.750000 0.968143
#
# Coordination Sequence:
#
# PCOD8244455 Si02
#       7
#     4   8   8   4   8   8   8
#     4   9  18  36  61  86 115 156 198 237 287 353
#     4  11  23  37  58  86 117 151 193 237 285 340
#     4  11  22  39  60  83 115 150 192 238 287 343
#     4   9  20  36  57  84 111 146 192 237 283 339
#     4   9  18  36  59  84 114 153 196 235 279 342
#     4  10  20  36  61  88 118 154 196 241 292 349
#     4  11  23  40  61  85 115 149 191 237 288 341
#
# _framework density 20.507334
#
# number of rings (size 3 to 8) (size 9 to 14) (size 15 to 20)
#    0.000    1.833    1.667    2.500    2.333    1.667 
#    0.000    1.250    0.000    4.000    0.000    0.000 
#    0.000    0.000    0.000    0.000    0.000    0.000 
#
# Total GULP energy -595290.919993 kJ/mol
# GULP energy per Si atom -12401.894167 kJ/mol
# Density = 2.046066 g / cm^3
# Si number density = 20.507334 Si / 1000 Ang^3
#
#
#
# Elastic Constant Matrix: (Units=GPa)
#
#
# Indices 1 2 3 4 5 6 
#
# 1 28.2616 13.0216 11.4079 0.0000 0.0000 0.0000
# 2 13.0216 141.3753 55.3299 0.0000 0.0000 0.0000
# 3 11.4079 55.3299 152.0256 0.0000 0.0000 0.0000
# 4 0.0000 0.0000 0.0000 3.8364 0.0000 0.0000
# 5 0.0000 0.0000 0.0000 0.0000 10.3165 0.0000
# 6 0.0000 0.0000 0.0000 0.0000 0.0000 22.2700
#
#
#
# Elastic Compliance Matrix: (Units=1/GPa)
#
#
# Indices 1 2 3 4 5 6 
#
# 1 0.037374 -0.002734 -0.001809 0.000000 0.000000 0.000000
# 2 -0.002734 0.008448 -0.002870 0.000000 0.000000 0.000000
# 3 -0.001809 -0.002870 0.007758 0.000000 0.000000 0.000000
# 4 0.000000 0.000000 0.000000 0.260659 0.000000 0.000000
# 5 0.000000 0.000000 0.000000 0.000000 0.096933 0.000000
# 6 0.000000 0.000000 0.000000 0.000000 0.000000 0.044903
#
#
# Mechanical properties :
#
#
# Convention : Reuss Voigt Hill
#
# Bulk Modulus (GPa) = 25.80399 53.46458 39.63428
# Shear Modulus (GPa) = 10.33444 23.41146 16.87295
#
# Velocity S-wave (km/s) = 2.24729 3.38244 2.87152
# Velocity P-wave (km/s) = 4.39817 6.43289 5.51026
#
# Compressibility (1/GPa) = 0.03875369
#
# Stress axis : x y z
#
# Youngs Moduli (GPa) = 26.75671 118.36733 128.89917
#
# Poissons Ratio (x) = 0.32364 0.23323
# Poissons Ratio (y) = 0.07316 0.36989
# Poissons Ratio (z) = 0.04841 0.33966
#
# Static dielectric constant tensor:
#      x y z
#    x 3.273120 0.000000 0.000000 
#    y 0.000000 3.912430 0.000000 
#    z 0.000000 0.000000 3.930720 
# 
# 
# High freq. dielectric constant tensor:
#      x y z
#    x 1.766310 0.000000 0.000000 
#    y 0.000000 1.816150 0.000000 
#    z 0.000000 0.000000 1.813060 
# 
# From -- ./inp_files/25631.got.cif
#   From: 2010.03.12/outbox.cif.g09.slc.cpg/sg59_13_cif.got.tgz:25631.got - 2010.04.16 16:29:54.
