data_PCOD8244110
_publ_section_title
;
Structure prediction by ZEFSAII (Michael W. Deem and Ramdas Pophale) SiO2 
 PCOD8244110
Probable space group: P M M N
;
_chemical_formula_sum "Si O2"
_cell_formula_units_Z 64
_cell_length_a 8.847350
_cell_length_b 14.407660
_cell_length_c 24.587099
_cell_angle_alpha 90.000000
_cell_angle_beta 90.000000
_cell_angle_gamma 90.000000
_cell_volume 3134.107938
_symmetry_space_group_name_H-M "P M M N"
_symmetry_group_IT_number 59
_space_group.IT_coordinate_system_code '2'
_symmetry_cell_setting 'orthorhombic'
loop_
_space_group_symop_operation_xyz
x,y,z
1/2-x,1/2-y,z
1/2+x,-y,-z
-x,1/2+y,-z
-x,-y,-z
1/2+x,1/2+y,-z
1/2-x,y,z
x,1/2-y,z
loop_
_atom_site_type_symbol
_atom_site_label
_atom_site_fract_x
_atom_site_fract_y
_atom_site_fract_z
Si Si1 0.928724 0.467423 0.376899
Si Si2 0.071853 0.142272 0.279324
Si Si3 0.573305 0.145355 0.588020
Si Si4 0.425386 0.144048 0.471447
Si Si5 0.580263 0.148925 0.095890
Si Si6 0.425927 0.023042 0.176652
Si Si7 0.923821 0.854407 0.130834
Si Si8 0.078143 0.908191 0.020509
O O1 0.750000 0.478846 0.374034
O O2 0.983942 0.398630 0.330248
O O3 0.006168 0.569189 0.370107
O O4 0.976791 0.423662 0.434213
O O5 0.250000 0.130620 0.289067
O O6 0.028653 0.250000 0.271711
O O7 0.015871 0.085768 0.226449
O O8 0.750000 0.127106 0.578303
O O9 0.546885 0.250000 0.610854
O O10 0.484012 0.132156 0.532193
O O11 0.250000 0.114948 0.468793
O O12 0.446665 0.250000 0.451510
O O13 0.750000 0.117164 0.111749
O O14 0.543575 0.250000 0.120973
O O15 0.464346 0.074095 0.119942
O O16 0.567101 0.160182 0.030943
O O17 0.250000 0.006531 0.181011
O O18 0.503944 0.922335 0.175963
O O19 0.750000 0.880537 0.124346
O O20 0.947295 0.750000 0.152420
O O21 0.996992 0.863059 0.071689
O O22 0.250000 0.928479 0.037734
O O23 0.000000 0.000000 0.000000
#
# Coordination Sequence:
#
# PCOD8244110 Si02
#       8
#     8   8   8   8   8   8   8   8
#     4  12  24  37  58  88 121 158 200 246 297 355
#     4  10  23  44  66  89 118 151 191 241 296 353
#     4  10  21  38  60  86 119 160 204 248 294 348
#     4  10  20  35  57  86 123 164 203 247 297 350
#     4  10  21  36  56  83 117 154 189 230 284 346
#     4  11  23  40  64  89 114 148 192 244 297 350
#     4  11  24  41  61  86 119 159 200 243 292 348
#     4  11  21  35  57  86 120 158 196 236 287 345
#
# _framework density 20.420484999999999
#
# number of rings (size 3 to 8) (size 9 to 14) (size 15 to 20)
#    0.000    1.375    1.250    4.500    0.000    7.000 
#    0.000    0.625    0.000    0.750    0.000    0.000 
#    0.000    0.000    0.000    0.000    0.000    0.000 
#
# Total GULP energy -793699.851194 kJ/mol
# GULP energy per Si atom -12401.560175 kJ/mol
# Density = 2.037401 g / cm^3
# Si number density = 20.420485 Si / 1000 Ang^3
#
#
#
# Elastic Constant Matrix: (Units=GPa)
#
#
# Indices 1 2 3 4 5 6 
#
# 1 100.1616 59.2436 30.1463 0.0000 0.0000 0.0000
# 2 59.2436 140.5294 39.4745 0.0000 0.0000 0.0000
# 3 30.1463 39.4745 60.8229 0.0000 0.0000 0.0000
# 4 0.0000 0.0000 0.0000 33.8425 0.0000 0.0000
# 5 0.0000 0.0000 0.0000 0.0000 29.3071 0.0000
# 6 0.0000 0.0000 0.0000 0.0000 0.0000 31.4531
#
#
#
# Elastic Compliance Matrix: (Units=1/GPa)
#
#
# Indices 1 2 3 4 5 6 
#
# 1 0.013982 -0.004828 -0.003797 0.000000 0.000000 0.000000
# 2 -0.004828 0.010370 -0.004337 0.000000 0.000000 0.000000
# 3 -0.003797 -0.004337 0.021138 0.000000 0.000000 0.000000
# 4 0.000000 0.000000 0.000000 0.029549 0.000000 0.000000
# 5 0.000000 0.000000 0.000000 0.000000 0.034121 0.000000
# 6 0.000000 0.000000 0.000000 0.000000 0.000000 0.031793
#
#
# Mechanical properties :
#
#
# Convention : Reuss Voigt Hill
#
# Bulk Modulus (GPa) = 51.10889 62.13808 56.62348
# Shear Modulus (GPa) = 28.83530 30.43051 29.63290
#
# Velocity S-wave (km/s) = 3.76184 3.86449 3.81351
# Velocity P-wave (km/s) = 6.62957 7.09984 6.86873
#
# Compressibility (1/GPa) = 0.01956607
#
# Stress axis : x y z
#
# Youngs Moduli (GPa) = 71.51898 96.43582 47.30885
#
# Poissons Ratio (x) = 0.46560 0.17962
# Poissons Ratio (y) = 0.34530 0.20518
# Poissons Ratio (z) = 0.27154 0.41824
#
# Static dielectric constant tensor:
#      x y z
#    x 3.828520 0.000000 0.000000 
#    y 0.000000 4.020670 0.000000 
#    z 0.000000 0.000000 3.624780 
# 
# 
# High freq. dielectric constant tensor:
#      x y z
#    x 1.804810 0.000000 0.000000 
#    y 0.000000 1.817080 0.000000 
#    z 0.000000 0.000000 1.773210 
# 
# From -- ./inp_files/31411.got.cif
#   From: 2010.03.12/outbox.cif.g09.slc.cpg/sg59_16_cif.got.tgz:31411.got - 2010.04.16 16:29:54.
