data_PCOD8244540
_publ_section_title
;
Structure prediction by ZEFSAII (Michael W. Deem and Ramdas Pophale) SiO2 
 PCOD8244540
Probable space group: P M M N
;
_chemical_formula_sum "Si O2"
_cell_formula_units_Z 64
_cell_length_a 13.528666
_cell_length_b 18.542304
_cell_length_c 12.765346
_cell_angle_alpha 90.000000
_cell_angle_beta 90.000000
_cell_angle_gamma 90.000000
_cell_volume 3202.220715
_symmetry_space_group_name_H-M "P M M N"
_symmetry_group_IT_number 59
_space_group.IT_coordinate_system_code '2'
_symmetry_cell_setting 'orthorhombic'
loop_
_space_group_symop_operation_xyz
x,y,z
1/2-x,1/2-y,z
1/2+x,-y,-z
-x,1/2+y,-z
-x,-y,-z
1/2+x,1/2+y,-z
1/2-x,y,z
x,1/2-y,z
loop_
_atom_site_type_symbol
_atom_site_label
_atom_site_fract_x
_atom_site_fract_y
_atom_site_fract_z
Si Si1 0.549395 0.333147 0.511634
Si Si2 0.133186 0.830870 0.708433
Si Si3 0.132316 0.598304 0.284689
Si Si4 0.639158 0.667364 0.604765
Si Si5 0.867083 0.560443 0.783399
Si Si6 0.133361 0.903477 0.916152
Si Si7 0.866825 0.936358 0.019743
Si Si8 0.021308 0.667543 0.098567
O O1 0.576969 0.250000 0.536504
O O2 0.598650 0.359802 0.403773
O O3 0.589982 0.384671 0.601035
O O4 0.430783 0.342793 0.496831
O O5 0.250000 0.829777 0.710730
O O6 0.091133 0.750000 0.726245
O O7 0.093337 0.883611 0.800131
O O8 0.250000 0.608255 0.282722
O O9 0.098707 0.517591 0.256757
O O10 0.083295 0.652705 0.203148
O O11 0.750000 0.642599 0.573371
O O12 0.637742 0.750000 0.642269
O O13 0.596452 0.621628 0.702608
O O14 0.750000 0.561917 0.790956
O O15 0.907248 0.575080 0.900786
O O16 0.250000 0.894767 0.922751
O O17 0.089925 0.847930 0.999389
O O18 0.101109 0.984220 0.944097
O O19 0.750000 0.924264 0.029656
O O20 0.921151 0.879557 0.094702
O O21 0.987901 0.750000 0.098689
#
# Coordination Sequence:
#
# PCOD8244540 Si02
#       8
#     8   8   8   8   8   8   8   8
#     4  10  21  36  57  84 116 156 197 236 295 357
#     4   9  18  32  52  82 119 153 188 240 302 358
#     4  11  23  40  61  88 121 157 199 245 294 359
#     4   9  19  36  58  85 115 148 195 250 297 347
#     4   9  19  37  61  87 117 155 195 240 299 353
#     4  10  20  37  60  87 118 154 195 244 302 359
#     4  10  22  41  61  84 120 163 202 244 298 358
#     4  12  25  37  59  91 119 156 202 245 296 353
#
# _framework density 19.986131
#
# number of rings (size 3 to 8) (size 9 to 14) (size 15 to 20)
#    0.000    2.000    1.250    1.875    1.750    4.000 
#    0.000    1.875    0.000    4.500    0.000    0.000 
#    0.000    0.000    0.000    0.000    0.000    0.000 
#
# Total GULP energy -793719.227243 kJ/mol
# GULP energy per Si atom -12401.862926 kJ/mol
# Density = 1.994064 g / cm^3
# Si number density = 19.986131 Si / 1000 Ang^3
#
#
#
# Elastic Constant Matrix: (Units=GPa)
#
#
# Indices 1 2 3 4 5 6 
#
# 1 49.8562 32.2052 41.9168 0.0000 0.0000 0.0000
# 2 32.2052 98.5973 47.8640 0.0000 0.0000 0.0000
# 3 41.9168 47.8640 129.8707 0.0000 0.0000 0.0000
# 4 0.0000 0.0000 0.0000 28.3081 0.0000 0.0000
# 5 0.0000 0.0000 0.0000 0.0000 34.4262 0.0000
# 6 0.0000 0.0000 0.0000 0.0000 0.0000 24.8601
#
#
#
# Elastic Compliance Matrix: (Units=1/GPa)
#
#
# Indices 1 2 3 4 5 6 
#
# 1 0.030433 -0.006299 -0.007501 0.000000 0.000000 0.000000
# 2 -0.006299 0.013656 -0.003000 0.000000 0.000000 0.000000
# 3 -0.007501 -0.003000 0.011227 0.000000 0.000000 0.000000
# 4 0.000000 0.000000 0.000000 0.035326 0.000000 0.000000
# 5 0.000000 0.000000 0.000000 0.000000 0.029048 0.000000
# 6 0.000000 0.000000 0.000000 0.000000 0.000000 0.040225
#
#
# Mechanical properties :
#
#
# Convention : Reuss Voigt Hill
#
# Bulk Modulus (GPa) = 46.04939 58.03289 52.04114
# Shear Modulus (GPa) = 24.90628 27.94144 26.42386
#
# Velocity S-wave (km/s) = 3.53395 3.74310 3.64003
# Velocity P-wave (km/s) = 6.30416 6.91235 6.61525
#
# Compressibility (1/GPa) = 0.02171581
#
# Stress axis : x y z
#
# Youngs Moduli (GPa) = 32.85892 73.22761 89.07435
#
# Poissons Ratio (x) = 0.46127 0.66815
# Poissons Ratio (y) = 0.20698 0.26721
# Poissons Ratio (z) = 0.24647 0.21967
#
# Static dielectric constant tensor:
#      x y z
#    x 3.721360 0.000000 0.000000 
#    y 0.000000 3.656800 0.000000 
#    z 0.000000 0.000000 3.642340 
# 
# 
# High freq. dielectric constant tensor:
#      x y z
#    x 1.794280 0.000000 0.000000 
#    y 0.000000 1.772490 0.000000 
#    z 0.000000 0.000000 1.772530 
# 
# From -- ./inp_files/17197.got.cif
#   From: 2010.03.12/outbox.cif.g09.slc.cpg/sg59_9_cif.got.tgz:17197.got - 2010.04.16 16:29:54.
