data_PCOD8244440
_publ_section_title
;
Structure prediction by ZEFSAII (Michael W. Deem and Ramdas Pophale) SiO2 
 PCOD8244440
Probable space group: P M M N
;
_chemical_formula_sum "Si O2"
_cell_formula_units_Z 56
_cell_length_a 9.086989
_cell_length_b 22.176873
_cell_length_c 14.712504
_cell_angle_alpha 90.000000
_cell_angle_beta 90.000000
_cell_angle_gamma 90.000000
_cell_volume 2964.878533
_symmetry_space_group_name_H-M "P M M N"
_symmetry_group_IT_number 59
_space_group.IT_coordinate_system_code '2'
_symmetry_cell_setting 'orthorhombic'
loop_
_space_group_symop_operation_xyz
x,y,z
1/2-x,1/2-y,z
1/2+x,-y,-z
-x,1/2+y,-z
-x,-y,-z
1/2+x,1/2+y,-z
1/2-x,y,z
x,1/2-y,z
loop_
_atom_site_type_symbol
_atom_site_label
_atom_site_fract_x
_atom_site_fract_y
_atom_site_fract_z
Si Si1 0.915607 0.099422 0.202078
Si Si2 0.082053 0.181089 0.065018
Si Si3 0.581125 0.317739 0.691255
Si Si4 0.422118 0.556049 0.603322
Si Si5 0.576818 0.580385 0.422494
Si Si6 0.080130 0.862036 0.112299
Si Si7 0.416856 0.019448 0.910238
O O1 0.750000 0.125281 0.192766
O O2 0.962823 0.093862 0.306931
O O3 0.027017 0.142580 0.150220
O O4 0.922142 0.032515 0.163285
O O5 0.250000 0.163210 0.043956
O O6 0.067326 0.250000 0.094475
O O7 0.986768 0.170015 0.975567
O O8 0.750000 0.330992 0.665675
O O9 0.535964 0.250000 0.660534
O O10 0.482320 0.367348 0.642600
O O11 0.560328 0.320035 0.800117
O O12 0.250000 0.559843 0.581027
O O13 0.510317 0.588170 0.522776
O O14 0.467891 0.485737 0.615353
O O15 0.750000 0.588276 0.428397
O O16 0.250000 0.875917 0.090762
O O17 0.997106 0.923877 0.134216
O O18 0.250000 0.036638 0.935803
O O19 0.500000 0.000000 0.000000
#
# Coordination Sequence:
#
# PCOD8244440 Si02
#       7
#     8   8   8   8   8   8   8
#     4  10  21  37  58  82 111 148 188 228 274 332
#     4  11  24  39  55  77 108 147 190 237 283 329
#     4  10  22  39  58  82 114 153 195 236 281 340
#     4   9  19  37  60  86 115 147 183 227 282 342
#     4  10  20  36  60  89 116 144 181 232 287 340
#     4  11  22  37  58  83 112 151 193 233 280 336
#     4  11  21  34  54  84 117 149 185 230 282 332
#
# _framework density 18.887789999999999
#
# number of rings (size 3 to 8) (size 9 to 14) (size 15 to 20)
#    0.000    1.714    1.429    3.000    0.000    6.000 
#    0.000    0.714    0.000    0.857    0.000    0.000 
#    0.000    0.000    0.000    0.000    0.000    0.000 
#
# Total GULP energy -694534.299978 kJ/mol
# GULP energy per Si atom -12402.398214 kJ/mol
# Density = 1.884480 g / cm^3
# Si number density = 18.887790 Si / 1000 Ang^3
#
#
#
# Elastic Constant Matrix: (Units=GPa)
#
#
# Indices 1 2 3 4 5 6 
#
# 1 115.9466 48.3062 55.3209 0.0000 0.0000 0.0000
# 2 48.3062 89.7741 40.0862 0.0000 0.0000 0.0000
# 3 55.3209 40.0862 109.1231 0.0000 0.0000 0.0000
# 4 0.0000 0.0000 0.0000 23.5262 0.0000 0.0000
# 5 0.0000 0.0000 0.0000 0.0000 29.8429 0.0000
# 6 0.0000 0.0000 0.0000 0.0000 0.0000 30.5548
#
#
#
# Elastic Compliance Matrix: (Units=1/GPa)
#
#
# Indices 1 2 3 4 5 6 
#
# 1 0.012909 -0.004813 -0.004776 0.000000 0.000000 0.000000
# 2 -0.004813 0.015120 -0.003114 0.000000 0.000000 0.000000
# 3 -0.004776 -0.003114 0.012729 0.000000 0.000000 0.000000
# 4 0.000000 0.000000 0.000000 0.042506 0.000000 0.000000
# 5 0.000000 0.000000 0.000000 0.000000 0.033509 0.000000
# 6 0.000000 0.000000 0.000000 0.000000 0.000000 0.032728
#
#
# Mechanical properties :
#
#
# Convention : Reuss Voigt Hill
#
# Bulk Modulus (GPa) = 65.14369 66.91894 66.03132
# Shear Modulus (GPa) = 27.77409 28.19348 27.98379
#
# Velocity S-wave (km/s) = 3.83884 3.86772 3.85331
# Velocity P-wave (km/s) = 7.36299 7.44663 7.40493
#
# Compressibility (1/GPa) = 0.01535068
#
# Stress axis : x y z
#
# Youngs Moduli (GPa) = 77.46639 66.13944 78.56009
#
# Poissons Ratio (x) = 0.31836 0.37521
# Poissons Ratio (y) = 0.37288 0.24463
# Poissons Ratio (z) = 0.36998 0.20595
#
# Static dielectric constant tensor:
#      x y z
#    x 3.414040 0.000000 0.000000 
#    y 0.000000 3.370380 0.000000 
#    z 0.000000 0.000000 3.657490 
# 
# 
# High freq. dielectric constant tensor:
#      x y z
#    x 1.741930 0.000000 0.000000 
#    y 0.000000 1.729690 0.000000 
#    z 0.000000 0.000000 1.733230 
# 
# From -- ./inp_files/21004.got.cif
#   From: 2010.03.12/outbox.cif.g09.slc.cpg/sg59_11_cif.got.tgz:21004.got - 2010.04.16 16:29:54.
