data_PCOD8244262
_publ_section_title
;
Structure prediction by ZEFSAII (Michael W. Deem and Ramdas Pophale) SiO2 
 PCOD8244262
Probable space group: P M M N
;
_chemical_formula_sum "Si O2"
_cell_formula_units_Z 48
_cell_length_a 8.477276
_cell_length_b 14.811901
_cell_length_c 19.291867
_cell_angle_alpha 90.000000
_cell_angle_beta 90.000000
_cell_angle_gamma 90.000000
_cell_volume 2422.375040
_symmetry_space_group_name_H-M "P M M N"
_symmetry_group_IT_number 59
_space_group.IT_coordinate_system_code '2'
_symmetry_cell_setting 'orthorhombic'
loop_
_space_group_symop_operation_xyz
x,y,z
1/2-x,1/2-y,z
1/2+x,-y,-z
-x,1/2+y,-z
-x,-y,-z
1/2+x,1/2+y,-z
1/2-x,y,z
x,1/2-y,z
loop_
_atom_site_type_symbol
_atom_site_label
_atom_site_fract_x
_atom_site_fract_y
_atom_site_fract_z
Si Si1 0.433100 0.070692 0.317877
Si Si2 0.433685 0.974627 0.827000
Si Si3 0.567744 0.088302 0.032348
Si Si4 0.434191 0.250000 0.527458
Si Si5 0.432664 0.750000 0.623216
Si Si6 0.562011 0.945609 0.434255
Si Si7 0.933262 0.151439 0.890525
O O1 0.250000 0.087380 0.333194
O O2 0.457748 0.043964 0.238549
O O3 0.528540 0.161786 0.332353
O O4 0.494892 0.988571 0.364535
O O5 0.250000 0.962335 0.807092
O O6 0.492959 0.903711 0.887672
O O7 0.458945 0.077616 0.852971
O O8 0.750000 0.073325 0.043580
O O9 0.530435 0.163490 0.974122
O O10 0.500000 0.000000 0.000000
O O11 0.250000 0.250000 0.538908
O O12 0.466532 0.250000 0.446144
O O13 0.501731 0.341969 0.561849
O O14 0.250000 0.750000 0.603114
O O15 0.750000 0.949737 0.434054
O O16 0.500000 0.000000 0.500000
O O17 0.750000 0.124036 0.881013
O O18 0.968054 0.250000 0.857679
#
# Coordination Sequence:
#
# PCOD8244262 Si02
#       7
#     8   8   8   4   4   8   8
#     4  12  25  42  62  87 123 161 199 245 300 358
#     4  10  20  36  56  81 114 153 197 240 294 351
#     4   8  15  29  51  77 104 139 183 231 281 339
#     4  10  22  40  64  92 124 155 194 247 300 352
#     4  12  24  40  66  92 118 153 196 245 298 360
#     4  11  22  39  64  93 123 159 201 246 296 350
#     4   9  17  32  55  82 112 148 192 239 294 354
#
# _framework density 19.815263000000002
#
# number of rings (size 3 to 8) (size 9 to 14) (size 15 to 20)
#    0.000    1.833    1.667    3.250    0.000    1.667 
#    3.000    0.000    0.000    0.000    0.000    0.000 
#    0.000    0.000    0.000    0.000    0.000    0.000 
#
# Total GULP energy -594694.748202 kJ/mol
# GULP energy per Si atom -12389.473921 kJ/mol
# Density = 1.977016 g / cm^3
# Si number density = 19.815263 Si / 1000 Ang^3
#
#
#
# Elastic Constant Matrix: (Units=GPa)
#
#
# Indices 1 2 3 4 5 6 
#
# 1 33.7893 15.9561 5.9661 0.0000 0.0000 0.0000
# 2 15.9561 118.0941 37.7733 0.0000 0.0000 0.0000
# 3 5.9661 37.7733 112.2744 0.0000 0.0000 0.0000
# 4 0.0000 0.0000 0.0000 21.6747 0.0000 0.0000
# 5 0.0000 0.0000 0.0000 0.0000 27.7535 0.0000
# 6 0.0000 0.0000 0.0000 0.0000 0.0000 26.1310
#
#
#
# Elastic Compliance Matrix: (Units=1/GPa)
#
#
# Indices 1 2 3 4 5 6 
#
# 1 0.031620 -0.004185 -0.000272 0.000000 0.000000 0.000000
# 2 -0.004185 0.010043 -0.003156 0.000000 0.000000 0.000000
# 3 -0.000272 -0.003156 0.009983 0.000000 0.000000 0.000000
# 4 0.000000 0.000000 0.000000 0.046137 0.000000 0.000000
# 5 0.000000 0.000000 0.000000 0.000000 0.036032 0.000000
# 6 0.000000 0.000000 0.000000 0.000000 0.000000 0.038269
#
#
# Mechanical properties :
#
#
# Convention : Reuss Voigt Hill
#
# Bulk Modulus (GPa) = 27.45888 42.61653 35.03770
# Shear Modulus (GPa) = 25.06901 28.74266 26.90583
#
# Velocity S-wave (km/s) = 3.56073 3.81272 3.68888
# Velocity P-wave (km/s) = 5.54911 6.39813 5.98868
#
# Compressibility (1/GPa) = 0.03641809
#
# Stress axis : x y z
#
# Youngs Moduli (GPa) = 31.62600 99.57293 100.16878
#
# Poissons Ratio (x) = 0.41673 0.02726
# Poissons Ratio (y) = 0.13236 0.31617
# Poissons Ratio (z) = 0.00861 0.31429
#
# Static dielectric constant tensor:
#      x y z
#    x 3.618600 0.000000 0.000000 
#    y 0.000000 2.779640 0.000000 
#    z 0.000000 0.000000 3.862160 
# 
# 
# High freq. dielectric constant tensor:
#      x y z
#    x 1.770540 0.000000 0.000000 
#    y 0.000000 1.768450 0.000000 
#    z 0.000000 0.000000 1.772950 
# 
# From -- ./inp_files/25563.got.cif
#   From: 2010.03.12/outbox.cif.g09.slc.cpg/sg59_13_cif.got.tgz:25563.got - 2010.04.16 16:29:54.
