data_PCOD8244204
_publ_section_title
;
Structure prediction by ZEFSAII (Michael W. Deem and Ramdas Pophale) SiO2 
 PCOD8244204
Probable space group: P M M N
;
_chemical_formula_sum "Si O2"
_cell_formula_units_Z 40
_cell_length_a 8.664795
_cell_length_b 15.291152
_cell_length_c 14.307993
_cell_angle_alpha 90.000000
_cell_angle_beta 90.000000
_cell_angle_gamma 90.000000
_cell_volume 1895.733203
_symmetry_space_group_name_H-M "P M M N"
_symmetry_group_IT_number 59
_space_group.IT_coordinate_system_code '2'
_symmetry_cell_setting 'orthorhombic'
loop_
_space_group_symop_operation_xyz
x,y,z
1/2-x,1/2-y,z
1/2+x,-y,-z
-x,1/2+y,-z
-x,-y,-z
1/2+x,1/2+y,-z
1/2-x,y,z
x,1/2-y,z
loop_
_atom_site_type_symbol
_atom_site_label
_atom_site_fract_x
_atom_site_fract_y
_atom_site_fract_z
Si Si1 0.070875 0.648776 0.908373
Si Si2 0.425587 0.601094 0.287617
Si Si3 0.927484 0.904924 0.720949
Si Si4 0.569224 0.250000 0.394981
Si Si5 0.571350 0.750000 0.405435
Si Si6 0.574160 0.853373 0.100618
O O1 0.250000 0.632529 0.926171
O O2 0.033949 0.750000 0.888446
O O3 0.016375 0.594916 0.819007
O O4 0.980440 0.614242 0.999065
O O5 0.250000 0.633561 0.300480
O O6 0.444039 0.501550 0.323529
O O7 0.538853 0.663519 0.345162
O O8 0.467674 0.602529 0.178415
O O9 0.750000 0.880311 0.739012
O O10 0.998675 0.837152 0.648539
O O11 0.750000 0.250000 0.375108
O O12 0.536713 0.250000 0.504596
O O13 0.750000 0.750000 0.435147
O O14 0.750000 0.882840 0.115906
O O15 0.554491 0.750000 0.108758
#
# Coordination Sequence:
#
# PCOD8244204 Si02
#       6
#     8   8   8   4   4   8
#     4  10  20  35  59  91 127 171 215 259 310 368
#     4  11  24  42  66  96 130 168 210 259 314 375
#     4  11  24  42  66  96 130 168 210 259 314 375
#     4  12  26  46  71  96 125 164 206 260 320 376
#     4  12  26  46  71  96 125 164 206 260 320 376
#     4  10  20  35  59  91 127 171 215 259 310 368
#
# _framework density 21.100014999999999
#
# number of rings (size 3 to 8) (size 9 to 14) (size 15 to 20)
#    0.000    1.200    2.000    4.200    0.000    6.400 
#    0.000    0.000    0.000    0.000    0.000    0.000 
#    0.000    0.000    0.000    0.000    0.000    0.000 
#
# Total GULP energy -496262.281311 kJ/mol
# GULP energy per Si atom -12406.557033 kJ/mol
# Density = 2.105199 g / cm^3
# Si number density = 21.100015 Si / 1000 Ang^3
#
#
#
# Elastic Constant Matrix: (Units=GPa)
#
#
# Indices 1 2 3 4 5 6 
#
# 1 84.2470 34.4901 6.0693 0.0000 0.0000 0.0000
# 2 34.4901 97.2213 33.9512 0.0000 0.0000 0.0000
# 3 6.0693 33.9512 95.4974 0.0000 0.0000 0.0000
# 4 0.0000 0.0000 0.0000 4.3079 0.0000 0.0000
# 5 0.0000 0.0000 0.0000 0.0000 42.1483 0.0000
# 6 0.0000 0.0000 0.0000 0.0000 0.0000 20.5738
#
#
#
# Elastic Compliance Matrix: (Units=1/GPa)
#
#
# Indices 1 2 3 4 5 6 
#
# 1 0.013970 -0.005304 0.000998 0.000000 0.000000 0.000000
# 2 -0.005304 0.013758 -0.004554 0.000000 0.000000 0.000000
# 3 0.000998 -0.004554 0.012027 0.000000 0.000000 0.000000
# 4 0.000000 0.000000 0.000000 0.232133 0.000000 0.000000
# 5 0.000000 0.000000 0.000000 0.000000 0.023726 0.000000
# 6 0.000000 0.000000 0.000000 0.000000 0.000000 0.048606
#
#
# Mechanical properties :
#
#
# Convention : Reuss Voigt Hill
#
# Bulk Modulus (GPa) = 45.38507 47.33187 46.35847
# Shear Modulus (GPa) = 13.53970 26.90299 20.22135
#
# Velocity S-wave (km/s) = 2.53591 3.57462 3.09909
# Velocity P-wave (km/s) = 5.48914 6.28634 5.90122
#
# Compressibility (1/GPa) = 0.02203368
#
# Stress axis : x y z
#
# Youngs Moduli (GPa) = 71.58450 72.68536 83.14525
#
# Poissons Ratio (x) = 0.38555 -0.08298
# Poissons Ratio (y) = 0.37971 0.37865
# Poissons Ratio (z) = -0.07144 0.33102
#
# Static dielectric constant tensor:
#      x y z
#    x 3.886120 0.000000 0.000000 
#    y 0.000000 3.636310 0.000000 
#    z 0.000000 0.000000 3.734110 
# 
# 
# High freq. dielectric constant tensor:
#      x y z
#    x 1.840430 0.000000 0.000000 
#    y 0.000000 1.828950 0.000000 
#    z 0.000000 0.000000 1.822340 
# 
# From -- ./inp_files/19858.got.cif
#   From: 2010.03.12/outbox.cif.g09.slc.cpg/sg59_10_cif.got.tgz:19858.got - 2010.04.16 16:29:54.
