data_PCOD8244831
_publ_section_title
;
Structure prediction by ZEFSAII (Michael W. Deem and Ramdas Pophale) SiO2 
 PCOD8244831
Probable space group: P M M N
;
_chemical_formula_sum "Si O2"
_cell_formula_units_Z 56
_cell_length_a 18.596452
_cell_length_b 13.093171
_cell_length_c 11.974048
_cell_angle_alpha 90.000000
_cell_angle_beta 90.000000
_cell_angle_gamma 90.000000
_cell_volume 2915.519350
_symmetry_space_group_name_H-M "P M M N"
_symmetry_group_IT_number 59
_space_group.IT_coordinate_system_code '2'
_symmetry_cell_setting 'orthorhombic'
loop_
_space_group_symop_operation_xyz
x,y,z
1/2-x,1/2-y,z
1/2+x,-y,-z
-x,1/2+y,-z
-x,-y,-z
1/2+x,1/2+y,-z
1/2-x,y,z
x,1/2-y,z
loop_
_atom_site_type_symbol
_atom_site_label
_atom_site_fract_x
_atom_site_fract_y
_atom_site_fract_z
Si Si1 0.042755 0.867931 0.625633
Si Si2 0.332389 0.932908 0.465610
Si Si3 0.443865 0.628734 0.059416
Si Si4 0.667637 0.635742 0.268543
Si Si5 0.605015 0.862847 0.507617
Si Si6 0.065827 0.991226 0.843834
Si Si7 0.828152 0.366791 0.772216
O O1 0.045819 0.750000 0.662513
O O2 0.117596 0.897979 0.567300
O O3 0.977556 0.887566 0.539253
O O4 0.031641 0.937989 0.734615
O O5 0.250000 0.909120 0.498225
O O6 0.356232 0.873070 0.354745
O O7 0.342476 0.053353 0.438344
O O8 0.453158 0.750000 0.067239
O O9 0.516662 0.577898 0.101550
O O10 0.382864 0.582819 0.141283
O O11 0.421573 0.597666 0.934291
O O12 0.750000 0.610597 0.303585
O O13 0.663634 0.750000 0.216382
O O14 0.614170 0.630954 0.374304
O O15 0.640681 0.549461 0.182578
O O16 0.627095 0.750000 0.551349
O O17 0.750000 0.421374 0.781120
O O18 0.820558 0.250000 0.806531
#
# Coordination Sequence:
#
# PCOD8244831 Si02
#       7
#     8   8   8   8   8   8   8
#     4  11  23  36  54  84 119 151 188 234 291 354
#     4  11  21  35  56  83 117 151 186 234 291 349
#     4  10  22  39  59  82 109 146 194 239 279 332
#     4  10  21  37  57  84 115 147 189 235 281 340
#     4  10  21  35  54  81 113 152 189 229 277 338
#     4  11  22  37  59  83 112 150 188 237 293 337
#     4   9  19  35  55  79 107 143 186 227 269 328
#
# _framework density 19.207554999999999
#
# number of rings (size 3 to 8) (size 9 to 14) (size 15 to 20)
#    0.000    1.714    1.429    3.000    2.000    2.286 
#    0.000    0.000    0.000    3.429    0.000    0.000 
#    0.000    0.000    0.000    0.000    0.000    0.000 
#
# Total GULP energy -694217.461197 kJ/mol
# GULP energy per Si atom -12396.740379 kJ/mol
# Density = 1.916384 g / cm^3
# Si number density = 19.207555 Si / 1000 Ang^3
#
#
#
# Elastic Constant Matrix: (Units=GPa)
#
#
# Indices 1 2 3 4 5 6 
#
# 1 79.3373 30.8896 51.6462 0.0000 0.0000 0.0000
# 2 30.8896 87.0595 28.1459 0.0000 0.0000 0.0000
# 3 51.6462 28.1459 100.5575 0.0000 0.0000 0.0000
# 4 0.0000 0.0000 0.0000 27.4358 0.0000 0.0000
# 5 0.0000 0.0000 0.0000 0.0000 24.9977 0.0000
# 6 0.0000 0.0000 0.0000 0.0000 0.0000 25.4163
#
#
#
# Elastic Compliance Matrix: (Units=1/GPa)
#
#
# Indices 1 2 3 4 5 6 
#
# 1 0.020242 -0.004201 -0.009221 0.000000 0.000000 0.000000
# 2 -0.004201 0.013501 -0.001621 0.000000 0.000000 0.000000
# 3 -0.009221 -0.001621 0.015134 0.000000 0.000000 0.000000
# 4 0.000000 0.000000 0.000000 0.036449 0.000000 0.000000
# 5 0.000000 0.000000 0.000000 0.000000 0.040004 0.000000
# 6 0.000000 0.000000 0.000000 0.000000 0.000000 0.039345
#
#
# Mechanical properties :
#
#
# Convention : Reuss Voigt Hill
#
# Bulk Modulus (GPa) = 53.21535 54.25752 53.73644
# Shear Modulus (GPa) = 24.87257 25.98815 25.43036
#
# Velocity S-wave (km/s) = 3.60243 3.68233 3.64260
# Velocity P-wave (km/s) = 6.71334 6.81093 6.76231
#
# Compressibility (1/GPa) = 0.01879157
#
# Stress axis : x y z
#
# Youngs Moduli (GPa) = 49.40111 74.06760 66.07646
#
# Poissons Ratio (x) = 0.31118 0.60926
# Poissons Ratio (y) = 0.20755 0.10712
# Poissons Ratio (z) = 0.45551 0.12008
#
# Static dielectric constant tensor:
#      x y z
#    x 3.563660 0.000000 0.000000 
#    y 0.000000 3.781140 0.000000 
#    z 0.000000 0.000000 3.414260 
# 
# 
# High freq. dielectric constant tensor:
#      x y z
#    x 1.745640 0.000000 0.000000 
#    y 0.000000 1.756820 0.000000 
#    z 0.000000 0.000000 1.730000 
# 
# From -- ./inp_files/16992.got.cif
#   From: 2010.03.12/outbox.cif.g09.slc.cpg/sg59_9_cif.got.tgz:16992.got - 2010.04.16 16:29:54.
