data_PCOD8244243
_publ_section_title
;
Structure prediction by ZEFSAII (Michael W. Deem and Ramdas Pophale) SiO2 
 PCOD8244243
Probable space group: P M M N
;
_chemical_formula_sum "Si O2"
_cell_formula_units_Z 40
_cell_length_a 9.985201
_cell_length_b 9.219029
_cell_length_c 23.614111
_cell_angle_alpha 90.000000
_cell_angle_beta 90.000000
_cell_angle_gamma 90.000000
_cell_volume 2173.770011
_symmetry_space_group_name_H-M "P M M N"
_symmetry_group_IT_number 59
_space_group.IT_coordinate_system_code '2'
_symmetry_cell_setting 'orthorhombic'
loop_
_space_group_symop_operation_xyz
x,y,z
1/2-x,1/2-y,z
1/2+x,-y,-z
-x,1/2+y,-z
-x,-y,-z
1/2+x,1/2+y,-z
1/2-x,y,z
x,1/2-y,z
loop_
_atom_site_type_symbol
_atom_site_label
_atom_site_fract_x
_atom_site_fract_y
_atom_site_fract_z
Si Si1 0.904570 0.080143 0.543643
Si Si2 0.250000 0.920296 0.076763
Si Si3 0.097904 0.582984 0.757747
Si Si4 0.473499 0.419714 0.870987
Si Si5 0.750000 0.580700 0.041271
Si Si6 0.403339 0.417424 0.341180
O O1 0.750000 0.051511 0.526826
O O2 0.937837 0.250000 0.543853
O O3 0.935523 0.016511 0.605221
O O4 0.000000 0.000000 0.500000
O O5 0.250000 0.750000 0.064810
O O6 0.377160 0.968793 0.113482
O O7 0.250000 0.995633 0.016663
O O8 0.250000 0.559425 0.736845
O O9 0.067910 0.750000 0.770871
O O10 0.073714 0.496937 0.814741
O O11 0.998451 0.526321 0.709060
O O12 0.462026 0.250000 0.859254
O O13 0.380230 0.465443 0.923270
O O14 0.750000 0.750000 0.027154
O O15 0.250000 0.436656 0.321436
O O16 0.433967 0.250000 0.356777
#
# Coordination Sequence:
#
# PCOD8244243 Si02
#       6
#     8   4   8   8   4   8
#     4  10  21  37  58  86 118 153 192 232 278 330
#     4  10  22  36  54  80 106 136 175 218 267 322
#     4  10  21  36  55  80 108 141 182 225 271 322
#     4  10  21  37  54  77 108 139 174 219 271 323
#     4  10  20  36  56  76 104 140 175 216 267 324
#     4   9  19  36  56  79 111 148 185 229 276 322
#
# _framework density 18.401209999999999
#
# number of rings (size 3 to 8) (size 9 to 14) (size 15 to 20)
#    0.000    2.200    1.000    1.200    1.400    4.400 
#    0.000    2.000    0.000    0.000    0.000    0.000 
#    0.000    0.000    0.000    0.000    0.000    0.000 
#
# Total GULP energy -496128.063827 kJ/mol
# GULP energy per Si atom -12403.201596 kJ/mol
# Density = 1.835933 g / cm^3
# Si number density = 18.401210 Si / 1000 Ang^3
#
#
#
# Elastic Constant Matrix: (Units=GPa)
#
#
# Indices 1 2 3 4 5 6 
#
# 1 110.0048 35.7634 48.4539 0.0000 0.0000 0.0000
# 2 35.7634 63.5356 47.8213 0.0000 0.0000 0.0000
# 3 48.4539 47.8213 99.1147 0.0000 0.0000 0.0000
# 4 0.0000 0.0000 0.0000 33.3146 0.0000 0.0000
# 5 0.0000 0.0000 0.0000 0.0000 23.9775 0.0000
# 6 0.0000 0.0000 0.0000 0.0000 0.0000 19.7388
#
#
#
# Elastic Compliance Matrix: (Units=1/GPa)
#
#
# Indices 1 2 3 4 5 6 
#
# 1 0.012117 -0.003709 -0.004134 0.000000 0.000000 0.000000
# 2 -0.003709 0.025849 -0.010659 0.000000 0.000000 0.000000
# 3 -0.004134 -0.010659 0.017253 0.000000 0.000000 0.000000
# 4 0.000000 0.000000 0.000000 0.030017 0.000000 0.000000
# 5 0.000000 0.000000 0.000000 0.000000 0.041706 0.000000
# 6 0.000000 0.000000 0.000000 0.000000 0.000000 0.050662
#
#
# Mechanical properties :
#
#
# Convention : Reuss Voigt Hill
#
# Bulk Modulus (GPa) = 54.89702 59.63694 57.26698
# Shear Modulus (GPa) = 22.65722 24.78061 23.71891
#
# Velocity S-wave (km/s) = 3.51278 3.67370 3.59414
# Velocity P-wave (km/s) = 6.80815 7.10453 6.95792
#
# Compressibility (1/GPa) = 0.01821593
#
# Stress axis : x y z
#
# Youngs Moduli (GPa) = 82.52626 38.68550 57.96054
#
# Poissons Ratio (x) = 0.14348 0.23962
# Poissons Ratio (y) = 0.30609 0.61779
# Poissons Ratio (z) = 0.34118 0.41234
#
# Static dielectric constant tensor:
#      x y z
#    x 3.808990 0.000000 0.000000 
#    y 0.000000 3.348560 0.000000 
#    z 0.000000 0.000000 3.291270 
# 
# 
# High freq. dielectric constant tensor:
#      x y z
#    x 1.729240 0.000000 0.000000 
#    y 0.000000 1.710150 0.000000 
#    z 0.000000 0.000000 1.713690 
# 
# From -- ./inp_files/31164.got.cif
#   From: 2010.03.12/outbox.cif.g09.slc.cpg/sg59_16_cif.got.tgz:31164.got - 2010.04.16 16:29:54.
