data_PCOD8244837
_publ_section_title
;
Structure prediction by ZEFSAII (Michael W. Deem and Ramdas Pophale) SiO2 
 PCOD8244837
Probable space group: P M M N
;
_chemical_formula_sum "Si O2"
_cell_formula_units_Z 48
_cell_length_a 8.441638
_cell_length_b 19.254426
_cell_length_c 15.214344
_cell_angle_alpha 90.000000
_cell_angle_beta 90.000000
_cell_angle_gamma 90.000000
_cell_volume 2472.922650
_symmetry_space_group_name_H-M "P M M N"
_symmetry_group_IT_number 59
_space_group.IT_coordinate_system_code '2'
_symmetry_cell_setting 'orthorhombic'
loop_
_space_group_symop_operation_xyz
x,y,z
1/2-x,1/2-y,z
1/2+x,-y,-z
-x,1/2+y,-z
-x,-y,-z
1/2+x,1/2+y,-z
1/2-x,y,z
x,1/2-y,z
loop_
_atom_site_type_symbol
_atom_site_label
_atom_site_fract_x
_atom_site_fract_y
_atom_site_fract_z
Si Si1 0.064738 0.084524 0.229641
Si Si2 0.563908 0.935143 0.267664
Si Si3 0.065568 0.830950 0.611059
Si Si4 0.561769 0.827396 0.932098
Si Si5 0.061373 0.172116 0.872666
Si Si6 0.061506 0.072950 0.534795
O O1 0.250000 0.069462 0.222542
O O2 0.995576 0.120098 0.141273
O O3 0.034752 0.134726 0.311520
O O4 0.975070 0.012814 0.240238
O O5 0.750000 0.925959 0.266491
O O6 0.487070 0.880847 0.198495
O O7 0.501183 0.918482 0.365189
O O8 0.250000 0.844817 0.628392
O O9 0.024678 0.750000 0.607109
O O10 0.015102 0.864184 0.518779
O O11 0.750000 0.826056 0.927274
O O12 0.496795 0.750000 0.912022
O O13 0.505349 0.850747 0.029454
O O14 0.250000 0.170902 0.869175
O O15 0.000580 0.250000 0.851783
O O16 0.250000 0.075240 0.526785
O O17 0.000000 0.000000 0.500000
#
# Coordination Sequence:
#
# PCOD8244837 Si02
#       6
#     8   8   8   8   8   8
#     4  11  21  33  54  82 112 147 184 223 271 332
#     4  10  21  35  55  82 110 141 180 227 277 330
#     4  11  24  40  58  82 112 145 185 234 283 330
#     4   8  15  29  50  77 108 141 180 225 271 321
#     4   8  15  31  54  78 106 141 181 226 273 324
#     4  11  22  37  58  81 111 149 187 229 277 332
#
# _framework density 19.410231
#
# number of rings (size 3 to 8) (size 9 to 14) (size 15 to 20)
#    0.000    2.167    1.667    3.000    0.000    4.000 
#    0.000    1.667    0.000    1.500    0.000    4.667 
#    0.000    0.000    0.000    0.000    0.000    0.000 
#
# Total GULP energy -595155.335316 kJ/mol
# GULP energy per Si atom -12399.069486 kJ/mol
# Density = 1.936605 g / cm^3
# Si number density = 19.410231 Si / 1000 Ang^3
#
#
#
# Elastic Constant Matrix: (Units=GPa)
#
#
# Indices 1 2 3 4 5 6 
#
# 1 5.4695 -3.1610 2.1343 0.0000 0.0000 0.0000
# 2 -3.1610 122.7686 86.4181 0.0000 0.0000 0.0000
# 3 2.1343 86.4181 178.9916 0.0000 0.0000 0.0000
# 4 0.0000 0.0000 0.0000 47.0712 0.0000 0.0000
# 5 0.0000 0.0000 0.0000 0.0000 16.6610 0.0000
# 6 0.0000 0.0000 0.0000 0.0000 0.0000 15.4084
#
#
#
# Elastic Compliance Matrix: (Units=1/GPa)
#
#
# Indices 1 2 3 4 5 6 
#
# 1 0.191304 0.009894 -0.007058 0.000000 0.000000 0.000000
# 2 0.009894 0.012850 -0.006322 0.000000 0.000000 0.000000
# 3 -0.007058 -0.006322 0.008723 0.000000 0.000000 0.000000
# 4 0.000000 0.000000 0.000000 0.021244 0.000000 0.000000
# 5 0.000000 0.000000 0.000000 0.000000 0.060020 0.000000
# 6 0.000000 0.000000 0.000000 0.000000 0.000000 0.064900
#
#
# Mechanical properties :
#
#
# Convention : Reuss Voigt Hill
#
# Bulk Modulus (GPa) = 4.85662 53.11250 28.98456
# Shear Modulus (GPa) = 11.50352 30.61734 21.06043
#
# Velocity S-wave (km/s) = 2.43709 3.97594 3.29753
# Velocity P-wave (km/s) = 3.22904 6.96419 5.42801
#
# Compressibility (1/GPa) = 0.20590462
#
# Stress axis : x y z
#
# Youngs Moduli (GPa) = 5.22729 77.81848 114.63398
#
# Poissons Ratio (x) = -0.76991 0.80907
# Poissons Ratio (y) = -0.05172 0.72474
# Poissons Ratio (z) = 0.03689 0.49199
#
# Static dielectric constant tensor:
#      x y z
#    x 3.213180 0.000000 0.000000 
#    y 0.000000 3.674220 0.000000 
#    z 0.000000 0.000000 4.088380 
# 
# 
# High freq. dielectric constant tensor:
#      x y z
#    x 1.724830 0.000000 0.000000 
#    y 0.000000 1.758910 0.000000 
#    z 0.000000 0.000000 1.772170 
# 
# From -- ./inp_files/20311.got.cif
#   From: 2010.03.12/outbox.cif.g09.slc.cpg/sg59_11_cif.got.tgz:20311.got - 2010.04.16 16:29:54.
