data_PCOD8244144
_publ_section_title
;
Structure prediction by ZEFSAII (Michael W. Deem and Ramdas Pophale) SiO2 
 PCOD8244144
Probable space group: P M M N
;
_chemical_formula_sum "Si O2"
_cell_formula_units_Z 64
_cell_length_a 8.863376
_cell_length_b 18.362452
_cell_length_c 21.017239
_cell_angle_alpha 90.000000
_cell_angle_beta 90.000000
_cell_angle_gamma 90.000000
_cell_volume 3420.625348
_symmetry_space_group_name_H-M "P M M N"
_symmetry_group_IT_number 59
_space_group.IT_coordinate_system_code '2'
_symmetry_cell_setting 'orthorhombic'
loop_
_space_group_symop_operation_xyz
x,y,z
1/2-x,1/2-y,z
1/2+x,-y,-z
-x,1/2+y,-z
-x,-y,-z
1/2+x,1/2+y,-z
1/2-x,y,z
x,1/2-y,z
loop_
_atom_site_type_symbol
_atom_site_label
_atom_site_fract_x
_atom_site_fract_y
_atom_site_fract_z
Si Si1 0.071520 0.578384 0.506798
Si Si2 0.573699 0.833572 0.253147
Si Si3 0.425350 0.667443 0.880697
Si Si4 0.927038 0.034136 0.805967
Si Si5 0.574098 0.964862 0.939100
Si Si6 0.427634 0.334480 0.378233
Si Si7 0.426653 0.599776 0.745839
Si Si8 0.922013 0.333945 0.616810
O O1 0.250000 0.572213 0.513721
O O2 0.023057 0.621751 0.444012
O O3 0.000000 0.500000 0.500000
O O4 0.008272 0.619435 0.567688
O O5 0.750000 0.846670 0.243987
O O6 0.528314 0.750000 0.239390
O O7 0.482424 0.883341 0.203731
O O8 0.528376 0.855580 0.324654
O O9 0.250000 0.656147 0.894823
O O10 0.476609 0.750000 0.892706
O O11 0.516467 0.617367 0.929706
O O12 0.462552 0.647143 0.808157
O O13 0.750000 0.027158 0.793357
O O14 0.969936 0.012695 0.877755
O O15 0.013350 0.982179 0.756083
O O16 0.750000 0.962332 0.950727
O O17 0.500000 0.000000 0.000000
O O18 0.250000 0.347087 0.382903
O O19 0.470753 0.250000 0.386455
O O20 0.484378 0.362060 0.310507
O O21 0.250000 0.597149 0.729830
O O22 0.750000 0.352911 0.635600
O O23 0.939523 0.250000 0.598613
#
# Coordination Sequence:
#
# PCOD8244144 Si02
#       8
#     8   8   8   8   8   8   8   8
#     4  11  24  40  58  80 109 146 188 236 285 337
#     4  10  21  36  57  85 113 143 184 233 283 334
#     4   9  18  34  57  85 116 149 187 231 278 331
#     4  10  21  37  58  84 115 149 186 229 278 332
#     4  10  21  37  58  84 114 152 192 231 276 326
#     4  11  24  40  58  82 114 150 187 231 283 337
#     4  10  20  35  58  86 115 149 187 230 280 333
#     4   9  19  37  59  79 102 139 184 230 282 338
#
# _framework density 18.710031000000001
#
# number of rings (size 3 to 8) (size 9 to 14) (size 15 to 20)
#    0.000    2.000    0.000    3.000    1.750    6.000 
#    0.000    1.875    0.000    0.750    0.000    0.000 
#    0.000    0.000    0.000    0.000    0.000    0.000 
#
# Total GULP energy -793883.520037 kJ/mol
# GULP energy per Si atom -12404.430001 kJ/mol
# Density = 1.866745 g / cm^3
# Si number density = 18.710031 Si / 1000 Ang^3
#
#
#
# Elastic Constant Matrix: (Units=GPa)
#
#
# Indices 1 2 3 4 5 6 
#
# 1 71.6364 54.1247 48.9103 0.0000 0.0000 0.0000
# 2 54.1247 134.9880 76.3403 0.0000 0.0000 0.0000
# 3 48.9103 76.3403 101.2717 0.0000 0.0000 0.0000
# 4 0.0000 0.0000 0.0000 31.6513 0.0000 0.0000
# 5 0.0000 0.0000 0.0000 0.0000 33.2136 0.0000
# 6 0.0000 0.0000 0.0000 0.0000 0.0000 35.5429
#
#
#
# Elastic Compliance Matrix: (Units=1/GPa)
#
#
# Indices 1 2 3 4 5 6 
#
# 1 0.022640 -0.005045 -0.007132 0.000000 0.000000 0.000000
# 2 -0.005045 0.014037 -0.008145 0.000000 0.000000 0.000000
# 3 -0.007132 -0.008145 0.019459 0.000000 0.000000 0.000000
# 4 0.000000 0.000000 0.000000 0.031594 0.000000 0.000000
# 5 0.000000 0.000000 0.000000 0.000000 0.030108 0.000000
# 6 0.000000 0.000000 0.000000 0.000000 0.000000 0.028135
#
#
# Mechanical properties :
#
#
# Convention : Reuss Voigt Hill
#
# Bulk Modulus (GPa) = 64.54425 74.07188 69.30807
# Shear Modulus (GPa) = 26.07161 28.64960 27.36060
#
# Velocity S-wave (km/s) = 3.73695 3.91735 3.82822
# Velocity P-wave (km/s) = 7.29327 7.75476 7.52755
#
# Compressibility (1/GPa) = 0.01549325
#
# Stress axis : x y z
#
# Youngs Moduli (GPa) = 44.16978 71.24023 51.39140
#
# Poissons Ratio (x) = 0.35938 0.36650
# Poissons Ratio (y) = 0.22282 0.41858
# Poissons Ratio (z) = 0.31500 0.58025
#
# Static dielectric constant tensor:
#      x y z
#    x 3.513910 0.000000 0.000000 
#    y 0.000000 3.604400 0.000000 
#    z 0.000000 0.000000 3.353840 
# 
# 
# High freq. dielectric constant tensor:
#      x y z
#    x 1.737040 0.000000 0.000000 
#    y 0.000000 1.736180 0.000000 
#    z 0.000000 0.000000 1.719450 
# 
# From -- ./inp_files/29596.got.cif
#   From: 2010.03.12/outbox.cif.g09.slc.cpg/sg59_15_cif.got.tgz:29596.got - 2010.04.16 16:29:54.
