data_PCOD8244407
_publ_section_title
;
Structure prediction by ZEFSAII (Michael W. Deem and Ramdas Pophale) SiO2 
 PCOD8244407
Probable space group: P M M N
;
_chemical_formula_sum "Si O2"
_cell_formula_units_Z 48
_cell_length_a 8.789564
_cell_length_b 16.207228
_cell_length_c 17.933176
_cell_angle_alpha 90.000000
_cell_angle_beta 90.000000
_cell_angle_gamma 90.000000
_cell_volume 2554.661042
_symmetry_space_group_name_H-M "P M M N"
_symmetry_group_IT_number 59
_space_group.IT_coordinate_system_code '2'
_symmetry_cell_setting 'orthorhombic'
loop_
_space_group_symop_operation_xyz
x,y,z
1/2-x,1/2-y,z
1/2+x,-y,-z
-x,1/2+y,-z
-x,-y,-z
1/2+x,1/2+y,-z
1/2-x,y,z
x,1/2-y,z
loop_
_atom_site_type_symbol
_atom_site_label
_atom_site_fract_x
_atom_site_fract_y
_atom_site_fract_z
Si Si1 0.929095 0.750000 0.450561
Si Si2 0.930555 0.584179 0.531931
Si Si3 0.571803 0.433825 0.311162
Si Si4 0.576093 0.509567 0.921176
Si Si5 0.574891 0.250000 0.708360
Si Si6 0.071740 0.922843 0.225263
Si Si7 0.424028 0.342662 0.180272
O O1 0.750000 0.750000 0.458905
O O2 0.992208 0.665633 0.488304
O O3 0.972318 0.750000 0.364308
O O4 0.750000 0.577463 0.525929
O O5 0.000000 0.500000 0.500000
O O6 0.981074 0.595522 0.616660
O O7 0.750000 0.435734 0.328577
O O8 0.517717 0.524856 0.287221
O O9 0.535742 0.368442 0.246547
O O10 0.750000 0.489433 0.934845
O O11 0.513062 0.446514 0.857783
O O12 0.547188 0.602367 0.892720
O O13 0.500000 0.500000 0.000000
O O14 0.750000 0.250000 0.682532
O O15 0.536667 0.172313 0.760278
O O16 0.250000 0.944902 0.232474
O O17 0.250000 0.353548 0.207966
O O18 0.461036 0.250000 0.156214
#
# Coordination Sequence:
#
# PCOD8244407 Si02
#       7
#     4   8   8   8   4   8   8
#     4  10  24  40  56  80 113 148 185 228 285 338
#     4  11  23  40  58  81 112 151 191 234 285 341
#     4  11  22  35  55  83 113 144 183 233 280 334
#     4   9  18  34  55  80 112 145 179 219 270 328
#     4  10  20  36  60  82 105 138 189 236 269 318
#     4   9  19  37  58  81 108 149 190 226 274 332
#     4   9  19  37  59  80 106 146 188 226 273 330
#
# _framework density 18.789185
#
# number of rings (size 3 to 8) (size 9 to 14) (size 15 to 20)
#    0.000    2.167    0.000    4.000    1.167    7.667 
#    1.500    0.000    0.000    0.000    0.000    0.000 
#    0.000    0.000    0.000    0.000    0.000    0.000 
#
# Total GULP energy -595191.037250 kJ/mol
# GULP energy per Si atom -12399.813276 kJ/mol
# Density = 1.874642 g / cm^3
# Si number density = 18.789185 Si / 1000 Ang^3
#
#
#
# Elastic Constant Matrix: (Units=GPa)
#
#
# Indices 1 2 3 4 5 6 
#
# 1 51.7178 31.8089 24.9911 0.0000 0.0000 0.0000
# 2 31.8089 167.7130 60.2470 0.0000 0.0000 0.0000
# 3 24.9911 60.2470 110.4193 0.0000 0.0000 0.0000
# 4 0.0000 0.0000 0.0000 21.0078 0.0000 0.0000
# 5 0.0000 0.0000 0.0000 0.0000 36.1161 0.0000
# 6 0.0000 0.0000 0.0000 0.0000 0.0000 25.2248
#
#
#
# Elastic Compliance Matrix: (Units=1/GPa)
#
#
# Indices 1 2 3 4 5 6 
#
# 1 0.022929 -0.003090 -0.003503 0.000000 0.000000 0.000000
# 2 -0.003090 0.007833 -0.003574 0.000000 0.000000 0.000000
# 3 -0.003503 -0.003574 0.011799 0.000000 0.000000 0.000000
# 4 0.000000 0.000000 0.000000 0.047601 0.000000 0.000000
# 5 0.000000 0.000000 0.000000 0.000000 0.027689 0.000000
# 6 0.000000 0.000000 0.000000 0.000000 0.000000 0.039644
#
#
# Mechanical properties :
#
#
# Convention : Reuss Voigt Hill
#
# Bulk Modulus (GPa) = 44.99334 62.66046 53.82690
# Shear Modulus (GPa) = 26.99210 30.65659 28.82434
#
# Velocity S-wave (km/s) = 3.79433 4.04370 3.92100
# Velocity P-wave (km/s) = 6.57224 7.43126 7.01491
#
# Compressibility (1/GPa) = 0.02222551
#
# Stress axis : x y z
#
# Youngs Moduli (GPa) = 43.61224 127.67087 84.74952
#
# Poissons Ratio (x) = 0.39454 0.29692
# Poissons Ratio (y) = 0.13478 0.30291
# Poissons Ratio (z) = 0.15279 0.45632
#
# Static dielectric constant tensor:
#      x y z
#    x 3.488580 0.000000 0.000000 
#    y 0.000000 3.741830 0.000000 
#    z 0.000000 0.000000 3.453230 
# 
# 
# High freq. dielectric constant tensor:
#      x y z
#    x 1.720760 0.000000 0.000000 
#    y 0.000000 1.739960 0.000000 
#    z 0.000000 0.000000 1.727850 
# 
# From -- ./inp_files/25589.got.cif
#   From: 2010.03.12/outbox.cif.g09.slc.cpg/sg59_13_cif.got.tgz:25589.got - 2010.04.16 16:29:54.
