data_PCOD8244178
_publ_section_title
;
Structure prediction by ZEFSAII (Michael W. Deem and Ramdas Pophale) SiO2 
 PCOD8244178
Probable space group: P M M N
;
_chemical_formula_sum "Si O2"
_cell_formula_units_Z 56
_cell_length_a 21.319478
_cell_length_b 9.108392
_cell_length_c 15.859842
_cell_angle_alpha 90.000000
_cell_angle_beta 90.000000
_cell_angle_gamma 90.000000
_cell_volume 3079.761862
_symmetry_space_group_name_H-M "P M M N"
_symmetry_group_IT_number 59
_space_group.IT_coordinate_system_code '2'
_symmetry_cell_setting 'orthorhombic'
loop_
_space_group_symop_operation_xyz
x,y,z
1/2-x,1/2-y,z
1/2+x,-y,-z
-x,1/2+y,-z
-x,-y,-z
1/2+x,1/2+y,-z
1/2-x,y,z
x,1/2-y,z
loop_
_atom_site_type_symbol
_atom_site_label
_atom_site_fract_x
_atom_site_fract_y
_atom_site_fract_z
Si Si1 0.177507 0.578613 0.854229
Si Si2 0.250000 0.587282 0.307748
Si Si3 0.431880 0.919894 0.736249
Si Si4 0.138825 0.078689 0.018787
Si Si5 0.750000 0.415401 0.891933
Si Si6 0.497808 0.077987 0.588838
Si Si7 0.117486 0.922164 0.305858
Si Si8 0.948530 0.581734 0.837848
O O1 0.250000 0.526799 0.844005
O O2 0.174483 0.750000 0.876318
O O3 0.138792 0.546547 0.768184
O O4 0.140811 0.491634 0.926586
O O5 0.250000 0.750000 0.346696
O O6 0.250000 0.591614 0.207378
O O7 0.315177 0.510387 0.337054
O O8 0.439382 0.750000 0.711335
O O9 0.480058 0.961873 0.812804
O O10 0.445215 0.013783 0.652101
O O11 0.154442 0.250000 0.010253
O O12 0.070199 0.054661 0.063706
O O13 0.189666 0.001795 0.076869
O O14 0.750000 0.250000 0.930351
O O15 0.484855 0.250000 0.578251
O O16 0.566149 0.042153 0.624760
O O17 0.500000 0.000000 0.500000
O O18 0.125493 0.750000 0.289681
O O19 0.099806 0.988721 0.216618
O O20 0.936969 0.750000 0.814065
#
# Coordination Sequence:
#
# PCOD8244178 Si02
#       8
#     8   4   8   8   4   8   8   8
#     4  10  21  36  54  74  99 138 185 225 261 305
#     4   9  16  27  47  73 102 131 164 207 249 292
#     4   9  19  37  57  77 103 134 171 217 265 312
#     4  11  21  31  46  72 105 140 179 220 260 303
#     4  11  19  29  47  69  98 139 180 217 251 292
#     4  10  20  35  59  84 105 130 164 206 256 314
#     4   9  17  30  49  75 102 132 167 202 244 299
#     4   9  18  31  47  71 104 137 170 212 260 305
#
# _framework density 18.183223999999999
#
# number of rings (size 3 to 8) (size 9 to 14) (size 15 to 20)
#    0.000    2.286    2.143    1.071    0.000    2.286 
#    0.000    0.357    1.571    0.000    0.000    0.000 
#    0.000    0.000    0.000    0.000    0.000    0.000 
#
# Total GULP energy -693905.167731 kJ/mol
# GULP energy per Si atom -12391.163709 kJ/mol
# Density = 1.814184 g / cm^3
# Si number density = 18.183224 Si / 1000 Ang^3
#
#
#
# Elastic Constant Matrix: (Units=GPa)
#
#
# Indices 1 2 3 4 5 6 
#
# 1 94.8485 32.0787 52.7730 0.0000 0.0000 0.0000
# 2 32.0787 64.2891 50.3735 0.0000 0.0000 0.0000
# 3 52.7730 50.3735 105.9156 0.0000 0.0000 0.0000
# 4 0.0000 0.0000 0.0000 29.2401 0.0000 0.0000
# 5 0.0000 0.0000 0.0000 0.0000 17.7010 0.0000
# 6 0.0000 0.0000 0.0000 0.0000 0.0000 20.1098
#
#
#
# Elastic Compliance Matrix: (Units=1/GPa)
#
#
# Indices 1 2 3 4 5 6 
#
# 1 0.014849 -0.002570 -0.006176 0.000000 0.000000 0.000000
# 2 -0.002570 0.025239 -0.010723 0.000000 0.000000 0.000000
# 3 -0.006176 -0.010723 0.017619 0.000000 0.000000 0.000000
# 4 0.000000 0.000000 0.000000 0.034200 0.000000 0.000000
# 5 0.000000 0.000000 0.000000 0.000000 0.056494 0.000000
# 6 0.000000 0.000000 0.000000 0.000000 0.000000 0.049727
#
#
# Mechanical properties :
#
#
# Convention : Reuss Voigt Hill
#
# Bulk Modulus (GPa) = 53.28220 59.50040 56.39130
# Shear Modulus (GPa) = 20.54890 22.06540 21.30715
#
# Velocity S-wave (km/s) = 3.36535 3.48732 3.42687
# Velocity P-wave (km/s) = 6.66838 7.00064 6.83653
#
# Compressibility (1/GPa) = 0.01876800
#
# Stress axis : x y z
#
# Youngs Moduli (GPa) = 67.34613 39.62087 56.75726
#
# Poissons Ratio (x) = 0.10181 0.35055
# Poissons Ratio (y) = 0.17306 0.60863
# Poissons Ratio (z) = 0.41595 0.42487
#
# Static dielectric constant tensor:
#      x y z
#    x 3.863120 0.000000 0.000000 
#    y 0.000000 3.371110 0.000000 
#    z 0.000000 0.000000 3.108730 
# 
# 
# High freq. dielectric constant tensor:
#      x y z
#    x 1.710100 0.000000 0.000000 
#    y 0.000000 1.699400 0.000000 
#    z 0.000000 0.000000 1.677200 
# 
# From -- ./inp_files/24330.got.cif
#   From: 2010.03.12/outbox.cif.g09.slc.cpg/sg59_13_cif.got.tgz:24330.got - 2010.04.16 16:29:54.
