data_PCOD8244881
_publ_section_title
;
Structure prediction by ZEFSAII (Michael W. Deem and Ramdas Pophale) SiO2 
 PCOD8244881
Probable space group: P M M N
;
_chemical_formula_sum "Si O2"
_cell_formula_units_Z 48
_cell_length_a 9.413216
_cell_length_b 9.723695
_cell_length_c 30.896558
_cell_angle_alpha 90.000000
_cell_angle_beta 90.000000
_cell_angle_gamma 90.000000
_cell_volume 2828.000307
_symmetry_space_group_name_H-M "P M M N"
_symmetry_group_IT_number 59
_space_group.IT_coordinate_system_code '2'
_symmetry_cell_setting 'orthorhombic'
loop_
_space_group_symop_operation_xyz
x,y,z
1/2-x,1/2-y,z
1/2+x,-y,-z
-x,1/2+y,-z
-x,-y,-z
1/2+x,1/2+y,-z
1/2-x,y,z
x,1/2-y,z
loop_
_atom_site_type_symbol
_atom_site_label
_atom_site_fract_x
_atom_site_fract_y
_atom_site_fract_z
Si Si1 0.580845 0.403035 0.301832
Si Si2 0.586641 0.591241 0.379648
Si Si3 0.582662 0.592060 0.966380
Si Si4 0.092687 0.913745 0.792667
Si Si5 0.083797 0.910232 0.465496
Si Si6 0.093045 0.086642 0.129737
O O1 0.750000 0.400295 0.299721
O O2 0.523335 0.250000 0.312568
O O3 0.527595 0.505959 0.338879
O O4 0.526049 0.452670 0.254413
O O5 0.750000 0.551984 0.391256
O O6 0.575682 0.750000 0.366907
O O7 0.484786 0.554801 0.419359
O O8 0.750000 0.568828 0.971538
O O9 0.542762 0.750000 0.975227
O O10 0.533835 0.548362 0.917879
O O11 0.500000 0.500000 0.000000
O O12 0.250000 0.976299 0.797309
O O13 0.099061 0.750000 0.796021
O O14 0.002001 0.977615 0.831977
O O15 0.250000 0.950205 0.464973
O O16 0.063187 0.750000 0.476975
O O17 0.000000 0.000000 0.500000
O O18 0.250000 0.024667 0.135578
O O19 0.099408 0.250000 0.133736
#
# Coordination Sequence:
#
# PCOD8244881 Si02
#       6
#     8   8   8   8   8   8
#     4   8  14  25  42  65  91 116 144 181 222 261
#     4   9  17  30  48  68  91 121 154 185 221 269
#     4   9  18  31  46  66  91 118 151 190 231 277
#     4   8  13  22  38  60  83 108 143 184 219 256
#     4  10  21  36  53  73  97 125 157 194 235 276
#     4   8  14  25  40  59  85 114 142 177 222 268
#
# _framework density 16.973123000000001
#
# number of rings (size 3 to 8) (size 9 to 14) (size 15 to 20)
#    0.000    3.333    0.000    2.500    0.000    2.667 
#    0.000    4.167    0.000    2.000    0.000    2.333 
#    0.000    0.000    0.000    0.000    0.000    0.000 
#
# Total GULP energy -594869.255929 kJ/mol
# GULP energy per Si atom -12393.109499 kJ/mol
# Density = 1.693449 g / cm^3
# Si number density = 16.973123 Si / 1000 Ang^3
#
#
#
# Elastic Constant Matrix: (Units=GPa)
#
#
# Indices 1 2 3 4 5 6 
#
# 1 78.1858 37.1582 77.1463 0.0000 0.0000 0.0000
# 2 37.1582 52.3412 69.8765 0.0000 0.0000 0.0000
# 3 77.1463 69.8765 180.4873 0.0000 0.0000 0.0000
# 4 0.0000 0.0000 0.0000 26.7660 0.0000 0.0000
# 5 0.0000 0.0000 0.0000 0.0000 31.0829 0.0000
# 6 0.0000 0.0000 0.0000 0.0000 0.0000 18.2099
#
#
#
# Elastic Compliance Matrix: (Units=1/GPa)
#
#
# Indices 1 2 3 4 5 6 
#
# 1 0.023197 -0.006688 -0.007326 0.000000 0.000000 0.000000
# 2 -0.006688 0.041472 -0.013198 0.000000 0.000000 0.000000
# 3 -0.007326 -0.013198 0.013781 0.000000 0.000000 0.000000
# 4 0.000000 0.000000 0.000000 0.037361 0.000000 0.000000
# 5 0.000000 0.000000 0.000000 0.000000 0.032172 0.000000
# 6 0.000000 0.000000 0.000000 0.000000 0.000000 0.054915
#
#
# Mechanical properties :
#
#
# Convention : Reuss Voigt Hill
#
# Bulk Modulus (GPa) = 41.61818 75.48626 58.55222
# Shear Modulus (GPa) = 18.84441 23.66731 21.25586
#
# Velocity S-wave (km/s) = 3.33566 3.73822 3.54266
# Velocity P-wave (km/s) = 6.27764 7.95002 7.16281
#
# Compressibility (1/GPa) = 0.02402796
#
# Stress axis : x y z
#
# Youngs Moduli (GPa) = 43.10900 24.11256 72.56158
#
# Poissons Ratio (x) = 0.16126 0.53158
# Poissons Ratio (y) = 0.28830 0.95763
# Poissons Ratio (z) = 0.31581 0.31823
#
# Static dielectric constant tensor:
#      x y z
#    x 3.160700 0.000000 0.000000 
#    y 0.000000 2.800790 0.000000 
#    z 0.000000 0.000000 3.510950 
# 
# 
# High freq. dielectric constant tensor:
#      x y z
#    x 1.636240 0.000000 0.000000 
#    y 0.000000 1.614270 0.000000 
#    z 0.000000 0.000000 1.670180 
# 
# From -- ./inp_files/31249.got.cif
#   From: 2010.03.12/outbox.cif.g09.slc.cpg/sg59_16_cif.got.tgz:31249.got - 2010.04.16 16:29:54.
