data_PCOD8244027
_publ_section_title
;
Structure prediction by ZEFSAII (Michael W. Deem and Ramdas Pophale) SiO2 
 PCOD8244027
Probable space group: P M M N
;
_chemical_formula_sum "Si O2"
_cell_formula_units_Z 64
_cell_length_a 31.548828
_cell_length_b 9.302378
_cell_length_c 11.462017
_cell_angle_alpha 90.000000
_cell_angle_beta 90.000000
_cell_angle_gamma 90.000000
_cell_volume 3363.862703
_symmetry_space_group_name_H-M "P M M N"
_symmetry_group_IT_number 59
_space_group.IT_coordinate_system_code '2'
_symmetry_cell_setting 'orthorhombic'
loop_
_space_group_symop_operation_xyz
x,y,z
1/2-x,1/2-y,z
1/2+x,-y,-z
-x,1/2+y,-z
-x,-y,-z
1/2+x,1/2+y,-z
1/2-x,y,z
x,1/2-y,z
loop_
_atom_site_type_symbol
_atom_site_label
_atom_site_fract_x
_atom_site_fract_y
_atom_site_fract_z
Si Si1 0.202670 0.578653 0.082584
Si Si2 0.300081 0.908132 0.338774
Si Si3 0.377940 0.580631 0.939577
Si Si4 0.484104 0.914229 0.330282
Si Si5 0.036386 0.583474 0.068257
Si Si6 0.439956 0.915766 0.566687
Si Si7 0.625644 0.583369 0.297294
Si Si8 0.797230 0.914597 0.445665
O O1 0.250000 0.522742 0.046171
O O2 0.203573 0.750000 0.088144
O O3 0.189797 0.522866 0.211988
O O4 0.166569 0.524652 0.993788
O O5 0.250000 0.895992 0.351021
O O6 0.320961 0.750000 0.349967
O O7 0.317986 0.003711 0.444108
O O8 0.375883 0.750000 0.914486
O O9 0.385789 0.497291 0.820620
O O10 0.416860 0.540586 0.023945
O O11 0.501483 0.750000 0.332110
O O12 0.464315 0.953505 0.205361
O O13 0.448140 0.932835 0.428747
O O14 0.521469 0.025221 0.355595
O O15 0.027527 0.750000 0.045418
O O16 0.000000 0.500000 0.000000
O O17 0.432635 0.750000 0.601335
O O18 0.399419 0.011472 0.596079
O O19 0.613111 0.750000 0.284848
O O20 0.675062 0.563174 0.329279
O O21 0.750000 0.970723 0.415681
O O22 0.796361 0.750000 0.483938
#
# Coordination Sequence:
#
# PCOD8244027 Si02
#       8
#     8   8   8   8   8   8   8   8
#     4   8  15  30  53  80 109 138 167 209 265 315
#     4   8  14  27  50  78 103 128 162 205 256 314
#     4  10  21  36  54  77 103 134 178 221 256 307
#     4   9  19  36  57  81 109 139 170 207 254 305
#     4  10  21  36  54  77 105 138 173 211 255 301
#     4  10  20  35  57  83 108 135 170 211 256 309
#     4  11  23  37  52  72 103 140 175 217 267 312
#     4   9  19  35  52  71  99 136 175 215 261 311
#
# _framework density 19.025746999999999
#
# number of rings (size 3 to 8) (size 9 to 14) (size 15 to 20)
#    0.000    2.625    0.000    2.250    0.000    6.000 
#    0.000    3.125    0.000    0.750    0.000    0.000 
#    0.000    0.000    0.000    0.000    0.000    0.000 
#
# Total GULP energy -793403.744171 kJ/mol
# GULP energy per Si atom -12396.933503 kJ/mol
# Density = 1.898244 g / cm^3
# Si number density = 19.025747 Si / 1000 Ang^3
#
#
#
# Elastic Constant Matrix: (Units=GPa)
#
#
# Indices 1 2 3 4 5 6 
#
# 1 104.2059 40.6332 58.2138 0.0000 0.0000 0.0000
# 2 40.6332 69.1843 48.5172 0.0000 0.0000 0.0000
# 3 58.2138 48.5172 125.4832 0.0000 0.0000 0.0000
# 4 0.0000 0.0000 0.0000 21.3618 0.0000 0.0000
# 5 0.0000 0.0000 0.0000 0.0000 29.1665 0.0000
# 6 0.0000 0.0000 0.0000 0.0000 0.0000 23.5074
#
#
#
# Elastic Compliance Matrix: (Units=1/GPa)
#
#
# Indices 1 2 3 4 5 6 
#
# 1 0.014147 -0.005085 -0.004597 0.000000 0.000000 0.000000
# 2 -0.005085 0.021659 -0.006015 0.000000 0.000000 0.000000
# 3 -0.004597 -0.006015 0.012428 0.000000 0.000000 0.000000
# 4 0.000000 0.000000 0.000000 0.046813 0.000000 0.000000
# 5 0.000000 0.000000 0.000000 0.000000 0.034286 0.000000
# 6 0.000000 0.000000 0.000000 0.000000 0.000000 0.042540
#
#
# Mechanical properties :
#
#
# Convention : Reuss Voigt Hill
#
# Bulk Modulus (GPa) = 59.38559 65.95575 62.67067
# Shear Modulus (GPa) = 23.93713 24.90774 24.42243
#
# Velocity S-wave (km/s) = 3.55088 3.62216 3.58670
# Velocity P-wave (km/s) = 6.93489 7.22739 7.08265
#
# Compressibility (1/GPa) = 0.01683910
#
# Stress axis : x y z
#
# Youngs Moduli (GPa) = 70.68449 46.16991 80.46623
#
# Poissons Ratio (x) = 0.23478 0.36991
# Poissons Ratio (y) = 0.35945 0.48402
# Poissons Ratio (z) = 0.32494 0.27772
#
# Static dielectric constant tensor:
#      x y z
#    x 3.554420 0.000000 0.000000 
#    y 0.000000 3.456370 0.000000 
#    z 0.000000 0.000000 3.551420 
# 
# 
# High freq. dielectric constant tensor:
#      x y z
#    x 1.734170 0.000000 0.000000 
#    y 0.000000 1.722770 0.000000 
#    z 0.000000 0.000000 1.742620 
# 
# From -- ./inp_files/19326.got.cif
#   From: 2010.03.12/outbox.cif.g09.slc.cpg/sg59_10_cif.got.tgz:19326.got - 2010.04.16 16:29:54.
