data_PCOD8244496
_publ_section_title
;
Structure prediction by ZEFSAII (Michael W. Deem and Ramdas Pophale) SiO2 
 PCOD8244496
Probable space group: P M M N
;
_chemical_formula_sum "Si O2"
_cell_formula_units_Z 48
_cell_length_a 9.219727
_cell_length_b 16.075249
_cell_length_c 16.419193
_cell_angle_alpha 90.000000
_cell_angle_beta 90.000000
_cell_angle_gamma 90.000000
_cell_volume 2433.478862
_symmetry_space_group_name_H-M "P M M N"
_symmetry_group_IT_number 59
_space_group.IT_coordinate_system_code '2'
_symmetry_cell_setting 'orthorhombic'
loop_
_space_group_symop_operation_xyz
x,y,z
1/2-x,1/2-y,z
1/2+x,-y,-z
-x,1/2+y,-z
-x,-y,-z
1/2+x,1/2+y,-z
1/2-x,y,z
x,1/2-y,z
loop_
_atom_site_type_symbol
_atom_site_label
_atom_site_fract_x
_atom_site_fract_y
_atom_site_fract_z
Si Si1 0.914528 0.565078 0.215991
Si Si2 0.583645 0.154291 0.470128
Si Si3 0.921349 0.426044 0.950722
Si Si4 0.420363 0.250000 0.201896
Si Si5 0.912022 0.113551 0.293107
Si Si6 0.914206 0.848120 0.375494
Si Si7 0.417949 0.750000 0.966433
O O1 0.750000 0.592422 0.191897
O O2 0.913738 0.471427 0.245470
O O3 0.978794 0.620319 0.289824
O O4 0.022129 0.574869 0.141037
O O5 0.750000 0.147614 0.495132
O O6 0.538903 0.250000 0.453204
O O7 0.547732 0.102147 0.388451
O O8 0.496323 0.115203 0.545956
O O9 0.750000 0.444108 0.952731
O O10 0.956733 0.334205 0.984934
O O11 0.000000 0.500000 0.000000
O O12 0.250000 0.250000 0.192661
O O13 0.468654 0.330450 0.250911
O O14 0.487252 0.250000 0.113303
O O15 0.750000 0.153658 0.287797
O O16 0.750000 0.880388 0.381730
O O17 0.927531 0.750000 0.376210
O O18 0.250000 0.750000 0.941449
#
# Coordination Sequence:
#
# PCOD8244496 Si02
#       7
#     8   8   8   4   8   8   4
#     4  10  22  38  59  86 116 155 195 236 290 349
#     4   9  17  32  54  79 108 151 199 236 277 338
#     4  11  24  43  65  90 121 155 197 248 300 357
#     4  12  24  36  58  91 116 141 188 243 292 343
#     4  10  20  37  58  81 116 158 194 231 286 351
#     4   9  19  35  54  80 117 155 190 237 292 337
#     4  10  24  44  64  85 116 161 196 231 298 371
#
# _framework density 19.724847
#
# number of rings (size 3 to 8) (size 9 to 14) (size 15 to 20)
#    0.000    2.000    0.833    2.250    1.167    8.000 
#    0.000    0.000    0.000    0.000    0.000    0.000 
#    0.000    0.000    0.000    0.000    0.000    0.000 
#
# Total GULP energy -595160.512021 kJ/mol
# GULP energy per Si atom -12399.177334 kJ/mol
# Density = 1.967995 g / cm^3
# Si number density = 19.724847 Si / 1000 Ang^3
#
#
#
# Elastic Constant Matrix: (Units=GPa)
#
#
# Indices 1 2 3 4 5 6 
#
# 1 90.2685 45.9823 83.7528 0.0000 0.0000 0.0000
# 2 45.9823 72.7476 50.2786 0.0000 0.0000 0.0000
# 3 83.7528 50.2786 180.0246 0.0000 0.0000 0.0000
# 4 0.0000 0.0000 0.0000 13.6389 0.0000 0.0000
# 5 0.0000 0.0000 0.0000 0.0000 40.1408 0.0000
# 6 0.0000 0.0000 0.0000 0.0000 0.0000 31.2968
#
#
#
# Elastic Compliance Matrix: (Units=1/GPa)
#
#
# Indices 1 2 3 4 5 6 
#
# 1 0.023468 -0.009031 -0.008396 0.000000 0.000000 0.000000
# 2 -0.009031 0.020510 -0.001527 0.000000 0.000000 0.000000
# 3 -0.008396 -0.001527 0.009887 0.000000 0.000000 0.000000
# 4 0.000000 0.000000 0.000000 0.073320 0.000000 0.000000
# 5 0.000000 0.000000 0.000000 0.000000 0.024912 0.000000
# 6 0.000000 0.000000 0.000000 0.000000 0.000000 0.031952
#
#
# Mechanical properties :
#
#
# Convention : Reuss Voigt Hill
#
# Bulk Modulus (GPa) = 62.66455 78.11869 70.39162
# Shear Modulus (GPa) = 21.99970 27.88375 24.94172
#
# Velocity S-wave (km/s) = 3.34328 3.76391 3.55981
# Velocity P-wave (km/s) = 6.83679 7.65373 7.25676
#
# Compressibility (1/GPa) = 0.01595799
#
# Stress axis : x y z
#
# Youngs Moduli (GPa) = 42.61058 48.75765 101.14136
#
# Poissons Ratio (x) = 0.44034 0.84917
# Poissons Ratio (y) = 0.38482 0.15439
# Poissons Ratio (z) = 0.35775 0.07443
#
# Static dielectric constant tensor:
#      x y z
#    x 3.853700 0.000000 0.000000 
#    y 0.000000 3.611160 0.000000 
#    z 0.000000 0.000000 3.785690 
# 
# 
# High freq. dielectric constant tensor:
#      x y z
#    x 1.759110 0.000000 0.000000 
#    y 0.000000 1.766690 0.000000 
#    z 0.000000 0.000000 1.785040 
# 
# From -- ./inp_files/20533.got.cif
#   From: 2010.03.12/outbox.cif.g09.slc.cpg/sg59_11_cif.got.tgz:20533.got - 2010.04.16 16:29:54.
