data_PCOD8244997
_publ_section_title
;
Structure prediction by ZEFSAII (Michael W. Deem and Ramdas Pophale) SiO2 
 PCOD8244997
Probable space group: P M M N
;
_chemical_formula_sum "Si O2"
_cell_formula_units_Z 64
_cell_length_a 9.165123
_cell_length_b 14.537845
_cell_length_c 25.977009
_cell_angle_alpha 90.000000
_cell_angle_beta 90.000000
_cell_angle_gamma 90.000000
_cell_volume 3461.206230
_symmetry_space_group_name_H-M "P M M N"
_symmetry_group_IT_number 59
_space_group.IT_coordinate_system_code '2'
_symmetry_cell_setting 'orthorhombic'
loop_
_space_group_symop_operation_xyz
x,y,z
1/2-x,1/2-y,z
1/2+x,-y,-z
-x,1/2+y,-z
-x,-y,-z
1/2+x,1/2+y,-z
1/2-x,y,z
x,1/2-y,z
loop_
_atom_site_type_symbol
_atom_site_label
_atom_site_fract_x
_atom_site_fract_y
_atom_site_fract_z
Si Si1 0.915141 0.642569 0.123830
Si Si2 0.079666 0.510957 0.424435
Si Si3 0.417632 0.143517 0.758394
Si Si4 0.582152 0.644940 0.864776
Si Si5 0.421467 0.355279 0.503259
Si Si6 0.078039 0.495995 0.306283
Si Si7 0.420138 0.994049 0.053745
Si Si8 0.918445 0.357560 0.236817
O O1 0.750000 0.609941 0.112456
O O2 0.929665 0.750000 0.113164
O O3 0.956858 0.620077 0.182671
O O4 0.026199 0.592913 0.086038
O O5 0.250000 0.530847 0.430311
O O6 0.036095 0.416045 0.453287
O O7 0.032245 0.500481 0.365631
O O8 0.997187 0.599453 0.447184
O O9 0.250000 0.116789 0.747251
O O10 0.444297 0.250000 0.746748
O O11 0.524494 0.087805 0.721692
O O12 0.750000 0.632241 0.848304
O O13 0.545734 0.750000 0.878619
O O14 0.543647 0.586740 0.915094
O O15 0.484176 0.609567 0.817567
O O16 0.250000 0.356953 0.513187
O O17 0.475863 0.250000 0.495388
O O18 0.250000 0.486028 0.299136
O O19 0.000731 0.406678 0.283188
O O20 0.250000 0.982485 0.043361
O O21 0.500000 0.000000 0.000000
O O22 0.750000 0.385903 0.237369
O O23 0.942939 0.250000 0.244746
#
# Coordination Sequence:
#
# PCOD8244997 Si02
#       8
#     8   8   8   8   8   8   8   8
#     4   9  19  37  58  77 101 136 175 216 264 314
#     4   9  20  36  52  76 108 139 174 215 261 312
#     4   9  19  36  57  80 107 142 180 216 260 313
#     4   9  19  37  58  78 103 137 176 216 260 313
#     4   9  18  35  58  78  98 132 178 223 265 310
#     4  11  22  34  52  79 112 147 177 213 261 311
#     4  11  23  36  53  79 107 137 174 215 262 314
#     4  10  21  36  55  80 108 139 176 217 262 313
#
# _framework density 18.490663000000001
#
# number of rings (size 3 to 8) (size 9 to 14) (size 15 to 20)
#    0.000    2.375    0.000    2.625    0.000    7.500 
#    0.000    6.250    0.000    0.000    0.000    0.000 
#    0.000    0.000    0.000    0.000    0.000    0.000 
#
# Total GULP energy -793772.515988 kJ/mol
# GULP energy per Si atom -12402.695562 kJ/mol
# Density = 1.844858 g / cm^3
# Si number density = 18.490663 Si / 1000 Ang^3
#
#
#
# Elastic Constant Matrix: (Units=GPa)
#
#
# Indices 1 2 3 4 5 6 
#
# 1 84.8231 50.8783 73.9582 0.0000 0.0000 0.0000
# 2 50.8783 109.3729 69.6544 0.0000 0.0000 0.0000
# 3 73.9582 69.6544 152.7861 0.0000 0.0000 0.0000
# 4 0.0000 0.0000 0.0000 -1.7841 0.0000 0.0000
# 5 0.0000 0.0000 0.0000 0.0000 34.7442 0.0000
# 6 0.0000 0.0000 0.0000 0.0000 0.0000 33.5516
#
#
#
# Elastic Compliance Matrix: (Units=1/GPa)
#
#
# Indices 1 2 3 4 5 6 
#
# 1 0.022110 -0.004888 -0.008474 0.000000 0.000000 0.000000
# 2 -0.004888 0.013964 -0.004000 0.000000 0.000000 0.000000
# 3 -0.008474 -0.004000 0.012471 0.000000 0.000000 0.000000
# 4 0.000000 0.000000 0.000000 -0.560504 0.000000 0.000000
# 5 0.000000 0.000000 0.000000 0.000000 0.028782 0.000000
# 6 0.000000 0.000000 0.000000 0.000000 0.000000 0.029805
#
#
# Mechanical properties :
#
#
# Convention : Reuss Voigt Hill
#
# Bulk Modulus (GPa) = 72.35815 81.77376 77.06595
# Shear Modulus (GPa) = -12.07611 23.46842 5.69615
#
# Velocity S-wave (km/s) = -2.55834 3.56645 1.75706
# Velocity P-wave (km/s) = 5.52181 7.82814 6.77386
#
# Compressibility (1/GPa) = 0.01382014
#
# Stress axis : x y z
#
# Youngs Moduli (GPa) = 45.22832 71.61033 80.18828
#
# Poissons Ratio (x) = 0.35006 0.67952
# Poissons Ratio (y) = 0.22110 0.32075
# Poissons Ratio (z) = 0.38327 0.28644
#
# Static dielectric constant tensor:
#      x y z
#    x 3.449620 0.000000 0.000000 
#    y 0.000000 3.479670 0.000000 
#    z 0.000000 0.000000 3.392460 
# 
# 
# High freq. dielectric constant tensor:
#      x y z
#    x 1.718940 0.000000 0.000000 
#    y 0.000000 1.726500 0.000000 
#    z 0.000000 0.000000 1.714590 
# 
# From -- ./inp_files/31639.got.cif
#   From: 2010.03.12/outbox.cif.g09.slc.cpg/sg59_16_cif.got.tgz:31639.got - 2010.04.16 16:29:54.
