data_PCOD8244426
_publ_section_title
;
Structure prediction by ZEFSAII (Michael W. Deem and Ramdas Pophale) SiO2 
 PCOD8244426
Probable space group: P M M N
;
_chemical_formula_sum "Si O2"
_cell_formula_units_Z 40
_cell_length_a 18.605318
_cell_length_b 9.074891
_cell_length_c 12.483118
_cell_angle_alpha 90.000000
_cell_angle_beta 90.000000
_cell_angle_gamma 90.000000
_cell_volume 2107.665033
_symmetry_space_group_name_H-M "P M M N"
_symmetry_group_IT_number 59
_space_group.IT_coordinate_system_code '2'
_symmetry_cell_setting 'orthorhombic'
loop_
_space_group_symop_operation_xyz
x,y,z
1/2-x,1/2-y,z
1/2+x,-y,-z
-x,1/2+y,-z
-x,-y,-z
1/2+x,1/2+y,-z
1/2-x,y,z
x,1/2-y,z
loop_
_atom_site_type_symbol
_atom_site_label
_atom_site_fract_x
_atom_site_fract_y
_atom_site_fract_z
Si Si1 0.914657 0.575066 0.833209
Si Si2 0.166066 0.420999 0.377115
Si Si3 0.925669 0.077923 0.210703
Si Si4 0.332348 0.424351 0.958950
Si Si5 0.571503 0.422796 0.459243
O O1 0.910092 0.750000 0.832379
O O2 0.873688 0.516346 0.728124
O O3 0.996846 0.520533 0.830479
O O4 0.876326 0.512224 0.939336
O O5 0.250000 0.445280 0.360579
O O6 0.146960 0.250000 0.396375
O O7 0.140349 0.513910 0.479021
O O8 0.917297 0.250000 0.187644
O O9 0.916969 0.041503 0.335131
O O10 0.863284 0.992549 0.149355
O O11 0.250000 0.473148 0.971855
O O12 0.339625 0.250000 0.951583
O O13 0.500000 0.500000 0.500000
O O14 0.563844 0.250000 0.479738
#
# Coordination Sequence:
#
# PCOD8244426 Si02
#       5
#     8   8   8   8   8
#     4   9  17  35  59  83 111 145 188 231 278 334
#     4  10  20  36  60  87 116 151 189 231 284 341
#     4  10  21  37  58  81 110 148 187 229 280 338
#     4  10  21  36  56  83 113 146 187 233 277 328
#     4  11  22  38  59  83 114 149 190 236 283 338
#
# _framework density 18.978348
#
# number of rings (size 3 to 8) (size 9 to 14) (size 15 to 20)
#    0.000    2.000    2.000    1.800    0.000    5.600 
#    0.000    5.000    0.000    2.400    0.000    0.000 
#    0.000    0.000    0.000    0.000    0.000    0.000 
#
# Total GULP energy -496146.196234 kJ/mol
# GULP energy per Si atom -12403.654906 kJ/mol
# Density = 1.893515 g / cm^3
# Si number density = 18.978348 Si / 1000 Ang^3
#
#
#
# Elastic Constant Matrix: (Units=GPa)
#
#
# Indices 1 2 3 4 5 6 
#
# 1 87.8812 30.8485 59.9229 0.0000 0.0000 0.0000
# 2 30.8485 42.4991 47.2051 0.0000 0.0000 0.0000
# 3 59.9229 47.2051 133.2219 0.0000 0.0000 0.0000
# 4 0.0000 0.0000 0.0000 29.8001 0.0000 0.0000
# 5 0.0000 0.0000 0.0000 0.0000 38.2211 0.0000
# 6 0.0000 0.0000 0.0000 0.0000 0.0000 30.9867
#
#
#
# Elastic Compliance Matrix: (Units=1/GPa)
#
#
# Indices 1 2 3 4 5 6 
#
# 1 0.017440 -0.006507 -0.005539 0.000000 0.000000 0.000000
# 2 -0.006507 0.041228 -0.011682 0.000000 0.000000 0.000000
# 3 -0.005539 -0.011682 0.014137 0.000000 0.000000 0.000000
# 4 0.000000 0.000000 0.000000 0.033557 0.000000 0.000000
# 5 0.000000 0.000000 0.000000 0.000000 0.026164 0.000000
# 6 0.000000 0.000000 0.000000 0.000000 0.000000 0.032272
#
#
# Mechanical properties :
#
#
# Convention : Reuss Voigt Hill
#
# Bulk Modulus (GPa) = 39.44757 59.95058 49.69908
# Shear Modulus (GPa) = 22.65497 28.17663 25.41580
#
# Velocity S-wave (km/s) = 3.45878 3.85732 3.66348
# Velocity P-wave (km/s) = 6.06478 7.17608 6.64371
#
# Compressibility (1/GPa) = 0.02535010
#
# Stress axis : x y z
#
# Youngs Moduli (GPa) = 57.34030 24.25519 70.73690
#
# Poissons Ratio (x) = 0.15782 0.39180
# Poissons Ratio (y) = 0.37310 0.82634
# Poissons Ratio (z) = 0.31760 0.28335
#
# Static dielectric constant tensor:
#      x y z
#    x 3.555570 0.000000 0.000000 
#    y 0.000000 3.286290 0.000000 
#    z 0.000000 0.000000 3.692360 
# 
# 
# High freq. dielectric constant tensor:
#      x y z
#    x 1.747240 0.000000 0.000000 
#    y 0.000000 1.710420 0.000000 
#    z 0.000000 0.000000 1.751020 
# 
# From -- ./inp_files/13837.got.cif
#   From: 2010.03.12/outbox.cif.g09.slc.cpg/sg59_7_cif.got.tgz:13837.got - 2010.04.16 16:29:54.
