data_PCOD8244362
_publ_section_title
;
Structure prediction by ZEFSAII (Michael W. Deem and Ramdas Pophale) SiO2 
 PCOD8244362
Probable space group: P M M N
;
_chemical_formula_sum "Si O2"
_cell_formula_units_Z 64
_cell_length_a 23.382952
_cell_length_b 9.420241
_cell_length_c 15.092919
_cell_angle_alpha 90.000000
_cell_angle_beta 90.000000
_cell_angle_gamma 90.000000
_cell_volume 3324.563198
_symmetry_space_group_name_H-M "P M M N"
_symmetry_group_IT_number 59
_space_group.IT_coordinate_system_code '2'
_symmetry_cell_setting 'orthorhombic'
loop_
_space_group_symop_operation_xyz
x,y,z
1/2-x,1/2-y,z
1/2+x,-y,-z
-x,1/2+y,-z
-x,-y,-z
1/2+x,1/2+y,-z
1/2-x,y,z
x,1/2-y,z
loop_
_atom_site_type_symbol
_atom_site_label
_atom_site_fract_x
_atom_site_fract_y
_atom_site_fract_z
Si Si1 0.485253 0.908394 0.584366
Si Si2 0.994947 0.916837 0.775896
Si Si3 0.882392 0.415779 0.171691
Si Si4 0.315499 0.406159 0.480258
Si Si5 0.683953 0.915433 0.022946
Si Si6 0.182040 0.589820 0.319944
Si Si7 0.871352 0.584674 0.836198
Si Si8 0.645851 0.406498 0.369204
O O1 0.509337 0.750000 0.568419
O O2 0.511773 0.976058 0.675112
O O3 0.417825 0.905954 0.594799
O O4 0.500000 0.000000 0.500000
O O5 0.005230 0.750000 0.764270
O O6 0.938795 0.953993 0.832631
O O7 0.051971 0.974958 0.825043
O O8 0.881258 0.250000 0.147132
O O9 0.846568 0.499756 0.100053
O O10 0.852204 0.444827 0.265699
O O11 0.250000 0.385981 0.455019
O O12 0.345146 0.250000 0.480684
O O13 0.343961 0.506176 0.404981
O O14 0.318893 0.476780 0.576901
O O15 0.750000 0.962157 0.014853
O O16 0.678909 0.750000 0.044533
O O17 0.651523 0.953724 0.932649
O O18 0.250000 0.594282 0.323758
O O19 0.157357 0.750000 0.320746
O O20 0.163554 0.510111 0.231663
O O21 0.861271 0.750000 0.812927
O O22 0.673015 0.250000 0.384142
#
# Coordination Sequence:
#
# PCOD8244362 Si02
#       8
#     8   8   8   8   8   8   8   8
#     4   9  18  32  50  75 107 141 177 220 266 316
#     4   8  17  35  56  80 110 144 183 227 277 327
#     4   9  19  38  60  80 109 146 185 229 279 336
#     4  10  21  35  52  76 105 141 185 227 272 330
#     4  10  22  38  56  82 114 145 181 231 287 336
#     4  10  21  36  53  76 110 147 182 229 281 328
#     4  10  20  36  59  83 110 146 185 227 278 339
#     4   9  19  35  53  75 106 141 176 223 276 324
#
# _framework density 19.25065
#
# number of rings (size 3 to 8) (size 9 to 14) (size 15 to 20)
#    0.000    2.625    0.000    2.625    1.750    4.750 
#    0.000    5.000    0.000    0.000    0.000    0.000 
#    0.000    0.000    0.000    0.000    0.000    0.000 
#
# Total GULP energy -793428.604313 kJ/mol
# GULP energy per Si atom -12397.321942 kJ/mol
# Density = 1.920683 g / cm^3
# Si number density = 19.250650 Si / 1000 Ang^3
#
#
#
# Elastic Constant Matrix: (Units=GPa)
#
#
# Indices 1 2 3 4 5 6 
#
# 1 71.5890 35.1004 63.3077 0.0000 0.0000 0.0000
# 2 35.1004 105.4412 79.7149 0.0000 0.0000 0.0000
# 3 63.3077 79.7149 154.8726 0.0000 0.0000 0.0000
# 4 0.0000 0.0000 0.0000 36.2364 0.0000 0.0000
# 5 0.0000 0.0000 0.0000 0.0000 35.2430 0.0000
# 6 0.0000 0.0000 0.0000 0.0000 0.0000 22.2572
#
#
#
# Elastic Compliance Matrix: (Units=1/GPa)
#
#
# Indices 1 2 3 4 5 6 
#
# 1 0.021924 -0.000856 -0.008521 0.000000 0.000000 0.000000
# 2 -0.000856 0.015559 -0.007658 0.000000 0.000000 0.000000
# 3 -0.008521 -0.007658 0.013882 0.000000 0.000000 0.000000
# 4 0.000000 0.000000 0.000000 0.027597 0.000000 0.000000
# 5 0.000000 0.000000 0.000000 0.000000 0.028374 0.000000
# 6 0.000000 0.000000 0.000000 0.000000 0.000000 0.044929
#
#
# Mechanical properties :
#
#
# Convention : Reuss Voigt Hill
#
# Bulk Modulus (GPa) = 57.82584 76.46097 67.14341
# Shear Modulus (GPa) = 26.02801 28.99931 27.51366
#
# Velocity S-wave (km/s) = 3.68102 3.88546 3.78462
# Velocity P-wave (km/s) = 6.94047 7.74170 7.35201
#
# Compressibility (1/GPa) = 0.01729331
#
# Stress axis : x y z
#
# Youngs Moduli (GPa) = 45.61232 64.27262 72.03567
#
# Poissons Ratio (x) = 0.05502 0.61383
# Poissons Ratio (y) = 0.03905 0.55167
# Poissons Ratio (z) = 0.38867 0.49222
#
# Static dielectric constant tensor:
#      x y z
#    x 3.499310 0.000000 0.000000 
#    y 0.000000 3.363560 0.000000 
#    z 0.000000 0.000000 3.810910 
# 
# 
# High freq. dielectric constant tensor:
#      x y z
#    x 1.745340 0.000000 0.000000 
#    y 0.000000 1.735010 0.000000 
#    z 0.000000 0.000000 1.750620 
# 
# From -- ./inp_files/24785.got.cif
#   From: 2010.03.12/outbox.cif.g09.slc.cpg/sg59_13_cif.got.tgz:24785.got - 2010.04.16 16:29:54.
