data_PCOD8244874
_publ_section_title
;
Structure prediction by ZEFSAII (Michael W. Deem and Ramdas Pophale) SiO2 
 PCOD8244874
Probable space group: P M M N
;
_chemical_formula_sum "Si O2"
_cell_formula_units_Z 56
_cell_length_a 14.690685
_cell_length_b 9.128704
_cell_length_c 21.491700
_cell_angle_alpha 90.000000
_cell_angle_beta 90.000000
_cell_angle_gamma 90.000000
_cell_volume 2882.185583
_symmetry_space_group_name_H-M "P M M N"
_symmetry_group_IT_number 59
_space_group.IT_coordinate_system_code '2'
_symmetry_cell_setting 'orthorhombic'
loop_
_space_group_symop_operation_xyz
x,y,z
1/2-x,1/2-y,z
1/2+x,-y,-z
-x,1/2+y,-z
-x,-y,-z
1/2+x,1/2+y,-z
1/2-x,y,z
x,1/2-y,z
loop_
_atom_site_type_symbol
_atom_site_label
_atom_site_fract_x
_atom_site_fract_y
_atom_site_fract_z
Si Si1 0.354004 0.079127 0.550015
Si Si2 0.856466 0.421469 0.863937
Si Si3 0.141865 0.414955 0.012908
Si Si4 0.647636 0.419958 0.572991
Si Si5 0.354321 0.919782 0.891474
Si Si6 0.498053 0.577935 0.786524
Si Si7 0.985865 0.920974 0.340320
O O1 0.250000 0.034801 0.563274
O O2 0.366360 0.250000 0.538549
O O3 0.411926 0.028375 0.609123
O O4 0.390306 0.001610 0.487795
O O5 0.750000 0.452158 0.853004
O O6 0.877401 0.250000 0.866911
O O7 0.892540 0.494681 0.927564
O O8 0.910615 0.494171 0.807183
O O9 0.250000 0.416078 0.011698
O O10 0.103368 0.250000 0.017388
O O11 0.105788 0.490453 0.950047
O O12 0.750000 0.471368 0.589373
O O13 0.643312 0.250000 0.556544
O O14 0.585911 0.455262 0.632607
O O15 0.250000 0.963699 0.876476
O O16 0.361119 0.750000 0.909309
O O17 0.414471 0.959679 0.831968
O O18 0.518388 0.750000 0.784232
O O19 0.468697 0.520045 0.719463
O O20 0.975126 0.750000 0.323025
#
# Coordination Sequence:
#
# PCOD8244874 Si02
#       7
#     8   8   8   8   8   8   8
#     4   9  18  33  54  80 107 135 170 214 263 311
#     4  10  21  38  59  80 106 142 179 218 269 326
#     4   9  17  31  55  85 110 134 172 223 273 318
#     4   9  18  33  54  79 104 132 169 212 258 310
#     4   9  19  37  57  77 106 142 179 221 270 323
#     4  11  24  38  54  79 108 142 185 227 266 312
#     4  10  21  36  52  73 106 143 176 213 259 315
#
# _framework density 19.429698999999999
#
# number of rings (size 3 to 8) (size 9 to 14) (size 15 to 20)
#    0.000    2.429    0.000    1.714    0.000    6.571 
#    0.000    1.429    0.000    0.000    0.000    0.000 
#    0.000    0.000    0.000    0.000    0.000    0.000 
#
# Total GULP energy -694575.162588 kJ/mol
# GULP energy per Si atom -12403.127903 kJ/mol
# Density = 1.938548 g / cm^3
# Si number density = 19.429699 Si / 1000 Ang^3
#
#
#
# Elastic Constant Matrix: (Units=GPa)
#
#
# Indices 1 2 3 4 5 6 
#
# 1 49.2854 19.2574 14.8966 0.0000 0.0000 0.0000
# 2 19.2574 73.9407 34.1654 0.0000 0.0000 0.0000
# 3 14.8966 34.1654 88.6860 0.0000 0.0000 0.0000
# 4 0.0000 0.0000 0.0000 42.0054 0.0000 0.0000
# 5 0.0000 0.0000 0.0000 0.0000 28.1821 0.0000
# 6 0.0000 0.0000 0.0000 0.0000 0.0000 21.8368
#
#
#
# Elastic Compliance Matrix: (Units=1/GPa)
#
#
# Indices 1 2 3 4 5 6 
#
# 1 0.022843 -0.005081 -0.001880 0.000000 0.000000 0.000000
# 2 -0.005081 0.017583 -0.005920 0.000000 0.000000 0.000000
# 3 -0.001880 -0.005920 0.013872 0.000000 0.000000 0.000000
# 4 0.000000 0.000000 0.000000 0.023806 0.000000 0.000000
# 5 0.000000 0.000000 0.000000 0.000000 0.035483 0.000000
# 6 0.000000 0.000000 0.000000 0.000000 0.000000 0.045794
#
#
# Mechanical properties :
#
#
# Convention : Reuss Voigt Hill
#
# Bulk Modulus (GPa) = 35.04213 38.72788 36.88501
# Shear Modulus (GPa) = 25.68619 27.97771 26.83195
#
# Velocity S-wave (km/s) = 3.63989 3.79878 3.72018
# Velocity P-wave (km/s) = 5.97825 6.26231 6.12193
#
# Compressibility (1/GPa) = 0.02853708
#
# Stress axis : x y z
#
# Youngs Moduli (GPa) = 43.77635 56.87246 72.08665
#
# Poissons Ratio (x) = 0.28896 0.13550
# Poissons Ratio (y) = 0.22242 0.42678
# Poissons Ratio (z) = 0.08228 0.33670
#
# Static dielectric constant tensor:
#      x y z
#    x 3.657980 0.000000 0.000000 
#    y 0.000000 3.549080 0.000000 
#    z 0.000000 0.000000 3.476000 
# 
# 
# High freq. dielectric constant tensor:
#      x y z
#    x 1.759510 0.000000 0.000000 
#    y 0.000000 1.755750 0.000000 
#    z 0.000000 0.000000 1.751190 
# 
# From -- ./inp_files/29048.got.cif
#   From: 2010.03.12/outbox.cif.g09.slc.cpg/sg59_15_cif.got.tgz:29048.got - 2010.04.16 16:29:54.
