data_PCOD8244919
_publ_section_title
;
Structure prediction by ZEFSAII (Michael W. Deem and Ramdas Pophale) SiO2 
 PCOD8244919
Probable space group: P M M N
;
_chemical_formula_sum "Si O2"
_cell_formula_units_Z 64
_cell_length_a 20.630005
_cell_length_b 16.912377
_cell_length_c 9.863371
_cell_angle_alpha 90.000000
_cell_angle_beta 90.000000
_cell_angle_gamma 90.000000
_cell_volume 3441.354032
_symmetry_space_group_name_H-M "P M M N"
_symmetry_group_IT_number 59
_space_group.IT_coordinate_system_code '2'
_symmetry_cell_setting 'orthorhombic'
loop_
_space_group_symop_operation_xyz
x,y,z
1/2-x,1/2-y,z
1/2+x,-y,-z
-x,1/2+y,-z
-x,-y,-z
1/2+x,1/2+y,-z
1/2-x,y,z
x,1/2-y,z
loop_
_atom_site_type_symbol
_atom_site_label
_atom_site_fract_x
_atom_site_fract_y
_atom_site_fract_z
Si Si1 0.390222 0.659181 0.915602
Si Si2 0.958549 0.659171 0.952002
Si Si3 0.371256 0.928483 0.419827
Si Si4 0.500949 0.342253 0.522604
Si Si5 0.455565 0.054206 0.281952
Si Si6 0.825666 0.461440 0.283510
Si Si7 0.438109 0.424294 0.766561
Si Si8 0.678019 0.338516 0.820195
O O1 0.368859 0.750000 0.899650
O O2 0.466807 0.648966 0.909661
O O3 0.353804 0.612715 0.797899
O O4 0.368787 0.627092 0.063328
O O5 0.935977 0.750000 0.938684
O O6 0.922484 0.602849 0.842359
O O7 0.943391 0.631098 0.102817
O O8 0.426948 0.862420 0.429534
O O9 0.333340 0.942880 0.558063
O O10 0.321773 0.895276 0.309396
O O11 0.400140 0.011351 0.368061
O O12 0.492441 0.250000 0.498870
O O13 0.491684 0.385199 0.380212
O O14 0.449267 0.370985 0.634054
O O15 0.508395 0.992988 0.224270
O O16 0.750000 0.475383 0.249939
O O17 0.865999 0.539404 0.241757
O O18 0.750000 0.337605 0.880818
O O19 0.655940 0.250000 0.778530
#
# Coordination Sequence:
#
# PCOD8244919 Si02
#       8
#     8   8   8   8   8   8   8   8
#     4  10  21  38  57  85 121 153 187 231 289 352
#     4  11  22  36  61  91 116 145 184 242 307 355
#     4  11  21  37  55  85 114 149 189 241 288 338
#     4  11  20  35  59  85 115 149 185 236 302 347
#     4  11  20  36  58  84 117 145 177 242 303 341
#     4  12  24  38  57  82 119 164 200 230 274 341
#     4  11  21  38  56  88 121 151 191 243 286 349
#     4  10  21  36  53  77 113 156 197 228 264 331
#
# _framework density 18.597332000000002
#
# number of rings (size 3 to 8) (size 9 to 14) (size 15 to 20)
#    0.000    1.125    3.750    4.500    1.750    3.750 
#    0.000    0.000    0.000    1.500    0.000    0.000 
#    0.000    0.000    0.000    0.000    0.000    0.000 
#
# Total GULP energy -793735.521533 kJ/mol
# GULP energy per Si atom -12402.117524 kJ/mol
# Density = 1.855500 g / cm^3
# Si number density = 18.597332 Si / 1000 Ang^3
#
#
#
# Elastic Constant Matrix: (Units=GPa)
#
#
# Indices 1 2 3 4 5 6 
#
# 1 61.2852 14.8036 8.1016 0.0000 0.0000 0.0000
# 2 14.8036 97.0760 31.3310 0.0000 0.0000 0.0000
# 3 8.1016 31.3310 95.1012 0.0000 0.0000 0.0000
# 4 0.0000 0.0000 0.0000 36.5979 0.0000 0.0000
# 5 0.0000 0.0000 0.0000 0.0000 19.6593 0.0000
# 6 0.0000 0.0000 0.0000 0.0000 0.0000 12.9247
#
#
#
# Elastic Compliance Matrix: (Units=1/GPa)
#
#
# Indices 1 2 3 4 5 6 
#
# 1 0.016979 -0.002375 -0.000664 0.000000 0.000000 0.000000
# 2 -0.002375 0.011859 -0.003705 0.000000 0.000000 0.000000
# 3 -0.000664 -0.003705 0.011792 0.000000 0.000000 0.000000
# 4 0.000000 0.000000 0.000000 0.027324 0.000000 0.000000
# 5 0.000000 0.000000 0.000000 0.000000 0.050866 0.000000
# 6 0.000000 0.000000 0.000000 0.000000 0.000000 0.077371
#
#
# Mechanical properties :
#
#
# Convention : Reuss Voigt Hill
#
# Bulk Modulus (GPa) = 36.84219 40.21499 38.52859
# Shear Modulus (GPa) = 22.85965 27.11813 24.98889
#
# Velocity S-wave (km/s) = 3.50978 3.82275 3.66960
# Velocity P-wave (km/s) = 6.02314 6.41526 6.22229
#
# Compressibility (1/GPa) = 0.02714280
#
# Stress axis : x y z
#
# Youngs Moduli (GPa) = 58.89775 84.32401 84.80204
#
# Poissons Ratio (x) = 0.20026 0.05631
# Poissons Ratio (y) = 0.13987 0.31416
# Poissons Ratio (z) = 0.03911 0.31239
#
# Static dielectric constant tensor:
#      x y z
#    x 3.187470 0.000000 0.000000 
#    y 0.000000 3.507530 0.000000 
#    z 0.000000 0.000000 3.553040 
# 
# 
# High freq. dielectric constant tensor:
#      x y z
#    x 1.687860 0.000000 0.000000 
#    y 0.000000 1.721110 0.000000 
#    z 0.000000 0.000000 1.742560 
# 
# From -- ./inp_files/11635.got.cif
#   From: 2010.03.12/outbox.cif.g09.slc.cpg/sg59_6_cif.got.tgz:11635.got - 2010.04.16 16:29:54.
