data_PCOD8244079
_publ_section_title
;
Structure prediction by ZEFSAII (Michael W. Deem and Ramdas Pophale) SiO2 
 PCOD8244079
Probable space group: P M M N
;
_chemical_formula_sum "Si O2"
_cell_formula_units_Z 56
_cell_length_a 22.646729
_cell_length_b 8.778437
_cell_length_c 14.920813
_cell_angle_alpha 90.000000
_cell_angle_beta 90.000000
_cell_angle_gamma 90.000000
_cell_volume 2966.300653
_symmetry_space_group_name_H-M "P M M N"
_symmetry_group_IT_number 59
_space_group.IT_coordinate_system_code '2'
_symmetry_cell_setting 'orthorhombic'
loop_
_space_group_symop_operation_xyz
x,y,z
1/2-x,1/2-y,z
1/2+x,-y,-z
-x,1/2+y,-z
-x,-y,-z
1/2+x,1/2+y,-z
1/2-x,y,z
x,1/2-y,z
loop_
_atom_site_type_symbol
_atom_site_label
_atom_site_fract_x
_atom_site_fract_y
_atom_site_fract_z
Si Si1 0.317191 0.426887 0.691688
Si Si2 0.816204 0.431074 0.937434
Si Si3 0.043735 0.569603 0.383105
Si Si4 0.421407 0.929352 0.580677
Si Si5 0.905527 0.420889 0.795561
Si Si6 0.859535 0.069553 0.129338
Si Si7 0.478672 0.422189 0.909891
O O1 0.250000 0.453203 0.658072
O O2 0.332710 0.250000 0.698708
O O3 0.361782 0.501877 0.621113
O O4 0.322596 0.499031 0.789911
O O5 0.750000 0.480732 0.914395
O O6 0.824388 0.250000 0.939909
O O7 0.858117 0.505122 0.860293
O O8 0.833688 0.493301 0.035336
O O9 0.034122 0.750000 0.374287
O O10 0.075208 0.525226 0.475929
O O11 0.086505 0.506494 0.303541
O O12 0.979657 0.493629 0.371381
O O13 0.419703 0.750000 0.595242
O O14 0.881903 0.250000 0.782703
O O15 0.969106 0.421987 0.839778
O O16 0.854963 0.250000 0.136379
O O17 0.927125 0.018535 0.136238
O O18 0.457811 0.250000 0.930666
O O19 0.500000 0.500000 0.000000
#
# Coordination Sequence:
#
# PCOD8244079 Si02
#       7
#     8   8   8   8   8   8   8
#     4  11  24  40  57  79 110 151 192 231 282 340
#     4   9  17  30  49  73 102 137 175 215 261 315
#     4   9  18  34  58  84 112 143 177 224 282 337
#     4  10  20  35  57  85 112 140 180 230 281 334
#     4   9  17  31  50  75 106 138 175 218 266 321
#     4  11  21  35  55  81 109 141 184 229 278 334
#     4  11  20  32  51  78 112 147 183 226 274 325
#
# _framework density 18.878733
#
# number of rings (size 3 to 8) (size 9 to 14) (size 15 to 20)
#    0.000    2.000    1.429    3.000    0.000    3.429 
#    0.000    1.429    0.000    2.571    0.000    0.000 
#    0.000    0.000    0.000    0.000    0.000    0.000 
#
# Total GULP energy -694280.953921 kJ/mol
# GULP energy per Si atom -12397.874177 kJ/mol
# Density = 1.883576 g / cm^3
# Si number density = 18.878733 Si / 1000 Ang^3
#
#
#
# Elastic Constant Matrix: (Units=GPa)
#
#
# Indices 1 2 3 4 5 6 
#
# 1 127.3644 33.2085 67.4837 0.0000 0.0000 0.0000
# 2 33.2085 60.3355 32.9859 0.0000 0.0000 0.0000
# 3 67.4837 32.9859 134.5406 0.0000 0.0000 0.0000
# 4 0.0000 0.0000 0.0000 21.5071 0.0000 0.0000
# 5 0.0000 0.0000 0.0000 0.0000 30.4282 0.0000
# 6 0.0000 0.0000 0.0000 0.0000 0.0000 24.8610
#
#
#
# Elastic Compliance Matrix: (Units=1/GPa)
#
#
# Indices 1 2 3 4 5 6 
#
# 1 0.011338 -0.003616 -0.004800 0.000000 0.000000 0.000000
# 2 -0.003616 0.020293 -0.003162 0.000000 0.000000 0.000000
# 3 -0.004800 -0.003162 0.010616 0.000000 0.000000 0.000000
# 4 0.000000 0.000000 0.000000 0.046496 0.000000 0.000000
# 5 0.000000 0.000000 0.000000 0.000000 0.032864 0.000000
# 6 0.000000 0.000000 0.000000 0.000000 0.000000 0.040224
#
#
# Mechanical properties :
#
#
# Convention : Reuss Voigt Hill
#
# Bulk Modulus (GPa) = 52.38226 65.51074 58.94650
# Shear Modulus (GPa) = 26.13024 27.93007 27.03016
#
# Velocity S-wave (km/s) = 3.72440 3.85053 3.78799
# Velocity P-wave (km/s) = 6.80454 7.38545 7.10094
#
# Compressibility (1/GPa) = 0.01909043
#
# Stress axis : x y z
#
# Youngs Moduli (GPa) = 88.20118 49.27900 94.20094
#
# Poissons Ratio (x) = 0.17819 0.45219
# Poissons Ratio (y) = 0.31892 0.29782
# Poissons Ratio (z) = 0.42339 0.15580
#
# Static dielectric constant tensor:
#      x y z
#    x 3.452610 0.000000 0.000000 
#    y 0.000000 3.306460 0.000000 
#    z 0.000000 0.000000 3.849660 
# 
# 
# High freq. dielectric constant tensor:
#      x y z
#    x 1.730800 0.000000 0.000000 
#    y 0.000000 1.711990 0.000000 
#    z 0.000000 0.000000 1.741840 
# 
# From -- ./inp_files/24300.got.cif
#   From: 2010.03.12/outbox.cif.g09.slc.cpg/sg59_13_cif.got.tgz:24300.got - 2010.04.16 16:29:54.
