data_PCOD8244149
_publ_section_title
;
Structure prediction by ZEFSAII (Michael W. Deem and Ramdas Pophale) SiO2 
 PCOD8244149
Probable space group: P M M N
;
_chemical_formula_sum "Si O2"
_cell_formula_units_Z 64
_cell_length_a 18.327364
_cell_length_b 8.670379
_cell_length_c 21.377308
_cell_angle_alpha 90.000000
_cell_angle_beta 90.000000
_cell_angle_gamma 90.000000
_cell_volume 3396.965231
_symmetry_space_group_name_H-M "P M M N"
_symmetry_group_IT_number 59
_space_group.IT_coordinate_system_code '2'
_symmetry_cell_setting 'orthorhombic'
loop_
_space_group_symop_operation_xyz
x,y,z
1/2-x,1/2-y,z
1/2+x,-y,-z
-x,1/2+y,-z
-x,-y,-z
1/2+x,1/2+y,-z
1/2-x,y,z
x,1/2-y,z
loop_
_atom_site_type_symbol
_atom_site_label
_atom_site_fract_x
_atom_site_fract_y
_atom_site_fract_z
Si Si1 0.579332 0.069506 0.495937
Si Si2 0.970998 0.567543 0.064035
Si Si3 0.666317 0.070930 0.737458
Si Si4 0.332751 0.934233 0.623074
Si Si5 0.396431 0.569378 0.751452
Si Si6 0.167006 0.931639 0.880477
Si Si7 0.164778 0.426739 0.393069
Si Si8 0.956558 0.568527 0.814817
O O1 0.571470 0.250000 0.488180
O O2 0.622123 0.000606 0.435988
O O3 0.500000 0.000000 0.500000
O O4 0.623088 0.033226 0.558480
O O5 0.978937 0.750000 0.064698
O O6 0.886179 0.520516 0.072068
O O7 0.019979 0.495052 0.118345
O O8 0.000000 0.500000 0.000000
O O9 0.750000 0.036563 0.755188
O O10 0.653644 0.250000 0.723730
O O11 0.642190 0.975749 0.676523
O O12 0.617829 0.015058 0.795352
O O13 0.250000 0.995031 0.618153
O O14 0.334063 0.750000 0.623445
O O15 0.369066 0.004342 0.686293
O O16 0.384382 0.750000 0.746202
O O17 0.348095 0.508953 0.809756
O O18 0.481173 0.529211 0.763462
O O19 0.250000 0.969577 0.899117
O O20 0.149934 0.750000 0.885029
O O21 0.250000 0.453693 0.403670
O O22 0.141831 0.250000 0.403091
O O23 0.943377 0.750000 0.820228
#
# Coordination Sequence:
#
# PCOD8244149 Si02
#       8
#     8   8   8   8   8   8   8   8
#     4  11  23  36  52  76 107 144 187 236 286 339
#     4  11  22  38  59  83 116 154 194 236 279 330
#     4  10  21  37  58  85 115 146 184 233 289 343
#     4   9  17  30  50  76 105 137 176 223 274 328
#     4   8  15  28  50  81 111 140 174 219 270 324
#     4   9  17  32  56  85 116 148 185 228 277 335
#     4  10  21  38  59  79 103 141 188 237 289 344
#     4  10  20  35  58  86 116 149 185 226 275 332
#
# _framework density 18.840346
#
# number of rings (size 3 to 8) (size 9 to 14) (size 15 to 20)
#    0.000    2.250    0.000    4.125    1.750    3.750 
#    0.000    0.625    0.000    4.500    0.000    0.000 
#    0.000    0.000    0.000    0.000    0.000    0.000 
#
# Total GULP energy -793681.494534 kJ/mol
# GULP energy per Si atom -12401.273352 kJ/mol
# Density = 1.879746 g / cm^3
# Si number density = 18.840346 Si / 1000 Ang^3
#
#
#
# Elastic Constant Matrix: (Units=GPa)
#
#
# Indices 1 2 3 4 5 6 
#
# 1 120.1602 36.4019 79.1223 0.0000 0.0000 0.0000
# 2 36.4019 48.7178 22.1141 0.0000 0.0000 0.0000
# 3 79.1223 22.1141 112.8505 0.0000 0.0000 0.0000
# 4 0.0000 0.0000 0.0000 26.1812 0.0000 0.0000
# 5 0.0000 0.0000 0.0000 0.0000 28.5659 0.0000
# 6 0.0000 0.0000 0.0000 0.0000 0.0000 30.6905
#
#
#
# Elastic Compliance Matrix: (Units=1/GPa)
#
#
# Indices 1 2 3 4 5 6 
#
# 1 0.018233 -0.008584 -0.011101 0.000000 0.000000 0.000000
# 2 -0.008584 0.026572 0.000812 0.000000 0.000000 0.000000
# 3 -0.011101 0.000812 0.016486 0.000000 0.000000 0.000000
# 4 0.000000 0.000000 0.000000 0.038195 0.000000 0.000000
# 5 0.000000 0.000000 0.000000 0.000000 0.035007 0.000000
# 6 0.000000 0.000000 0.000000 0.000000 0.000000 0.032583
#
#
# Mechanical properties :
#
#
# Convention : Reuss Voigt Hill
#
# Bulk Modulus (GPa) = 42.47624 61.88946 52.18285
# Shear Modulus (GPa) = 23.51049 26.69353 25.10201
#
# Velocity S-wave (km/s) = 3.53637 3.76816 3.65410
# Velocity P-wave (km/s) = 6.26648 7.20089 6.74987
#
# Compressibility (1/GPa) = 0.02354257
#
# Stress axis : x y z
#
# Youngs Moduli (GPa) = 54.84678 37.63340 60.65924
#
# Poissons Ratio (x) = 0.32306 0.67339
# Poissons Ratio (y) = 0.47082 -0.04923
# Poissons Ratio (z) = 0.60886 -0.03054
#
# Static dielectric constant tensor:
#      x y z
#    x 3.510110 0.000000 0.000000 
#    y 0.000000 3.278970 0.000000 
#    z 0.000000 0.000000 3.899330 
# 
# 
# High freq. dielectric constant tensor:
#      x y z
#    x 1.738640 0.000000 0.000000 
#    y 0.000000 1.714520 0.000000 
#    z 0.000000 0.000000 1.729510 
# 
# From -- ./inp_files/30773.got.cif
#   From: 2010.03.12/outbox.cif.g09.slc.cpg/sg59_16_cif.got.tgz:30773.got - 2010.04.16 16:29:54.
