data_PCOD8244203
_publ_section_title
;
Structure prediction by ZEFSAII (Michael W. Deem and Ramdas Pophale) SiO2 
 PCOD8244203
Probable space group: P M M N
;
_chemical_formula_sum "Si O2"
_cell_formula_units_Z 48
_cell_length_a 13.120486
_cell_length_b 18.347747
_cell_length_c 9.751747
_cell_angle_alpha 90.000000
_cell_angle_beta 90.000000
_cell_angle_gamma 90.000000
_cell_volume 2347.551295
_symmetry_space_group_name_H-M "P M M N"
_symmetry_group_IT_number 59
_space_group.IT_coordinate_system_code '2'
_symmetry_cell_setting 'orthorhombic'
loop_
_space_group_symop_operation_xyz
x,y,z
1/2-x,1/2-y,z
1/2+x,-y,-z
-x,1/2+y,-z
-x,-y,-z
1/2+x,1/2+y,-z
1/2-x,y,z
x,1/2-y,z
loop_
_atom_site_type_symbol
_atom_site_label
_atom_site_fract_x
_atom_site_fract_y
_atom_site_fract_z
Si Si1 0.481725 0.438325 0.328810
Si Si2 0.638409 0.166932 0.258658
Si Si3 0.133578 0.612934 0.039129
Si Si4 0.442895 0.164474 0.826259
Si Si5 0.370304 0.064631 0.607214
Si Si6 0.367284 0.447011 0.051723
O O1 0.556784 0.370793 0.357359
O O2 0.555481 0.508021 0.316068
O O3 0.396759 0.439978 0.446691
O O4 0.426651 0.424467 0.186844
O O5 0.750000 0.132553 0.286369
O O6 0.637295 0.250000 0.300291
O O7 0.612324 0.158034 0.098340
O O8 0.250000 0.619396 0.089605
O O9 0.101402 0.529225 0.006292
O O10 0.063907 0.647684 0.159245
O O11 0.419815 0.250000 0.849991
O O12 0.399600 0.142320 0.676018
O O13 0.385823 0.113598 0.936564
O O14 0.250000 0.047607 0.627305
O O15 0.250000 0.447159 0.090495
#
# Coordination Sequence:
#
# PCOD8244203 Si02
#       6
#     8   8   8   8   8   8
#     4  11  22  41  65  90 118 159 210 262 309 357
#     4  10  20  35  59  91 123 157 199 252 313 368
#     4  10  20  37  63  93 125 159 204 259 311 362
#     4  12  24  41  62  92 133 170 206 251 314 380
#     4  11  25  43  63  88 123 166 209 252 309 376
#     4  11  22  38  64  93 122 159 211 262 306 363
#
# _framework density 20.446839000000001
#
# number of rings (size 3 to 8) (size 9 to 14) (size 15 to 20)
#    0.000    1.167    3.333    3.500    0.000    4.333 
#    0.000    0.833    0.000    3.000    0.000    0.000 
#    0.000    0.000    0.000    0.000    0.000    0.000 
#
# Total GULP energy -595075.600561 kJ/mol
# GULP energy per Si atom -12397.408345 kJ/mol
# Density = 2.040030 g / cm^3
# Si number density = 20.446839 Si / 1000 Ang^3
#
#
#
# Elastic Constant Matrix: (Units=GPa)
#
#
# Indices 1 2 3 4 5 6 
#
# 1 75.5879 27.8724 17.8176 0.0000 0.0000 0.0000
# 2 27.8724 108.2997 18.3564 0.0000 0.0000 0.0000
# 3 17.8176 18.3564 39.6830 0.0000 0.0000 0.0000
# 4 0.0000 0.0000 0.0000 22.4232 0.0000 0.0000
# 5 0.0000 0.0000 0.0000 0.0000 26.3721 0.0000
# 6 0.0000 0.0000 0.0000 0.0000 0.0000 27.0084
#
#
#
# Elastic Compliance Matrix: (Units=1/GPa)
#
#
# Indices 1 2 3 4 5 6 
#
# 1 0.015692 -0.003086 -0.005618 0.000000 0.000000 0.000000
# 2 -0.003086 0.010626 -0.003530 0.000000 0.000000 0.000000
# 3 -0.005618 -0.003530 0.029355 0.000000 0.000000 0.000000
# 4 0.000000 0.000000 0.000000 0.044597 0.000000 0.000000
# 5 0.000000 0.000000 0.000000 0.000000 0.037919 0.000000
# 6 0.000000 0.000000 0.000000 0.000000 0.000000 0.037026
#
#
# Mechanical properties :
#
#
# Convention : Reuss Voigt Hill
#
# Bulk Modulus (GPa) = 32.04606 39.07372 35.55989
# Shear Modulus (GPa) = 23.80003 25.79569 24.79786
#
# Velocity S-wave (km/s) = 3.41544 3.55575 3.48630
# Velocity P-wave (km/s) = 5.59111 6.00077 5.79956
#
# Compressibility (1/GPa) = 0.03120509
#
# Stress axis : x y z
#
# Youngs Moduli (GPa) = 63.72694 94.10693 34.06588
#
# Poissons Ratio (x) = 0.29044 0.19138
# Poissons Ratio (y) = 0.19668 0.12024
# Poissons Ratio (z) = 0.35802 0.33217
#
# Static dielectric constant tensor:
#      x y z
#    x 4.074030 0.000000 0.000000 
#    y 0.000000 3.735040 0.000000 
#    z 0.000000 0.000000 3.406910 
# 
# 
# High freq. dielectric constant tensor:
#      x y z
#    x 1.821340 0.000000 0.000000 
#    y 0.000000 1.793730 0.000000 
#    z 0.000000 0.000000 1.775380 
# 
# From -- ./inp_files/9022.got.cif
#   From: 2010.03.12/outbox.cif.g09.slc.cpg/sg59_5_cif.got.tgz:9022.got - 2010.04.16 16:29:54.
