data_PCOD8244417
_publ_section_title
;
Structure prediction by ZEFSAII (Michael W. Deem and Ramdas Pophale) SiO2 
 PCOD8244417
Probable space group: P M M N
;
_chemical_formula_sum "Si O2"
_cell_formula_units_Z 40
_cell_length_a 15.461522
_cell_length_b 17.087077
_cell_length_c 7.704045
_cell_angle_alpha 90.000000
_cell_angle_beta 90.000000
_cell_angle_gamma 90.000000
_cell_volume 2035.348728
_symmetry_space_group_name_H-M "P M M N"
_symmetry_group_IT_number 59
_space_group.IT_coordinate_system_code '2'
_symmetry_cell_setting 'orthorhombic'
loop_
_space_group_symop_operation_xyz
x,y,z
1/2-x,1/2-y,z
1/2+x,-y,-z
-x,1/2+y,-z
-x,-y,-z
1/2+x,1/2+y,-z
1/2-x,y,z
x,1/2-y,z
loop_
_atom_site_type_symbol
_atom_site_label
_atom_site_fract_x
_atom_site_fract_y
_atom_site_fract_z
Si Si1 0.927872 0.663233 0.888499
Si Si2 0.654301 0.983644 0.762542
Si Si3 0.059463 0.838130 0.574506
Si Si4 0.504128 0.591040 0.224245
Si Si5 0.346818 0.991142 0.629244
O O1 0.886590 0.750000 0.888746
O O2 0.995386 0.654129 0.734213
O O3 0.853289 0.599230 0.860927
O O4 0.976200 0.650980 0.070878
O O5 0.750000 0.018128 0.801043
O O6 0.642290 0.968317 0.557832
O O7 0.581910 0.043577 0.830339
O O8 0.096516 0.750000 0.558697
O O9 0.008639 0.860112 0.399264
O O10 0.137919 0.898096 0.606736
O O11 0.583398 0.529777 0.243038
O O12 0.250000 0.003964 0.703499
#
# Coordination Sequence:
#
# PCOD8244417 Si02
#       5
#     8   8   8   8   8
#     4  11  22  36  58  84 111 148 190 231 285 338
#     4  10  20  37  60  85 114 149 190 234 282 334
#     4  10  20  37  58  82 116 147 180 235 287 331
#     4  11  20  39  59  86 111 151 191 235 276 337
#     4  10  20  36  60  86 113 151 194 231 278 337
#
# _framework density 19.652652
#
# number of rings (size 3 to 8) (size 9 to 14) (size 15 to 20)
#    0.000    1.600    4.000    2.400    0.000    1.600 
#    0.000    0.000    0.000    4.800    0.000    0.000 
#    0.000    0.000    0.000    0.000    0.000    0.000 
#
# Total GULP energy -495991.505253 kJ/mol
# GULP energy per Si atom -12399.787631 kJ/mol
# Density = 1.960792 g / cm^3
# Si number density = 19.652652 Si / 1000 Ang^3
#
#
#
# Elastic Constant Matrix: (Units=GPa)
#
#
# Indices 1 2 3 4 5 6 
#
# 1 102.3873 31.4079 21.1857 0.0000 0.0000 0.0000
# 2 31.4079 100.2040 40.4422 0.0000 0.0000 0.0000
# 3 21.1857 40.4422 87.0874 0.0000 0.0000 0.0000
# 4 0.0000 0.0000 0.0000 21.2398 0.0000 0.0000
# 5 0.0000 0.0000 0.0000 0.0000 11.2339 0.0000
# 6 0.0000 0.0000 0.0000 0.0000 0.0000 16.1957
#
#
#
# Elastic Compliance Matrix: (Units=1/GPa)
#
#
# Indices 1 2 3 4 5 6 
#
# 1 0.010927 -0.002895 -0.001314 0.000000 0.000000 0.000000
# 2 -0.002895 0.013048 -0.005355 0.000000 0.000000 0.000000
# 3 -0.001314 -0.005355 0.014289 0.000000 0.000000 0.000000
# 4 0.000000 0.000000 0.000000 0.047081 0.000000 0.000000
# 5 0.000000 0.000000 0.000000 0.000000 0.089016 0.000000
# 6 0.000000 0.000000 0.000000 0.000000 0.000000 0.061745
#
#
# Mechanical properties :
#
#
# Convention : Reuss Voigt Hill
#
# Bulk Modulus (GPa) = 52.25566 52.86112 52.55839
# Shear Modulus (GPa) = 19.11218 22.84341 20.97779
#
# Velocity S-wave (km/s) = 3.12187 3.41303 3.27070
# Velocity P-wave (km/s) = 6.29620 6.51827 6.40820
#
# Compressibility (1/GPa) = 0.01913668
#
# Stress axis : x y z
#
# Youngs Moduli (GPa) = 91.51956 76.63837 69.98252
#
# Poissons Ratio (x) = 0.22183 0.09195
# Poissons Ratio (y) = 0.26491 0.37478
# Poissons Ratio (z) = 0.12025 0.41042
#
# Static dielectric constant tensor:
#      x y z
#    x 3.452610 0.000000 0.000000 
#    y 0.000000 3.699550 0.000000 
#    z 0.000000 0.000000 3.580700 
# 
# 
# High freq. dielectric constant tensor:
#      x y z
#    x 1.748760 0.000000 0.000000 
#    y 0.000000 1.761430 0.000000 
#    z 0.000000 0.000000 1.772390 
# 
# From -- ./inp_files/8617.got.cif
#   From: 2010.03.12/outbox.cif.g09.slc.cpg/sg59_5_cif.got.tgz:8617.got - 2010.04.16 16:29:54.
