data_PCOD8244719
_publ_section_title
;
Structure prediction by ZEFSAII (Michael W. Deem and Ramdas Pophale) SiO2 
 PCOD8244719
Probable space group: P M M N
;
_chemical_formula_sum "Si O2"
_cell_formula_units_Z 56
_cell_length_a 19.357681
_cell_length_b 9.613104
_cell_length_c 16.192253
_cell_angle_alpha 90.000000
_cell_angle_beta 90.000000
_cell_angle_gamma 90.000000
_cell_volume 3013.174271
_symmetry_space_group_name_H-M "P M M N"
_symmetry_group_IT_number 59
_space_group.IT_coordinate_system_code '2'
_symmetry_cell_setting 'orthorhombic'
loop_
_space_group_symop_operation_xyz
x,y,z
1/2-x,1/2-y,z
1/2+x,-y,-z
-x,1/2+y,-z
-x,-y,-z
1/2+x,1/2+y,-z
1/2-x,y,z
x,1/2-y,z
loop_
_atom_site_type_symbol
_atom_site_label
_atom_site_fract_x
_atom_site_fract_y
_atom_site_fract_z
Si Si1 0.330107 0.088464 0.167764
Si Si2 0.039661 0.591797 0.433749
Si Si3 0.445528 0.586471 0.247929
Si Si4 0.173092 0.415466 0.981951
Si Si5 0.827094 0.407627 0.474432
Si Si6 0.830520 0.590180 0.321528
Si Si7 0.415438 0.414608 0.832603
O O1 0.250000 0.063869 0.189784
O O2 0.349481 0.250000 0.178179
O O3 0.376362 0.998311 0.229387
O O4 0.345553 0.036282 0.074472
O O5 0.015493 0.750000 0.447787
O O6 0.026009 0.546765 0.339161
O O7 0.122038 0.575665 0.448090
O O8 0.000000 0.500000 0.500000
O O9 0.428348 0.750000 0.244184
O O10 0.504570 0.543936 0.181313
O O11 0.250000 0.469405 0.957657
O O12 0.174011 0.250000 0.979774
O O13 0.115776 0.476251 0.918173
O O14 0.750000 0.451852 0.502858
O O15 0.827344 0.250000 0.440973
O O16 0.854542 0.505274 0.401277
O O17 0.750000 0.571869 0.303862
O O18 0.850829 0.750000 0.337666
O O19 0.870163 0.527443 0.242996
O O20 0.407517 0.250000 0.834271
#
# Coordination Sequence:
#
# PCOD8244719 Si02
#       7
#     8   8   8   8   8   8   8
#     4   9  19  36  55  74  97 127 167 211 249 290
#     4  10  21  36  53  73  99 132 167 203 245 294
#     4  10  21  34  50  75 103 131 163 202 251 300
#     4   8  14  27  49  74  99 130 165 199 239 289
#     4   9  18  32  48  66  91 125 163 200 241 291
#     4   9  16  27  47  74 100 126 159 200 242 282
#     4   9  16  27  45  72 104 131 159 197 240 291
#
# _framework density 18.585052000000001
#
# number of rings (size 3 to 8) (size 9 to 14) (size 15 to 20)
#    0.000    2.857    0.000    2.143    0.000    5.429 
#    0.000    2.143    0.000    2.571    0.000    2.000 
#    0.000    0.000    0.000    0.000    0.000    0.000 
#
# Total GULP energy -694185.081549 kJ/mol
# GULP energy per Si atom -12396.162171 kJ/mol
# Density = 1.854275 g / cm^3
# Si number density = 18.585052 Si / 1000 Ang^3
#
#
#
# Elastic Constant Matrix: (Units=GPa)
#
#
# Indices 1 2 3 4 5 6 
#
# 1 86.1380 35.7922 52.9557 0.0000 0.0000 0.0000
# 2 35.7922 46.5543 38.6451 0.0000 0.0000 0.0000
# 3 52.9557 38.6451 95.5427 0.0000 0.0000 0.0000
# 4 0.0000 0.0000 0.0000 20.8873 0.0000 0.0000
# 5 0.0000 0.0000 0.0000 0.0000 36.0121 0.0000
# 6 0.0000 0.0000 0.0000 0.0000 0.0000 24.0889
#
#
#
# Elastic Compliance Matrix: (Units=1/GPa)
#
#
# Indices 1 2 3 4 5 6 
#
# 1 0.019958 -0.009276 -0.007310 0.000000 0.000000 0.000000
# 2 -0.009276 0.036650 -0.009683 0.000000 0.000000 0.000000
# 3 -0.007310 -0.009683 0.018434 0.000000 0.000000 0.000000
# 4 0.000000 0.000000 0.000000 0.047876 0.000000 0.000000
# 5 0.000000 0.000000 0.000000 0.000000 0.027768 0.000000
# 6 0.000000 0.000000 0.000000 0.000000 0.000000 0.041513
#
#
# Mechanical properties :
#
#
# Convention : Reuss Voigt Hill
#
# Bulk Modulus (GPa) = 44.43507 53.66901 49.05204
# Shear Modulus (GPa) = 19.82260 22.92046 21.37153
#
# Velocity S-wave (km/s) = 3.26941 3.51561 3.39474
# Velocity P-wave (km/s) = 6.18167 6.73940 6.46655
#
# Compressibility (1/GPa) = 0.02250475
#
# Stress axis : x y z
#
# Youngs Moduli (GPa) = 50.10633 27.28543 54.24617
#
# Poissons Ratio (x) = 0.25310 0.39653
# Poissons Ratio (y) = 0.46479 0.52525
# Poissons Ratio (z) = 0.36627 0.26420
#
# Static dielectric constant tensor:
#      x y z
#    x 3.528190 0.000000 0.000000 
#    y 0.000000 3.075810 0.000000 
#    z 0.000000 0.000000 3.489160 
# 
# 
# High freq. dielectric constant tensor:
#      x y z
#    x 1.730700 0.000000 0.000000 
#    y 0.000000 1.680600 0.000000 
#    z 0.000000 0.000000 1.717450 
# 
# From -- ./inp_files/24268.got.cif
#   From: 2010.03.12/outbox.cif.g09.slc.cpg/sg59_13_cif.got.tgz:24268.got - 2010.04.16 16:29:54.
