data_PCOD8244647
_publ_section_title
;
Structure prediction by ZEFSAII (Michael W. Deem and Ramdas Pophale) SiO2 
 PCOD8244647
Probable space group: P M M N
;
_chemical_formula_sum "Si O2"
_cell_formula_units_Z 48
_cell_length_a 9.310911
_cell_length_b 9.221848
_cell_length_c 28.360041
_cell_angle_alpha 90.000000
_cell_angle_beta 90.000000
_cell_angle_gamma 90.000000
_cell_volume 2435.101058
_symmetry_space_group_name_H-M "P M M N"
_symmetry_group_IT_number 59
_space_group.IT_coordinate_system_code '2'
_symmetry_cell_setting 'orthorhombic'
loop_
_space_group_symop_operation_xyz
x,y,z
1/2-x,1/2-y,z
1/2+x,-y,-z
-x,1/2+y,-z
-x,-y,-z
1/2+x,1/2+y,-z
1/2-x,y,z
x,1/2-y,z
loop_
_atom_site_type_symbol
_atom_site_label
_atom_site_fract_x
_atom_site_fract_y
_atom_site_fract_z
Si Si1 0.089781 0.585273 0.209054
Si Si2 0.416084 0.420053 0.541026
Si Si3 0.250000 0.921052 0.925736
Si Si4 0.750000 0.078351 0.968530
Si Si5 0.084006 0.578568 0.717690
Si Si6 0.015424 0.916820 0.103583
Si Si7 0.917170 0.080786 0.635663
O O1 0.250000 0.552174 0.228555
O O2 0.045963 0.750000 0.221747
O O3 0.973711 0.478464 0.232150
O O4 0.095985 0.564040 0.152958
O O5 0.500000 0.500000 0.500000
O O6 0.250000 0.471213 0.543259
O O7 0.426038 0.250000 0.531307
O O8 0.494862 0.462484 0.589242
O O9 0.250000 0.750000 0.927486
O O10 0.381924 0.977412 0.895686
O O11 0.250000 0.987570 0.978876
O O12 0.750000 0.250000 0.970194
O O13 0.611741 0.025952 0.939642
O O14 0.250000 0.532202 0.711192
O O15 0.067069 0.750000 0.715925
O O16 0.985030 0.509229 0.677841
O O17 0.968800 0.750000 0.096011
O O18 0.750000 0.039391 0.628808
O O19 0.934331 0.250000 0.647296
#
# Coordination Sequence:
#
# PCOD8244647 Si02
#       7
#     8   8   4   4   8   8   8
#     4  10  21  39  63  86 107 141 191 239 283 336
#     4  10  21  37  59  88 122 161 204 249 298 348
#     4  11  23  35  53  85 121 151 181 227 286 337
#     4   9  18  37  61  83 111 147 189 237 280 329
#     4  11  25  41  58  85 120 154 186 230 290 351
#     4  10  20  38  61  83 109 147 192 234 277 335
#     4  10  21  39  63  89 117 153 200 248 291 342
#
# _framework density 19.711708000000002
#
# number of rings (size 3 to 8) (size 9 to 14) (size 15 to 20)
#    0.000    1.833    0.833    2.750    1.167    7.000 
#    0.000    1.250    0.000    0.000    0.000    0.000 
#    0.000    0.000    0.000    0.000    0.000    0.000 
#
# Total GULP energy -595265.982354 kJ/mol
# GULP energy per Si atom -12401.374632 kJ/mol
# Density = 1.966684 g / cm^3
# Si number density = 19.711708 Si / 1000 Ang^3
#
#
#
# Elastic Constant Matrix: (Units=GPa)
#
#
# Indices 1 2 3 4 5 6 
#
# 1 150.4573 50.4956 44.0834 0.0000 0.0000 0.0000
# 2 50.4956 60.4969 36.4196 0.0000 0.0000 0.0000
# 3 44.0834 36.4196 88.6259 0.0000 0.0000 0.0000
# 4 0.0000 0.0000 0.0000 32.6137 0.0000 0.0000
# 5 0.0000 0.0000 0.0000 0.0000 37.0887 0.0000
# 6 0.0000 0.0000 0.0000 0.0000 0.0000 19.0633
#
#
#
# Elastic Compliance Matrix: (Units=1/GPa)
#
#
# Indices 1 2 3 4 5 6 
#
# 1 0.009478 -0.006741 -0.001945 0.000000 0.000000 0.000000
# 2 -0.006741 0.026757 -0.007642 0.000000 0.000000 0.000000
# 3 -0.001945 -0.007642 0.015391 0.000000 0.000000 0.000000
# 4 0.000000 0.000000 0.000000 0.030662 0.000000 0.000000
# 5 0.000000 0.000000 0.000000 0.000000 0.026962 0.000000
# 6 0.000000 0.000000 0.000000 0.000000 0.000000 0.052457
#
#
# Mechanical properties :
#
#
# Convention : Reuss Voigt Hill
#
# Bulk Modulus (GPa) = 52.71241 62.39751 57.55496
# Shear Modulus (GPa) = 24.91437 28.99191 26.95314
#
# Velocity S-wave (km/s) = 3.55905 3.83926 3.70180
# Velocity P-wave (km/s) = 6.60975 7.16777 6.89441
#
# Compressibility (1/GPa) = 0.01897086
#
# Stress axis : x y z
#
# Youngs Moduli (GPa) = 105.50196 37.37332 64.97203
#
# Poissons Ratio (x) = 0.25193 0.12635
# Poissons Ratio (y) = 0.71117 0.49655
# Poissons Ratio (z) = 0.20516 0.28562
#
# Static dielectric constant tensor:
#      x y z
#    x 3.940250 0.000000 0.000000 
#    y 0.000000 3.463790 0.000000 
#    z 0.000000 0.000000 3.717450 
# 
# 
# High freq. dielectric constant tensor:
#      x y z
#    x 1.783090 0.000000 0.000000 
#    y 0.000000 1.750490 0.000000 
#    z 0.000000 0.000000 1.778440 
# 
# From -- ./inp_files/32927.got.cif
#   From: 2010.03.12/outbox.cif.g09.slc.cpg/sg59_17_cif.got.tgz:32927.got - 2010.04.16 16:29:54.
