data_PCOD8244020
_publ_section_title
;
Structure prediction by ZEFSAII (Michael W. Deem and Ramdas Pophale) SiO2 
 PCOD8244020
Probable space group: P M M N
;
_chemical_formula_sum "Si O2"
_cell_formula_units_Z 48
_cell_length_a 30.297382
_cell_length_b 9.120464
_cell_length_c 9.377649
_cell_angle_alpha 90.000000
_cell_angle_beta 90.000000
_cell_angle_gamma 90.000000
_cell_volume 2591.289943
_symmetry_space_group_name_H-M "P M M N"
_symmetry_group_IT_number 59
_space_group.IT_coordinate_system_code '2'
_symmetry_cell_setting 'orthorhombic'
loop_
_space_group_symop_operation_xyz
x,y,z
1/2-x,1/2-y,z
1/2+x,-y,-z
-x,1/2+y,-z
-x,-y,-z
1/2+x,1/2+y,-z
1/2-x,y,z
x,1/2-y,z
loop_
_atom_site_type_symbol
_atom_site_label
_atom_site_fract_x
_atom_site_fract_y
_atom_site_fract_z
Si Si1 0.073023 0.917013 0.669603
Si Si2 0.330739 0.423238 0.358407
Si Si3 0.920088 0.079286 0.656261
Si Si4 0.997881 0.577272 0.150626
Si Si5 0.673633 0.418935 0.348947
Si Si6 0.750000 0.578043 0.838268
Si Si7 0.750000 0.078332 0.138024
O O1 0.058507 0.750000 0.701523
O O2 0.064759 0.956501 0.504448
O O3 0.124161 0.941137 0.708887
O O4 0.045444 0.027074 0.765885
O O5 0.335155 0.250000 0.370906
O O6 0.376787 0.488472 0.302064
O O7 0.317336 0.484639 0.512249
O O8 0.293290 0.471511 0.247591
O O9 0.908195 0.250000 0.670237
O O10 0.958972 0.030744 0.761008
O O11 0.995515 0.750000 0.128316
O O12 0.000000 0.500000 0.000000
O O13 0.681640 0.250000 0.392030
O O14 0.706700 0.469862 0.225523
O O15 0.750000 0.750000 0.863189
O O16 0.750000 0.502659 0.989751
O O17 0.750000 0.250000 0.107659
#
# Coordination Sequence:
#
# PCOD8244020 Si02
#       7
#     8   8   8   8   8   4   4
#     4   9  18  35  57  80 107 136 172 222 269 311
#     4  10  20  35  57  82 107 139 178 218 264 318
#     4   9  20  38  58  80 106 137 176 223 268 309
#     4  11  23  37  54  78 109 144 178 215 264 318
#     4   9  19  36  57  82 109 137 176 224 266 309
#     4  10  23  38  50  76 116 146 173 218 270 314
#     4  10  21  36  56  80 106 144 187 218 256 316
#
# _framework density 18.523593000000002
#
# number of rings (size 3 to 8) (size 9 to 14) (size 15 to 20)
#    0.000    2.333    0.000    3.000    0.000    7.333 
#    0.000    5.000    0.000    0.000    0.000    0.000 
#    0.000    0.000    0.000    0.000    0.000    0.000 
#
# Total GULP energy -595367.178840 kJ/mol
# GULP energy per Si atom -12403.482893 kJ/mol
# Density = 1.848143 g / cm^3
# Si number density = 18.523593 Si / 1000 Ang^3
#
#
#
# Elastic Constant Matrix: (Units=GPa)
#
#
# Indices 1 2 3 4 5 6 
#
# 1 144.5269 63.2023 98.6749 0.0000 0.0000 0.0000
# 2 63.2023 65.2498 56.6364 0.0000 0.0000 0.0000
# 3 98.6749 56.6364 135.3670 0.0000 0.0000 0.0000
# 4 0.0000 0.0000 0.0000 36.6092 0.0000 0.0000
# 5 0.0000 0.0000 0.0000 0.0000 9.2848 0.0000
# 6 0.0000 0.0000 0.0000 0.0000 0.0000 32.4412
#
#
#
# Elastic Compliance Matrix: (Units=1/GPa)
#
#
# Indices 1 2 3 4 5 6 
#
# 1 0.016383 -0.008641 -0.008327 0.000000 0.000000 0.000000
# 2 -0.008641 0.028623 -0.005677 0.000000 0.000000 0.000000
# 3 -0.008327 -0.005677 0.015832 0.000000 0.000000 0.000000
# 4 0.000000 0.000000 0.000000 0.027316 0.000000 0.000000
# 5 0.000000 0.000000 0.000000 0.000000 0.107703 0.000000
# 6 0.000000 0.000000 0.000000 0.000000 0.000000 0.030825
#
#
# Mechanical properties :
#
#
# Convention : Reuss Voigt Hill
#
# Bulk Modulus (GPa) = 64.31384 86.90786 75.61085
# Shear Modulus (GPa) = 18.04042 24.10903 21.07472
#
# Velocity S-wave (km/s) = 3.12415 3.61159 3.37667
# Velocity P-wave (km/s) = 6.91441 8.02563 7.49065
#
# Compressibility (1/GPa) = 0.01554875
#
# Stress axis : x y z
#
# Youngs Moduli (GPa) = 61.03797 34.93673 63.16212
#
# Poissons Ratio (x) = 0.30190 0.52595
# Poissons Ratio (y) = 0.52745 0.35855
# Poissons Ratio (z) = 0.50826 0.19832
#
# Static dielectric constant tensor:
#      x y z
#    x 3.611930 0.000000 0.000000 
#    y 0.000000 3.363910 0.000000 
#    z 0.000000 0.000000 3.409040 
# 
# 
# High freq. dielectric constant tensor:
#      x y z
#    x 1.731710 0.000000 0.000000 
#    y 0.000000 1.718110 0.000000 
#    z 0.000000 0.000000 1.715170 
# 
# From -- ./inp_files/6437.got.cif
#   From: 2010.03.12/outbox.cif.g09.slc.cpg/sg59_4_cif.got.tgz:6437.got - 2010.04.16 16:29:54.
