data_PCOD8244924
_publ_section_title
;
Structure prediction by ZEFSAII (Michael W. Deem and Ramdas Pophale) SiO2 
 PCOD8244924
Probable space group: P M M N
;
_chemical_formula_sum "Si O2"
_cell_formula_units_Z 64
_cell_length_a 13.594805
_cell_length_b 9.285508
_cell_length_c 26.261186
_cell_angle_alpha 90.000000
_cell_angle_beta 90.000000
_cell_angle_gamma 90.000000
_cell_volume 3315.072164
_symmetry_space_group_name_H-M "P M M N"
_symmetry_group_IT_number 59
_space_group.IT_coordinate_system_code '2'
_symmetry_cell_setting 'orthorhombic'
loop_
_space_group_symop_operation_xyz
x,y,z
1/2-x,1/2-y,z
1/2+x,-y,-z
-x,1/2+y,-z
-x,-y,-z
1/2+x,1/2+y,-z
1/2-x,y,z
x,1/2-y,z
loop_
_atom_site_type_symbol
_atom_site_label
_atom_site_fract_x
_atom_site_fract_y
_atom_site_fract_z
Si Si1 0.859540 0.915007 0.827823
Si Si2 0.133512 0.587500 0.880925
Si Si3 0.132821 0.586929 0.074418
Si Si4 0.637361 0.579939 0.320412
Si Si5 0.859567 0.416068 0.518162
Si Si6 0.632426 0.913648 0.022577
Si Si7 0.549829 0.084891 0.226406
Si Si8 0.446916 0.418670 0.573214
O O1 0.750000 0.965901 0.811617
O O2 0.857978 0.750000 0.846260
O O3 0.931841 0.934019 0.779688
O O4 0.903094 0.006476 0.874665
O O5 0.250000 0.586323 0.883576
O O6 0.093307 0.750000 0.889575
O O7 0.090918 0.482960 0.924964
O O8 0.100867 0.531252 0.825596
O O9 0.250000 0.582844 0.073011
O O10 0.093242 0.750000 0.074594
O O11 0.090149 0.506172 0.024740
O O12 0.750000 0.528323 0.323539
O O13 0.630289 0.750000 0.314843
O O14 0.585002 0.512537 0.272123
O O15 0.580260 0.525360 0.370669
O O16 0.750000 0.447756 0.539471
O O17 0.872188 0.250000 0.502973
O O18 0.875860 0.506557 0.467247
O O19 0.938994 0.457891 0.561564
O O20 0.750000 0.918612 0.022117
O O21 0.594500 0.750000 0.018641
O O22 0.578511 0.250000 0.237828
O O23 0.426230 0.250000 0.568942
#
# Coordination Sequence:
#
# PCOD8244924 Si02
#       8
#     8   8   8   8   8   8   8   8
#     4   9  18  34  54  73  95 124 159 203 255 307
#     4   9  17  30  47  67  93 123 155 195 244 296
#     4   9  16  27  46  71  96 123 157 197 242 296
#     4  10  21  36  54  77 106 139 173 211 255 302
#     4   9  17  30  51  80 112 145 182 223 263 303
#     4   9  16  26  43  68  96 125 156 191 237 296
#     4  10  21  36  54  75  98 128 168 212 257 304
#     4   9  18  33  52  76 109 147 183 218 260 309
#
# _framework density 19.305762999999999
#
# number of rings (size 3 to 8) (size 9 to 14) (size 15 to 20)
#    0.000    2.750    0.000    1.500    0.000    6.000 
#    0.000    2.500    0.000    0.750    0.000    0.000 
#    0.000    0.000    0.000    0.000    0.000    0.000 
#
# Total GULP energy -793608.737875 kJ/mol
# GULP energy per Si atom -12400.136529 kJ/mol
# Density = 1.926182 g / cm^3
# Si number density = 19.305763 Si / 1000 Ang^3
#
#
#
# Elastic Constant Matrix: (Units=GPa)
#
#
# Indices 1 2 3 4 5 6 
#
# 1 79.4431 28.0063 58.7799 0.0000 0.0000 0.0000
# 2 28.0063 77.3856 60.3026 0.0000 0.0000 0.0000
# 3 58.7799 60.3026 146.2723 0.0000 0.0000 0.0000
# 4 0.0000 0.0000 0.0000 35.8091 0.0000 0.0000
# 5 0.0000 0.0000 0.0000 0.0000 26.6671 0.0000
# 6 0.0000 0.0000 0.0000 0.0000 0.0000 17.9082
#
#
#
# Elastic Compliance Matrix: (Units=1/GPa)
#
#
# Indices 1 2 3 4 5 6 
#
# 1 0.018001 -0.001293 -0.006701 0.000000 0.000000 0.000000
# 2 -0.001293 0.019131 -0.007367 0.000000 0.000000 0.000000
# 3 -0.006701 -0.007367 0.012567 0.000000 0.000000 0.000000
# 4 0.000000 0.000000 0.000000 0.027926 0.000000 0.000000
# 5 0.000000 0.000000 0.000000 0.000000 0.037499 0.000000
# 6 0.000000 0.000000 0.000000 0.000000 0.000000 0.055840
#
#
# Mechanical properties :
#
#
# Convention : Reuss Voigt Hill
#
# Bulk Modulus (GPa) = 52.69684 66.36430 59.53057
# Shear Modulus (GPa) = 24.03689 26.47768 25.25728
#
# Velocity S-wave (km/s) = 3.53237 3.70738 3.62093
# Velocity P-wave (km/s) = 6.63265 7.26473 6.95587
#
# Compressibility (1/GPa) = 0.01897647
#
# Stress axis : x y z
#
# Youngs Moduli (GPa) = 55.55115 52.27004 79.57602
#
# Poissons Ratio (x) = 0.06760 0.53322
# Poissons Ratio (y) = 0.07184 0.58627
# Poissons Ratio (z) = 0.37223 0.38510
#
# Static dielectric constant tensor:
#      x y z
#    x 3.669200 0.000000 0.000000 
#    y 0.000000 3.542710 0.000000 
#    z 0.000000 0.000000 3.383520 
# 
# 
# High freq. dielectric constant tensor:
#      x y z
#    x 1.765160 0.000000 0.000000 
#    y 0.000000 1.745710 0.000000 
#    z 0.000000 0.000000 1.729080 
# 
# From -- ./inp_files/32149.got.cif
#   From: 2010.03.12/outbox.cif.g09.slc.cpg/sg59_17_cif.got.tgz:32149.got - 2010.04.16 16:29:54.
