data_PCOD8244400
_publ_section_title
;
Structure prediction by ZEFSAII (Michael W. Deem and Ramdas Pophale) SiO2 
 PCOD8244400
Probable space group: P M M N
;
_chemical_formula_sum "Si O2"
_cell_formula_units_Z 40
_cell_length_a 8.458351
_cell_length_b 16.271498
_cell_length_c 13.880415
_cell_angle_alpha 90.000000
_cell_angle_beta 90.000000
_cell_angle_gamma 90.000000
_cell_volume 1910.362091
_symmetry_space_group_name_H-M "P M M N"
_symmetry_group_IT_number 59
_space_group.IT_coordinate_system_code '2'
_symmetry_cell_setting 'orthorhombic'
loop_
_space_group_symop_operation_xyz
x,y,z
1/2-x,1/2-y,z
1/2+x,-y,-z
-x,1/2+y,-z
-x,-y,-z
1/2+x,1/2+y,-z
1/2-x,y,z
x,1/2-y,z
loop_
_atom_site_type_symbol
_atom_site_label
_atom_site_fract_x
_atom_site_fract_y
_atom_site_fract_z
Si Si1 0.434733 0.155276 0.453188
Si Si2 0.566761 0.105734 0.645662
Si Si3 0.562330 0.581520 0.947215
Si Si4 0.070633 0.250000 0.762020
Si Si5 0.067170 0.750000 0.034515
Si Si6 0.935457 0.932198 0.732767
O O1 0.250000 0.132913 0.461143
O O2 0.468511 0.250000 0.473270
O O3 0.529756 0.102407 0.531876
O O4 0.498041 0.133306 0.346071
O O5 0.750000 0.127014 0.662268
O O6 0.455706 0.171747 0.695531
O O7 0.517821 0.021042 0.694200
O O8 0.750000 0.576353 0.948078
O O9 0.491029 0.582512 0.838512
O O10 0.500000 0.500000 0.000000
O O11 0.511229 0.666632 0.995816
O O12 0.250000 0.250000 0.800665
O O13 0.950458 0.250000 0.850724
O O14 0.250000 0.750000 0.006397
O O15 0.750000 0.922165 0.743641
#
# Coordination Sequence:
#
# PCOD8244400 Si02
#       6
#     8   8   8   4   4   8
#     4  10  20  36  59  87 122 162 206 249 295 361
#     4  11  21  37  60  90 126 160 199 252 313 370
#     4  11  23  43  69  97 129 170 221 273 330 391
#     4  12  24  40  63  90 117 158 213 258 310 374
#     4  12  26  44  65  94 131 168 213 272 334 392
#     4   9  21  38  61  89 120 163 207 250 306 372
#
# _framework density 20.938438999999999
#
# number of rings (size 3 to 8) (size 9 to 14) (size 15 to 20)
#    0.000    1.400    1.000    4.800    1.400    1.600 
#    0.000    6.000    0.000    0.000    0.000    0.000 
#    0.000    0.000    0.000    0.000    0.000    0.000 
#
# Total GULP energy -496023.546417 kJ/mol
# GULP energy per Si atom -12400.588660 kJ/mol
# Density = 2.089078 g / cm^3
# Si number density = 20.938439 Si / 1000 Ang^3
#
#
#
# Elastic Constant Matrix: (Units=GPa)
#
#
# Indices 1 2 3 4 5 6 
#
# 1 65.6331 31.3596 15.1163 0.0000 0.0000 0.0000
# 2 31.3596 93.9547 56.0104 0.0000 0.0000 0.0000
# 3 15.1163 56.0104 153.9702 0.0000 0.0000 0.0000
# 4 0.0000 0.0000 0.0000 0.2939 0.0000 0.0000
# 5 0.0000 0.0000 0.0000 0.0000 31.0720 0.0000
# 6 0.0000 0.0000 0.0000 0.0000 0.0000 14.5721
#
#
#
# Elastic Compliance Matrix: (Units=1/GPa)
#
#
# Indices 1 2 3 4 5 6 
#
# 1 0.018162 -0.006383 0.000539 0.000000 0.000000 0.000000
# 2 -0.006383 0.015834 -0.005133 0.000000 0.000000 0.000000
# 3 0.000539 -0.005133 0.008309 0.000000 0.000000 0.000000
# 4 0.000000 0.000000 0.000000 3.402088 0.000000 0.000000
# 5 0.000000 0.000000 0.000000 0.000000 0.032183 0.000000
# 6 0.000000 0.000000 0.000000 0.000000 0.000000 0.068624
#
#
# Mechanical properties :
#
#
# Convention : Reuss Voigt Hill
#
# Bulk Modulus (GPa) = 49.13985 57.61450 53.37718
# Shear Modulus (GPa) = 1.39902 23.25906 12.32904
#
# Velocity S-wave (km/s) = 0.81830 3.33653 2.42920
# Velocity P-wave (km/s) = 4.94090 6.51300 5.78064
#
# Compressibility (1/GPa) = 0.02035008
#
# Stress axis : x y z
#
# Youngs Moduli (GPa) = 55.05995 63.15426 120.34781
#
# Poissons Ratio (x) = 0.40313 -0.06487
# Poissons Ratio (y) = 0.35147 0.61779
# Poissons Ratio (z) = -0.02968 0.32420
#
# Static dielectric constant tensor:
#      x y z
#    x 3.557050 0.000000 0.000000 
#    y 0.000000 3.871990 0.000000 
#    z 0.000000 0.000000 4.218750 
# 
# 
# High freq. dielectric constant tensor:
#      x y z
#    x 1.800770 0.000000 0.000000 
#    y 0.000000 1.829460 0.000000 
#    z 0.000000 0.000000 1.840680 
# 
# From -- ./inp_files/19984.got.cif
#   From: 2010.03.12/outbox.cif.g09.slc.cpg/sg59_10_cif.got.tgz:19984.got - 2010.04.16 16:29:54.
