data_PCOD8244851
_publ_section_title
;
Structure prediction by ZEFSAII (Michael W. Deem and Ramdas Pophale) SiO2 
 PCOD8244851
Probable space group: P M M N
;
_chemical_formula_sum "Si O2"
_cell_formula_units_Z 48
_cell_length_a 8.613341
_cell_length_b 14.682427
_cell_length_c 19.646938
_cell_angle_alpha 90.000000
_cell_angle_beta 90.000000
_cell_angle_gamma 90.000000
_cell_volume 2484.645111
_symmetry_space_group_name_H-M "P M M N"
_symmetry_group_IT_number 59
_space_group.IT_coordinate_system_code '2'
_symmetry_cell_setting 'orthorhombic'
loop_
_space_group_symop_operation_xyz
x,y,z
1/2-x,1/2-y,z
1/2+x,-y,-z
-x,1/2+y,-z
-x,-y,-z
1/2+x,1/2+y,-z
1/2-x,y,z
x,1/2-y,z
loop_
_atom_site_type_symbol
_atom_site_label
_atom_site_fract_x
_atom_site_fract_y
_atom_site_fract_z
Si Si1 0.432240 0.014190 0.830115
Si Si2 0.570316 0.855179 0.904765
Si Si3 0.935098 0.851248 0.056509
Si Si4 0.432068 0.750000 0.369224
Si Si5 0.068786 0.750000 0.529010
Si Si6 0.065533 0.438477 0.680114
Si Si7 0.066479 0.057761 0.437920
O O1 0.250000 0.026981 0.830176
O O2 0.506419 0.080796 0.887333
O O3 0.495435 0.039601 0.755838
O O4 0.475623 0.911181 0.848676
O O5 0.750000 0.880444 0.898089
O O6 0.541110 0.750000 0.888496
O O7 0.508443 0.879115 0.980739
O O8 0.750000 0.851935 0.056759
O O9 0.995160 0.750000 0.074243
O O10 0.250000 0.750000 0.352888
O O11 0.464167 0.750000 0.449145
O O12 0.512864 0.662766 0.337153
O O13 0.250000 0.750000 0.545584
O O14 0.993335 0.660938 0.562098
O O15 0.250000 0.446602 0.672614
O O16 0.984849 0.511884 0.631994
O O17 0.250000 0.056890 0.444227
O O18 0.000000 0.000000 0.500000
#
# Coordination Sequence:
#
# PCOD8244851 Si02
#       7
#     8   8   8   4   4   8   8
#     4  10  21  35  56  84 112 151 191 234 286 339
#     4   9  18  34  56  80 108 149 192 238 290 341
#     4   8  15  30  54  82 112 145 188 234 283 341
#     4  11  23  39  63  91 120 155 190 235 294 350
#     4  11  23  41  67  95 120 151 194 247 298 348
#     4  11  24  40  60  88 122 158 196 239 291 350
#     4  12  24  41  65  92 121 157 199 243 292 347
#
# _framework density 19.318653000000001
#
# number of rings (size 3 to 8) (size 9 to 14) (size 15 to 20)
#    0.000    1.833    1.667    4.000    1.167    2.333 
#    1.500    0.000    0.000    1.000    0.000    0.000 
#    0.000    0.000    0.000    0.000    0.000    0.000 
#
# Total GULP energy -595269.650125 kJ/mol
# GULP energy per Si atom -12401.451044 kJ/mol
# Density = 1.927468 g / cm^3
# Si number density = 19.318653 Si / 1000 Ang^3
#
#
#
# Elastic Constant Matrix: (Units=GPa)
#
#
# Indices 1 2 3 4 5 6 
#
# 1 68.3536 44.2808 46.9641 0.0000 0.0000 0.0000
# 2 44.2808 150.4238 79.8345 0.0000 0.0000 0.0000
# 3 46.9641 79.8345 123.1825 0.0000 0.0000 0.0000
# 4 0.0000 0.0000 0.0000 210.8571 0.0000 0.0000
# 5 0.0000 0.0000 0.0000 0.0000 22.8828 0.0000
# 6 0.0000 0.0000 0.0000 0.0000 0.0000 37.8550
#
#
#
# Elastic Compliance Matrix: (Units=1/GPa)
#
#
# Indices 1 2 3 4 5 6 
#
# 1 0.020616 -0.002892 -0.005986 0.000000 0.000000 0.000000
# 2 -0.002892 0.010539 -0.005728 0.000000 0.000000 0.000000
# 3 -0.005986 -0.005728 0.014112 0.000000 0.000000 0.000000
# 4 0.000000 0.000000 0.000000 0.004743 0.000000 0.000000
# 5 0.000000 0.000000 0.000000 0.000000 0.043701 0.000000
# 6 0.000000 0.000000 0.000000 0.000000 0.000000 0.026417
#
#
# Mechanical properties :
#
#
# Convention : Reuss Voigt Hill
#
# Bulk Modulus (GPa) = 62.28041 76.01318 69.14679
# Shear Modulus (GPa) = 32.32263 65.71102 49.01683
#
# Velocity S-wave (km/s) = 4.09483 5.83850 5.04261
# Velocity P-wave (km/s) = 7.39360 9.21321 8.35310
#
# Compressibility (1/GPa) = 0.01605641
#
# Stress axis : x y z
#
# Youngs Moduli (GPa) = 48.50629 94.88438 70.86030
#
# Poissons Ratio (x) = 0.27441 0.42414
# Poissons Ratio (y) = 0.14028 0.40587
# Poissons Ratio (z) = 0.29034 0.54348
#
# Static dielectric constant tensor:
#      x y z
#    x 3.355890 0.000000 0.000000 
#    y 0.000000 3.657830 0.000000 
#    z 0.000000 0.000000 3.747860 
# 
# 
# High freq. dielectric constant tensor:
#      x y z
#    x 1.738300 0.000000 0.000000 
#    y 0.000000 1.765520 0.000000 
#    z 0.000000 0.000000 1.752550 
# 
# From -- ./inp_files/25519.got.cif
#   From: 2010.03.12/outbox.cif.g09.slc.cpg/sg59_13_cif.got.tgz:25519.got - 2010.04.16 16:29:54.
