data_PCOD8244815
_publ_section_title
;
Structure prediction by ZEFSAII (Michael W. Deem and Ramdas Pophale) SiO2 
 PCOD8244815
Probable space group: P M M N
;
_chemical_formula_sum "Si O2"
_cell_formula_units_Z 64
_cell_length_a 9.858387
_cell_length_b 23.792811
_cell_length_c 14.989626
_cell_angle_alpha 90.000000
_cell_angle_beta 90.000000
_cell_angle_gamma 90.000000
_cell_volume 3515.947767
_symmetry_space_group_name_H-M "P M M N"
_symmetry_group_IT_number 59
_space_group.IT_coordinate_system_code '2'
_symmetry_cell_setting 'orthorhombic'
loop_
_space_group_symop_operation_xyz
x,y,z
1/2-x,1/2-y,z
1/2+x,-y,-z
-x,1/2+y,-z
-x,-y,-z
1/2+x,1/2+y,-z
1/2-x,y,z
x,1/2-y,z
loop_
_atom_site_type_symbol
_atom_site_label
_atom_site_fract_x
_atom_site_fract_y
_atom_site_fract_z
Si Si1 0.093037 0.876830 0.669215
Si Si2 0.410839 0.115617 0.645486
Si Si3 0.410986 0.500951 0.718727
Si Si4 0.595402 0.015937 0.082697
Si Si5 0.604293 0.814384 0.003894
Si Si6 0.602437 0.144595 0.128164
Si Si7 0.590602 0.816067 0.527510
Si Si8 0.411897 0.312451 0.806060
O O1 0.250000 0.874129 0.636555
O O2 0.078063 0.851379 0.767139
O O3 0.997447 0.837966 0.609583
O O4 0.037688 0.941322 0.672387
O O5 0.250000 0.117952 0.649614
O O6 0.459069 0.050658 0.655546
O O7 0.460029 0.145863 0.555466
O O8 0.474604 0.148865 0.728910
O O9 0.250000 0.506264 0.726024
O O10 0.460763 0.492285 0.821696
O O11 0.750000 0.994993 0.064472
O O12 0.591318 0.082476 0.090274
O O13 0.500000 0.000000 0.000000
O O14 0.750000 0.842368 0.979519
O O15 0.629178 0.750000 0.027875
O O16 0.546287 0.839531 0.097445
O O17 0.507130 0.817634 0.920234
O O18 0.750000 0.169438 0.105616
O O19 0.750000 0.825308 0.546997
O O20 0.561774 0.750000 0.509208
O O21 0.250000 0.311302 0.799552
O O22 0.471705 0.250000 0.791874
#
# Coordination Sequence:
#
# PCOD8244815 Si02
#       8
#     8   8   8   8   8   8   8   8
#     4   9  19  37  55  71  99 135 172 212 250 299
#     4   9  16  28  50  76 102 132 164 203 254 310
#     4   8  16  31  50  74 101 133 174 209 245 299
#     4   9  18  31  48  72 101 132 169 210 245 289
#     4   9  18  30  46  73 102 127 165 213 253 293
#     4   9  19  34  49  68  97 133 169 205 246 298
#     4  10  21  35  53  80 106 127 161 212 264 308
#     4   8  14  25  42  68 101 131 161 201 248 301
#
# _framework density 18.202773000000001
#
# number of rings (size 3 to 8) (size 9 to 14) (size 15 to 20)
#    0.000    3.125    0.000    2.625    1.750    4.000 
#    0.000    4.375    0.000    1.500    0.000    1.750 
#    0.000    0.000    0.000    0.000    0.000    0.000 
#
# Total GULP energy -792922.631463 kJ/mol
# GULP energy per Si atom -12389.416117 kJ/mol
# Density = 1.816134 g / cm^3
# Si number density = 18.202773 Si / 1000 Ang^3
#
#
#
# Elastic Constant Matrix: (Units=GPa)
#
#
# Indices 1 2 3 4 5 6 
#
# 1 57.0993 26.2450 51.4269 0.0000 0.0000 0.0000
# 2 26.2450 64.6452 42.9631 0.0000 0.0000 0.0000
# 3 51.4269 42.9631 106.1155 0.0000 0.0000 0.0000
# 4 0.0000 0.0000 0.0000 35.0299 0.0000 0.0000
# 5 0.0000 0.0000 0.0000 0.0000 22.0735 0.0000
# 6 0.0000 0.0000 0.0000 0.0000 0.0000 19.3933
#
#
#
# Elastic Compliance Matrix: (Units=1/GPa)
#
#
# Indices 1 2 3 4 5 6 
#
# 1 0.031692 -0.003638 -0.013886 0.000000 0.000000 0.000000
# 2 -0.003638 0.021581 -0.006975 0.000000 0.000000 0.000000
# 3 -0.013886 -0.006975 0.018977 0.000000 0.000000 0.000000
# 4 0.000000 0.000000 0.000000 0.028547 0.000000 0.000000
# 5 0.000000 0.000000 0.000000 0.000000 0.045303 0.000000
# 6 0.000000 0.000000 0.000000 0.000000 0.000000 0.051564
#
#
# Mechanical properties :
#
#
# Convention : Reuss Voigt Hill
#
# Bulk Modulus (GPa) = 43.00451 52.12556 47.56503
# Shear Modulus (GPa) = 19.65309 22.44770 21.05039
#
# Velocity S-wave (km/s) = 3.28941 3.51551 3.40433
# Velocity P-wave (km/s) = 6.17280 6.72135 6.45291
#
# Compressibility (1/GPa) = 0.02325337
#
# Stress axis : x y z
#
# Youngs Moduli (GPa) = 31.55368 46.33647 52.69488
#
# Poissons Ratio (x) = 0.16856 0.73173
# Poissons Ratio (y) = 0.11479 0.36753
# Poissons Ratio (z) = 0.43816 0.32318
#
# Static dielectric constant tensor:
#      x y z
#    x 3.028090 0.000000 0.000000 
#    y 0.000000 3.424460 0.000000 
#    z 0.000000 0.000000 3.470640 
# 
# 
# High freq. dielectric constant tensor:
#      x y z
#    x 1.656040 0.000000 0.000000 
#    y 0.000000 1.707730 0.000000 
#    z 0.000000 0.000000 1.709550 
# 
# From -- ./inp_files/16271.got.cif
#   From: 2010.03.12/outbox.cif.g09.slc.cpg/sg59_9_cif.got.tgz:16271.got - 2010.04.16 16:29:54.
