data_PCOD8244708
_publ_section_title
;
Structure prediction by ZEFSAII (Michael W. Deem and Ramdas Pophale) SiO2 
 PCOD8244708
Probable space group: P M M N
;
_chemical_formula_sum "Si O2"
_cell_formula_units_Z 64
_cell_length_a 13.928430
_cell_length_b 25.124519
_cell_length_c 9.585558
_cell_angle_alpha 90.000000
_cell_angle_beta 90.000000
_cell_angle_gamma 90.000000
_cell_volume 3354.419093
_symmetry_space_group_name_H-M "P M M N"
_symmetry_group_IT_number 59
_space_group.IT_coordinate_system_code '2'
_symmetry_cell_setting 'orthorhombic'
loop_
_space_group_symop_operation_xyz
x,y,z
1/2-x,1/2-y,z
1/2+x,-y,-z
-x,1/2+y,-z
-x,-y,-z
1/2+x,1/2+y,-z
1/2-x,y,z
x,1/2-y,z
loop_
_atom_site_type_symbol
_atom_site_label
_atom_site_fract_x
_atom_site_fract_y
_atom_site_fract_z
Si Si1 0.946701 0.576429 0.414327
Si Si2 0.646345 0.427793 0.908317
Si Si3 0.855885 0.110011 0.205739
Si Si4 0.137643 0.962168 0.530125
Si Si5 0.975974 0.811223 0.876812
Si Si6 0.858977 0.546106 0.902202
Si Si7 0.543909 0.614987 0.119304
Si Si8 0.860452 0.630496 0.667958
O O1 0.881487 0.524016 0.435185
O O2 0.912539 0.607529 0.273179
O O3 0.923406 0.620563 0.530857
O O4 0.060436 0.559405 0.414984
O O5 0.750000 0.410115 0.849952
O O6 0.619066 0.486388 0.855129
O O7 0.570537 0.385003 0.854043
O O8 0.646673 0.430299 0.076229
O O9 0.750000 0.135493 0.229277
O O10 0.885429 0.073989 0.336095
O O11 0.929899 0.157365 0.174242
O O12 0.250000 0.956436 0.481330
O O13 0.002281 0.750000 0.896326
O O14 0.896397 0.818135 0.755393
O O15 0.932671 0.832440 0.026683
O O16 0.750000 0.553327 0.955462
O O17 0.878574 0.579416 0.764137
O O18 0.928281 0.563749 0.026920
O O19 0.750000 0.638937 0.627335
#
# Coordination Sequence:
#
# PCOD8244708 Si02
#       8
#     8   8   8   8   8   8   8   8
#     4  11  22  34  54  84 119 156 186 213 270 337
#     4   9  17  28  48  76 108 144 180 215 260 319
#     4   9  17  33  55  83 112 143 183 227 271 324
#     4  10  21  34  53  82 123 159 184 215 264 334
#     4  10  21  40  61  80 103 138 188 242 291 327
#     4   9  18  31  50  74 104 143 181 219 264 320
#     4  10  21  33  52  77 109 141 178 225 273 325
#     4  10  21  37  56  81 111 144 188 231 273 329
#
# _framework density 19.079308999999999
#
# number of rings (size 3 to 8) (size 9 to 14) (size 15 to 20)
#    0.000    2.250    1.250    1.500    3.500    3.000 
#    0.000    0.625    0.000    0.000    0.000    0.000 
#    0.000    0.000    0.000    0.000    0.000    0.000 
#
# Total GULP energy -793047.989248 kJ/mol
# GULP energy per Si atom -12391.374832 kJ/mol
# Density = 1.903588 g / cm^3
# Si number density = 19.079309 Si / 1000 Ang^3
#
#
#
# Elastic Constant Matrix: (Units=GPa)
#
#
# Indices 1 2 3 4 5 6 
#
# 1 81.9784 8.7980 17.3479 0.0000 0.0000 0.0000
# 2 8.7980 67.7938 25.9751 0.0000 0.0000 0.0000
# 3 17.3479 25.9751 81.0867 0.0000 0.0000 0.0000
# 4 0.0000 0.0000 0.0000 12.8724 0.0000 0.0000
# 5 0.0000 0.0000 0.0000 0.0000 19.6367 0.0000
# 6 0.0000 0.0000 0.0000 0.0000 0.0000 16.2987
#
#
#
# Elastic Compliance Matrix: (Units=1/GPa)
#
#
# Indices 1 2 3 4 5 6 
#
# 1 0.012806 -0.000698 -0.002516 0.000000 0.000000 0.000000
# 2 -0.000698 0.016852 -0.005249 0.000000 0.000000 0.000000
# 3 -0.002516 -0.005249 0.014552 0.000000 0.000000 0.000000
# 4 0.000000 0.000000 0.000000 0.077685 0.000000 0.000000
# 5 0.000000 0.000000 0.000000 0.000000 0.050925 0.000000
# 6 0.000000 0.000000 0.000000 0.000000 0.000000 0.061355
#
#
# Mechanical properties :
#
#
# Convention : Reuss Voigt Hill
#
# Bulk Modulus (GPa) = 36.65135 37.23344 36.94240
# Shear Modulus (GPa) = 19.21625 21.67741 20.44683
#
# Velocity S-wave (km/s) = 3.17705 3.37437 3.27720
# Velocity P-wave (km/s) = 5.71926 5.89401 5.80729
#
# Compressibility (1/GPa) = 0.02728412
#
# Stress axis : x y z
#
# Youngs Moduli (GPa) = 78.09028 59.33884 68.71775
#
# Poissons Ratio (x) = 0.04141 0.17290
# Poissons Ratio (y) = 0.05449 0.36071
# Poissons Ratio (z) = 0.19649 0.31148
#
# Static dielectric constant tensor:
#      x y z
#    x 3.780180 0.000000 0.000000 
#    y 0.000000 3.044780 0.000000 
#    z 0.000000 0.000000 3.529940 
# 
# 
# High freq. dielectric constant tensor:
#      x y z
#    x 1.757790 0.000000 0.000000 
#    y 0.000000 1.686820 0.000000 
#    z 0.000000 0.000000 1.741570 
# 
# From -- ./inp_files/9590.got.cif
#   From: 2010.03.12/outbox.cif.g09.slc.cpg/sg59_5_cif.got.tgz:9590.got - 2010.04.16 16:29:54.
