data_PCOD8244502
_publ_section_title
;
Structure prediction by ZEFSAII (Michael W. Deem and Ramdas Pophale) SiO2 
 PCOD8244502
Probable space group: P M M N
;
_chemical_formula_sum "Si O2"
_cell_formula_units_Z 40
_cell_length_a 15.459999
_cell_length_b 12.984800
_cell_length_c 9.501300
_cell_angle_alpha 90.000000
_cell_angle_beta 90.000000
_cell_angle_gamma 90.000000
_cell_volume 1907.338421
_symmetry_space_group_name_H-M "P M M N"
_symmetry_group_IT_number 59
_space_group.IT_coordinate_system_code '2'
_symmetry_cell_setting 'orthorhombic'
loop_
_space_group_symop_operation_xyz
x,y,z
1/2-x,1/2-y,z
1/2+x,-y,-z
-x,1/2+y,-z
-x,-y,-z
1/2+x,1/2+y,-z
1/2-x,y,z
x,1/2-y,z
loop_
_atom_site_type_symbol
_atom_site_label
_atom_site_fract_x
_atom_site_fract_y
_atom_site_fract_z
Si Si1 0.153621 0.633683 0.098694
Si Si2 0.425840 0.504936 0.328947
Si Si3 0.493145 0.129791 0.090870
Si Si4 0.345497 0.128290 0.879187
Si Si5 0.917086 0.871380 0.418952
O O1 0.250000 0.623149 0.035999
O O2 0.134719 0.750000 0.150312
O O3 0.146080 0.558871 0.232816
O O4 0.086276 0.605081 0.976307
O O5 0.487336 0.430281 0.236925
O O6 0.483234 0.595029 0.398804
O O7 0.379187 0.435082 0.447968
O O8 0.480502 0.250000 0.121360
O O9 0.419054 0.085947 0.984560
O O10 0.250000 0.087255 0.923897
O O11 0.348600 0.250000 0.888546
O O12 0.363396 0.096033 0.718676
O O13 0.911502 0.750000 0.449470
#
# Coordination Sequence:
#
# PCOD8244502 Si02
#       5
#     8   8   8   8   8
#     4  10  21  37  58  84 116 152 190 237 290 344
#     4  11  21  35  58  86 111 149 198 238 285 344
#     4  10  20  37  58  85 117 149 192 243 291 341
#     4   9  18  34  56  80 110 149 186 229 291 349
#     4  10  21  37  56  81 116 152 188 236 292 346
#
# _framework density 20.971634000000002
#
# number of rings (size 3 to 8) (size 9 to 14) (size 15 to 20)
#    0.000    2.000    2.000    1.800    0.000    1.600 
#    0.000    0.000    0.000    7.200    0.000   11.200 
#    0.000    0.000    0.000    0.000    0.000    0.000 
#
# Total GULP energy -495935.397577 kJ/mol
# GULP energy per Si atom -12398.384939 kJ/mol
# Density = 2.092390 g / cm^3
# Si number density = 20.971634 Si / 1000 Ang^3
#
#
#
# Elastic Constant Matrix: (Units=GPa)
#
#
# Indices 1 2 3 4 5 6 
#
# 1 114.1799 4.2210 21.1459 0.0000 0.0000 0.0000
# 2 4.2210 84.1577 27.8020 0.0000 0.0000 0.0000
# 3 21.1459 27.8020 93.2365 0.0000 0.0000 0.0000
# 4 0.0000 0.0000 0.0000 40.1800 0.0000 0.0000
# 5 0.0000 0.0000 0.0000 0.0000 -48.5947 0.0000
# 6 0.0000 0.0000 0.0000 0.0000 0.0000 -1.0959
#
#
#
# Elastic Compliance Matrix: (Units=1/GPa)
#
#
# Indices 1 2 3 4 5 6 
#
# 1 0.009147 0.000251 -0.002149 0.000000 0.000000 0.000000
# 2 0.000251 0.013188 -0.003989 0.000000 0.000000 0.000000
# 3 -0.002149 -0.003989 0.012402 0.000000 0.000000 0.000000
# 4 0.000000 0.000000 0.000000 0.024888 0.000000 0.000000
# 5 0.000000 0.000000 0.000000 0.000000 -0.020578 0.000000
# 6 0.000000 0.000000 0.000000 0.000000 0.000000 -0.912460
#
#
# Mechanical properties :
#
#
# Convention : Reuss Voigt Hill
#
# Bulk Modulus (GPa) = 43.55010 44.21242 43.88126
# Shear Modulus (GPa) = -5.85491 13.99155 4.06832
#
# Velocity S-wave (km/s) = -1.67269 2.58576 1.39432
# Velocity P-wave (km/s) = 4.13289 5.48112 4.85404
#
# Compressibility (1/GPa) = 0.02296206
#
# Stress axis : x y z
#
# Youngs Moduli (GPa) = 109.32674 75.82773 80.62892
#
# Poissons Ratio (x) = -0.01906 0.17331
# Poissons Ratio (y) = -0.02747 0.32166
# Poissons Ratio (z) = 0.23499 0.30251
#
# Static dielectric constant tensor:
#      x y z
#    x 3.706070 0.000000 0.000000 
#    y 0.000000 3.992470 0.000000 
#    z 0.000000 0.000000 3.748580 
# 
# 
# High freq. dielectric constant tensor:
#      x y z
#    x 1.800210 0.000000 0.000000 
#    y 0.000000 1.842630 0.000000 
#    z 0.000000 0.000000 1.810210 
# 
# From -- ./inp_files/8610.got.cif
#   From: 2010.03.12/outbox.cif.g09.slc.cpg/sg59_5_cif.got.tgz:8610.got - 2010.04.16 16:29:54.
