data_PCOD8244723
_publ_section_title
;
Structure prediction by ZEFSAII (Michael W. Deem and Ramdas Pophale) SiO2 
 PCOD8244723
Probable space group: P M M N
;
_chemical_formula_sum "Si O2"
_cell_formula_units_Z 48
_cell_length_a 14.012457
_cell_length_b 12.660385
_cell_length_c 15.118057
_cell_angle_alpha 90.000000
_cell_angle_beta 90.000000
_cell_angle_gamma 90.000000
_cell_volume 2681.990184
_symmetry_space_group_name_H-M "P M M N"
_symmetry_group_IT_number 59
_space_group.IT_coordinate_system_code '2'
_symmetry_cell_setting 'orthorhombic'
loop_
_space_group_symop_operation_xyz
x,y,z
1/2-x,1/2-y,z
1/2+x,-y,-z
-x,1/2+y,-z
-x,-y,-z
1/2+x,1/2+y,-z
1/2-x,y,z
x,1/2-y,z
loop_
_atom_site_type_symbol
_atom_site_label
_atom_site_fract_x
_atom_site_fract_y
_atom_site_fract_z
Si Si1 0.643172 0.627314 0.926253
Si Si2 0.642012 0.133550 0.684590
Si Si3 0.641172 0.994532 0.515111
Si Si4 0.983186 0.372718 0.393270
Si Si5 0.512781 0.982993 0.787610
Si Si6 0.139494 0.369897 0.868510
O O1 0.750000 0.585093 0.902353
O O2 0.639427 0.750000 0.903488
O O3 0.559798 0.571705 0.871937
O O4 0.621458 0.607075 0.028674
O O5 0.750000 0.135164 0.717605
O O6 0.598655 0.250000 0.676745
O O7 0.633173 0.084129 0.588397
O O8 0.584964 0.072538 0.758225
O O9 0.750000 0.956882 0.499211
O O10 0.600253 0.048241 0.426230
O O11 0.578706 0.894654 0.548316
O O12 0.955250 0.250000 0.403903
O O13 0.997903 0.397089 0.289721
O O14 0.414779 0.041089 0.812491
O O15 0.250000 0.381929 0.844358
O O16 0.105721 0.250000 0.845744
#
# Coordination Sequence:
#
# PCOD8244723 Si02
#       6
#     8   8   8   8   8   8
#     4   9  18  33  52  73  98 130 168 208 253 306
#     4   9  17  29  47  71  96 124 161 203 247 296
#     4   9  19  36  54  70  96 136 173 202 239 290
#     4  10  21  34  51  78 106 130 164 207 250 299
#     4  11  19  30  50  76 103 129 161 207 259 303
#     4   9  19  35  52  70  96 134 176 211 245 293
#
# _framework density 17.897157
#
# number of rings (size 3 to 8) (size 9 to 14) (size 15 to 20)
#    0.000    2.500    0.000    3.500    0.000    2.667 
#    0.000    0.833    0.000    1.500    0.000    9.333 
#    0.000    0.000    0.000    0.000    0.000    0.000 
#
# Total GULP energy -595081.458127 kJ/mol
# GULP energy per Si atom -12397.530378 kJ/mol
# Density = 1.785642 g / cm^3
# Si number density = 17.897157 Si / 1000 Ang^3
#
#
#
# Elastic Constant Matrix: (Units=GPa)
#
#
# Indices 1 2 3 4 5 6 
#
# 1 82.0472 21.1466 29.0509 0.0000 0.0000 0.0000
# 2 21.1466 64.1412 24.5894 0.0000 0.0000 0.0000
# 3 29.0509 24.5894 53.0456 0.0000 0.0000 0.0000
# 4 0.0000 0.0000 0.0000 13.6653 0.0000 0.0000
# 5 0.0000 0.0000 0.0000 0.0000 28.9526 0.0000
# 6 0.0000 0.0000 0.0000 0.0000 0.0000 27.9029
#
#
#
# Elastic Compliance Matrix: (Units=1/GPa)
#
#
# Indices 1 2 3 4 5 6 
#
# 1 0.015380 -0.002240 -0.007385 0.000000 0.000000 0.000000
# 2 -0.002240 0.019286 -0.007714 0.000000 0.000000 0.000000
# 3 -0.007385 -0.007714 0.026472 0.000000 0.000000 0.000000
# 4 0.000000 0.000000 0.000000 0.073178 0.000000 0.000000
# 5 0.000000 0.000000 0.000000 0.000000 0.034539 0.000000
# 6 0.000000 0.000000 0.000000 0.000000 0.000000 0.035839
#
#
# Mechanical properties :
#
#
# Convention : Reuss Voigt Hill
#
# Bulk Modulus (GPa) = 37.79022 38.75641 38.27332
# Shear Modulus (GPa) = 20.14583 22.40063 21.27323
#
# Velocity S-wave (km/s) = 3.35870 3.54168 3.45140
# Velocity P-wave (km/s) = 6.01683 6.19893 6.10856
#
# Compressibility (1/GPa) = 0.02646187
#
# Stress axis : x y z
#
# Youngs Moduli (GPa) = 65.01894 51.85094 37.77614
#
# Poissons Ratio (x) = 0.11612 0.27897
# Poissons Ratio (y) = 0.14561 0.29139
# Poissons Ratio (z) = 0.48016 0.39996
#
# Static dielectric constant tensor:
#      x y z
#    x 3.457560 0.000000 0.000000 
#    y 0.000000 3.230340 0.000000 
#    z 0.000000 0.000000 3.198010 
# 
# 
# High freq. dielectric constant tensor:
#      x y z
#    x 1.691710 0.000000 0.000000 
#    y 0.000000 1.686870 0.000000 
#    z 0.000000 0.000000 1.689030 
# 
# From -- ./inp_files/22369.got.cif
#   From: 2010.03.12/outbox.cif.g09.slc.cpg/sg59_12_cif.got.tgz:22369.got - 2010.04.16 16:29:54.
