data_PCOD8244721
_publ_section_title
;
Structure prediction by ZEFSAII (Michael W. Deem and Ramdas Pophale) SiO2 
 PCOD8244721
Probable space group: P M M N
;
_chemical_formula_sum "Si O2"
_cell_formula_units_Z 64
_cell_length_a 30.122221
_cell_length_b 13.152765
_cell_length_c 9.407949
_cell_angle_alpha 90.000000
_cell_angle_beta 90.000000
_cell_angle_gamma 90.000000
_cell_volume 3727.339963
_symmetry_space_group_name_H-M "P M M N"
_symmetry_group_IT_number 59
_space_group.IT_coordinate_system_code '2'
_symmetry_cell_setting 'orthorhombic'
loop_
_space_group_symop_operation_xyz
x,y,z
1/2-x,1/2-y,z
1/2+x,-y,-z
-x,1/2+y,-z
-x,-y,-z
1/2+x,1/2+y,-z
1/2-x,y,z
x,1/2-y,z
loop_
_atom_site_type_symbol
_atom_site_label
_atom_site_fract_x
_atom_site_fract_y
_atom_site_fract_z
Si Si1 0.800638 0.869102 0.618687
Si Si2 0.934924 0.368841 0.687788
Si Si3 0.639549 0.868290 0.368237
Si Si4 0.877298 0.530582 0.790273
Si Si5 0.967435 0.132208 0.385870
Si Si6 0.107621 0.131270 0.920874
Si Si7 0.982369 0.533042 0.153680
Si Si8 0.066912 0.134252 0.427369
O O1 0.750000 0.903547 0.636765
O O2 0.806950 0.750000 0.654935
O O3 0.815377 0.891188 0.455609
O O4 0.830393 0.935953 0.724155
O O5 0.933845 0.250000 0.711584
O O6 0.889329 0.412607 0.758665
O O7 0.935133 0.396623 0.518030
O O8 0.978758 0.411489 0.762432
O O9 0.629893 0.750000 0.357332
O O10 0.597055 0.917310 0.449814
O O11 0.640875 0.905725 0.205888
O O12 0.876846 0.556704 0.955074
O O13 0.920233 0.586808 0.724014
O O14 0.960751 0.250000 0.338646
O O15 0.015663 0.117357 0.458791
O O16 0.962998 0.062479 0.245791
O O17 0.113427 0.250000 0.962935
O O18 0.057208 0.112970 0.871687
O O19 0.000000 0.500000 0.000000
O O20 0.080823 0.250000 0.413075
#
# Coordination Sequence:
#
# PCOD8244721 Si02
#       8
#     8   8   8   8   8   8   8   8
#     4   9  18  34  57  84 108 129 159 207 267 327
#     4  11  23  37  50  72 105 142 188 235 267 296
#     4   8  16  28  47  72  99 131 163 200 250 307
#     4  11  20  33  52  75 101 140 175 212 260 319
#     4  10  21  34  51  72  98 136 185 231 263 304
#     4  11  21  33  48  74 107 143 183 214 249 304
#     4  12  22  34  49  74 106 149 180 224 269 311
#     4   9  15  28  48  69  93 129 172 213 251 296
#
# _framework density 17.170423
#
# number of rings (size 3 to 8) (size 9 to 14) (size 15 to 20)
#    0.000    1.875    2.500    3.375    3.500    4.000 
#    0.000    0.625    0.000    2.625    0.000    0.000 
#    0.000    0.000    0.000    0.000    0.000    0.000 
#
# Total GULP energy -793073.979816 kJ/mol
# GULP energy per Si atom -12391.780935 kJ/mol
# Density = 1.713134 g / cm^3
# Si number density = 17.170423 Si / 1000 Ang^3
#
#
#
# Elastic Constant Matrix: (Units=GPa)
#
#
# Indices 1 2 3 4 5 6 
#
# 1 69.2426 28.7635 29.6838 0.0000 0.0000 0.0000
# 2 28.7635 78.8208 51.0751 0.0000 0.0000 0.0000
# 3 29.6838 51.0751 122.0389 0.0000 0.0000 0.0000
# 4 0.0000 0.0000 0.0000 24.8336 0.0000 0.0000
# 5 0.0000 0.0000 0.0000 0.0000 18.3375 0.0000
# 6 0.0000 0.0000 0.0000 0.0000 0.0000 18.3779
#
#
#
# Elastic Compliance Matrix: (Units=1/GPa)
#
#
# Indices 1 2 3 4 5 6 
#
# 1 0.017429 -0.004958 -0.002164 0.000000 0.000000 0.000000
# 2 -0.004958 0.018818 -0.006670 0.000000 0.000000 0.000000
# 3 -0.002164 -0.006670 0.011512 0.000000 0.000000 0.000000
# 4 0.000000 0.000000 0.000000 0.040268 0.000000 0.000000
# 5 0.000000 0.000000 0.000000 0.000000 0.054533 0.000000
# 6 0.000000 0.000000 0.000000 0.000000 0.000000 0.054413
#
#
# Mechanical properties :
#
#
# Convention : Reuss Voigt Hill
#
# Bulk Modulus (GPa) = 49.56536 54.34967 51.95751
# Shear Modulus (GPa) = 21.61855 23.01514 22.31684
#
# Velocity S-wave (km/s) = 3.55217 3.66511 3.60908
# Velocity P-wave (km/s) = 6.76411 7.04503 6.90600
#
# Compressibility (1/GPa) = 0.02017538
#
# Stress axis : x y z
#
# Youngs Moduli (GPa) = 57.37446 53.14012 86.86608
#
# Poissons Ratio (x) = 0.26346 0.18802
# Poissons Ratio (y) = 0.28445 0.57938
# Poissons Ratio (z) = 0.12418 0.35443
#
# Static dielectric constant tensor:
#      x y z
#    x 2.995000 0.000000 0.000000 
#    y 0.000000 3.254020 0.000000 
#    z 0.000000 0.000000 3.511170 
# 
# 
# High freq. dielectric constant tensor:
#      x y z
#    x 1.621970 0.000000 0.000000 
#    y 0.000000 1.649150 0.000000 
#    z 0.000000 0.000000 1.673310 
# 
# From -- ./inp_files/13264.got.cif
#   From: 2010.03.12/outbox.cif.g09.slc.cpg/sg59_7_cif.got.tgz:13264.got - 2010.04.16 16:29:54.
