data_PCOD8244631
_publ_section_title
;
Structure prediction by ZEFSAII (Michael W. Deem and Ramdas Pophale) SiO2 
 PCOD8244631
Probable space group: P M M N
;
_chemical_formula_sum "Si O2"
_cell_formula_units_Z 64
_cell_length_a 17.662828
_cell_length_b 26.976119
_cell_length_c 6.802467
_cell_angle_alpha 90.000000
_cell_angle_beta 90.000000
_cell_angle_gamma 90.000000
_cell_volume 3241.202403
_symmetry_space_group_name_H-M "P M M N"
_symmetry_group_IT_number 59
_space_group.IT_coordinate_system_code '2'
_symmetry_cell_setting 'orthorhombic'
loop_
_space_group_symop_operation_xyz
x,y,z
1/2-x,1/2-y,z
1/2+x,-y,-z
-x,1/2+y,-z
-x,-y,-z
1/2+x,1/2+y,-z
1/2-x,y,z
x,1/2-y,z
loop_
_atom_site_type_symbol
_atom_site_label
_atom_site_fract_x
_atom_site_fract_y
_atom_site_fract_z
Si Si1 0.666739 0.477262 0.516688
Si Si2 0.663753 0.392936 0.220861
Si Si3 0.103706 0.528351 0.077936
Si Si4 0.956669 0.850308 0.323719
Si Si5 0.069154 0.805654 0.619404
Si Si6 0.166847 0.308618 0.406122
Si Si7 0.439316 0.037405 0.745606
Si Si8 0.063566 0.304192 0.076474
O O1 0.750000 0.499444 0.457950
O O2 0.659567 0.422610 0.425060
O O3 0.666851 0.473842 0.753597
O O4 0.594948 0.508448 0.440757
O O5 0.750000 0.387942 0.144863
O O6 0.633118 0.338112 0.271894
O O7 0.614325 0.421577 0.053268
O O8 0.025250 0.526063 0.197122
O O9 0.110512 0.479924 0.935662
O O10 0.884903 0.821709 0.409501
O O11 0.935092 0.907327 0.332692
O O12 0.035147 0.835038 0.430230
O O13 0.964961 0.839149 0.094714
O O14 0.099477 0.750000 0.560504
O O15 0.002499 0.797698 0.769513
O O16 0.250000 0.331756 0.437180
O O17 0.170260 0.250000 0.391013
O O18 0.133319 0.328640 0.198226
O O19 0.085317 0.250000 0.990756
#
# Coordination Sequence:
#
# PCOD8244631 Si02
#       8
#     8   8   8   8   8   8   8   8
#     4  10  21  38  58  81 114 151 186 232 286 337
#     4  10  21  37  59  86 112 144 186 224 273 342
#     4  10  20  38  59  81 110 146 185 229 276 327
#     4  11  20  34  55  78 108 146 183 222 273 328
#     4  10  21  36  56  83 113 143 179 228 279 328
#     4   9  19  34  50  72 103 139 183 231 274 319
#     4  10  22  34  55  86 111 141 189 234 273 331
#     4   9  18  33  53  76 103 142 189 229 270 324
#
# _framework density 19.745760000000001
#
# number of rings (size 3 to 8) (size 9 to 14) (size 15 to 20)
#    0.000    2.125    0.000    4.125    0.000    5.750 
#    0.000    1.250    0.000    0.000    0.000    3.500 
#    0.000    0.000    0.000    0.000    0.000    0.000 
#
# Total GULP energy -792960.819895 kJ/mol
# GULP energy per Si atom -12390.012811 kJ/mol
# Density = 1.970082 g / cm^3
# Si number density = 19.745760 Si / 1000 Ang^3
#
#
#
# Elastic Constant Matrix: (Units=GPa)
#
#
# Indices 1 2 3 4 5 6 
#
# 1 77.6747 29.6047 19.6772 0.0000 0.0000 0.0000
# 2 29.6047 98.6921 28.3548 0.0000 0.0000 0.0000
# 3 19.6772 28.3548 99.9628 0.0000 0.0000 0.0000
# 4 0.0000 0.0000 0.0000 19.8883 0.0000 0.0000
# 5 0.0000 0.0000 0.0000 0.0000 22.1987 0.0000
# 6 0.0000 0.0000 0.0000 0.0000 0.0000 19.6579
#
#
#
# Elastic Compliance Matrix: (Units=1/GPa)
#
#
# Indices 1 2 3 4 5 6 
#
# 1 0.014829 -0.003930 -0.001804 0.000000 0.000000 0.000000
# 2 -0.003930 0.012073 -0.002651 0.000000 0.000000 0.000000
# 3 -0.001804 -0.002651 0.011111 0.000000 0.000000 0.000000
# 4 0.000000 0.000000 0.000000 0.050281 0.000000 0.000000
# 5 0.000000 0.000000 0.000000 0.000000 0.045048 0.000000
# 6 0.000000 0.000000 0.000000 0.000000 0.000000 0.050870
#
#
# Mechanical properties :
#
#
# Convention : Reuss Voigt Hill
#
# Bulk Modulus (GPa) = 47.07519 47.95589 47.51554
# Shear Modulus (GPa) = 24.03121 25.59519 24.81320
#
# Velocity S-wave (km/s) = 3.49238 3.60424 3.54875
# Velocity P-wave (km/s) = 6.33678 6.45446 6.39589
#
# Compressibility (1/GPa) = 0.02124261
#
# Stress axis : x y z
#
# Youngs Moduli (GPa) = 67.43488 82.82940 90.00216
#
# Poissons Ratio (x) = 0.32551 0.16239
# Poissons Ratio (y) = 0.26501 0.23859
# Poissons Ratio (z) = 0.12167 0.21958
#
# Static dielectric constant tensor:
#      x y z
#    x 3.687410 0.000000 0.000000 
#    y 0.000000 3.651920 0.000000 
#    z 0.000000 0.000000 3.671460 
# 
# 
# High freq. dielectric constant tensor:
#      x y z
#    x 1.761060 0.000000 0.000000 
#    y 0.000000 1.754930 0.000000 
#    z 0.000000 0.000000 1.775520 
# 
# From -- ./inp_files/3053.got.cif
#   From: 2010.03.12/outbox.cif.g09.slc.cpg/sg59_2_cif.got.tgz:3053.got - 2010.04.16 16:29:54.
