data_PCOD8244985
_publ_section_title
;
Structure prediction by ZEFSAII (Michael W. Deem and Ramdas Pophale) SiO2 
 PCOD8244985
Probable space group: P M M N
;
_chemical_formula_sum "Si O2"
_cell_formula_units_Z 64
_cell_length_a 23.737359
_cell_length_b 8.978889
_cell_length_c 14.943912
_cell_angle_alpha 90.000000
_cell_angle_beta 90.000000
_cell_angle_gamma 90.000000
_cell_volume 3185.072352
_symmetry_space_group_name_H-M "P M M N"
_symmetry_group_IT_number 59
_space_group.IT_coordinate_system_code '2'
_symmetry_cell_setting 'orthorhombic'
loop_
_space_group_symop_operation_xyz
x,y,z
1/2-x,1/2-y,z
1/2+x,-y,-z
-x,1/2+y,-z
-x,-y,-z
1/2+x,1/2+y,-z
1/2-x,y,z
x,1/2-y,z
loop_
_atom_site_type_symbol
_atom_site_label
_atom_site_fract_x
_atom_site_fract_y
_atom_site_fract_z
Si Si1 0.107301 0.576536 0.824074
Si Si2 0.011226 0.415496 0.591720
Si Si3 0.185430 0.589940 0.501151
Si Si4 0.315586 0.922388 0.305528
Si Si5 0.362724 0.415383 0.653097
Si Si6 0.380160 0.425232 0.152483
Si Si7 0.315524 0.922981 0.993213
Si Si8 0.009117 0.571791 0.211129
O O1 0.092511 0.750000 0.818665
O O2 0.141125 0.527531 0.735803
O O3 0.049289 0.485112 0.831847
O O4 0.148700 0.539283 0.905331
O O5 0.987634 0.250000 0.577400
O O6 0.077419 0.416574 0.605946
O O7 0.000000 0.500000 0.500000
O O8 0.984367 0.481095 0.684311
O O9 0.250000 0.615047 0.478871
O O10 0.159438 0.750000 0.532501
O O11 0.159617 0.544327 0.404952
O O12 0.180145 0.466251 0.576743
O O13 0.250000 0.960144 0.295032
O O14 0.327221 0.750000 0.279151
O O15 0.349349 0.034853 0.243844
O O16 0.346526 0.250000 0.685929
O O17 0.390008 0.250000 0.145082
O O18 0.341115 0.479053 0.071935
O O19 0.440806 0.506349 0.150996
O O20 0.250000 0.965507 0.977710
O O21 0.320972 0.750000 0.019235
O O22 0.008348 0.750000 0.206660
#
# Coordination Sequence:
#
# PCOD8244985 Si02
#       8
#     8   8   8   8   8   8   8   8
#     4  10  21  40  65  91 119 154 200 252 300 354
#     4   9  20  35  53  79 112 151 195 239 283 337
#     4   9  19  35  55  80 110 151 202 246 289 348
#     4   9  19  37  58  80 113 157 200 246 302 360
#     4  10  21  36  54  82 118 155 192 237 295 352
#     4  12  25  38  59  91 123 156 198 249 301 360
#     4  10  23  44  68  92 119 155 198 245 302 365
#     4  10  22  41  61  86 121 163 204 244 301 364
#
# _framework density 20.093734999999999
#
# number of rings (size 3 to 8) (size 9 to 14) (size 15 to 20)
#    0.000    2.125    0.000    4.125    1.750    7.750 
#    0.000    2.500    0.000    0.000    0.000    0.000 
#    0.000    0.000    0.000    0.000    0.000    0.000 
#
# Total GULP energy -793376.542656 kJ/mol
# GULP energy per Si atom -12396.508479 kJ/mol
# Density = 2.004800 g / cm^3
# Si number density = 20.093735 Si / 1000 Ang^3
#
#
#
# Elastic Constant Matrix: (Units=GPa)
#
#
# Indices 1 2 3 4 5 6 
#
# 1 92.2621 52.4306 59.1016 0.0000 0.0000 0.0000
# 2 52.4306 99.8836 52.1988 0.0000 0.0000 0.0000
# 3 59.1016 52.1988 103.2435 0.0000 0.0000 0.0000
# 4 0.0000 0.0000 0.0000 23.8050 0.0000 0.0000
# 5 0.0000 0.0000 0.0000 0.0000 34.5638 0.0000
# 6 0.0000 0.0000 0.0000 0.0000 0.0000 31.0518
#
#
#
# Elastic Compliance Matrix: (Units=1/GPa)
#
#
# Indices 1 2 3 4 5 6 
#
# 1 0.019413 -0.005957 -0.008102 0.000000 0.000000 0.000000
# 2 -0.005957 0.015434 -0.004394 0.000000 0.000000 0.000000
# 3 -0.008102 -0.004394 0.016545 0.000000 0.000000 0.000000
# 4 0.000000 0.000000 0.000000 0.042008 0.000000 0.000000
# 5 0.000000 0.000000 0.000000 0.000000 0.028932 0.000000
# 6 0.000000 0.000000 0.000000 0.000000 0.000000 0.032204
#
#
# Mechanical properties :
#
#
# Convention : Reuss Voigt Hill
#
# Bulk Modulus (GPa) = 69.01699 69.20568 69.11134
# Shear Modulus (GPa) = 25.47503 26.66134 26.06818
#
# Velocity S-wave (km/s) = 3.56449 3.64654 3.60575
# Velocity P-wave (km/s) = 7.16679 7.22813 7.19753
#
# Compressibility (1/GPa) = 0.01448919
#
# Stress axis : x y z
#
# Youngs Moduli (GPa) = 51.51063 64.79005 60.44120
#
# Poissons Ratio (x) = 0.38593 0.48967
# Poissons Ratio (y) = 0.30683 0.26556
# Poissons Ratio (z) = 0.41732 0.28467
#
# Static dielectric constant tensor:
#      x y z
#    x 3.648840 0.000000 0.000000 
#    y 0.000000 3.717210 0.000000 
#    z 0.000000 0.000000 3.733380 
# 
# 
# High freq. dielectric constant tensor:
#      x y z
#    x 1.783290 0.000000 0.000000 
#    y 0.000000 1.779860 0.000000 
#    z 0.000000 0.000000 1.787340 
# 
# From -- ./inp_files/24647.got.cif
#   From: 2010.03.12/outbox.cif.g09.slc.cpg/sg59_13_cif.got.tgz:24647.got - 2010.04.16 16:29:54.
