data_PCOD8244961
_publ_section_title
;
Structure prediction by ZEFSAII (Michael W. Deem and Ramdas Pophale) SiO2 
 PCOD8244961
Probable space group: P M M N
;
_chemical_formula_sum "Si O2"
_cell_formula_units_Z 48
_cell_length_a 15.215264
_cell_length_b 14.150444
_cell_length_c 11.103217
_cell_angle_alpha 90.000000
_cell_angle_beta 90.000000
_cell_angle_gamma 90.000000
_cell_volume 2390.553056
_symmetry_space_group_name_H-M "P M M N"
_symmetry_group_IT_number 59
_space_group.IT_coordinate_system_code '2'
_symmetry_cell_setting 'orthorhombic'
loop_
_space_group_symop_operation_xyz
x,y,z
1/2-x,1/2-y,z
1/2+x,-y,-z
-x,1/2+y,-z
-x,-y,-z
1/2+x,1/2+y,-z
1/2-x,y,z
x,1/2-y,z
loop_
_atom_site_type_symbol
_atom_site_label
_atom_site_fract_x
_atom_site_fract_y
_atom_site_fract_z
Si Si1 0.654795 0.018202 0.150736
Si Si2 0.415031 0.498730 0.087304
Si Si3 0.147531 0.637961 0.282783
Si Si4 0.149352 0.142281 0.670295
Si Si5 0.505875 0.138301 0.245486
Si Si6 0.014771 0.859656 0.485463
O O1 0.750000 0.048348 0.198639
O O2 0.621639 0.924596 0.219442
O O3 0.592872 0.108188 0.173194
O O4 0.663382 0.990731 0.009191
O O5 0.398051 0.592923 0.165250
O O6 0.422123 0.410678 0.180066
O O7 0.500000 0.500000 0.000000
O O8 0.250000 0.607909 0.296448
O O9 0.138356 0.750000 0.267489
O O10 0.092788 0.601209 0.399753
O O11 0.250000 0.125656 0.627193
O O12 0.135932 0.250000 0.714171
O O13 0.083012 0.118523 0.562372
O O14 0.491780 0.250000 0.241772
O O15 0.517818 0.096326 0.380673
O O16 0.031735 0.750000 0.500137
#
# Coordination Sequence:
#
# PCOD8244961 Si02
#       6
#     8   8   8   8   8   8
#     4  10  21  36  55  82 111 141 185 235 280 335
#     4  10  21  36  54  78 109 144 186 231 272 328
#     4  10  21  37  59  86 115 149 188 235 292 345
#     4   9  18  34  57  83 111 146 189 239 292 341
#     4  10  22  38  56  80 112 150 186 226 281 339
#     4   9  18  35  57  81 112 147 187 234 282 339
#
# _framework density 20.079035999999999
#
# number of rings (size 3 to 8) (size 9 to 14) (size 15 to 20)
#    0.000    2.333    0.000    2.500    0.000    7.000 
#    0.000    5.000    0.000    3.500    0.000    0.000 
#    0.000    0.000    0.000    0.000    0.000    0.000 
#
# Total GULP energy -594740.465484 kJ/mol
# GULP energy per Si atom -12390.426364 kJ/mol
# Density = 2.003334 g / cm^3
# Si number density = 20.079036 Si / 1000 Ang^3
#
#
#
# Elastic Constant Matrix: (Units=GPa)
#
#
# Indices 1 2 3 4 5 6 
#
# 1 82.5837 27.5264 41.2720 0.0000 0.0000 0.0000
# 2 27.5264 74.6419 42.7239 0.0000 0.0000 0.0000
# 3 41.2720 42.7239 152.1513 0.0000 0.0000 0.0000
# 4 0.0000 0.0000 0.0000 34.4988 0.0000 0.0000
# 5 0.0000 0.0000 0.0000 0.0000 18.7584 0.0000
# 6 0.0000 0.0000 0.0000 0.0000 0.0000 22.4774
#
#
#
# Elastic Compliance Matrix: (Units=1/GPa)
#
#
# Indices 1 2 3 4 5 6 
#
# 1 0.014851 -0.003778 -0.002968 0.000000 0.000000 0.000000
# 2 -0.003778 0.016924 -0.003727 0.000000 0.000000 0.000000
# 3 -0.002968 -0.003727 0.008424 0.000000 0.000000 0.000000
# 4 0.000000 0.000000 0.000000 0.028987 0.000000 0.000000
# 5 0.000000 0.000000 0.000000 0.000000 0.053310 0.000000
# 6 0.000000 0.000000 0.000000 0.000000 0.000000 0.044489
#
#
# Mechanical properties :
#
#
# Convention : Reuss Voigt Hill
#
# Bulk Modulus (GPa) = 51.93991 59.15795 55.54893
# Shear Modulus (GPa) = 25.72692 28.33722 27.03207
#
# Velocity S-wave (km/s) = 3.58338 3.76078 3.67315
# Velocity P-wave (km/s) = 6.56085 6.95589 6.76126
#
# Compressibility (1/GPa) = 0.01925302
#
# Stress axis : x y z
#
# Youngs Moduli (GPa) = 67.33384 59.08719 118.70803
#
# Poissons Ratio (x) = 0.22325 0.35228
# Poissons Ratio (y) = 0.25441 0.44247
# Poissons Ratio (z) = 0.19982 0.22024
#
# Static dielectric constant tensor:
#      x y z
#    x 3.889920 0.000000 0.000000 
#    y 0.000000 3.471140 0.000000 
#    z 0.000000 0.000000 4.197180 
# 
# 
# High freq. dielectric constant tensor:
#      x y z
#    x 1.783840 0.000000 0.000000 
#    y 0.000000 1.772820 0.000000 
#    z 0.000000 0.000000 1.790860 
# 
# From -- ./inp_files/10252.got.cif
#   From: 2010.03.12/outbox.cif.g09.slc.cpg/sg59_6_cif.got.tgz:10252.got - 2010.04.16 16:29:54.
