data_PCOD8244380
_publ_section_title
;
Structure prediction by ZEFSAII (Michael W. Deem and Ramdas Pophale) SiO2 
 PCOD8244380
Probable space group: P M M N
;
_chemical_formula_sum "Si O2"
_cell_formula_units_Z 32
_cell_length_a 24.675419
_cell_length_b 8.683485
_cell_length_c 7.544885
_cell_angle_alpha 90.000000
_cell_angle_beta 90.000000
_cell_angle_gamma 90.000000
_cell_volume 1616.632178
_symmetry_space_group_name_H-M "P M M N"
_symmetry_group_IT_number 59
_space_group.IT_coordinate_system_code '2'
_symmetry_cell_setting 'orthorhombic'
loop_
_space_group_symop_operation_xyz
x,y,z
1/2-x,1/2-y,z
1/2+x,-y,-z
-x,1/2+y,-z
-x,-y,-z
1/2+x,1/2+y,-z
1/2-x,y,z
x,1/2-y,z
loop_
_atom_site_type_symbol
_atom_site_label
_atom_site_fract_x
_atom_site_fract_y
_atom_site_fract_z
Si Si1 0.058999 0.569469 0.991645
Si Si2 0.250000 0.076009 0.335797
Si Si3 0.633644 0.065495 0.325118
Si Si4 0.750000 0.424861 0.305567
Si Si5 0.368790 0.073292 0.288709
O O1 0.053251 0.750000 0.987134
O O2 0.093629 0.525373 0.162133
O O3 0.088016 0.510958 0.812348
O O4 0.000000 0.500000 0.000000
O O5 0.250000 0.250000 0.419226
O O6 0.305735 0.054500 0.225193
O O7 0.250000 0.943320 0.482209
O O8 0.634943 0.250000 0.351624
O O9 0.691983 0.005290 0.243548
O O10 0.622088 0.984635 0.511425
O O11 0.750000 0.250000 0.246516
O O12 0.387233 0.250000 0.278139
#
# Coordination Sequence:
#
# PCOD8244380 Si02
#       5
#     8   4   8   4   8
#     4  11  24  40  57  79 109 146 191 236 276 325
#     4   8  16  31  52  82 115 143 173 211 265 331
#     4   9  19  36  58  83 110 142 179 222 273 326
#     4   8  14  29  54  82 109 135 171 219 269 323
#     4  10  20  36  59  85 114 146 179 221 273 328
#
# _framework density 19.794233999999999
#
# number of rings (size 3 to 8) (size 9 to 14) (size 15 to 20)
#    0.000    2.500    0.000    1.500    0.000    5.000 
#    0.000    1.250    0.000    4.500    0.000    0.000 
#    0.000    0.000    0.000    0.000    0.000    0.000 
#
# Total GULP energy -396447.025624 kJ/mol
# GULP energy per Si atom -12388.969551 kJ/mol
# Density = 1.974918 g / cm^3
# Si number density = 19.794234 Si / 1000 Ang^3
#
#
#
# Elastic Constant Matrix: (Units=GPa)
#
#
# Indices 1 2 3 4 5 6 
#
# 1 176.7752 31.7769 73.5211 0.0000 0.0000 0.0000
# 2 31.7769 36.2898 22.3159 0.0000 0.0000 0.0000
# 3 73.5211 22.3159 95.6340 0.0000 0.0000 0.0000
# 4 0.0000 0.0000 0.0000 23.1390 0.0000 0.0000
# 5 0.0000 0.0000 0.0000 0.0000 33.1453 0.0000
# 6 0.0000 0.0000 0.0000 0.0000 0.0000 19.9805
#
#
#
# Elastic Compliance Matrix: (Units=1/GPa)
#
#
# Indices 1 2 3 4 5 6 
#
# 1 0.008820 -0.004149 -0.005813 0.000000 0.000000 0.000000
# 2 -0.004149 0.034124 -0.004773 0.000000 0.000000 0.000000
# 3 -0.005813 -0.004773 0.016039 0.000000 0.000000 0.000000
# 4 0.000000 0.000000 0.000000 0.043217 0.000000 0.000000
# 5 0.000000 0.000000 0.000000 0.000000 0.030170 0.000000
# 6 0.000000 0.000000 0.000000 0.000000 0.000000 0.050049
#
#
# Mechanical properties :
#
#
# Convention : Reuss Voigt Hill
#
# Bulk Modulus (GPa) = 33.88245 62.65853 48.27049
# Shear Modulus (GPa) = 22.55028 27.32529 24.93779
#
# Velocity S-wave (km/s) = 3.37892 3.71949 3.55329
# Velocity P-wave (km/s) = 5.69010 7.08307 6.42445
#
# Compressibility (1/GPa) = 0.02951380
#
# Stress axis : x y z
#
# Youngs Moduli (GPa) = 113.37650 29.30479 62.34839
#
# Poissons Ratio (x) = 0.12158 0.36241
# Poissons Ratio (y) = 0.47039 0.29760
# Poissons Ratio (z) = 0.65901 0.13988
#
# Static dielectric constant tensor:
#      x y z
#    x 4.086960 0.000000 0.000000 
#    y 0.000000 3.581540 0.000000 
#    z 0.000000 0.000000 3.294400 
# 
# 
# High freq. dielectric constant tensor:
#      x y z
#    x 1.789530 0.000000 0.000000 
#    y 0.000000 1.768510 0.000000 
#    z 0.000000 0.000000 1.745740 
# 
# From -- ./inp_files/11851.got.cif
#   From: 2010.03.12/outbox.cif.g09.slc.cpg/sg59_6_cif.got.tgz:11851.got - 2010.04.16 16:29:54.
