data_PCOD8244308
_publ_section_title
;
Structure prediction by ZEFSAII (Michael W. Deem and Ramdas Pophale) SiO2 
 PCOD8244308
Probable space group: P M M N
;
_chemical_formula_sum "Si O2"
_cell_formula_units_Z 48
_cell_length_a 13.727984
_cell_length_b 8.900584
_cell_length_c 20.433343
_cell_angle_alpha 90.000000
_cell_angle_beta 90.000000
_cell_angle_gamma 90.000000
_cell_volume 2496.690408
_symmetry_space_group_name_H-M "P M M N"
_symmetry_group_IT_number 59
_space_group.IT_coordinate_system_code '2'
_symmetry_cell_setting 'orthorhombic'
loop_
_space_group_symop_operation_xyz
x,y,z
1/2-x,1/2-y,z
1/2+x,-y,-z
-x,1/2+y,-z
-x,-y,-z
1/2+x,1/2+y,-z
1/2-x,y,z
x,1/2-y,z
loop_
_atom_site_type_symbol
_atom_site_label
_atom_site_fract_x
_atom_site_fract_y
_atom_site_fract_z
Si Si1 0.020569 0.424424 0.604678
Si Si2 0.539216 0.428694 0.257642
Si Si3 0.750000 0.079130 0.060364
Si Si4 0.250000 0.580794 0.785270
Si Si5 0.141118 0.428429 0.169365
Si Si6 0.139428 0.577961 0.499644
Si Si7 0.903763 0.572414 0.976558
O O1 0.029901 0.250000 0.623029
O O2 0.923146 0.461744 0.564211
O O3 0.015022 0.523120 0.669268
O O4 0.112673 0.472898 0.560871
O O5 0.541804 0.250000 0.250994
O O6 0.647372 0.494809 0.238883
O O7 0.449780 0.492014 0.212496
O O8 0.750000 0.250000 0.034178
O O9 0.750000 0.077128 0.137611
O O10 0.661193 0.985297 0.034749
O O11 0.250000 0.750000 0.757977
O O12 0.250000 0.481594 0.193724
O O13 0.137350 0.250000 0.171362
O O14 0.128527 0.486087 0.094921
O O15 0.250000 0.546798 0.479936
O O16 0.121552 0.750000 0.521019
O O17 0.909326 0.750000 0.975821
O O18 0.000000 0.500000 0.000000
#
# Coordination Sequence:
#
# PCOD8244308 Si02
#       7
#     8   8   4   4   8   8   8
#     4  10  21  36  54  84 118 143 178 234 288 325
#     4  10  20  36  58  79 107 152 198 231 270 340
#     4  11  21  37  59  85 113 146 193 244 295 349
#     4   9  20  37  55  79 111 152 197 234 275 345
#     4   9  18  35  57  80 108 146 192 237 283 340
#     4   9  19  37  60  81 108 149 190 222 266 337
#     4  11  21  36  58  84 114 148 188 240 296 350
#
# _framework density 19.225451
#
# number of rings (size 3 to 8) (size 9 to 14) (size 15 to 20)
#    0.000    2.167    0.833    2.250    1.167    4.333 
#    0.000    5.000    0.000    0.000    0.000    0.000 
#    0.000    0.000    0.000    0.000    0.000    0.000 
#
# Total GULP energy -594815.221288 kJ/mol
# GULP energy per Si atom -12391.983777 kJ/mol
# Density = 1.918169 g / cm^3
# Si number density = 19.225451 Si / 1000 Ang^3
#
#
#
# Elastic Constant Matrix: (Units=GPa)
#
#
# Indices 1 2 3 4 5 6 
#
# 1 170.6403 27.3056 55.5937 0.0000 0.0000 0.0000
# 2 27.3056 32.4620 21.8778 0.0000 0.0000 0.0000
# 3 55.5937 21.8778 93.6681 0.0000 0.0000 0.0000
# 4 0.0000 0.0000 0.0000 31.2355 0.0000 0.0000
# 5 0.0000 0.0000 0.0000 0.0000 19.6304 0.0000
# 6 0.0000 0.0000 0.0000 0.0000 0.0000 18.5491
#
#
#
# Elastic Compliance Matrix: (Units=1/GPa)
#
#
# Indices 1 2 3 4 5 6 
#
# 1 0.007684 -0.004023 -0.003621 0.000000 0.000000 0.000000
# 2 -0.004023 0.038667 -0.006644 0.000000 0.000000 0.000000
# 3 -0.003621 -0.006644 0.014377 0.000000 0.000000 0.000000
# 4 0.000000 0.000000 0.000000 0.032015 0.000000 0.000000
# 5 0.000000 0.000000 0.000000 0.000000 0.050941 0.000000
# 6 0.000000 0.000000 0.000000 0.000000 0.000000 0.053911
#
#
# Mechanical properties :
#
#
# Convention : Reuss Voigt Hill
#
# Bulk Modulus (GPa) = 31.10181 56.25828 43.68005
# Shear Modulus (GPa) = 21.10717 26.68256 23.89486
#
# Velocity S-wave (km/s) = 3.31702 3.72946 3.52927
# Velocity P-wave (km/s) = 5.55722 6.91890 6.27510
#
# Compressibility (1/GPa) = 0.03215247
#
# Stress axis : x y z
#
# Youngs Moduli (GPa) = 130.14648 25.86206 69.55705
#
# Poissons Ratio (x) = 0.10404 0.25185
# Poissons Ratio (y) = 0.52357 0.46211
# Poissons Ratio (z) = 0.47123 0.17182
#
# Static dielectric constant tensor:
#      x y z
#    x 3.937400 0.000000 0.000000 
#    y 0.000000 3.339440 0.000000 
#    z 0.000000 0.000000 3.646300 
# 
# 
# High freq. dielectric constant tensor:
#      x y z
#    x 1.770290 0.000000 0.000000 
#    y 0.000000 1.718280 0.000000 
#    z 0.000000 0.000000 1.747240 
# 
# From -- ./inp_files/25619.got.cif
#   From: 2010.03.12/outbox.cif.g09.slc.cpg/sg59_13_cif.got.tgz:25619.got - 2010.04.16 16:29:54.
