data_PCOD8244469
_publ_section_title
;
Structure prediction by ZEFSAII (Michael W. Deem and Ramdas Pophale) SiO2 
 PCOD8244469
Probable space group: P M M N
;
_chemical_formula_sum "Si O2"
_cell_formula_units_Z 64
_cell_length_a 8.671720
_cell_length_b 31.103942
_cell_length_c 12.059687
_cell_angle_alpha 90.000000
_cell_angle_beta 90.000000
_cell_angle_gamma 90.000000
_cell_volume 3252.795168
_symmetry_space_group_name_H-M "P M M N"
_symmetry_group_IT_number 59
_space_group.IT_coordinate_system_code '2'
_symmetry_cell_setting 'orthorhombic'
loop_
_space_group_symop_operation_xyz
x,y,z
1/2-x,1/2-y,z
1/2+x,-y,-z
-x,1/2+y,-z
-x,-y,-z
1/2+x,1/2+y,-z
1/2-x,y,z
x,1/2-y,z
loop_
_atom_site_type_symbol
_atom_site_label
_atom_site_fract_x
_atom_site_fract_y
_atom_site_fract_z
Si Si1 0.933169 0.082983 0.251889
Si Si2 0.567451 0.453664 0.021721
Si Si3 0.932570 0.297113 0.488533
Si Si4 0.067821 0.953631 0.519685
Si Si5 0.431224 0.123110 0.880443
Si Si6 0.433053 0.821344 0.749834
Si Si7 0.929676 0.297978 0.009924
Si Si8 0.433159 0.624107 0.362603
O O1 0.750000 0.084551 0.257683
O O2 0.000270 0.061510 0.362528
O O3 0.999765 0.130726 0.242565
O O4 0.990339 0.057268 0.144979
O O5 0.750000 0.454887 0.012647
O O6 0.508843 0.418169 0.935989
O O7 0.500000 0.500000 0.000000
O O8 0.750000 0.302267 0.483200
O O9 0.979263 0.250000 0.536022
O O10 0.999429 0.300306 0.362922
O O11 0.996069 0.335015 0.566960
O O12 0.250000 0.956949 0.524385
O O13 0.018279 0.919671 0.425342
O O14 0.000000 0.000000 0.500000
O O15 0.250000 0.116977 0.887179
O O16 0.476106 0.167553 0.939728
O O17 0.483088 0.125202 0.754017
O O18 0.250000 0.821020 0.743050
O O19 0.485526 0.797148 0.861706
O O20 0.750000 0.310928 0.002778
O O21 0.957394 0.250000 0.961459
O O22 0.250000 0.626729 0.345363
#
# Coordination Sequence:
#
# PCOD8244469 Si02
#       8
#     8   8   8   8   8   8   8   8
#     4   9  17  33  59  85 116 151 182 232 295 348
#     4  11  23  41  64  91 123 156 196 243 295 354
#     4   9  16  28  53  88 118 144 181 231 288 351
#     4  10  21  37  58  86 116 151 189 235 293 349
#     4  12  26  42  59  82 117 162 206 249 297 347
#     4   9  14  28  55  89 121 145 177 231 295 353
#     4  10  20  36  62  92 119 152 195 243 299 361
#     4  10  21  38  58  82 116 153 193 244 293 343
#
# _framework density 19.675386
#
# number of rings (size 3 to 8) (size 9 to 14) (size 15 to 20)
#    0.000    2.000    2.500    1.875    1.750    2.750 
#    0.000    1.875    0.000    0.750    0.000    0.000 
#    0.000    0.000    0.000    0.000    0.000    0.000 
#
# Total GULP energy -793396.430502 kJ/mol
# GULP energy per Si atom -12396.819227 kJ/mol
# Density = 1.963060 g / cm^3
# Si number density = 19.675386 Si / 1000 Ang^3
#
#
#
# Elastic Constant Matrix: (Units=GPa)
#
#
# Indices 1 2 3 4 5 6 
#
# 1 42.9263 30.3182 33.0329 0.0000 0.0000 0.0000
# 2 30.3182 164.0211 66.1648 0.0000 0.0000 0.0000
# 3 33.0329 66.1648 144.0772 0.0000 0.0000 0.0000
# 4 0.0000 0.0000 0.0000 27.2286 0.0000 0.0000
# 5 0.0000 0.0000 0.0000 0.0000 10.9434 0.0000
# 6 0.0000 0.0000 0.0000 0.0000 0.0000 27.2052
#
#
#
# Elastic Compliance Matrix: (Units=1/GPa)
#
#
# Indices 1 2 3 4 5 6 
#
# 1 0.029730 -0.003370 -0.005269 0.000000 0.000000 0.000000
# 2 -0.003370 0.007865 -0.002839 0.000000 0.000000 0.000000
# 3 -0.005269 -0.002839 0.009453 0.000000 0.000000 0.000000
# 4 0.000000 0.000000 0.000000 0.036726 0.000000 0.000000
# 5 0.000000 0.000000 0.000000 0.000000 0.091379 0.000000
# 6 0.000000 0.000000 0.000000 0.000000 0.000000 0.036758
#
#
# Mechanical properties :
#
#
# Convention : Reuss Voigt Hill
#
# Bulk Modulus (GPa) = 41.50765 67.78406 54.64585
# Shear Modulus (GPa) = 20.58480 27.84268 24.21374
#
# Velocity S-wave (km/s) = 3.23804 3.76587 3.51188
# Velocity P-wave (km/s) = 5.92638 7.30992 6.65421
#
# Compressibility (1/GPa) = 0.02409194
#
# Stress axis : x y z
#
# Youngs Moduli (GPa) = 33.63560 127.14508 105.79172
#
# Poissons Ratio (x) = 0.42849 0.55738
# Poissons Ratio (y) = 0.11336 0.30036
# Poissons Ratio (z) = 0.17722 0.36099
#
# Static dielectric constant tensor:
#      x y z
#    x 3.131900 0.000000 0.000000 
#    y 0.000000 3.303100 0.000000 
#    z 0.000000 0.000000 3.569920 
# 
# 
# High freq. dielectric constant tensor:
#      x y z
#    x 1.717000 0.000000 0.000000 
#    y 0.000000 1.785140 0.000000 
#    z 0.000000 0.000000 1.778270 
# 
# From -- ./inp_files/14878.got.cif
#   From: 2010.03.12/outbox.cif.g09.slc.cpg/sg59_8_cif.got.tgz:14878.got - 2010.04.16 16:29:54.
