data_PCOD8244129
_publ_section_title
;
Structure prediction by ZEFSAII (Michael W. Deem and Ramdas Pophale) SiO2 
 PCOD8244129
Probable space group: P M M N
;
_chemical_formula_sum "Si O2"
_cell_formula_units_Z 64
_cell_length_a 12.381609
_cell_length_b 28.124543
_cell_length_c 9.568379
_cell_angle_alpha 90.000000
_cell_angle_beta 90.000000
_cell_angle_gamma 90.000000
_cell_volume 3331.968820
_symmetry_space_group_name_H-M "P M M N"
_symmetry_group_IT_number 59
_space_group.IT_coordinate_system_code '2'
_symmetry_cell_setting 'orthorhombic'
loop_
_space_group_symop_operation_xyz
x,y,z
1/2-x,1/2-y,z
1/2+x,-y,-z
-x,1/2+y,-z
-x,-y,-z
1/2+x,1/2+y,-z
1/2-x,y,z
x,1/2-y,z
loop_
_atom_site_type_symbol
_atom_site_label
_atom_site_fract_x
_atom_site_fract_y
_atom_site_fract_z
Si Si1 0.979464 0.196866 0.282752
Si Si2 0.533347 0.450526 0.928699
Si Si3 0.872068 0.465478 0.641852
Si Si4 0.373937 0.345505 0.496427
Si Si5 0.123456 0.121339 0.805717
Si Si6 0.975367 0.563748 0.582791
Si Si7 0.123901 0.898951 0.809266
Si Si8 0.625924 0.802597 0.978028
O O1 0.926132 0.250000 0.277351
O O2 0.893349 0.155786 0.242796
O O3 0.038401 0.191622 0.433977
O O4 0.074087 0.191625 0.171859
O O5 0.621467 0.461156 0.809248
O O6 0.431242 0.428587 0.845779
O O7 0.500000 0.500000 0.000000
O O8 0.581720 0.411322 0.035224
O O9 0.750000 0.453525 0.596498
O O10 0.955298 0.430960 0.560718
O O11 0.901518 0.517758 0.588378
O O12 0.250000 0.327280 0.483508
O O13 0.405120 0.357770 0.654687
O O14 0.390594 0.393222 0.405421
O O15 0.250000 0.112248 0.818725
O O16 0.077148 0.160596 0.912109
O O17 0.059967 0.564655 0.710012
O O18 0.250000 0.910135 0.800848
O O19 0.750000 0.813969 0.953840
O O20 0.607301 0.750000 0.040239
#
# Coordination Sequence:
#
# PCOD8244129 Si02
#       8
#     8   8   8   8   8   8   8   8
#     4  10  21  37  59  88 118 145 186 243 292 354
#     4  12  23  41  55  86 121 155 206 250 294 349
#     4  11  22  37  59  81 112 155 197 242 291 346
#     4  10  20  35  58  84 116 154 189 231 289 353
#     4  10  21  37  57  84 121 159 194 237 292 353
#     4  10  21  39  55  83 115 144 195 243 293 345
#     4  11  23  40  61  83 112 152 195 244 299 354
#     4   9  17  32  56  84 114 147 182 227 289 352
#
# _framework density 19.207861999999999
#
# number of rings (size 3 to 8) (size 9 to 14) (size 15 to 20)
#    0.000    1.625    3.750    1.500    0.000    2.500 
#    0.000    1.250    0.000    0.000    0.000    0.000 
#    0.000    0.000    0.000    0.000    0.000    0.000 
#
# Total GULP energy -793258.964927 kJ/mol
# GULP energy per Si atom -12394.671327 kJ/mol
# Density = 1.916414 g / cm^3
# Si number density = 19.207862 Si / 1000 Ang^3
#
#
#
# Elastic Constant Matrix: (Units=GPa)
#
#
# Indices 1 2 3 4 5 6 
#
# 1 59.7547 17.2626 23.6124 0.0000 0.0000 0.0000
# 2 17.2626 61.5260 13.5176 0.0000 0.0000 0.0000
# 3 23.6124 13.5176 98.7967 0.0000 0.0000 0.0000
# 4 0.0000 0.0000 0.0000 26.0427 0.0000 0.0000
# 5 0.0000 0.0000 0.0000 0.0000 25.5188 0.0000
# 6 0.0000 0.0000 0.0000 0.0000 0.0000 20.2897
#
#
#
# Elastic Compliance Matrix: (Units=1/GPa)
#
#
# Indices 1 2 3 4 5 6 
#
# 1 0.019680 -0.004627 -0.004070 0.000000 0.000000 0.000000
# 2 -0.004627 0.017845 -0.001336 0.000000 0.000000 0.000000
# 3 -0.004070 -0.001336 0.011277 0.000000 0.000000 0.000000
# 4 0.000000 0.000000 0.000000 0.038399 0.000000 0.000000
# 5 0.000000 0.000000 0.000000 0.000000 0.039187 0.000000
# 6 0.000000 0.000000 0.000000 0.000000 0.000000 0.049286
#
#
# Mechanical properties :
#
#
# Convention : Reuss Voigt Hill
#
# Bulk Modulus (GPa) = 34.79995 36.54027 35.67011
# Shear Modulus (GPa) = 24.35223 25.41589 24.88406
#
# Velocity S-wave (km/s) = 3.56452 3.64153 3.60323
# Velocity P-wave (km/s) = 5.92435 6.06184 5.99349
#
# Compressibility (1/GPa) = 0.02873567
#
# Stress axis : x y z
#
# Youngs Moduli (GPa) = 50.81198 56.03784 88.67310
#
# Poissons Ratio (x) = 0.25931 0.36094
# Poissons Ratio (y) = 0.23513 0.11844
# Poissons Ratio (z) = 0.20683 0.07485
#
# Static dielectric constant tensor:
#      x y z
#    x 3.329390 0.000000 0.000000 
#    y 0.000000 3.554210 0.000000 
#    z 0.000000 0.000000 3.686350 
# 
# 
# High freq. dielectric constant tensor:
#      x y z
#    x 1.728960 0.000000 0.000000 
#    y 0.000000 1.743560 0.000000 
#    z 0.000000 0.000000 1.757900 
# 
# From -- ./inp_files/8039.got.cif
#   From: 2010.03.12/outbox.cif.g09.slc.cpg/sg59_5_cif.got.tgz:8039.got - 2010.04.16 16:29:54.
