data_PCOD8244430
_publ_section_title
;
Structure prediction by ZEFSAII (Michael W. Deem and Ramdas Pophale) SiO2 
 PCOD8244430
Probable space group: P M M N
;
_chemical_formula_sum "Si O2"
_cell_formula_units_Z 56
_cell_length_a 8.876154
_cell_length_b 22.754729
_cell_length_c 13.187587
_cell_angle_alpha 90.000000
_cell_angle_beta 90.000000
_cell_angle_gamma 90.000000
_cell_volume 2663.556011
_symmetry_space_group_name_H-M "P M M N"
_symmetry_group_IT_number 59
_space_group.IT_coordinate_system_code '2'
_symmetry_cell_setting 'orthorhombic'
loop_
_space_group_symop_operation_xyz
x,y,z
1/2-x,1/2-y,z
1/2+x,-y,-z
-x,1/2+y,-z
-x,-y,-z
1/2+x,1/2+y,-z
1/2-x,y,z
x,1/2-y,z
loop_
_atom_site_type_symbol
_atom_site_label
_atom_site_fract_x
_atom_site_fract_y
_atom_site_fract_z
Si Si1 0.928780 0.963505 0.796081
Si Si2 0.075318 0.847274 0.851644
Si Si3 0.080047 0.142431 0.586360
Si Si4 0.070809 0.250000 0.285671
Si Si5 0.424590 0.750000 0.495633
Si Si6 0.418699 0.454886 0.429541
Si Si7 0.074469 0.084936 0.795007
Si Si8 0.578561 0.183862 0.920438
O O1 0.750000 0.958721 0.807734
O O2 0.989847 0.952354 0.681975
O O3 0.005644 0.912500 0.862001
O O4 0.982905 0.027734 0.832152
O O5 0.250000 0.850973 0.821112
O O6 0.990731 0.808856 0.767084
O O7 0.052476 0.816691 0.959444
O O8 0.250000 0.165754 0.606298
O O9 0.073700 0.108909 0.479526
O O10 0.030667 0.100157 0.678848
O O11 0.962819 0.195098 0.576414
O O12 0.250000 0.250000 0.279289
O O13 0.023867 0.250000 0.403107
O O14 0.250000 0.750000 0.525066
O O15 0.500000 0.500000 0.500000
O O16 0.250000 0.478177 0.418386
O O17 0.250000 0.070810 0.805728
O O18 0.034594 0.139938 0.865389
O O19 0.750000 0.165645 0.894545
O O20 0.544897 0.250000 0.882191
#
# Coordination Sequence:
#
# PCOD8244430 Si02
#       8
#     8   8   8   4   4   8   8   8
#     4  11  23  39  63  97 131 169 211 258 320 380
#     4  11  23  43  70  97 126 163 209 263 323 383
#     4  10  22  41  61  88 128 168 208 260 315 366
#     4  12  24  42  67  96 131 166 207 262 320 380
#     4  12  26  40  61  92 125 168 215 258 310 370
#     4  10  20  36  60  87 121 162 204 246 299 360
#     4  11  24  41  64  93 127 170 216 262 316 379
#     4  10  23  45  69  93 124 162 208 267 325 378
#
# _framework density 21.024524
#
# number of rings (size 3 to 8) (size 9 to 14) (size 15 to 20)
#    0.000    1.286    2.143    3.429    1.000    5.429 
#    0.000    0.000    0.000    0.000    0.000    0.000 
#    0.000    0.000    0.000    0.000    0.000    0.000 
#
# Total GULP energy -694646.392171 kJ/mol
# GULP energy per Si atom -12404.399860 kJ/mol
# Density = 2.097667 g / cm^3
# Si number density = 21.024524 Si / 1000 Ang^3
#
#
#
# Elastic Constant Matrix: (Units=GPa)
#
#
# Indices 1 2 3 4 5 6 
#
# 1 109.5463 49.2001 25.4260 0.0000 0.0000 0.0000
# 2 49.2001 124.6884 19.7716 0.0000 0.0000 0.0000
# 3 25.4260 19.7716 41.7468 0.0000 0.0000 0.0000
# 4 0.0000 0.0000 0.0000 35.6463 0.0000 0.0000
# 5 0.0000 0.0000 0.0000 0.0000 31.4347 0.0000
# 6 0.0000 0.0000 0.0000 0.0000 0.0000 38.7382
#
#
#
# Elastic Compliance Matrix: (Units=1/GPa)
#
#
# Indices 1 2 3 4 5 6 
#
# 1 0.012182 -0.003925 -0.005561 0.000000 0.000000 0.000000
# 2 -0.003925 0.009936 -0.002315 0.000000 0.000000 0.000000
# 3 -0.005561 -0.002315 0.028437 0.000000 0.000000 0.000000
# 4 0.000000 0.000000 0.000000 0.028053 0.000000 0.000000
# 5 0.000000 0.000000 0.000000 0.000000 0.031812 0.000000
# 6 0.000000 0.000000 0.000000 0.000000 0.000000 0.025814
#
#
# Mechanical properties :
#
#
# Convention : Reuss Voigt Hill
#
# Bulk Modulus (GPa) = 37.10103 51.64188 44.37146
# Shear Modulus (GPa) = 29.61722 33.26942 31.44332
#
# Velocity S-wave (km/s) = 3.75734 3.98227 3.87144
# Velocity P-wave (km/s) = 6.04221 6.76466 6.41361
#
# Compressibility (1/GPa) = 0.02695343
#
# Stress axis : x y z
#
# Youngs Moduli (GPa) = 82.08792 100.64526 35.16543
#
# Poissons Ratio (x) = 0.39505 0.19554
# Poissons Ratio (y) = 0.32221 0.08141
# Poissons Ratio (z) = 0.45645 0.23300
#
# Static dielectric constant tensor:
#      x y z
#    x 3.876350 0.000000 0.000000 
#    y 0.000000 3.778280 0.000000 
#    z 0.000000 0.000000 3.720530 
# 
# 
# High freq. dielectric constant tensor:
#      x y z
#    x 1.822840 0.000000 0.000000 
#    y 0.000000 1.834090 0.000000 
#    z 0.000000 0.000000 1.820140 
# 
# From -- ./inp_files/21133.got.cif
#   From: 2010.03.12/outbox.cif.g09.slc.cpg/sg59_11_cif.got.tgz:21133.got - 2010.04.16 16:29:54.
