data_PCOD8244327
_publ_section_title
;
Structure prediction by ZEFSAII (Michael W. Deem and Ramdas Pophale) SiO2 
 PCOD8244327
Probable space group: P M M N
;
_chemical_formula_sum "Si O2"
_cell_formula_units_Z 64
_cell_length_a 9.041245
_cell_length_b 18.176222
_cell_length_c 21.163702
_cell_angle_alpha 90.000000
_cell_angle_beta 90.000000
_cell_angle_gamma 90.000000
_cell_volume 3477.951281
_symmetry_space_group_name_H-M "P M M N"
_symmetry_group_IT_number 59
_space_group.IT_coordinate_system_code '2'
_symmetry_cell_setting 'orthorhombic'
loop_
_space_group_symop_operation_xyz
x,y,z
1/2-x,1/2-y,z
1/2+x,-y,-z
-x,1/2+y,-z
-x,-y,-z
1/2+x,1/2+y,-z
1/2-x,y,z
x,1/2-y,z
loop_
_atom_site_type_symbol
_atom_site_label
_atom_site_fract_x
_atom_site_fract_y
_atom_site_fract_z
Si Si1 0.076559 0.976888 0.564091
Si Si2 0.425054 0.665657 0.874108
Si Si3 0.921572 0.607556 0.750889
Si Si4 0.076376 0.578041 0.997842
Si Si5 0.919736 0.168055 0.366709
Si Si6 0.918951 0.834698 0.247331
Si Si7 0.916782 0.835053 0.101671
Si Si8 0.578897 0.458802 0.681823
O O1 0.250000 0.989219 0.556949
O O2 0.036869 0.891636 0.579944
O O3 0.000000 0.000000 0.500000
O O4 0.016944 0.028598 0.619453
O O5 0.250000 0.662284 0.866732
O O6 0.480299 0.750000 0.876620
O O7 0.495675 0.623256 0.815680
O O8 0.478325 0.624648 0.937460
O O9 0.750000 0.624981 0.759995
O O10 0.950891 0.522816 0.732813
O O11 0.981791 0.659856 0.695633
O O12 0.250000 0.565997 0.995744
O O13 0.034971 0.621059 0.061068
O O14 0.000000 0.500000 0.000000
O O15 0.750000 0.156046 0.346060
O O16 0.944907 0.250000 0.394694
O O17 0.750000 0.858231 0.260974
O O18 0.943153 0.750000 0.265551
O O19 0.957141 0.848134 0.174375
O O20 0.030969 0.881624 0.288965
O O21 0.750000 0.862918 0.087725
O O22 0.929917 0.750000 0.084066
O O23 0.750000 0.455840 0.662270
#
# Coordination Sequence:
#
# PCOD8244327 Si02
#       8
#     8   8   8   8   8   8   8   8
#     4  10  20  36  58  82 111 149 187 226 272 322
#     4  10  22  39  56  75 103 141 181 220 268 328
#     4  10  21  34  52  82 114 141 175 221 271 319
#     4  11  24  39  55  77 106 141 184 231 278 331
#     4   9  18  34  56  81 109 143 183 222 265 320
#     4   9  19  36  58  83 110 141 181 228 278 331
#     4   9  19  37  59  81 106 139 179 226 281 337
#     4  10  21  36  55  82 114 146 182 224 268 322
#
# _framework density 18.401637999999998
#
# number of rings (size 3 to 8) (size 9 to 14) (size 15 to 20)
#    0.000    2.250    0.000    3.000    1.750    6.500 
#    0.000    1.875    0.000    2.250    0.000    0.000 
#    0.000    0.000    0.000    0.000    0.000    0.000 
#
# Total GULP energy -793770.366234 kJ/mol
# GULP energy per Si atom -12402.661972 kJ/mol
# Density = 1.835975 g / cm^3
# Si number density = 18.401638 Si / 1000 Ang^3
#
#
#
# Elastic Constant Matrix: (Units=GPa)
#
#
# Indices 1 2 3 4 5 6 
#
# 1 64.9649 44.8310 47.3956 0.0000 0.0000 0.0000
# 2 44.8310 103.9137 66.4800 0.0000 0.0000 0.0000
# 3 47.3956 66.4800 101.7093 0.0000 0.0000 0.0000
# 4 0.0000 0.0000 0.0000 24.8202 0.0000 0.0000
# 5 0.0000 0.0000 0.0000 0.0000 37.2762 0.0000
# 6 0.0000 0.0000 0.0000 0.0000 0.0000 31.4379
#
#
#
# Elastic Compliance Matrix: (Units=1/GPa)
#
#
# Indices 1 2 3 4 5 6 
#
# 1 0.025185 -0.005770 -0.007965 0.000000 0.000000 0.000000
# 2 -0.005770 0.017862 -0.008986 0.000000 0.000000 0.000000
# 3 -0.007965 -0.008986 0.019417 0.000000 0.000000 0.000000
# 4 0.000000 0.000000 0.000000 0.040290 0.000000 0.000000
# 5 0.000000 0.000000 0.000000 0.000000 0.026827 0.000000
# 6 0.000000 0.000000 0.000000 0.000000 0.000000 0.031809
#
#
# Mechanical properties :
#
#
# Convention : Reuss Voigt Hill
#
# Bulk Modulus (GPa) = 58.74630 65.33346 62.03988
# Shear Modulus (GPa) = 23.52882 26.16561 24.84721
#
# Velocity S-wave (km/s) = 3.57967 3.77492 3.67859
# Velocity P-wave (km/s) = 7.00565 7.38791 7.19932
#
# Compressibility (1/GPa) = 0.01702235
#
# Stress axis : x y z
#
# Youngs Moduli (GPa) = 39.70542 55.98562 51.50143
#
# Poissons Ratio (x) = 0.32305 0.41019
# Poissons Ratio (y) = 0.22911 0.46280
# Poissons Ratio (z) = 0.31624 0.50309
#
# Static dielectric constant tensor:
#      x y z
#    x 7.335240 0.000000 0.000000 
#    y 0.000000 3.421130 0.000000 
#    z 0.000000 0.000000 3.333540 
# 
# 
# High freq. dielectric constant tensor:
#      x y z
#    x 1.717670 0.000000 0.000000 
#    y 0.000000 1.719870 0.000000 
#    z 0.000000 0.000000 1.705680 
# 
# From -- ./inp_files/29355.got.cif
#   From: 2010.03.12/outbox.cif.g09.slc.cpg/sg59_15_cif.got.tgz:29355.got - 2010.04.16 16:29:54.
