data_PCOD8244331
_publ_section_title
;
Structure prediction by ZEFSAII (Michael W. Deem and Ramdas Pophale) SiO2 
 PCOD8244331
Probable space group: P M M N
;
_chemical_formula_sum "Si O2"
_cell_formula_units_Z 48
_cell_length_a 8.695929
_cell_length_b 14.565900
_cell_length_c 20.113069
_cell_angle_alpha 90.000000
_cell_angle_beta 90.000000
_cell_angle_gamma 90.000000
_cell_volume 2547.602420
_symmetry_space_group_name_H-M "P M M N"
_symmetry_group_IT_number 59
_space_group.IT_coordinate_system_code '2'
_symmetry_cell_setting 'orthorhombic'
loop_
_space_group_symop_operation_xyz
x,y,z
1/2-x,1/2-y,z
1/2+x,-y,-z
-x,1/2+y,-z
-x,-y,-z
1/2+x,1/2+y,-z
1/2-x,y,z
x,1/2-y,z
loop_
_atom_site_type_symbol
_atom_site_label
_atom_site_fract_x
_atom_site_fract_y
_atom_site_fract_z
Si Si1 0.568396 0.554603 0.698454
Si Si2 0.419128 0.250000 0.442781
Si Si3 0.572041 0.053322 0.826311
Si Si4 0.930542 0.440373 0.058874
Si Si5 0.930972 0.061678 0.443318
Si Si6 0.415703 0.250000 0.286629
Si Si7 0.068751 0.250000 0.023253
Si Si8 0.572029 0.250000 0.879617
O O1 0.750000 0.568218 0.686031
O O2 0.534972 0.472809 0.750109
O O3 0.490786 0.529312 0.628903
O O4 0.500727 0.652188 0.729091
O O5 0.250000 0.250000 0.477452
O O6 0.517863 0.337098 0.463985
O O7 0.392870 0.250000 0.365016
O O8 0.750000 0.033861 0.843814
O O9 0.531903 0.160501 0.835939
O O10 0.466284 0.990285 0.872238
O O11 0.750000 0.432455 0.047637
O O12 0.001210 0.338948 0.059656
O O13 0.000000 0.500000 0.000000
O O14 0.750000 0.053936 0.442779
O O15 0.000000 0.000000 0.500000
O O16 0.250000 0.250000 0.249773
O O17 0.250000 0.250000 0.031882
O O18 0.029494 0.250000 0.945482
O O19 0.750000 0.250000 0.901460
#
# Coordination Sequence:
#
# PCOD8244331 Si02
#       8
#     8   4   8   8   8   4   4   4
#     4   9  18  34  55  81 113 150 191 238 293 350
#     4   9  17  33  55  81 111 145 187 236 290 348
#     4  10  21  37  59  85 116 154 195 241 294 350
#     4  12  24  39  59  85 116 148 190 241 288 341
#     4  11  21  35  57  85 117 155 198 243 290 344
#     4   7  12  26  50  74 101 137 176 222 278 340
#     4  12  24  39  61  87 114 151 195 242 296 348
#     4  10  20  36  58  82 114 155 198 238 282 344
#
# _framework density 18.841244
#
# number of rings (size 3 to 8) (size 9 to 14) (size 15 to 20)
#    0.000    1.833    1.667    5.000    0.000    1.333 
#    0.000    2.500    0.000    4.000    0.000    0.000 
#    0.000    0.000    0.000    0.000    0.000    0.000 
#
# Total GULP energy -595023.748690 kJ/mol
# GULP energy per Si atom -12396.328098 kJ/mol
# Density = 1.879836 g / cm^3
# Si number density = 18.841244 Si / 1000 Ang^3
#
#
#
# Elastic Constant Matrix: (Units=GPa)
#
#
# Indices 1 2 3 4 5 6 
#
# 1 127.1389 58.1287 49.6627 0.0000 0.0000 0.0000
# 2 58.1287 162.8364 70.2130 0.0000 0.0000 0.0000
# 3 49.6627 70.2130 100.5187 0.0000 0.0000 0.0000
# 4 0.0000 0.0000 0.0000 29.3923 0.0000 0.0000
# 5 0.0000 0.0000 0.0000 0.0000 27.8767 0.0000
# 6 0.0000 0.0000 0.0000 0.0000 0.0000 27.0641
#
#
#
# Elastic Compliance Matrix: (Units=1/GPa)
#
#
# Indices 1 2 3 4 5 6 
#
# 1 0.010228 -0.002107 -0.003582 0.000000 0.000000 0.000000
# 2 -0.002107 0.009222 -0.005401 0.000000 0.000000 0.000000
# 3 -0.003582 -0.005401 0.015490 0.000000 0.000000 0.000000
# 4 0.000000 0.000000 0.000000 0.034022 0.000000 0.000000
# 5 0.000000 0.000000 0.000000 0.000000 0.035872 0.000000
# 6 0.000000 0.000000 0.000000 0.000000 0.000000 0.036949
#
#
# Mechanical properties :
#
#
# Convention : Reuss Voigt Hill
#
# Bulk Modulus (GPa) = 78.35804 82.94475 80.65139
# Shear Modulus (GPa) = 29.72371 31.03259 30.37815
#
# Velocity S-wave (km/s) = 3.97619 4.06280 4.01973
# Velocity P-wave (km/s) = 7.92206 8.13185 8.02764
#
# Compressibility (1/GPa) = 0.01276193
#
# Stress axis : x y z
#
# Youngs Moduli (GPa) = 97.77433 108.43765 64.55632
#
# Poissons Ratio (x) = 0.22844 0.23121
# Poissons Ratio (y) = 0.20598 0.34865
# Poissons Ratio (z) = 0.35019 0.58564
#
# Static dielectric constant tensor:
#      x y z
#    x 3.572890 0.000000 0.000000 
#    y 0.000000 3.270980 0.000000 
#    z 0.000000 0.000000 3.271110 
# 
# 
# High freq. dielectric constant tensor:
#      x y z
#    x 1.725650 0.000000 0.000000 
#    y 0.000000 1.746120 0.000000 
#    z 0.000000 0.000000 1.711470 
# 
# From -- ./inp_files/25684.got.cif
#   From: 2010.03.12/outbox.cif.g09.slc.cpg/sg59_13_cif.got.tgz:25684.got - 2010.04.16 16:29:54.
