data_PCOD8244703
_publ_section_title
;
Structure prediction by ZEFSAII (Michael W. Deem and Ramdas Pophale) SiO2 
 PCOD8244703
Probable space group: P M M N
;
_chemical_formula_sum "Si O2"
_cell_formula_units_Z 64
_cell_length_a 18.434632
_cell_length_b 8.913577
_cell_length_c 21.393495
_cell_angle_alpha 90.000000
_cell_angle_beta 90.000000
_cell_angle_gamma 90.000000
_cell_volume 3515.347261
_symmetry_space_group_name_H-M "P M M N"
_symmetry_group_IT_number 59
_space_group.IT_coordinate_system_code '2'
_symmetry_cell_setting 'orthorhombic'
loop_
_space_group_symop_operation_xyz
x,y,z
1/2-x,1/2-y,z
1/2+x,-y,-z
-x,1/2+y,-z
-x,-y,-z
1/2+x,1/2+y,-z
1/2-x,y,z
x,1/2-y,z
loop_
_atom_site_type_symbol
_atom_site_label
_atom_site_fract_x
_atom_site_fract_y
_atom_site_fract_z
Si Si1 0.577957 0.071721 0.494971
Si Si2 0.967656 0.572454 0.061428
Si Si3 0.668195 0.925874 0.739941
Si Si4 0.332460 0.928970 0.624249
Si Si5 0.392807 0.575851 0.753388
Si Si6 0.167707 0.926567 0.883109
Si Si7 0.167844 0.573489 0.386606
Si Si8 0.964134 0.575522 0.821354
O O1 0.571300 0.250000 0.493476
O O2 0.619612 0.011589 0.433549
O O3 0.621617 0.014743 0.555321
O O4 0.500000 0.000000 0.500000
O O5 0.966797 0.750000 0.054755
O O6 0.885506 0.513648 0.070114
O O7 0.018503 0.525636 0.119115
O O8 0.000000 0.500000 0.000000
O O9 0.750000 0.980026 0.756326
O O10 0.665480 0.750000 0.728354
O O11 0.615347 0.970716 0.796822
O O12 0.638238 0.001887 0.677179
O O13 0.250000 0.987055 0.617143
O O14 0.333625 0.750000 0.624573
O O15 0.366686 0.998143 0.688246
O O16 0.376471 0.750000 0.746656
O O17 0.346220 0.515353 0.812322
O O18 0.477758 0.544027 0.766062
O O19 0.250000 0.962474 0.902693
O O20 0.150200 0.750000 0.887531
O O21 0.250000 0.521166 0.398347
O O22 0.162069 0.750000 0.379622
O O23 0.967830 0.750000 0.841284
#
# Coordination Sequence:
#
# PCOD8244703 Si02
#       8
#     8   8   8   8   8   8   8   8
#     4  10  21  33  47  68  96 130 169 215 261 308
#     4  11  22  37  57  80 109 145 184 221 259 307
#     4   9  18  32  53  80 105 132 170 218 268 317
#     4   9  16  27  46  71  96 125 167 212 250 297
#     4   8  14  25  46  76 102 128 163 207 253 300
#     4   9  17  32  55  82 112 142 174 214 261 314
#     4   9  18  33  50  68  95 133 173 214 261 312
#     4   9  18  33  53  77 107 137 168 211 262 316
#
# _framework density 18.205883
#
# number of rings (size 3 to 8) (size 9 to 14) (size 15 to 20)
#    0.000    2.750    0.000    2.625    1.750    4.250 
#    0.000    0.625    0.000    3.375    0.000    0.000 
#    0.000    0.000    0.000    0.000    0.000    0.000 
#
# Total GULP energy -793460.524409 kJ/mol
# GULP energy per Si atom -12397.820694 kJ/mol
# Density = 1.816445 g / cm^3
# Si number density = 18.205883 Si / 1000 Ang^3
#
#
#
# Elastic Constant Matrix: (Units=GPa)
#
#
# Indices 1 2 3 4 5 6 
#
# 1 134.7275 38.5404 82.8150 0.0000 0.0000 0.0000
# 2 38.5404 47.5310 39.8854 0.0000 0.0000 0.0000
# 3 82.8150 39.8854 125.1254 0.0000 0.0000 0.0000
# 4 0.0000 0.0000 0.0000 23.5391 0.0000 0.0000
# 5 0.0000 0.0000 0.0000 0.0000 30.3709 0.0000
# 6 0.0000 0.0000 0.0000 0.0000 0.0000 24.5565
#
#
#
# Elastic Compliance Matrix: (Units=1/GPa)
#
#
# Indices 1 2 3 4 5 6 
#
# 1 0.013213 -0.004608 -0.007276 0.000000 0.000000 0.000000
# 2 -0.004608 0.030329 -0.006618 0.000000 0.000000 0.000000
# 3 -0.007276 -0.006618 0.014917 0.000000 0.000000 0.000000
# 4 0.000000 0.000000 0.000000 0.042483 0.000000 0.000000
# 5 0.000000 0.000000 0.000000 0.000000 0.032926 0.000000
# 6 0.000000 0.000000 0.000000 0.000000 0.000000 0.040722
#
#
# Mechanical properties :
#
#
# Convention : Reuss Voigt Hill
#
# Bulk Modulus (GPa) = 46.60953 69.98506 58.29729
# Shear Modulus (GPa) = 22.85751 25.43618 24.14684
#
# Velocity S-wave (km/s) = 3.54715 3.74189 3.64582
# Velocity P-wave (km/s) = 6.51408 7.56263 7.05785
#
# Compressibility (1/GPa) = 0.02145484
#
# Stress axis : x y z
#
# Youngs Moduli (GPa) = 75.68155 32.97220 67.03554
#
# Poissons Ratio (x) = 0.15193 0.48778
# Poissons Ratio (y) = 0.34874 0.44363
# Poissons Ratio (z) = 0.55069 0.21820
#
# Static dielectric constant tensor:
#      x y z
#    x 3.528800 0.000000 0.000000 
#    y 0.000000 3.027340 0.000000 
#    z 0.000000 0.000000 3.478900 
# 
# 
# High freq. dielectric constant tensor:
#      x y z
#    x 1.713560 0.000000 0.000000 
#    y 0.000000 1.669080 0.000000 
#    z 0.000000 0.000000 1.703880 
# 
# From -- ./inp_files/30775.got.cif
#   From: 2010.03.12/outbox.cif.g09.slc.cpg/sg59_16_cif.got.tgz:30775.got - 2010.04.16 16:29:54.
