data_PCOD8244081
_publ_section_title
;
Structure prediction by ZEFSAII (Michael W. Deem and Ramdas Pophale) SiO2 
 PCOD8244081
Probable space group: P M M N
;
_chemical_formula_sum "Si O2"
_cell_formula_units_Z 64
_cell_length_a 8.805190
_cell_length_b 14.509394
_cell_length_c 25.044913
_cell_angle_alpha 90.000000
_cell_angle_beta 90.000000
_cell_angle_gamma 90.000000
_cell_volume 3199.687268
_symmetry_space_group_name_H-M "P M M N"
_symmetry_group_IT_number 59
_space_group.IT_coordinate_system_code '2'
_symmetry_cell_setting 'orthorhombic'
loop_
_space_group_symop_operation_xyz
x,y,z
1/2-x,1/2-y,z
1/2+x,-y,-z
-x,1/2+y,-z
-x,-y,-z
1/2+x,1/2+y,-z
1/2-x,y,z
x,1/2-y,z
loop_
_atom_site_type_symbol
_atom_site_label
_atom_site_fract_x
_atom_site_fract_y
_atom_site_fract_z
Si Si1 0.427914 0.956617 0.873517
Si Si2 0.071888 0.595402 0.482501
Si Si3 0.923789 0.856097 0.968014
Si Si4 0.569960 0.977656 0.677326
Si Si5 0.579082 0.650639 0.582422
Si Si6 0.074391 0.145389 0.628957
Si Si7 0.569976 0.645342 0.774949
Si Si8 0.070012 0.350392 0.911624
O O1 0.250000 0.946786 0.861730
O O2 0.465317 0.915733 0.931291
O O3 0.520820 0.900652 0.829915
O O4 0.479294 0.064921 0.873314
O O5 0.250000 0.586515 0.475366
O O6 0.000000 0.500000 0.500000
O O7 0.028605 0.662547 0.531029
O O8 0.007469 0.632876 0.427358
O O9 0.750000 0.890957 0.962402
O O10 0.933453 0.750000 0.950097
O O11 0.987198 0.868076 0.028084
O O12 0.750000 0.987599 0.681122
O O13 0.519153 0.926169 0.623126
O O14 0.506376 0.918512 0.726999
O O15 0.494877 0.078727 0.674685
O O16 0.750000 0.625065 0.563834
O O17 0.579204 0.750000 0.611976
O O18 0.250000 0.121627 0.621182
O O19 0.050513 0.250000 0.648903
O O20 0.750000 0.648758 0.772676
O O21 0.505524 0.750000 0.770412
O O22 0.250000 0.345831 0.914726
O O23 0.008720 0.250000 0.890789
#
# Coordination Sequence:
#
# PCOD8244081 Si02
#       8
#     8   8   8   8   8   8   8   8
#     4  11  21  32  52  82 112 144 184 233 282 325
#     4  12  23  36  56  84 118 155 191 229 275 328
#     4   9  17  31  52  76 106 147 188 225 273 337
#     4  10  21  39  63  85 107 142 188 236 279 325
#     4  10  20  35  57  85 114 143 178 225 282 338
#     4  11  24  41  61  86 118 154 188 227 278 335
#     4  10  22  41  62  83 110 146 184 222 274 339
#     4   8  16  32  52  75 106 146 189 228 272 330
#
# _framework density 20.001956
#
# number of rings (size 3 to 8) (size 9 to 14) (size 15 to 20)
#    0.000    1.875    1.250    4.125    0.000    6.750 
#    0.000    1.250    0.000    7.500    0.000    0.000 
#    0.000    0.000    0.000    0.000    0.000    0.000 
#
# Total GULP energy -793396.345987 kJ/mol
# GULP energy per Si atom -12396.817906 kJ/mol
# Density = 1.995643 g / cm^3
# Si number density = 20.001956 Si / 1000 Ang^3
#
#
#
# Elastic Constant Matrix: (Units=GPa)
#
#
# Indices 1 2 3 4 5 6 
#
# 1 52.0548 35.1632 21.8504 0.0000 0.0000 0.0000
# 2 35.1632 148.4211 56.3694 0.0000 0.0000 0.0000
# 3 21.8504 56.3694 75.5686 0.0000 0.0000 0.0000
# 4 0.0000 0.0000 0.0000 33.3309 0.0000 0.0000
# 5 0.0000 0.0000 0.0000 0.0000 23.1396 0.0000
# 6 0.0000 0.0000 0.0000 0.0000 0.0000 27.2788
#
#
#
# Elastic Compliance Matrix: (Units=1/GPa)
#
#
# Indices 1 2 3 4 5 6 
#
# 1 0.023590 -0.004183 -0.003700 0.000000 0.000000 0.000000
# 2 -0.004183 0.010143 -0.006356 0.000000 0.000000 0.000000
# 3 -0.003700 -0.006356 0.019044 0.000000 0.000000 0.000000
# 4 0.000000 0.000000 0.000000 0.030002 0.000000 0.000000
# 5 0.000000 0.000000 0.000000 0.000000 0.043216 0.000000
# 6 0.000000 0.000000 0.000000 0.000000 0.000000 0.036659
#
#
# Mechanical properties :
#
#
# Convention : Reuss Voigt Hill
#
# Bulk Modulus (GPa) = 41.15764 55.86781 48.51273
# Shear Modulus (GPa) = 25.09634 27.59395 26.34515
#
# Velocity S-wave (km/s) = 3.54601 3.71828 3.63316
# Velocity P-wave (km/s) = 6.11450 6.81366 6.47352
#
# Compressibility (1/GPa) = 0.02429682
#
# Stress axis : x y z
#
# Youngs Moduli (GPa) = 42.39145 98.59260 52.50918
#
# Poissons Ratio (x) = 0.41245 0.19430
# Poissons Ratio (y) = 0.17734 0.33376
# Poissons Ratio (z) = 0.15686 0.62668
#
# Static dielectric constant tensor:
#      x y z
#    x 3.531930 0.000000 0.000000 
#    y 0.000000 4.168040 0.000000 
#    z 0.000000 0.000000 3.504430 
# 
# 
# High freq. dielectric constant tensor:
#      x y z
#    x 1.759290 0.000000 0.000000 
#    y 0.000000 1.802190 0.000000 
#    z 0.000000 0.000000 1.758410 
# 
# From -- ./inp_files/31559.got.cif
#   From: 2010.03.12/outbox.cif.g09.slc.cpg/sg59_16_cif.got.tgz:31559.got - 2010.04.16 16:29:54.
