data_PCOD8244499
_publ_section_title
;
Structure prediction by ZEFSAII (Michael W. Deem and Ramdas Pophale) SiO2 
 PCOD8244499
Probable space group: P M M N
;
_chemical_formula_sum "Si O2"
_cell_formula_units_Z 64
_cell_length_a 14.184382
_cell_length_b 13.076481
_cell_length_c 18.366897
_cell_angle_alpha 90.000000
_cell_angle_beta 90.000000
_cell_angle_gamma 90.000000
_cell_volume 3406.725148
_symmetry_space_group_name_H-M "P M M N"
_symmetry_group_IT_number 59
_space_group.IT_coordinate_system_code '2'
_symmetry_cell_setting 'orthorhombic'
loop_
_space_group_symop_operation_xyz
x,y,z
1/2-x,1/2-y,z
1/2+x,-y,-z
-x,1/2+y,-z
-x,-y,-z
1/2+x,1/2+y,-z
1/2-x,y,z
x,1/2-y,z
loop_
_atom_site_type_symbol
_atom_site_label
_atom_site_fract_x
_atom_site_fract_y
_atom_site_fract_z
Si Si1 0.145529 0.957009 0.716421
Si Si2 0.858182 0.471470 0.700934
Si Si3 0.999376 0.989900 0.085559
Si Si4 0.523309 0.865541 0.786920
Si Si5 0.459252 0.627544 0.435627
Si Si6 0.855473 0.358736 0.844741
Si Si7 0.140920 0.133394 0.823051
Si Si8 0.357544 0.004271 0.549913
O O1 0.250000 0.927456 0.743670
O O2 0.074692 0.869885 0.742980
O O3 0.116539 0.067835 0.750588
O O4 0.142126 0.961799 0.630626
O O5 0.750000 0.492405 0.674992
O O6 0.898508 0.572007 0.741322
O O7 0.924939 0.435888 0.635043
O O8 0.860815 0.381119 0.759102
O O9 0.999657 0.095440 0.131114
O O10 0.914842 0.915000 0.109256
O O11 0.098945 0.941799 0.104434
O O12 0.000000 0.000000 0.000000
O O13 0.559563 0.750000 0.792475
O O14 0.450497 0.750000 0.425534
O O15 0.568023 0.598584 0.455391
O O16 0.390726 0.590465 0.500173
O O17 0.750000 0.353381 0.872467
O O18 0.906468 0.250000 0.856085
O O19 0.250000 0.128220 0.843825
O O20 0.109385 0.250000 0.807952
O O21 0.250000 0.039376 0.528960
#
# Coordination Sequence:
#
# PCOD8244499 Si02
#       8
#     8   8   8   8   8   8   8   8
#     4   9  18  36  58  81 111 147 185 228 278 337
#     4  10  20  37  58  84 114 145 189 245 288 332
#     4  10  21  35  53  78 111 148 180 227 278 331
#     4  10  21  37  55  79 111 150 195 234 280 341
#     4  11  23  39  62  89 118 156 198 239 288 344
#     4   9  18  33  55  81 107 138 178 226 279 330
#     4   9  18  33  56  84 110 139 178 225 277 333
#     4  10  22  40  58  86 125 157 191 238 290 343
#
# _framework density 18.786369000000001
#
# number of rings (size 3 to 8) (size 9 to 14) (size 15 to 20)
#    0.000    2.250    1.250    1.125    0.000    4.750 
#    0.000    2.500    0.000    1.500    0.000    0.000 
#    0.000    0.000    0.000    0.000    0.000    0.000 
#
# Total GULP energy -793151.747655 kJ/mol
# GULP energy per Si atom -12392.996057 kJ/mol
# Density = 1.874361 g / cm^3
# Si number density = 18.786369 Si / 1000 Ang^3
#
#
#
# Elastic Constant Matrix: (Units=GPa)
#
#
# Indices 1 2 3 4 5 6 
#
# 1 112.3684 33.4414 34.9425 0.0000 0.0000 0.0000
# 2 33.4414 107.5692 34.7936 0.0000 0.0000 0.0000
# 3 34.9425 34.7936 111.0062 0.0000 0.0000 0.0000
# 4 0.0000 0.0000 0.0000 13.1441 0.0000 0.0000
# 5 0.0000 0.0000 0.0000 0.0000 20.0857 0.0000
# 6 0.0000 0.0000 0.0000 0.0000 0.0000 17.4260
#
#
#
# Elastic Compliance Matrix: (Units=1/GPa)
#
#
# Indices 1 2 3 4 5 6 
#
# 1 0.010402 -0.002420 -0.002516 0.000000 0.000000 0.000000
# 2 -0.002420 0.010908 -0.002657 0.000000 0.000000 0.000000
# 3 -0.002516 -0.002657 0.010633 0.000000 0.000000 0.000000
# 4 0.000000 0.000000 0.000000 0.076080 0.000000 0.000000
# 5 0.000000 0.000000 0.000000 0.000000 0.049787 0.000000
# 6 0.000000 0.000000 0.000000 0.000000 0.000000 0.057385
#
#
# Mechanical properties :
#
#
# Convention : Reuss Voigt Hill
#
# Bulk Modulus (GPa) = 59.67576 59.69987 59.68782
# Shear Modulus (GPa) = 21.18940 25.31559 23.25250
#
# Velocity S-wave (km/s) = 3.36209 3.67488 3.52196
# Velocity P-wave (km/s) = 6.84879 7.06071 6.95556
#
# Compressibility (1/GPa) = 0.01675722
#
# Stress axis : x y z
#
# Youngs Moduli (GPa) = 96.13702 91.67426 94.04420
#
# Poissons Ratio (x) = 0.22185 0.23659
# Poissons Ratio (y) = 0.23265 0.24990
# Poissons Ratio (z) = 0.24186 0.24360
#
# Static dielectric constant tensor:
#      x y z
#    x 4.022620 0.000000 0.000000 
#    y 0.000000 3.321620 0.000000 
#    z 0.000000 0.000000 3.373660 
# 
# 
# High freq. dielectric constant tensor:
#      x y z
#    x 1.748480 0.000000 0.000000 
#    y 0.000000 1.713490 0.000000 
#    z 0.000000 0.000000 1.719530 
# 
# From -- ./inp_files/27683.got.cif
#   From: 2010.03.12/outbox.cif.g09.slc.cpg/sg59_14_cif.got.tgz:27683.got - 2010.04.16 16:29:54.
