data_PCOD8244601
_publ_section_title
;
Structure prediction by ZEFSAII (Michael W. Deem and Ramdas Pophale) SiO2 
 PCOD8244601
Probable space group: P M M N
;
_chemical_formula_sum "Si O2"
_cell_formula_units_Z 64
_cell_length_a 28.012346
_cell_length_b 8.706689
_cell_length_c 12.852650
_cell_angle_alpha 90.000000
_cell_angle_beta 90.000000
_cell_angle_gamma 90.000000
_cell_volume 3134.694306
_symmetry_space_group_name_H-M "P M M N"
_symmetry_group_IT_number 59
_space_group.IT_coordinate_system_code '2'
_symmetry_cell_setting 'orthorhombic'
loop_
_space_group_symop_operation_xyz
x,y,z
1/2-x,1/2-y,z
1/2+x,-y,-z
-x,1/2+y,-z
-x,-y,-z
1/2+x,1/2+y,-z
1/2-x,y,z
x,1/2-y,z
loop_
_atom_site_type_symbol
_atom_site_label
_atom_site_fract_x
_atom_site_fract_y
_atom_site_fract_z
Si Si1 0.042409 0.425676 0.245434
Si Si2 0.630901 0.428726 0.076956
Si Si3 0.971843 0.930961 0.096573
Si Si4 0.860381 0.574325 0.864379
Si Si5 0.305688 0.071458 0.749949
Si Si6 0.549337 0.431051 0.537181
Si Si7 0.803579 0.932904 0.664854
Si Si8 0.358360 0.069117 0.538013
O O1 0.030014 0.250000 0.272344
O O2 0.083218 0.435710 0.157982
O O3 0.061778 0.507853 0.348226
O O4 0.995112 0.508689 0.203441
O O5 0.618485 0.250000 0.081408
O O6 0.583344 0.524876 0.098725
O O7 0.670976 0.469098 0.160770
O O8 0.651883 0.471549 0.964017
O O9 0.976618 0.750000 0.090807
O O10 0.000000 0.000000 0.000000
O O11 0.845510 0.750000 0.887283
O O12 0.830989 0.507018 0.766943
O O13 0.250000 0.032123 0.743633
O O14 0.314280 0.250000 0.775294
O O15 0.329118 0.025824 0.640528
O O16 0.500000 0.500000 0.500000
O O17 0.545644 0.250000 0.537731
O O18 0.590667 0.484767 0.458212
O O19 0.750000 0.997894 0.667451
O O20 0.804047 0.750000 0.663131
O O21 0.829033 0.994386 0.561010
O O22 0.367292 0.250000 0.529154
#
# Coordination Sequence:
#
# PCOD8244601 Si02
#       8
#     8   8   8   8   8   8   8   8
#     4  11  22  40  64  91 126 165 208 260 320 382
#     4  12  26  42  63  91 130 174 219 271 324 384
#     4  12  24  40  63  93 126 165 212 261 314 380
#     4  10  20  37  62  92 127 165 207 259 316 381
#     4  10  23  44  70  96 125 167 221 278 331 388
#     4  12  26  42  62  91 130 172 212 257 316 382
#     4   9  17  33  62  96 123 152 195 251 314 376
#     4  10  20  40  67  96 127 160 208 263 320 384
#
# _framework density 20.416664000000001
#
# number of rings (size 3 to 8) (size 9 to 14) (size 15 to 20)
#    0.000    1.250    2.500    4.125    1.750    3.250 
#    0.000    1.250    0.000    1.875    0.000    0.000 
#    0.000    0.000    0.000    0.000    0.000    0.000 
#
# Total GULP energy -793980.451636 kJ/mol
# GULP energy per Si atom -12405.944557 kJ/mol
# Density = 2.037019 g / cm^3
# Si number density = 20.416664 Si / 1000 Ang^3
#
#
#
# Elastic Constant Matrix: (Units=GPa)
#
#
# Indices 1 2 3 4 5 6 
#
# 1 129.1650 44.3244 55.2319 0.0000 0.0000 0.0000
# 2 44.3244 115.1121 47.0913 0.0000 0.0000 0.0000
# 3 55.2319 47.0913 127.1677 0.0000 0.0000 0.0000
# 4 0.0000 0.0000 0.0000 27.3228 0.0000 0.0000
# 5 0.0000 0.0000 0.0000 0.0000 35.0957 0.0000
# 6 0.0000 0.0000 0.0000 0.0000 0.0000 27.8881
#
#
#
# Elastic Compliance Matrix: (Units=1/GPa)
#
#
# Indices 1 2 3 4 5 6 
#
# 1 0.010066 -0.002460 -0.003461 0.000000 0.000000 0.000000
# 2 -0.002460 0.010839 -0.002945 0.000000 0.000000 0.000000
# 3 -0.003461 -0.002945 0.010458 0.000000 0.000000 0.000000
# 4 0.000000 0.000000 0.000000 0.036599 0.000000 0.000000
# 5 0.000000 0.000000 0.000000 0.000000 0.028494 0.000000
# 6 0.000000 0.000000 0.000000 0.000000 0.000000 0.035858
#
#
# Mechanical properties :
#
#
# Convention : Reuss Voigt Hill
#
# Bulk Modulus (GPa) = 73.36743 73.86001 73.61372
# Shear Modulus (GPa) = 32.34355 33.04778 32.69567
#
# Velocity S-wave (km/s) = 3.98449 4.02763 4.00612
# Velocity P-wave (km/s) = 7.56183 7.60815 7.58503
#
# Compressibility (1/GPa) = 0.01363003
#
# Stress axis : x y z
#
# Youngs Moduli (GPa) = 99.34226 92.25568 95.62491
#
# Poissons Ratio (x) = 0.22697 0.33095
# Poissons Ratio (y) = 0.24440 0.28166
# Poissons Ratio (z) = 0.34382 0.27173
#
# Static dielectric constant tensor:
#      x y z
#    x 3.757140 0.000000 0.000000 
#    y 0.000000 3.560920 0.000000 
#    z 0.000000 0.000000 3.837390 
# 
# 
# High freq. dielectric constant tensor:
#      x y z
#    x 1.803830 0.000000 0.000000 
#    y 0.000000 1.780980 0.000000 
#    z 0.000000 0.000000 1.808470 
# 
# From -- ./inp_files/19377.got.cif
#   From: 2010.03.12/outbox.cif.g09.slc.cpg/sg59_10_cif.got.tgz:19377.got - 2010.04.16 16:29:54.
