data_PCOD8244169
_publ_section_title
;
Structure prediction by ZEFSAII (Michael W. Deem and Ramdas Pophale) SiO2 
 PCOD8244169
Probable space group: P M M N
;
_chemical_formula_sum "Si O2"
_cell_formula_units_Z 64
_cell_length_a 8.678615
_cell_length_b 14.426982
_cell_length_c 24.618548
_cell_angle_alpha 90.000000
_cell_angle_beta 90.000000
_cell_angle_gamma 90.000000
_cell_volume 3082.395396
_symmetry_space_group_name_H-M "P M M N"
_symmetry_group_IT_number 59
_space_group.IT_coordinate_system_code '2'
_symmetry_cell_setting 'orthorhombic'
loop_
_space_group_symop_operation_xyz
x,y,z
1/2-x,1/2-y,z
1/2+x,-y,-z
-x,1/2+y,-z
-x,-y,-z
1/2+x,1/2+y,-z
1/2-x,y,z
x,1/2-y,z
loop_
_atom_site_type_symbol
_atom_site_label
_atom_site_fract_x
_atom_site_fract_y
_atom_site_fract_z
Si Si1 0.567678 0.003382 0.559562
Si Si2 0.068692 0.530495 0.133499
Si Si3 0.078202 0.852333 0.630163
Si Si4 0.928206 0.852931 0.742175
Si Si5 0.429092 0.457002 0.757972
Si Si6 0.568223 0.144007 0.652962
Si Si7 0.066898 0.647362 0.033353
Si Si8 0.069109 0.643418 0.911866
O O1 0.750000 0.992755 0.557629
O O2 0.521452 0.093123 0.596453
O O3 0.500000 0.000000 0.500000
O O4 0.487136 0.914239 0.583271
O O5 0.250000 0.540498 0.138261
O O6 0.001131 0.578726 0.079202
O O7 0.996818 0.583863 0.185761
O O8 0.022382 0.421869 0.130146
O O9 0.250000 0.885458 0.649455
O O10 0.091035 0.750000 0.605479
O O11 0.955009 0.854618 0.678069
O O12 0.750000 0.875787 0.754272
O O13 0.973078 0.750000 0.764854
O O14 0.035174 0.933572 0.765681
O O15 0.250000 0.437701 0.754698
O O16 0.502899 0.411965 0.704505
O O17 0.750000 0.144081 0.659866
O O18 0.505032 0.250000 0.651737
O O19 0.250000 0.647719 0.034103
O O20 0.004811 0.750000 0.046717
O O21 0.012120 0.618448 0.973019
O O22 0.250000 0.625261 0.905404
O O23 0.028913 0.750000 0.898233
#
# Coordination Sequence:
#
# PCOD8244169 Si02
#       8
#     8   8   8   8   8   8   8   8
#     4  11  23  39  63  93 127 163 201 249 301 352
#     4  11  22  35  56  85 117 153 197 247 298 354
#     4  10  20  35  58  88 121 155 190 233 289 350
#     4  10  20  36  60  87 114 147 189 237 292 355
#     4  12  25  40  60  86 120 159 202 251 303 358
#     4  10  23  45  69  90 118 161 208 251 299 355
#     4   8  16  33  57  83 111 148 194 242 296 359
#     4   9  18  35  58  83 115 154 194 240 298 361
#
# _framework density 20.763072999999999
#
# number of rings (size 3 to 8) (size 9 to 14) (size 15 to 20)
#    0.000    1.875    1.250    3.750    0.000    4.000 
#    0.000    3.125    0.000    2.625    0.000    0.000 
#    0.000    0.000    0.000    0.000    0.000    0.000 
#
# Total GULP energy -793216.546307 kJ/mol
# GULP energy per Si atom -12394.008536 kJ/mol
# Density = 2.071581 g / cm^3
# Si number density = 20.763073 Si / 1000 Ang^3
#
#
#
# Elastic Constant Matrix: (Units=GPa)
#
#
# Indices 1 2 3 4 5 6 
#
# 1 57.1142 25.7857 28.3848 0.0000 0.0000 0.0000
# 2 25.7857 89.2095 44.6865 0.0000 0.0000 0.0000
# 3 28.3848 44.6865 111.9133 0.0000 0.0000 0.0000
# 4 0.0000 0.0000 0.0000 17.9698 0.0000 0.0000
# 5 0.0000 0.0000 0.0000 0.0000 32.3704 0.0000
# 6 0.0000 0.0000 0.0000 0.0000 0.0000 25.8790
#
#
#
# Elastic Compliance Matrix: (Units=1/GPa)
#
#
# Indices 1 2 3 4 5 6 
#
# 1 0.021282 -0.004310 -0.003677 0.000000 0.000000 0.000000
# 2 -0.004310 0.014885 -0.004850 0.000000 0.000000 0.000000
# 3 -0.003677 -0.004850 0.011805 0.000000 0.000000 0.000000
# 4 0.000000 0.000000 0.000000 0.055649 0.000000 0.000000
# 5 0.000000 0.000000 0.000000 0.000000 0.030892 0.000000
# 6 0.000000 0.000000 0.000000 0.000000 0.000000 0.038641
#
#
# Mechanical properties :
#
#
# Convention : Reuss Voigt Hill
#
# Bulk Modulus (GPa) = 44.84785 50.66124 47.75454
# Shear Modulus (GPa) = 24.24117 25.86918 25.05517
#
# Velocity S-wave (km/s) = 3.42060 3.53359 3.47755
# Velocity P-wave (km/s) = 6.10306 6.41101 6.25893
#
# Compressibility (1/GPa) = 0.02229762
#
# Stress axis : x y z
#
# Youngs Moduli (GPa) = 46.98840 67.18217 84.71103
#
# Poissons Ratio (x) = 0.28953 0.31148
# Poissons Ratio (y) = 0.20250 0.41088
# Poissons Ratio (z) = 0.17277 0.32586
#
# Static dielectric constant tensor:
#      x y z
#    x 3.595760 0.000000 0.000000 
#    y 0.000000 4.073350 0.000000 
#    z 0.000000 0.000000 3.899670 
# 
# 
# High freq. dielectric constant tensor:
#      x y z
#    x 1.799240 0.000000 0.000000 
#    y 0.000000 1.812750 0.000000 
#    z 0.000000 0.000000 1.819500 
# 
# From -- ./inp_files/31679.got.cif
#   From: 2010.03.12/outbox.cif.g09.slc.cpg/sg59_16_cif.got.tgz:31679.got - 2010.04.16 16:29:54.
