data_PCOD8244702
_publ_section_title
;
Structure prediction by ZEFSAII (Michael W. Deem and Ramdas Pophale) SiO2 
 PCOD8244702
Probable space group: P M M N
;
_chemical_formula_sum "Si O2"
_cell_formula_units_Z 64
_cell_length_a 21.610926
_cell_length_b 13.210124
_cell_length_c 12.814729
_cell_angle_alpha 90.000000
_cell_angle_beta 90.000000
_cell_angle_gamma 90.000000
_cell_volume 3658.387436
_symmetry_space_group_name_H-M "P M M N"
_symmetry_group_IT_number 59
_space_group.IT_coordinate_system_code '2'
_symmetry_cell_setting 'orthorhombic'
loop_
_space_group_symop_operation_xyz
x,y,z
1/2-x,1/2-y,z
1/2+x,-y,-z
-x,1/2+y,-z
-x,-y,-z
1/2+x,1/2+y,-z
1/2-x,y,z
x,1/2-y,z
loop_
_atom_site_type_symbol
_atom_site_label
_atom_site_fract_x
_atom_site_fract_y
_atom_site_fract_z
Si Si1 0.181891 0.059556 0.892598
Si Si2 0.068795 0.370231 0.520742
Si Si3 0.984811 0.365065 0.177074
Si Si4 0.635628 0.361705 0.038153
Si Si5 0.526328 0.007648 0.655769
Si Si6 0.557193 0.867264 0.016598
Si Si7 0.553605 0.131798 0.843822
Si Si8 0.180299 0.133978 0.668826
O O1 0.250000 0.108580 0.913067
O O2 0.129023 0.113109 0.960794
O O3 0.165433 0.067080 0.770489
O O4 0.186719 0.942456 0.927106
O O5 0.060643 0.250000 0.499442
O O6 0.070055 0.436195 0.414922
O O7 0.133713 0.394096 0.576583
O O8 0.012274 0.410395 0.590414
O O9 0.999119 0.250000 0.211019
O O10 0.981123 0.432432 0.280898
O O11 0.920243 0.371770 0.118435
O O12 0.038591 0.408339 0.098476
O O13 0.665374 0.250000 0.041545
O O14 0.609958 0.386888 0.923235
O O15 0.567907 0.071206 0.737350
O O16 0.541577 0.750000 0.012210
O O17 0.511650 0.910273 0.106984
O O18 0.547616 0.250000 0.816699
O O19 0.250000 0.114315 0.628021
O O20 0.171052 0.250000 0.703734
#
# Coordination Sequence:
#
# PCOD8244702 Si02
#       8
#     8   8   8   8   8   8   8   8
#     4  11  20  28  44  69  94 122 155 186 219 263
#     4  10  21  33  45  67  95 120 151 191 236 279
#     4   9  17  29  47  70  94 121 150 180 223 276
#     4   9  18  31  46  67  95 125 155 184 216 262
#     4  11  19  28  47  69  95 122 145 187 238 274
#     4   9  17  29  46  70  99 124 145 178 223 273
#     4   9  17  30  50  72  91 118 155 187 223 274
#     4   9  18  33  51  68  88 118 154 189 224 266
#
# _framework density 17.494046999999998
#
# number of rings (size 3 to 8) (size 9 to 14) (size 15 to 20)
#    0.000    2.375    0.000    5.625    0.000    5.000 
#    0.000    0.000    0.000    3.750    0.000    3.500 
#    0.000    0.000    0.000    0.000    0.000    0.000 
#
# Total GULP energy -793283.240129 kJ/mol
# GULP energy per Si atom -12395.050627 kJ/mol
# Density = 1.745423 g / cm^3
# Si number density = 17.494047 Si / 1000 Ang^3
#
#
#
# Elastic Constant Matrix: (Units=GPa)
#
#
# Indices 1 2 3 4 5 6 
#
# 1 60.4962 19.9388 22.9986 0.0000 0.0000 0.0000
# 2 19.9388 76.6788 46.3492 0.0000 0.0000 0.0000
# 3 22.9986 46.3492 87.7794 0.0000 0.0000 0.0000
# 4 0.0000 0.0000 0.0000 36.1614 0.0000 0.0000
# 5 0.0000 0.0000 0.0000 0.0000 17.9516 0.0000
# 6 0.0000 0.0000 0.0000 0.0000 0.0000 21.0004
#
#
#
# Elastic Compliance Matrix: (Units=1/GPa)
#
#
# Indices 1 2 3 4 5 6 
#
# 1 0.018759 -0.002801 -0.003436 0.000000 0.000000 0.000000
# 2 -0.002801 0.019573 -0.009601 0.000000 0.000000 0.000000
# 3 -0.003436 -0.009601 0.017362 0.000000 0.000000 0.000000
# 4 0.000000 0.000000 0.000000 0.027654 0.000000 0.000000
# 5 0.000000 0.000000 0.000000 0.000000 0.055705 0.000000
# 6 0.000000 0.000000 0.000000 0.000000 0.000000 0.047618
#
#
# Mechanical properties :
#
#
# Convention : Reuss Voigt Hill
#
# Bulk Modulus (GPa) = 41.63508 44.83641 43.23574
# Shear Modulus (GPa) = 22.08923 24.06721 23.07822
#
# Velocity S-wave (km/s) = 3.55726 3.71312 3.63603
# Velocity P-wave (km/s) = 6.38149 6.63838 6.51120
#
# Compressibility (1/GPa) = 0.02401821
#
# Stress axis : x y z
#
# Youngs Moduli (GPa) = 53.30652 51.09000 57.59686
#
# Poissons Ratio (x) = 0.14311 0.19790
# Poissons Ratio (y) = 0.14932 0.55300
# Poissons Ratio (z) = 0.18316 0.49052
#
# Static dielectric constant tensor:
#      x y z
#    x 2.959150 0.000000 0.000000 
#    y 0.000000 3.561690 0.000000 
#    z 0.000000 0.000000 3.239920 
# 
# 
# High freq. dielectric constant tensor:
#      x y z
#    x 1.641240 0.000000 0.000000 
#    y 0.000000 1.697150 0.000000 
#    z 0.000000 0.000000 1.663510 
# 
# From -- ./inp_files/17844.got.cif
#   From: 2010.03.12/outbox.cif.g09.slc.cpg/sg59_9_cif.got.tgz:17844.got - 2010.04.16 16:29:54.
