data_PCOD8244996
_publ_section_title
;
Structure prediction by ZEFSAII (Michael W. Deem and Ramdas Pophale) SiO2 
 PCOD8244996
Probable space group: P M M N
;
_chemical_formula_sum "Si O2"
_cell_formula_units_Z 48
_cell_length_a 9.163955
_cell_length_b 9.206452
_cell_length_c 30.556620
_cell_angle_alpha 90.000000
_cell_angle_beta 90.000000
_cell_angle_gamma 90.000000
_cell_volume 2577.986000
_symmetry_space_group_name_H-M "P M M N"
_symmetry_group_IT_number 59
_space_group.IT_coordinate_system_code '2'
_symmetry_cell_setting 'orthorhombic'
loop_
_space_group_symop_operation_xyz
x,y,z
1/2-x,1/2-y,z
1/2+x,-y,-z
-x,1/2+y,-z
-x,-y,-z
1/2+x,1/2+y,-z
1/2-x,y,z
x,1/2-y,z
loop_
_atom_site_type_symbol
_atom_site_label
_atom_site_fract_x
_atom_site_fract_y
_atom_site_fract_z
Si Si1 0.081913 0.579626 0.461306
Si Si2 0.918229 0.920953 0.703434
Si Si3 0.920642 0.582052 0.372797
Si Si4 0.919206 0.417652 0.791098
Si Si5 0.085982 0.919169 0.962862
Si Si6 0.076798 0.586405 0.865255
O O1 0.250000 0.529695 0.459590
O O2 0.067857 0.750000 0.469556
O O3 0.000000 0.500000 0.500000
O O4 0.005429 0.534056 0.416254
O O5 0.750000 0.960683 0.693076
O O6 0.941967 0.750000 0.706941
O O7 0.968887 0.991839 0.748856
O O8 0.021460 0.983160 0.666095
O O9 0.750000 0.553015 0.380026
O O10 0.951984 0.750000 0.361539
O O11 0.750000 0.443071 0.801017
O O12 0.955388 0.250000 0.782205
O O13 0.007767 0.470473 0.832896
O O14 0.250000 0.977644 0.964675
O O15 0.079584 0.750000 0.973079
O O16 0.021829 0.950346 0.914383
O O17 0.000000 0.000000 0.000000
O O18 0.250000 0.574662 0.863134
O O19 0.027760 0.750000 0.852469
#
# Coordination Sequence:
#
# PCOD8244996 Si02
#       6
#     8   8   8   8   8   8
#     4  10  21  37  58  83 111 145 183 223 268 316
#     4  10  21  37  57  80 106 139 178 218 262 313
#     4  10  21  37  57  81 109 142 180 221 266 316
#     4  10  21  36  55  80 108 138 174 217 264 314
#     4   9  19  35  53  75 104 137 174 216 261 311
#     4   9  19  36  55  75 103 139 176 215 261 312
#
# _framework density 18.619185000000002
#
# number of rings (size 3 to 8) (size 9 to 14) (size 15 to 20)
#    0.000    2.333    0.000    3.000    0.000    7.333 
#    0.000    5.000    0.000    0.000    0.000    0.000 
#    0.000    0.000    0.000    0.000    0.000    0.000 
#
# Total GULP energy -595312.144463 kJ/mol
# GULP energy per Si atom -12402.336343 kJ/mol
# Density = 1.857681 g / cm^3
# Si number density = 18.619185 Si / 1000 Ang^3
#
#
#
# Elastic Constant Matrix: (Units=GPa)
#
#
# Indices 1 2 3 4 5 6 
#
# 1 87.8968 45.0617 68.1452 0.0000 0.0000 0.0000
# 2 45.0617 78.0749 67.4479 0.0000 0.0000 0.0000
# 3 68.1452 67.4479 147.7574 0.0000 0.0000 0.0000
# 4 0.0000 0.0000 0.0000 42.2744 0.0000 0.0000
# 5 0.0000 0.0000 0.0000 0.0000 38.5883 0.0000
# 6 0.0000 0.0000 0.0000 0.0000 0.0000 33.2701
#
#
#
# Elastic Compliance Matrix: (Units=1/GPa)
#
#
# Indices 1 2 3 4 5 6 
#
# 1 0.019102 -0.005637 -0.006237 0.000000 0.000000 0.000000
# 2 -0.005637 0.022811 -0.007813 0.000000 0.000000 0.000000
# 3 -0.006237 -0.007813 0.013211 0.000000 0.000000 0.000000
# 4 0.000000 0.000000 0.000000 0.023655 0.000000 0.000000
# 5 0.000000 0.000000 0.000000 0.000000 0.025915 0.000000
# 6 0.000000 0.000000 0.000000 0.000000 0.000000 0.030057
#
#
# Mechanical properties :
#
#
# Convention : Reuss Voigt Hill
#
# Bulk Modulus (GPa) = 63.49030 75.00428 69.24729
# Shear Modulus (GPa) = 27.87466 31.69819 29.78642
#
# Velocity S-wave (km/s) = 3.87343 4.13055 4.00405
# Velocity P-wave (km/s) = 7.36057 7.94477 7.65824
#
# Compressibility (1/GPa) = 0.01575044
#
# Stress axis : x y z
#
# Youngs Moduli (GPa) = 52.35012 43.83781 75.69713
#
# Poissons Ratio (x) = 0.24713 0.47209
# Poissons Ratio (y) = 0.29512 0.59142
# Poissons Ratio (z) = 0.32648 0.34250
#
# Static dielectric constant tensor:
#      x y z
#    x 3.406040 0.000000 0.000000 
#    y 0.000000 3.377780 0.000000 
#    z 0.000000 0.000000 3.524270 
# 
# 
# High freq. dielectric constant tensor:
#      x y z
#    x 1.721360 0.000000 0.000000 
#    y 0.000000 1.722090 0.000000 
#    z 0.000000 0.000000 1.734650 
# 
# From -- ./inp_files/32785.got.cif
#   From: 2010.03.12/outbox.cif.g09.slc.cpg/sg59_17_cif.got.tgz:32785.got - 2010.04.16 16:29:54.
