data_PCOD8244189
_publ_section_title
;
Structure prediction by ZEFSAII (Michael W. Deem and Ramdas Pophale) SiO2 
 PCOD8244189
Probable space group: P M M N
;
_chemical_formula_sum "Si O2"
_cell_formula_units_Z 56
_cell_length_a 15.024781
_cell_length_b 19.123101
_cell_length_c 9.337660
_cell_angle_alpha 90.000000
_cell_angle_beta 90.000000
_cell_angle_gamma 90.000000
_cell_volume 2682.900249
_symmetry_space_group_name_H-M "P M M N"
_symmetry_group_IT_number 59
_space_group.IT_coordinate_system_code '2'
_symmetry_cell_setting 'orthorhombic'
loop_
_space_group_symop_operation_xyz
x,y,z
1/2-x,1/2-y,z
1/2+x,-y,-z
-x,1/2+y,-z
-x,-y,-z
1/2+x,1/2+y,-z
1/2-x,y,z
x,1/2-y,z
loop_
_atom_site_type_symbol
_atom_site_label
_atom_site_fract_x
_atom_site_fract_y
_atom_site_fract_z
Si Si1 0.651955 0.828677 0.990372
Si Si2 0.348647 0.917613 0.366328
Si Si3 0.647176 0.943245 0.471571
Si Si4 0.400902 0.046409 0.843419
Si Si5 0.994925 0.332919 0.478309
Si Si6 0.024493 0.829616 0.843380
Si Si7 0.402815 0.563475 0.063274
O O1 0.750000 0.843176 0.926091
O O2 0.643078 0.750000 0.047099
O O3 0.632434 0.874800 0.130424
O O4 0.580752 0.844828 0.866317
O O5 0.250000 0.900258 0.427827
O O6 0.419239 0.858642 0.412351
O O7 0.339064 0.916061 0.193727
O O8 0.379192 0.994490 0.419773
O O9 0.750000 0.920998 0.490859
O O10 0.630547 0.975453 0.313645
O O11 0.586312 0.875067 0.496366
O O12 0.506846 0.038349 0.858188
O O13 0.358442 0.997888 0.968144
O O14 0.013123 0.250000 0.498879
O O15 0.956269 0.349282 0.320478
O O16 0.048798 0.750000 0.875349
O O17 0.083392 0.872840 0.953870
#
# Coordination Sequence:
#
# PCOD8244189 Si02
#       7
#     8   8   8   8   8   8   8
#     4   9  18  32  53  84 122 158 196 243 294 357
#     4  11  25  43  66  92 123 165 212 263 316 374
#     4  11  24  40  62  95 134 171 207 252 313 383
#     4  10  20  35  59  87 123 164 201 251 306 361
#     4  11  24  43  66  91 128 170 209 259 316 377
#     4   9  20  38  61  87 117 158 201 246 308 367
#     4  10  21  37  62  92 117 157 209 260 308 363
#
# _framework density 20.872931999999999
#
# number of rings (size 3 to 8) (size 9 to 14) (size 15 to 20)
#    0.000    1.857    1.429    1.714    6.000    3.429 
#    0.000    2.143    0.000    0.857    0.000    0.000 
#    0.000    0.000    0.000    0.000    0.000    0.000 
#
# Total GULP energy -694322.406353 kJ/mol
# GULP energy per Si atom -12398.614399 kJ/mol
# Density = 2.082542 g / cm^3
# Si number density = 20.872932 Si / 1000 Ang^3
#
#
#
# Elastic Constant Matrix: (Units=GPa)
#
#
# Indices 1 2 3 4 5 6 
#
# 1 79.3116 51.0866 24.1406 0.0000 0.0000 0.0000
# 2 51.0866 114.6720 58.4850 0.0000 0.0000 0.0000
# 3 24.1406 58.4850 133.5937 0.0000 0.0000 0.0000
# 4 0.0000 0.0000 0.0000 33.8540 0.0000 0.0000
# 5 0.0000 0.0000 0.0000 0.0000 16.7878 0.0000
# 6 0.0000 0.0000 0.0000 0.0000 0.0000 18.9230
#
#
#
# Elastic Compliance Matrix: (Units=1/GPa)
#
#
# Indices 1 2 3 4 5 6 
#
# 1 0.017694 -0.008049 0.000326 0.000000 0.000000 0.000000
# 2 -0.008049 0.014889 -0.005064 0.000000 0.000000 0.000000
# 3 0.000326 -0.005064 0.009643 0.000000 0.000000 0.000000
# 4 0.000000 0.000000 0.000000 0.029539 0.000000 0.000000
# 5 0.000000 0.000000 0.000000 0.000000 0.059567 0.000000
# 6 0.000000 0.000000 0.000000 0.000000 0.000000 0.052846
#
#
# Mechanical properties :
#
#
# Convention : Reuss Voigt Hill
#
# Bulk Modulus (GPa) = 60.04806 66.11130 63.07968
# Shear Modulus (GPa) = 23.22331 26.83730 25.03031
#
# Velocity S-wave (km/s) = 3.33919 3.58962 3.46667
# Velocity P-wave (km/s) = 6.61043 6.99446 6.80515
#
# Compressibility (1/GPa) = 0.01665333
#
# Stress axis : x y z
#
# Youngs Moduli (GPa) = 56.51713 67.16380 103.70036
#
# Poissons Ratio (x) = 0.54061 -0.03386
# Poissons Ratio (y) = 0.45491 0.52510
# Poissons Ratio (z) = -0.01845 0.34009
#
# Static dielectric constant tensor:
#      x y z
#    x 3.655510 0.000000 0.000000 
#    y 0.000000 3.777000 0.000000 
#    z 0.000000 0.000000 3.812260 
# 
# 
# High freq. dielectric constant tensor:
#      x y z
#    x 1.805890 0.000000 0.000000 
#    y 0.000000 1.815390 0.000000 
#    z 0.000000 0.000000 1.819020 
# 
# From -- ./inp_files/9365.got.cif
#   From: 2010.03.12/outbox.cif.g09.slc.cpg/sg59_5_cif.got.tgz:9365.got - 2010.04.16 16:29:54.
