data_PCOD8244635
_publ_section_title
;
Structure prediction by ZEFSAII (Michael W. Deem and Ramdas Pophale) SiO2 
 PCOD8244635
Probable space group: P M M N
;
_chemical_formula_sum "Si O2"
_cell_formula_units_Z 48
_cell_length_a 9.188815
_cell_length_b 9.670269
_cell_length_c 28.396927
_cell_angle_alpha 90.000000
_cell_angle_beta 90.000000
_cell_angle_gamma 90.000000
_cell_volume 2523.303023
_symmetry_space_group_name_H-M "P M M N"
_symmetry_group_IT_number 59
_space_group.IT_coordinate_system_code '2'
_symmetry_cell_setting 'orthorhombic'
loop_
_space_group_symop_operation_xyz
x,y,z
1/2-x,1/2-y,z
1/2+x,-y,-z
-x,1/2+y,-z
-x,-y,-z
1/2+x,1/2+y,-z
1/2-x,y,z
x,1/2-y,z
loop_
_atom_site_type_symbol
_atom_site_label
_atom_site_fract_x
_atom_site_fract_y
_atom_site_fract_z
Si Si1 0.583320 0.095648 0.207259
Si Si2 0.581465 0.591106 0.633981
Si Si3 0.919375 0.089457 0.461327
Si Si4 0.578228 0.091834 0.721865
Si Si5 0.917847 0.013360 0.101678
Si Si6 0.077501 0.750000 0.072863
Si Si7 0.422562 0.750000 0.966409
O O1 0.750000 0.069051 0.221320
O O2 0.535140 0.250000 0.223116
O O3 0.487915 0.979104 0.232144
O O4 0.562632 0.087695 0.151432
O O5 0.750000 0.564551 0.621442
O O6 0.555963 0.750000 0.649215
O O7 0.485497 0.551418 0.589158
O O8 0.527494 0.492254 0.675847
O O9 0.750000 0.051300 0.461000
O O10 0.945167 0.250000 0.473104
O O11 0.000000 0.000000 0.500000
O O12 0.750000 0.085523 0.727217
O O13 0.523420 0.250000 0.717970
O O14 0.750000 0.971666 0.093138
O O15 0.018840 0.880300 0.101108
O O16 0.977632 0.114155 0.060803
O O17 0.250000 0.750000 0.073576
O O18 0.016122 0.750000 0.019385
O O19 0.250000 0.750000 0.965294
#
# Coordination Sequence:
#
# PCOD8244635 Si02
#       7
#     8   8   8   8   8   4   4
#     4  10  21  38  60  82 104 139 188 232 271 324
#     4   9  18  35  57  79 109 152 196 232 273 330
#     4  10  21  36  56  84 117 153 193 238 285 331
#     4  10  22  38  57  84 117 149 179 222 282 339
#     4  10  20  38  60  80 106 146 186 223 272 330
#     4  11  23  35  53  85 117 143 175 225 278 325
#     4   9  18  37  61  81 107 143 187 229 268 323
#
# _framework density 19.022686
#
# number of rings (size 3 to 8) (size 9 to 14) (size 15 to 20)
#    0.000    2.167    0.833    1.750    1.167    4.333 
#    0.000    4.583    0.000    0.000    0.000    0.000 
#    0.000    0.000    0.000    0.000    0.000    0.000 
#
# Total GULP energy -595341.450358 kJ/mol
# GULP energy per Si atom -12402.946882 kJ/mol
# Density = 1.897939 g / cm^3
# Si number density = 19.022686 Si / 1000 Ang^3
#
#
#
# Elastic Constant Matrix: (Units=GPa)
#
#
# Indices 1 2 3 4 5 6 
#
# 1 60.7304 39.2091 38.4035 0.0000 0.0000 0.0000
# 2 39.2091 120.6014 45.1338 0.0000 0.0000 0.0000
# 3 38.4035 45.1338 86.2221 0.0000 0.0000 0.0000
# 4 0.0000 0.0000 0.0000 37.5121 0.0000 0.0000
# 5 0.0000 0.0000 0.0000 0.0000 34.1113 0.0000
# 6 0.0000 0.0000 0.0000 0.0000 0.0000 21.5427
#
#
#
# Elastic Compliance Matrix: (Units=1/GPa)
#
#
# Indices 1 2 3 4 5 6 
#
# 1 0.025087 -0.004943 -0.008587 0.000000 0.000000 0.000000
# 2 -0.004943 0.011286 -0.003706 0.000000 0.000000 0.000000
# 3 -0.008587 -0.003706 0.017362 0.000000 0.000000 0.000000
# 4 0.000000 0.000000 0.000000 0.026658 0.000000 0.000000
# 5 0.000000 0.000000 0.000000 0.000000 0.029316 0.000000
# 6 0.000000 0.000000 0.000000 0.000000 0.000000 0.046419
#
#
# Mechanical properties :
#
#
# Convention : Reuss Voigt Hill
#
# Bulk Modulus (GPa) = 51.90897 57.00521 54.45709
# Shear Modulus (GPa) = 25.37802 28.28705 26.83254
#
# Velocity S-wave (km/s) = 3.65649 3.86037 3.75981
# Velocity P-wave (km/s) = 6.72114 7.06413 6.89477
#
# Compressibility (1/GPa) = 0.01926449
#
# Stress axis : x y z
#
# Youngs Moduli (GPa) = 39.86099 88.60766 57.59561
#
# Poissons Ratio (x) = 0.43797 0.49455
# Poissons Ratio (y) = 0.19702 0.21346
# Poissons Ratio (z) = 0.34227 0.32839
#
# Static dielectric constant tensor:
#      x y z
#    x 3.347410 0.000000 0.000000 
#    y 0.000000 3.598150 0.000000 
#    z 0.000000 0.000000 3.500580 
# 
# 
# High freq. dielectric constant tensor:
#      x y z
#    x 1.726810 0.000000 0.000000 
#    y 0.000000 1.747460 0.000000 
#    z 0.000000 0.000000 1.744170 
# 
# From -- ./inp_files/32962.got.cif
#   From: 2010.03.12/outbox.cif.g09.slc.cpg/sg59_17_cif.got.tgz:32962.got - 2010.04.16 16:29:54.
