data_PCOD8244665
_publ_section_title
;
Structure prediction by ZEFSAII (Michael W. Deem and Ramdas Pophale) SiO2 
 PCOD8244665
Probable space group: P M M N
;
_chemical_formula_sum "Si O2"
_cell_formula_units_Z 64
_cell_length_a 8.891678
_cell_length_b 30.557671
_cell_length_c 11.817621
_cell_angle_alpha 90.000000
_cell_angle_beta 90.000000
_cell_angle_gamma 90.000000
_cell_volume 3210.953641
_symmetry_space_group_name_H-M "P M M N"
_symmetry_group_IT_number 59
_space_group.IT_coordinate_system_code '2'
_symmetry_cell_setting 'orthorhombic'
loop_
_space_group_symop_operation_xyz
x,y,z
1/2-x,1/2-y,z
1/2+x,-y,-z
-x,1/2+y,-z
-x,-y,-z
1/2+x,1/2+y,-z
1/2-x,y,z
x,1/2-y,z
loop_
_atom_site_type_symbol
_atom_site_label
_atom_site_fract_x
_atom_site_fract_y
_atom_site_fract_z
Si Si1 0.924698 0.624969 0.389644
Si Si2 0.578184 0.799577 0.219997
Si Si3 0.572879 0.126175 0.371060
Si Si4 0.421832 0.453242 0.244409
Si Si5 0.926358 0.171790 0.005151
Si Si6 0.578067 0.799715 0.771010
Si Si7 0.078314 0.419807 0.999397
Si Si8 0.924123 0.541591 0.237515
O O1 0.750000 0.625917 0.424684
O O2 0.970309 0.668447 0.321085
O O3 0.963446 0.583160 0.313713
O O4 0.026806 0.622556 0.499266
O O5 0.750000 0.809761 0.184007
O O6 0.559918 0.750000 0.263871
O O7 0.472642 0.806858 0.112905
O O8 0.750000 0.128559 0.360395
O O9 0.517351 0.084059 0.303826
O O10 0.506194 0.170204 0.318617
O O11 0.250000 0.448164 0.283492
O O12 0.439296 0.449831 0.109385
O O13 0.480659 0.500631 0.282674
O O14 0.750000 0.176767 0.021945
O O15 0.007249 0.197769 0.105020
O O16 0.969021 0.121129 0.010512
O O17 0.750000 0.815683 0.778876
O O18 0.567204 0.750000 0.727229
O O19 0.250000 0.403023 0.984562
O O20 0.029374 0.448030 0.891290
O O21 0.750000 0.528962 0.245884
#
# Coordination Sequence:
#
# PCOD8244665 Si02
#       8
#     8   8   8   8   8   8   8   8
#     4  10  22  42  65  89 120 164 213 259 306 363
#     4  10  21  40  66  92 122 164 209 251 301 365
#     4  12  26  43  64  91 124 161 204 260 315 364
#     4  11  23  39  64  93 125 164 206 250 304 372
#     4  12  23  35  60  95 131 165 199 248 308 365
#     4  11  24  43  67  92 122 163 208 252 303 369
#     4  10  20  38  63  90 124 165 203 247 304 370
#     4  10  21  39  64  92 125 161 204 256 306 360
#
# _framework density 19.931774000000001
#
# number of rings (size 3 to 8) (size 9 to 14) (size 15 to 20)
#    0.000    1.250    2.500    3.750    0.000    5.750 
#    0.000    1.250    0.000    0.000    0.000    0.000 
#    0.000    0.000    0.000    0.000    0.000    0.000 
#
# Total GULP energy -793998.945615 kJ/mol
# GULP energy per Si atom -12406.233525 kJ/mol
# Density = 1.988641 g / cm^3
# Si number density = 19.931774 Si / 1000 Ang^3
#
#
#
# Elastic Constant Matrix: (Units=GPa)
#
#
# Indices 1 2 3 4 5 6 
#
# 1 136.6667 59.5090 57.7374 0.0000 0.0000 0.0000
# 2 59.5090 131.1277 46.2284 0.0000 0.0000 0.0000
# 3 57.7374 46.2284 107.5858 0.0000 0.0000 0.0000
# 4 0.0000 0.0000 0.0000 35.6060 0.0000 0.0000
# 5 0.0000 0.0000 0.0000 0.0000 19.8453 0.0000
# 6 0.0000 0.0000 0.0000 0.0000 0.0000 29.7443
#
#
#
# Elastic Compliance Matrix: (Units=1/GPa)
#
#
# Indices 1 2 3 4 5 6 
#
# 1 0.010542 -0.003288 -0.004245 0.000000 0.000000 0.000000
# 2 -0.003288 0.010013 -0.002538 0.000000 0.000000 0.000000
# 3 -0.004245 -0.002538 0.012664 0.000000 0.000000 0.000000
# 4 0.000000 0.000000 0.000000 0.028085 0.000000 0.000000
# 5 0.000000 0.000000 0.000000 0.000000 0.050390 0.000000
# 6 0.000000 0.000000 0.000000 0.000000 0.000000 0.033620
#
#
# Mechanical properties :
#
#
# Convention : Reuss Voigt Hill
#
# Bulk Modulus (GPa) = 76.46837 78.03661 77.25249
# Shear Modulus (GPa) = 29.44407 31.16615 30.30511
#
# Velocity S-wave (km/s) = 3.84766 3.95858 3.90352
# Velocity P-wave (km/s) = 7.62808 7.75440 7.69150
#
# Compressibility (1/GPa) = 0.01307730
#
# Stress axis : x y z
#
# Youngs Moduli (GPa) = 94.85928 99.87036 78.96706
#
# Poissons Ratio (x) = 0.32834 0.33520
# Poissons Ratio (y) = 0.31187 0.20042
# Poissons Ratio (z) = 0.40266 0.25348
#
# Static dielectric constant tensor:
#      x y z
#    x 3.606580 0.000000 0.000000 
#    y 0.000000 3.667500 0.000000 
#    z 0.000000 0.000000 3.603510 
# 
# 
# High freq. dielectric constant tensor:
#      x y z
#    x 1.775900 0.000000 0.000000 
#    y 0.000000 1.790140 0.000000 
#    z 0.000000 0.000000 1.775820 
# 
# From -- ./inp_files/14929.got.cif
#   From: 2010.03.12/outbox.cif.g09.slc.cpg/sg59_8_cif.got.tgz:14929.got - 2010.04.16 16:29:54.
