data_PCOD8244978
_publ_section_title
;
Structure prediction by ZEFSAII (Michael W. Deem and Ramdas Pophale) SiO2 
 PCOD8244978
Probable space group: P M M N
;
_chemical_formula_sum "Si O2"
_cell_formula_units_Z 24
_cell_length_a 15.424732
_cell_length_b 9.341012
_cell_length_c 9.101523
_cell_angle_alpha 90.000000
_cell_angle_beta 90.000000
_cell_angle_gamma 90.000000
_cell_volume 1311.371159
_symmetry_space_group_name_H-M "P M M N"
_symmetry_group_IT_number 59
_space_group.IT_coordinate_system_code '2'
_symmetry_cell_setting 'orthorhombic'
loop_
_space_group_symop_operation_xyz
x,y,z
1/2-x,1/2-y,z
1/2+x,-y,-z
-x,1/2+y,-z
-x,-y,-z
1/2+x,1/2+y,-z
1/2-x,y,z
x,1/2-y,z
loop_
_atom_site_type_symbol
_atom_site_label
_atom_site_fract_x
_atom_site_fract_y
_atom_site_fract_z
Si Si1 0.653361 0.909301 0.816872
Si Si2 0.250000 0.086369 0.905617
Si Si3 0.579843 0.081090 0.570407
Si Si4 0.250000 0.582871 0.608212
O O1 0.750000 0.914411 0.746096
O O2 0.613777 0.750000 0.794209
O O3 0.592428 0.025703 0.737721
O O4 0.664282 0.942103 0.992151
O O5 0.250000 0.250000 0.850977
O O6 0.250000 0.984782 0.768065
O O7 0.562886 0.250000 0.573556
O O8 0.664372 0.036361 0.478676
O O9 0.500000 0.000000 0.500000
O O10 0.250000 0.750000 0.633441
#
# Coordination Sequence:
#
# PCOD8244978 Si02
#       4
#     8   4   8   4
#     4   8  16  33  55  78 104 137 175 217 264 315
#     4   8  17  32  56  82 106 140 179 216 268 324
#     4  11  22  36  55  82 110 142 183 225 269 320
#     4  10  21  36  54  80 112 138 175 226 268 316
#
# _framework density 18.301455000000001
#
# number of rings (size 3 to 8) (size 9 to 14) (size 15 to 20)
#    1.000    1.667    1.667    1.000    0.000    4.000 
#    0.000    1.667    0.000    0.000    0.000    0.000 
#    0.000    0.000    0.000    0.000    0.000    0.000 
#
# Total GULP energy -297333.436223 kJ/mol
# GULP energy per Si atom -12388.893176 kJ/mol
# Density = 1.825980 g / cm^3
# Si number density = 18.301455 Si / 1000 Ang^3
#
#
#
# Elastic Constant Matrix: (Units=GPa)
#
#
# Indices 1 2 3 4 5 6 
#
# 1 80.7024 47.1596 30.8499 0.0000 0.0000 0.0000
# 2 47.1596 65.9371 35.8747 0.0000 0.0000 0.0000
# 3 30.8499 35.8747 79.9351 0.0000 0.0000 0.0000
# 4 0.0000 0.0000 0.0000 37.7336 0.0000 0.0000
# 5 0.0000 0.0000 0.0000 0.0000 7.9163 0.0000
# 6 0.0000 0.0000 0.0000 0.0000 0.0000 29.5171
#
#
#
# Elastic Compliance Matrix: (Units=1/GPa)
#
#
# Indices 1 2 3 4 5 6 
#
# 1 0.021493 -0.014367 -0.001847 0.000000 0.000000 0.000000
# 2 -0.014367 0.029670 -0.007771 0.000000 0.000000 0.000000
# 3 -0.001847 -0.007771 0.016710 0.000000 0.000000 0.000000
# 4 0.000000 0.000000 0.000000 0.026502 0.000000 0.000000
# 5 0.000000 0.000000 0.000000 0.000000 0.126322 0.000000
# 6 0.000000 0.000000 0.000000 0.000000 0.000000 0.033879
#
#
# Mechanical properties :
#
#
# Convention : Reuss Voigt Hill
#
# Bulk Modulus (GPa) = 50.24367 50.48256 50.36311
# Shear Modulus (GPa) = 16.17180 22.54609 19.35895
#
# Velocity S-wave (km/s) = 2.97582 3.51369 3.25588
# Velocity P-wave (km/s) = 6.27059 6.64117 6.45854
#
# Compressibility (1/GPa) = 0.01990301
#
# Stress axis : x y z
#
# Youngs Moduli (GPa) = 46.52671 33.70438 59.84279
#
# Poissons Ratio (x) = 0.48424 0.11052
# Poissons Ratio (y) = 0.66847 0.46503
# Poissons Ratio (z) = 0.08593 0.26191
#
# Static dielectric constant tensor:
#      x y z
#    x 3.183210 0.000000 0.000000 
#    y 0.000000 3.382620 0.000000 
#    z 0.000000 0.000000 3.221740 
# 
# 
# High freq. dielectric constant tensor:
#      x y z
#    x 1.680820 0.000000 0.000000 
#    y 0.000000 1.712840 0.000000 
#    z 0.000000 0.000000 1.704310 
# 
# From -- ./inp_files/9817.got.cif
#   From: 2010.03.12/outbox.cif.g09.slc.cpg/sg59_5_cif.got.tgz:9817.got - 2010.04.16 16:29:54.
