data_PCOD8244188
_publ_section_title
;
Structure prediction by ZEFSAII (Michael W. Deem and Ramdas Pophale) SiO2 
 PCOD8244188
Probable space group: P M M N
;
_chemical_formula_sum "Si O2"
_cell_formula_units_Z 64
_cell_length_a 18.564271
_cell_length_b 27.751402
_cell_length_c 6.494335
_cell_angle_alpha 90.000000
_cell_angle_beta 90.000000
_cell_angle_gamma 90.000000
_cell_volume 3345.781037
_symmetry_space_group_name_H-M "P M M N"
_symmetry_group_IT_number 59
_space_group.IT_coordinate_system_code '2'
_symmetry_cell_setting 'orthorhombic'
loop_
_space_group_symop_operation_xyz
x,y,z
1/2-x,1/2-y,z
1/2+x,-y,-z
-x,1/2+y,-z
-x,-y,-z
1/2+x,1/2+y,-z
1/2-x,y,z
x,1/2-y,z
loop_
_atom_site_type_symbol
_atom_site_label
_atom_site_fract_x
_atom_site_fract_y
_atom_site_fract_z
Si Si1 0.166702 0.384654 0.732970
Si Si2 0.575225 0.870430 0.877938
Si Si3 0.035173 0.528644 0.190767
Si Si4 0.058119 0.802530 0.453689
Si Si5 0.079687 0.052574 0.461614
Si Si6 0.571919 0.132029 0.917793
Si Si7 0.332346 0.804015 0.820985
Si Si8 0.892974 0.804075 0.549907
O O1 0.250000 0.383424 0.788164
O O2 0.152802 0.427838 0.568287
O O3 0.142102 0.333458 0.638091
O O4 0.122600 0.394665 0.942327
O O5 0.551811 0.908356 0.702418
O O6 0.623846 0.828377 0.772314
O O7 0.500522 0.850368 0.968063
O O8 0.090118 0.496229 0.328151
O O9 0.077748 0.573966 0.094648
O O10 0.975373 0.547169 0.349975
O O11 0.000000 0.500000 0.000000
O O12 0.066424 0.750000 0.343835
O O13 0.068904 0.847708 0.309687
O O14 0.119309 0.808112 0.621499
O O15 0.978983 0.805510 0.547597
O O16 0.642357 0.154770 0.021532
O O17 0.250000 0.814825 0.761070
O O18 0.339693 0.750000 0.916735
O O19 0.861814 0.750000 0.541345
#
# Coordination Sequence:
#
# PCOD8244188 Si02
#       8
#     8   8   8   8   8   8   8   8
#     4  11  23  40  59  83 121 163 204 258 312 362
#     4  11  20  36  59  91 116 154 209 253 302 361
#     4  11  21  36  63  97 123 150 198 259 311 364
#     4  10  20  35  59  87 117 156 198 245 289 350
#     4  10  21  38  60  88 119 156 200 254 311 370
#     4  12  20  34  63  93 118 150 201 247 295 358
#     4  10  23  40  58  87 126 162 195 241 306 371
#     4  10  21  36  57  87 119 156 205 252 301 361
#
# _framework density 19.128567
#
# number of rings (size 3 to 8) (size 9 to 14) (size 15 to 20)
#    0.000    1.375    5.000    1.125    0.000    3.750 
#    0.000    1.875    0.000    3.750    0.000    0.000 
#    0.000    0.000    0.000    0.000    0.000    0.000 
#
# Total GULP energy -793194.245193 kJ/mol
# GULP energy per Si atom -12393.660081 kJ/mol
# Density = 1.908503 g / cm^3
# Si number density = 19.128567 Si / 1000 Ang^3
#
#
#
# Elastic Constant Matrix: (Units=GPa)
#
#
# Indices 1 2 3 4 5 6 
#
# 1 78.9641 18.3062 30.3574 0.0000 0.0000 0.0000
# 2 18.3062 126.4084 51.4976 0.0000 0.0000 0.0000
# 3 30.3574 51.4976 102.1264 0.0000 0.0000 0.0000
# 4 0.0000 0.0000 0.0000 37.5518 0.0000 0.0000
# 5 0.0000 0.0000 0.0000 0.0000 19.1587 0.0000
# 6 0.0000 0.0000 0.0000 0.0000 0.0000 18.2906
#
#
#
# Elastic Compliance Matrix: (Units=1/GPa)
#
#
# Indices 1 2 3 4 5 6 
#
# 1 0.014316 -0.000427 -0.004040 0.000000 0.000000 0.000000
# 2 -0.000427 0.009969 -0.004900 0.000000 0.000000 0.000000
# 3 -0.004040 -0.004900 0.013463 0.000000 0.000000 0.000000
# 4 0.000000 0.000000 0.000000 0.026630 0.000000 0.000000
# 5 0.000000 0.000000 0.000000 0.000000 0.052196 0.000000
# 6 0.000000 0.000000 0.000000 0.000000 0.000000 0.054673
#
#
# Mechanical properties :
#
#
# Convention : Reuss Voigt Hill
#
# Bulk Modulus (GPa) = 52.59245 56.42457 54.50851
# Shear Modulus (GPa) = 25.46872 28.82276 27.14574
#
# Velocity S-wave (km/s) = 3.65286 3.88595 3.77121
# Velocity P-wave (km/s) = 6.73388 7.04952 6.89350
#
# Compressibility (1/GPa) = 0.01901414
#
# Stress axis : x y z
#
# Youngs Moduli (GPa) = 69.85078 100.31197 74.27515
#
# Poissons Ratio (x) = 0.04287 0.30007
# Poissons Ratio (y) = 0.02985 0.36393
# Poissons Ratio (z) = 0.28220 0.49151
#
# Static dielectric constant tensor:
#      x y z
#    x 3.216090 0.000000 0.000000 
#    y 0.000000 3.926150 0.000000 
#    z 0.000000 0.000000 3.664100 
# 
# 
# High freq. dielectric constant tensor:
#      x y z
#    x 1.707670 0.000000 0.000000 
#    y 0.000000 1.750560 0.000000 
#    z 0.000000 0.000000 1.757530 
# 
# From -- ./inp_files/3043.got.cif
#   From: 2010.03.12/outbox.cif.g09.slc.cpg/sg59_2_cif.got.tgz:3043.got - 2010.04.16 16:29:54.
