data_PCOD8244935
_publ_section_title
;
Structure prediction by ZEFSAII (Michael W. Deem and Ramdas Pophale) SiO2 
 PCOD8244935
Probable space group: P M M N
;
_chemical_formula_sum "Si O2"
_cell_formula_units_Z 64
_cell_length_a 19.804507
_cell_length_b 9.010097
_cell_length_c 20.099068
_cell_angle_alpha 90.000000
_cell_angle_beta 90.000000
_cell_angle_gamma 90.000000
_cell_volume 3586.488328
_symmetry_space_group_name_H-M "P M M N"
_symmetry_group_IT_number 59
_space_group.IT_coordinate_system_code '2'
_symmetry_cell_setting 'orthorhombic'
loop_
_space_group_symop_operation_xyz
x,y,z
1/2-x,1/2-y,z
1/2+x,-y,-z
-x,1/2+y,-z
-x,-y,-z
1/2+x,1/2+y,-z
1/2-x,y,z
x,1/2-y,z
loop_
_atom_site_type_symbol
_atom_site_label
_atom_site_fract_x
_atom_site_fract_y
_atom_site_fract_z
Si Si1 0.172024 0.075597 0.820987
Si Si2 0.930313 0.076309 0.426510
Si Si3 0.431969 0.574863 0.423032
Si Si4 0.175837 0.574262 0.319757
Si Si5 0.171127 0.578818 0.169312
Si Si6 0.672688 0.078342 0.314450
Si Si7 0.576852 0.576902 0.933692
Si Si8 0.578069 0.076385 0.071164
O O1 0.250000 0.033338 0.835175
O O2 0.160370 0.250000 0.823493
O O3 0.149806 0.017562 0.748676
O O4 0.125158 0.000134 0.875107
O O5 0.944825 0.250000 0.422527
O O6 0.911644 0.029323 0.501859
O O7 0.869573 0.027813 0.378643
O O8 0.996836 0.993107 0.401966
O O9 0.437367 0.750000 0.414991
O O10 0.376350 0.507036 0.373020
O O11 0.250000 0.507340 0.334828
O O12 0.179449 0.750000 0.326908
O O13 0.153690 0.533621 0.244973
O O14 0.250000 0.552644 0.154319
O O15 0.151947 0.750000 0.155701
O O16 0.126685 0.471582 0.124415
O O17 0.750000 0.047451 0.333016
O O18 0.660131 0.250000 0.296803
O O19 0.586268 0.750000 0.948764
O O20 0.500028 0.541560 0.912038
O O21 0.597121 0.487124 0.999280
O O22 0.593335 0.250000 0.071176
#
# Coordination Sequence:
#
# PCOD8244935 Si02
#       8
#     8   8   8   8   8   8   8   8
#     4  10  21  36  54  77 103 131 166 208 251 296
#     4   9  18  31  47  70 100 130 162 203 248 295
#     4   9  17  30  49  72  97 128 165 204 248 294
#     4   8  15  29  49  72  96 123 161 206 243 281
#     4   9  18  33  52  74 101 133 167 203 247 298
#     4   9  18  33  51  71  98 132 168 206 249 297
#     4  10  21  36  54  77 103 131 166 207 247 290
#     4  10  21  37  56  77 102 133 167 203 247 297
#
# _framework density 17.844753999999998
#
# number of rings (size 3 to 8) (size 9 to 14) (size 15 to 20)
#    0.000    2.750    0.000    1.875    0.000    5.000 
#    0.000    5.625    0.000    1.125    0.000    3.500 
#    0.000    0.000    0.000    0.000    0.000    0.000 
#
# Total GULP energy -793628.440661 kJ/mol
# GULP energy per Si atom -12400.444385 kJ/mol
# Density = 1.780414 g / cm^3
# Si number density = 17.844754 Si / 1000 Ang^3
#
#
#
# Elastic Constant Matrix: (Units=GPa)
#
#
# Indices 1 2 3 4 5 6 
#
# 1 106.5858 42.6919 90.6303 0.0000 0.0000 0.0000
# 2 42.6919 54.2100 46.9061 0.0000 0.0000 0.0000
# 3 90.6303 46.9061 131.2184 0.0000 0.0000 0.0000
# 4 0.0000 0.0000 0.0000 25.0055 0.0000 0.0000
# 5 0.0000 0.0000 0.0000 0.0000 39.3119 0.0000
# 6 0.0000 0.0000 0.0000 0.0000 0.0000 29.1232
#
#
#
# Elastic Compliance Matrix: (Units=1/GPa)
#
#
# Indices 1 2 3 4 5 6 
#
# 1 0.024296 -0.006680 -0.014393 0.000000 0.000000 0.000000
# 2 -0.006680 0.028544 -0.005590 0.000000 0.000000 0.000000
# 3 -0.014393 -0.005590 0.019560 0.000000 0.000000 0.000000
# 4 0.000000 0.000000 0.000000 0.039991 0.000000 0.000000
# 5 0.000000 0.000000 0.000000 0.000000 0.025438 0.000000
# 6 0.000000 0.000000 0.000000 0.000000 0.000000 0.034337
#
#
# Mechanical properties :
#
#
# Convention : Reuss Voigt Hill
#
# Bulk Modulus (GPa) = 52.42562 72.49675 62.46118
# Shear Modulus (GPa) = 21.56564 26.14051 23.85307
#
# Velocity S-wave (km/s) = 3.48014 3.83153 3.66006
# Velocity P-wave (km/s) = 6.75211 7.76458 7.27598
#
# Compressibility (1/GPa) = 0.01907464
#
# Stress axis : x y z
#
# Youngs Moduli (GPa) = 41.15862 35.03337 51.12459
#
# Poissons Ratio (x) = 0.23403 0.73584
# Poissons Ratio (y) = 0.27495 0.28577
# Poissons Ratio (z) = 0.59240 0.19583
#
# Static dielectric constant tensor:
#      x y z
#    x 3.446940 0.000000 0.000000 
#    y 0.000000 3.183760 0.000000 
#    z 0.000000 0.000000 3.441130 
# 
# 
# High freq. dielectric constant tensor:
#      x y z
#    x 1.691530 0.000000 0.000000 
#    y 0.000000 1.679070 0.000000 
#    z 0.000000 0.000000 1.695880 
# 
# From -- ./inp_files/28276.got.cif
#   From: 2010.03.12/outbox.cif.g09.slc.cpg/sg59_15_cif.got.tgz:28276.got - 2010.04.16 16:29:54.
