data_PCOD8244353
_publ_section_title
;
Structure prediction by ZEFSAII (Michael W. Deem and Ramdas Pophale) SiO2 
 PCOD8244353
Probable space group: P M M N
;
_chemical_formula_sum "Si O2"
_cell_formula_units_Z 64
_cell_length_a 28.870172
_cell_length_b 8.611586
_cell_length_c 12.702363
_cell_angle_alpha 90.000000
_cell_angle_beta 90.000000
_cell_angle_gamma 90.000000
_cell_volume 3158.035691
_symmetry_space_group_name_H-M "P M M N"
_symmetry_group_IT_number 59
_space_group.IT_coordinate_system_code '2'
_symmetry_cell_setting 'orthorhombic'
loop_
_space_group_symop_operation_xyz
x,y,z
1/2-x,1/2-y,z
1/2+x,-y,-z
-x,1/2+y,-z
-x,-y,-z
1/2+x,1/2+y,-z
1/2-x,y,z
x,1/2-y,z
loop_
_atom_site_type_symbol
_atom_site_label
_atom_site_fract_x
_atom_site_fract_y
_atom_site_fract_z
Si Si1 0.046040 0.566648 0.548174
Si Si2 0.606131 0.932408 0.041293
Si Si3 0.556458 0.065631 0.839809
Si Si4 0.301466 0.567614 0.466330
Si Si5 0.195483 0.078150 0.680569
Si Si6 0.542101 0.433580 0.213400
Si Si7 0.197295 0.568286 0.897581
Si Si8 0.891043 0.432264 0.636322
O O1 0.043000 0.750000 0.546982
O O2 0.053379 0.509455 0.667921
O O3 0.086728 0.504536 0.472140
O O4 0.000000 0.500000 0.500000
O O5 0.602286 0.750000 0.057671
O O6 0.585788 0.019823 0.142921
O O7 0.660210 0.981861 0.027493
O O8 0.577215 0.981599 0.940328
O O9 0.561683 0.250000 0.852931
O O10 0.584811 0.996658 0.739581
O O11 0.502883 0.022669 0.829168
O O12 0.250000 0.505306 0.437843
O O13 0.300092 0.750000 0.487166
O O14 0.323030 0.493187 0.571843
O O15 0.336163 0.526624 0.369780
O O16 0.250000 0.088876 0.669410
O O17 0.174294 0.250000 0.699170
O O18 0.182510 0.967654 0.777602
O O19 0.533301 0.250000 0.207110
O O20 0.250000 0.509215 0.920808
O O21 0.194014 0.750000 0.918371
O O22 0.899226 0.250000 0.643055
#
# Coordination Sequence:
#
# PCOD8244353 Si02
#       8
#     8   8   8   8   8   8   8   8
#     4  10  20  36  58  86 119 153 191 238 295 359
#     4  12  26  42  62  89 121 156 201 248 298 358
#     4  11  22  41  64  84 115 158 204 253 304 358
#     4   9  17  31  53  81 113 153 200 243 288 346
#     4   9  17  30  49  77 114 152 188 232 289 344
#     4  11  23  39  62  91 123 157 198 249 301 358
#     4  10  21  39  62  87 116 152 196 244 295 351
#     4   9  19  35  57  84 116 155 195 244 298 352
#
# _framework density 20.265761999999999
#
# number of rings (size 3 to 8) (size 9 to 14) (size 15 to 20)
#    0.000    1.875    1.250    3.000    1.750    2.750 
#    0.000    2.500    0.000    2.250    0.000    0.000 
#    0.000    0.000    0.000    0.000    0.000    0.000 
#
# Total GULP energy -793433.038226 kJ/mol
# GULP energy per Si atom -12397.391222 kJ/mol
# Density = 2.021964 g / cm^3
# Si number density = 20.265762 Si / 1000 Ang^3
#
#
#
# Elastic Constant Matrix: (Units=GPa)
#
#
# Indices 1 2 3 4 5 6 
#
# 1 99.0856 11.0681 42.0085 0.0000 0.0000 0.0000
# 2 11.0681 41.9171 16.3916 0.0000 0.0000 0.0000
# 3 42.0085 16.3916 107.3390 0.0000 0.0000 0.0000
# 4 0.0000 0.0000 0.0000 21.7945 0.0000 0.0000
# 5 0.0000 0.0000 0.0000 0.0000 22.6066 0.0000
# 6 0.0000 0.0000 0.0000 0.0000 0.0000 27.4087
#
#
#
# Elastic Compliance Matrix: (Units=1/GPa)
#
#
# Indices 1 2 3 4 5 6 
#
# 1 0.012181 -0.001438 -0.004548 0.000000 0.000000 0.000000
# 2 -0.001438 0.025541 -0.003338 0.000000 0.000000 0.000000
# 3 -0.004548 -0.003338 0.011606 0.000000 0.000000 0.000000
# 4 0.000000 0.000000 0.000000 0.045883 0.000000 0.000000
# 5 0.000000 0.000000 0.000000 0.000000 0.044235 0.000000
# 6 0.000000 0.000000 0.000000 0.000000 0.000000 0.036485
#
#
# Mechanical properties :
#
#
# Convention : Reuss Voigt Hill
#
# Bulk Modulus (GPa) = 32.59273 43.03091 37.81182
# Shear Modulus (GPa) = 24.41353 26.28686 25.35019
#
# Velocity S-wave (km/s) = 3.47460 3.60544 3.54063
# Velocity P-wave (km/s) = 5.67580 6.21383 5.95090
#
# Compressibility (1/GPa) = 0.03068168
#
# Stress axis : x y z
#
# Youngs Moduli (GPa) = 82.09575 39.15203 86.16460
#
# Poissons Ratio (x) = 0.05630 0.39184
# Poissons Ratio (y) = 0.11806 0.28758
# Poissons Ratio (z) = 0.37333 0.13067
#
# Static dielectric constant tensor:
#      x y z
#    x 3.874310 0.000000 0.000000 
#    y 0.000000 3.596310 0.000000 
#    z 0.000000 0.000000 3.764030 
# 
# 
# High freq. dielectric constant tensor:
#      x y z
#    x 1.800100 0.000000 0.000000 
#    y 0.000000 1.779310 0.000000 
#    z 0.000000 0.000000 1.780260 
# 
# From -- ./inp_files/19333.got.cif
#   From: 2010.03.12/outbox.cif.g09.slc.cpg/sg59_10_cif.got.tgz:19333.got - 2010.04.16 16:29:54.
