data_PCOD8244184
_publ_section_title
;
Structure prediction by ZEFSAII (Michael W. Deem and Ramdas Pophale) SiO2 
 PCOD8244184
Probable space group: P M M N
;
_chemical_formula_sum "Si O2"
_cell_formula_units_Z 64
_cell_length_a 8.875298
_cell_length_b 22.981844
_cell_length_c 15.986209
_cell_angle_alpha 90.000000
_cell_angle_beta 90.000000
_cell_angle_gamma 90.000000
_cell_volume 3260.718465
_symmetry_space_group_name_H-M "P M M N"
_symmetry_group_IT_number 59
_space_group.IT_coordinate_system_code '2'
_symmetry_cell_setting 'orthorhombic'
loop_
_space_group_symop_operation_xyz
x,y,z
1/2-x,1/2-y,z
1/2+x,-y,-z
-x,1/2+y,-z
-x,-y,-z
1/2+x,1/2+y,-z
1/2-x,y,z
x,1/2-y,z
loop_
_atom_site_type_symbol
_atom_site_label
_atom_site_fract_x
_atom_site_fract_y
_atom_site_fract_z
Si Si1 0.927313 0.818124 0.826739
Si Si2 0.423452 0.312629 0.659884
Si Si3 0.424224 0.430793 0.720876
Si Si4 0.582892 0.181823 0.494472
Si Si5 0.928388 0.994112 0.591826
Si Si6 0.579377 0.464745 0.884813
Si Si7 0.921126 0.910327 0.965064
Si Si8 0.429487 0.618239 0.668704
O O1 0.750000 0.823077 0.809951
O O2 0.976098 0.750000 0.835287
O O3 0.970024 0.853557 0.911464
O O4 0.012113 0.849878 0.751446
O O5 0.250000 0.302104 0.644367
O O6 0.498748 0.250000 0.684492
O O7 0.450074 0.360963 0.731087
O O8 0.484764 0.337716 0.572706
O O9 0.250000 0.445593 0.701479
O O10 0.529282 0.448372 0.643049
O O11 0.470720 0.460759 0.806183
O O12 0.750000 0.156623 0.508851
O O13 0.584739 0.250000 0.483439
O O14 0.515231 0.156340 0.409568
O O15 0.750000 0.986264 0.582701
O O16 0.997546 0.944321 0.651867
O O17 0.000000 0.000000 0.500000
O O18 0.750000 0.449314 0.860007
O O19 0.564183 0.531506 0.910748
O O20 0.528844 0.418357 0.955177
O O21 0.750000 0.902816 0.996936
O O22 0.250000 0.612277 0.675662
#
# Coordination Sequence:
#
# PCOD8244184 Si02
#       8
#     8   8   8   8   8   8   8   8
#     4  10  21  37  58  85 118 157 198 241 295 358
#     4   9  19  35  54  76 102 135 176 220 264 313
#     4  11  22  37  58  83 111 144 183 225 274 333
#     4   9  18  32  50  73 102 138 180 225 270 315
#     4  12  25  40  57  81 116 154 194 241 292 345
#     4  10  20  35  59  87 112 142 182 230 283 337
#     4   9  19  37  58  81 110 143 182 229 281 340
#     4  11  22  36  55  80 112 151 194 238 287 343
#
# _framework density 19.627576000000001
#
# number of rings (size 3 to 8) (size 9 to 14) (size 15 to 20)
#    0.000    1.875    0.000    4.125    0.000    6.750 
#    0.000    1.875    0.000    3.750    0.000    0.000 
#    0.000    0.000    0.000    0.000    0.000    0.000 
#
# Total GULP energy -793312.569580 kJ/mol
# GULP energy per Si atom -12395.508900 kJ/mol
# Density = 1.958290 g / cm^3
# Si number density = 19.627576 Si / 1000 Ang^3
#
#
#
# Elastic Constant Matrix: (Units=GPa)
#
#
# Indices 1 2 3 4 5 6 
#
# 1 74.6441 41.9602 30.1046 0.0000 0.0000 0.0000
# 2 41.9602 97.2833 45.6097 0.0000 0.0000 0.0000
# 3 30.1046 45.6097 75.3373 0.0000 0.0000 0.0000
# 4 0.0000 0.0000 0.0000 33.5347 0.0000 0.0000
# 5 0.0000 0.0000 0.0000 0.0000 34.8993 0.0000
# 6 0.0000 0.0000 0.0000 0.0000 0.0000 24.8194
#
#
#
# Elastic Compliance Matrix: (Units=1/GPa)
#
#
# Indices 1 2 3 4 5 6 
#
# 1 0.018339 -0.006248 -0.003546 0.000000 0.000000 0.000000
# 2 -0.006248 0.016482 -0.007482 0.000000 0.000000 0.000000
# 3 -0.003546 -0.007482 0.019220 0.000000 0.000000 0.000000
# 4 0.000000 0.000000 0.000000 0.029820 0.000000 0.000000
# 5 0.000000 0.000000 0.000000 0.000000 0.028654 0.000000
# 6 0.000000 0.000000 0.000000 0.000000 0.000000 0.040291
#
#
# Mechanical properties :
#
#
# Convention : Reuss Voigt Hill
#
# Bulk Modulus (GPa) = 51.30702 53.62375 52.46538
# Shear Modulus (GPa) = 25.79287 27.29003 26.54145
#
# Velocity S-wave (km/s) = 3.62900 3.73284 3.68129
# Velocity P-wave (km/s) = 6.61488 6.77929 6.69759
#
# Compressibility (1/GPa) = 0.01949051
#
# Stress axis : x y z
#
# Youngs Moduli (GPa) = 54.52870 60.67395 52.02926
#
# Poissons Ratio (x) = 0.37906 0.18449
# Poissons Ratio (y) = 0.34067 0.38926
# Poissons Ratio (z) = 0.19335 0.45393
#
# Static dielectric constant tensor:
#      x y z
#    x 3.705960 0.000000 0.000000 
#    y 0.000000 3.914980 0.000000 
#    z 0.000000 0.000000 3.464120 
# 
# 
# High freq. dielectric constant tensor:
#      x y z
#    x 1.764560 0.000000 0.000000 
#    y 0.000000 1.774730 0.000000 
#    z 0.000000 0.000000 1.754660 
# 
# From -- ./inp_files/21558.got.cif
#   From: 2010.03.12/outbox.cif.g09.slc.cpg/sg59_11_cif.got.tgz:21558.got - 2010.04.16 16:29:54.
