data_PCOD8244123
_publ_section_title
;
Structure prediction by ZEFSAII (Michael W. Deem and Ramdas Pophale) SiO2 
 PCOD8244123
Probable space group: P M M N
;
_chemical_formula_sum "Si O2"
_cell_formula_units_Z 64
_cell_length_a 9.162496
_cell_length_b 18.368965
_cell_length_c 20.292574
_cell_angle_alpha 90.000000
_cell_angle_beta 90.000000
_cell_angle_gamma 90.000000
_cell_volume 3415.353200
_symmetry_space_group_name_H-M "P M M N"
_symmetry_group_IT_number 59
_space_group.IT_coordinate_system_code '2'
_symmetry_cell_setting 'orthorhombic'
loop_
_space_group_symop_operation_xyz
x,y,z
1/2-x,1/2-y,z
1/2+x,-y,-z
-x,1/2+y,-z
-x,-y,-z
1/2+x,1/2+y,-z
1/2-x,y,z
x,1/2-y,z
loop_
_atom_site_type_symbol
_atom_site_label
_atom_site_fract_x
_atom_site_fract_y
_atom_site_fract_z
Si Si1 0.579058 0.914792 0.301779
Si Si2 0.079543 0.420861 0.924030
Si Si3 0.079482 0.916048 0.692160
Si Si4 0.582624 0.566484 0.925335
Si Si5 0.921192 0.334549 0.816189
Si Si6 0.919775 0.666215 0.432847
Si Si7 0.419662 0.167772 0.193445
Si Si8 0.078975 0.666302 0.563170
O O1 0.750000 0.900466 0.288852
O O2 0.487628 0.880729 0.243008
O O3 0.526994 0.878797 0.369828
O O4 0.541482 0.999346 0.306670
O O5 0.250000 0.417899 0.906701
O O6 0.019756 0.499981 0.903265
O O7 0.996450 0.358160 0.884322
O O8 0.047548 0.406938 0.000902
O O9 0.250000 0.901041 0.699047
O O10 0.021298 0.881587 0.624057
O O11 0.002650 0.878307 0.752754
O O12 0.750000 0.539980 0.919932
O O13 0.549813 0.634398 0.878381
O O14 0.750000 0.350417 0.820832
O O15 0.954317 0.250000 0.803897
O O16 0.750000 0.654416 0.445886
O O17 0.958855 0.750000 0.419238
O O18 0.002786 0.636919 0.497134
O O19 0.250000 0.165473 0.210961
O O20 0.479254 0.250000 0.192874
O O21 0.250000 0.656848 0.552867
O O22 0.035879 0.750000 0.576980
#
# Coordination Sequence:
#
# PCOD8244123 Si02
#       8
#     8   8   8   8   8   8   8   8
#     4  10  21  37  57  80 106 138 178 222 267 319
#     4  10  20  35  58  84 109 141 179 219 265 319
#     4  10  21  36  54  78 107 139 177 219 263 313
#     4   9  19  36  57  81 111 144 177 217 265 317
#     4  11  24  39  55  78 109 143 180 224 271 320
#     4   9  18  33  53  77 105 136 172 216 262 309
#     4  10  21  36  54  77 105 138 177 219 262 310
#     4   9  18  33  52  74 104 141 176 211 255 310
#
# _framework density 18.738911000000002
#
# number of rings (size 3 to 8) (size 9 to 14) (size 15 to 20)
#    0.000    2.250    0.000    2.250    0.000    7.750 
#    0.000    3.750    0.000    0.000    0.000    0.000 
#    0.000    0.000    0.000    0.000    0.000    0.000 
#
# Total GULP energy -793861.347063 kJ/mol
# GULP energy per Si atom -12404.083548 kJ/mol
# Density = 1.869626 g / cm^3
# Si number density = 18.738911 Si / 1000 Ang^3
#
#
#
# Elastic Constant Matrix: (Units=GPa)
#
#
# Indices 1 2 3 4 5 6 
#
# 1 64.6418 51.8746 54.6697 0.0000 0.0000 0.0000
# 2 51.8746 108.3146 74.2289 0.0000 0.0000 0.0000
# 3 54.6697 74.2289 138.2023 0.0000 0.0000 0.0000
# 4 0.0000 0.0000 0.0000 35.4675 0.0000 0.0000
# 5 0.0000 0.0000 0.0000 0.0000 35.8686 0.0000
# 6 0.0000 0.0000 0.0000 0.0000 0.0000 28.6793
#
#
#
# Elastic Compliance Matrix: (Units=1/GPa)
#
#
# Indices 1 2 3 4 5 6 
#
# 1 0.028080 -0.009235 -0.006148 0.000000 0.000000 0.000000
# 2 -0.009235 0.017648 -0.005825 0.000000 0.000000 0.000000
# 3 -0.006148 -0.005825 0.012796 0.000000 0.000000 0.000000
# 4 0.000000 0.000000 0.000000 0.028195 0.000000 0.000000
# 5 0.000000 0.000000 0.000000 0.000000 0.027880 0.000000
# 6 0.000000 0.000000 0.000000 0.000000 0.000000 0.034868
#
#
# Mechanical properties :
#
#
# Convention : Reuss Voigt Hill
#
# Bulk Modulus (GPa) = 62.08158 74.74502 68.41330
# Shear Modulus (GPa) = 25.34816 28.69543 27.02179
#
# Velocity S-wave (km/s) = 3.68190 3.91746 3.80151
# Velocity P-wave (km/s) = 7.16079 7.77407 7.47372
#
# Compressibility (1/GPa) = 0.01610784
#
# Stress axis : x y z
#
# Youngs Moduli (GPa) = 35.61190 56.66521 78.14716
#
# Poissons Ratio (x) = 0.52333 0.48042
# Poissons Ratio (y) = 0.32889 0.45522
# Poissons Ratio (z) = 0.21893 0.33009
#
# Static dielectric constant tensor:
#      x y z
#    x 3.441070 0.000000 0.000000 
#    y 0.000000 3.485070 0.000000 
#    z 0.000000 0.000000 3.632540 
# 
# 
# High freq. dielectric constant tensor:
#      x y z
#    x 1.723570 0.000000 0.000000 
#    y 0.000000 1.728310 0.000000 
#    z 0.000000 0.000000 1.740930 
# 
# From -- ./inp_files/29551.got.cif
#   From: 2010.03.12/outbox.cif.g09.slc.cpg/sg59_15_cif.got.tgz:29551.got - 2010.04.16 16:29:54.
