data_PCOD8244704
_publ_section_title
;
Structure prediction by ZEFSAII (Michael W. Deem and Ramdas Pophale) SiO2 
 PCOD8244704
Probable space group: P M M N
;
_chemical_formula_sum "Si O2"
_cell_formula_units_Z 64
_cell_length_a 14.593209
_cell_length_b 9.235405
_cell_length_c 24.182220
_cell_angle_alpha 90.000000
_cell_angle_beta 90.000000
_cell_angle_gamma 90.000000
_cell_volume 3259.139243
_symmetry_space_group_name_H-M "P M M N"
_symmetry_group_IT_number 59
_space_group.IT_coordinate_system_code '2'
_symmetry_cell_setting 'orthorhombic'
loop_
_space_group_symop_operation_xyz
x,y,z
1/2-x,1/2-y,z
1/2+x,-y,-z
-x,1/2+y,-z
-x,-y,-z
1/2+x,1/2+y,-z
1/2-x,y,z
x,1/2-y,z
loop_
_atom_site_type_symbol
_atom_site_label
_atom_site_fract_x
_atom_site_fract_y
_atom_site_fract_z
Si Si1 0.354530 0.907832 0.378957
Si Si2 0.645983 0.582217 0.723692
Si Si3 0.859240 0.585462 0.281544
Si Si4 0.357075 0.416921 0.011132
Si Si5 0.501688 0.418475 0.916415
Si Si6 0.593841 0.078924 0.502434
Si Si7 0.853352 0.408241 0.383501
Si Si8 0.517163 0.078822 0.197715
O O1 0.250000 0.890326 0.362811
O O2 0.403028 0.750000 0.377291
O O3 0.359052 0.975245 0.440814
O O4 0.397206 0.008685 0.331437
O O5 0.750000 0.532361 0.738041
O O6 0.643803 0.750000 0.710179
O O7 0.581342 0.542755 0.775101
O O8 0.750000 0.580091 0.276686
O O9 0.894659 0.750000 0.276595
O O10 0.896447 0.522790 0.340548
O O11 0.900509 0.488109 0.233081
O O12 0.250000 0.461392 0.003914
O O13 0.364574 0.250000 0.030420
O O14 0.411451 0.439780 0.953976
O O15 0.405646 0.517521 0.056646
O O16 0.519104 0.250000 0.903695
O O17 0.480144 0.505706 0.861516
O O18 0.583021 0.250000 0.504185
O O19 0.646641 0.032754 0.446597
O O20 0.500000 0.000000 0.500000
O O21 0.750000 0.386750 0.364773
O O22 0.903020 0.250000 0.379359
O O23 0.533097 0.250000 0.192253
#
# Coordination Sequence:
#
# PCOD8244704 Si02
#       8
#     8   8   8   8   8   8   8   8
#     4   9  18  34  54  74  98 131 172 220 275 333
#     4   9  20  38  57  78 106 143 187 232 280 336
#     4  10  22  39  58  81 110 145 188 239 292 342
#     4   9  19  38  63  88 120 162 199 235 284 337
#     4  10  21  37  58  90 125 156 197 243 286 333
#     4  10  21  33  48  74 103 132 168 215 272 338
#     4   9  18  35  56  74  98 135 177 222 276 341
#     4  11  23  38  59  85 117 157 195 235 283 338
#
# _framework density 19.637087000000001
#
# number of rings (size 3 to 8) (size 9 to 14) (size 15 to 20)
#    0.000    2.375    0.000    1.500    1.750    6.000 
#    0.000    2.500    0.000    3.750    0.000    0.000 
#    0.000    0.000    0.000    0.000    0.000    0.000 
#
# Total GULP energy -793175.822703 kJ/mol
# GULP energy per Si atom -12393.372230 kJ/mol
# Density = 1.959239 g / cm^3
# Si number density = 19.637087 Si / 1000 Ang^3
#
#
#
# Elastic Constant Matrix: (Units=GPa)
#
#
# Indices 1 2 3 4 5 6 
#
# 1 64.5168 27.8282 9.7573 0.0000 0.0000 0.0000
# 2 27.8282 83.0760 49.7797 0.0000 0.0000 0.0000
# 3 9.7573 49.7797 101.1721 0.0000 0.0000 0.0000
# 4 0.0000 0.0000 0.0000 33.8120 0.0000 0.0000
# 5 0.0000 0.0000 0.0000 0.0000 28.6508 0.0000
# 6 0.0000 0.0000 0.0000 0.0000 0.0000 28.2906
#
#
#
# Elastic Compliance Matrix: (Units=1/GPa)
#
#
# Indices 1 2 3 4 5 6 
#
# 1 0.018340 -0.007209 0.001778 0.000000 0.000000 0.000000
# 2 -0.007209 0.019904 -0.009098 0.000000 0.000000 0.000000
# 3 0.001778 -0.009098 0.014189 0.000000 0.000000 0.000000
# 4 0.000000 0.000000 0.000000 0.029575 0.000000 0.000000
# 5 0.000000 0.000000 0.000000 0.000000 0.034903 0.000000
# 6 0.000000 0.000000 0.000000 0.000000 0.000000 0.035347
#
#
# Mechanical properties :
#
#
# Convention : Reuss Voigt Hill
#
# Bulk Modulus (GPa) = 42.77954 47.05503 44.91728
# Shear Modulus (GPa) = 26.43994 28.91068 27.67531
#
# Velocity S-wave (km/s) = 3.67335 3.84115 3.75819
# Velocity P-wave (km/s) = 6.31060 6.60961 6.46184
#
# Compressibility (1/GPa) = 0.02337566
#
# Stress axis : x y z
#
# Youngs Moduli (GPa) = 54.52440 50.24238 70.47681
#
# Poissons Ratio (x) = 0.36220 -0.12533
# Poissons Ratio (y) = 0.39307 0.64119
# Poissons Ratio (z) = -0.09696 0.45710
#
# Static dielectric constant tensor:
#      x y z
#    x 3.523070 0.000000 0.000000 
#    y 0.000000 3.741320 0.000000 
#    z 0.000000 0.000000 3.554230 
# 
# 
# High freq. dielectric constant tensor:
#      x y z
#    x 1.758170 0.000000 0.000000 
#    y 0.000000 1.765340 0.000000 
#    z 0.000000 0.000000 1.767090 
# 
# From -- ./inp_files/32227.got.cif
#   From: 2010.03.12/outbox.cif.g09.slc.cpg/sg59_17_cif.got.tgz:32227.got - 2010.04.16 16:29:54.
