data_PCOD8244952
_publ_section_title
;
Structure prediction by ZEFSAII (Michael W. Deem and Ramdas Pophale) SiO2 
 PCOD8244952
Probable space group: P M M N
;
_chemical_formula_sum "Si O2"
_cell_formula_units_Z 32
_cell_length_a 9.072816
_cell_length_b 9.696112
_cell_length_c 20.131819
_cell_angle_alpha 90.000000
_cell_angle_beta 90.000000
_cell_angle_gamma 90.000000
_cell_volume 1771.017056
_symmetry_space_group_name_H-M "P M M N"
_symmetry_group_IT_number 59
_space_group.IT_coordinate_system_code '2'
_symmetry_cell_setting 'orthorhombic'
loop_
_space_group_symop_operation_xyz
x,y,z
1/2-x,1/2-y,z
1/2+x,-y,-z
-x,1/2+y,-z
-x,-y,-z
1/2+x,1/2+y,-z
1/2-x,y,z
x,1/2-y,z
loop_
_atom_site_type_symbol
_atom_site_label
_atom_site_fract_x
_atom_site_fract_y
_atom_site_fract_z
Si Si1 0.578810 0.591294 0.190903
Si Si2 0.577965 0.904247 0.552263
Si Si3 0.577800 0.089921 0.944597
Si Si4 0.580998 0.588482 0.702971
O O1 0.750000 0.565281 0.176340
O O2 0.547397 0.750000 0.209251
O O3 0.488130 0.546703 0.126177
O O4 0.528704 0.498029 0.251854
O O5 0.750000 0.908167 0.538019
O O6 0.516855 0.750000 0.542548
O O7 0.545401 0.953475 0.627226
O O8 0.500000 0.000000 0.500000
O O9 0.750000 0.056383 0.944084
O O10 0.546204 0.250000 0.959673
O O11 0.500000 0.000000 0.000000
O O12 0.750000 0.551930 0.720359
O O13 0.552394 0.750000 0.714267
#
# Coordination Sequence:
#
# PCOD8244952 Si02
#       4
#     8   8   8   8
#     4  10  21  36  54  78 107 137 171 213 259 306
#     4   9  19  35  53  75 104 136 172 214 258 307
#     4  10  21  37  57  80 106 138 175 213 255 305
#     4   9  19  36  55  75 102 137 175 214 257 306
#
# _framework density 18.068712999999999
#
# number of rings (size 3 to 8) (size 9 to 14) (size 15 to 20)
#    0.000    2.500    0.000    3.000    0.000    7.000 
#    0.000    7.500    0.000    0.000    0.000    0.000 
#    0.000    0.000    0.000    0.000    0.000    0.000 
#
# Total GULP energy -396863.390007 kJ/mol
# GULP energy per Si atom -12401.980938 kJ/mol
# Density = 1.802759 g / cm^3
# Si number density = 18.068713 Si / 1000 Ang^3
#
#
#
# Elastic Constant Matrix: (Units=GPa)
#
#
# Indices 1 2 3 4 5 6 
#
# 1 94.5988 50.5427 69.5277 0.0000 0.0000 0.0000
# 2 50.5427 71.7128 70.3913 0.0000 0.0000 0.0000
# 3 69.5277 70.3913 130.7474 0.0000 0.0000 0.0000
# 4 0.0000 0.0000 0.0000 40.5734 0.0000 0.0000
# 5 0.0000 0.0000 0.0000 0.0000 42.0119 0.0000
# 6 0.0000 0.0000 0.0000 0.0000 0.0000 35.4326
#
#
#
# Elastic Compliance Matrix: (Units=1/GPa)
#
#
# Indices 1 2 3 4 5 6 
#
# 1 0.019032 -0.007379 -0.006148 0.000000 0.000000 0.000000
# 2 -0.007379 0.032433 -0.013537 0.000000 0.000000 0.000000
# 3 -0.006148 -0.013537 0.018206 0.000000 0.000000 0.000000
# 4 0.000000 0.000000 0.000000 0.024647 0.000000 0.000000
# 5 0.000000 0.000000 0.000000 0.000000 0.023803 0.000000
# 6 0.000000 0.000000 0.000000 0.000000 0.000000 0.028223
#
#
# Mechanical properties :
#
#
# Convention : Reuss Voigt Hill
#
# Bulk Modulus (GPa) = 64.34016 75.33136 69.83576
# Shear Modulus (GPa) = 24.31294 30.71007 27.51150
#
# Velocity S-wave (km/s) = 3.67220 4.12713 3.90629
# Velocity P-wave (km/s) = 7.32570 8.03075 7.68632
#
# Compressibility (1/GPa) = 0.01554239
#
# Stress axis : x y z
#
# Youngs Moduli (GPa) = 52.54295 30.83299 54.92746
#
# Poissons Ratio (x) = 0.22751 0.33770
# Poissons Ratio (y) = 0.38771 0.74356
# Poissons Ratio (z) = 0.32304 0.41739
#
# Static dielectric constant tensor:
#      x y z
#    x 3.337160 0.000000 0.000000 
#    y 0.000000 3.949760 0.000000 
#    z 0.000000 0.000000 3.243220 
# 
# 
# High freq. dielectric constant tensor:
#      x y z
#    x 1.705220 0.000000 0.000000 
#    y 0.000000 1.697700 0.000000 
#    z 0.000000 0.000000 1.707270 
# 
# From -- ./inp_files/19553.got.cif
#   From: 2010.03.12/outbox.cif.g09.slc.cpg/sg59_10_cif.got.tgz:19553.got - 2010.04.16 16:29:54.
