data_PCOD8244913
_publ_section_title
;
Structure prediction by ZEFSAII (Michael W. Deem and Ramdas Pophale) SiO2 
 PCOD8244913
Probable space group: P M M N
;
_chemical_formula_sum "Si O2"
_cell_formula_units_Z 64
_cell_length_a 9.256022
_cell_length_b 23.725830
_cell_length_c 15.329928
_cell_angle_alpha 90.000000
_cell_angle_beta 90.000000
_cell_angle_gamma 90.000000
_cell_volume 3366.556501
_symmetry_space_group_name_H-M "P M M N"
_symmetry_group_IT_number 59
_space_group.IT_coordinate_system_code '2'
_symmetry_cell_setting 'orthorhombic'
loop_
_space_group_symop_operation_xyz
x,y,z
1/2-x,1/2-y,z
1/2+x,-y,-z
-x,1/2+y,-z
-x,-y,-z
1/2+x,1/2+y,-z
1/2-x,y,z
x,1/2-y,z
loop_
_atom_site_type_symbol
_atom_site_label
_atom_site_fract_x
_atom_site_fract_y
_atom_site_fract_z
Si Si1 0.417304 0.872303 0.255173
Si Si2 0.415845 0.970836 0.574063
Si Si3 0.588172 0.499330 0.731593
Si Si4 0.589106 0.875644 0.784503
Si Si5 0.417535 0.815824 0.930829
Si Si6 0.913228 0.816759 0.100205
Si Si7 0.087844 0.363688 0.413178
Si Si8 0.916466 0.686357 0.404890
O O1 0.250000 0.854083 0.257861
O O2 0.429999 0.937971 0.224107
O O3 0.502169 0.836062 0.185139
O O4 0.485640 0.858210 0.350770
O O5 0.250000 0.978799 0.557508
O O6 0.458399 0.906244 0.571920
O O7 0.500000 0.000000 0.500000
O O8 0.461101 0.001019 0.662281
O O9 0.750000 0.502726 0.690179
O O10 0.566658 0.556077 0.788763
O O11 0.750000 0.861693 0.819406
O O12 0.469298 0.848546 0.845509
O O13 0.571679 0.846248 0.688647
O O14 0.250000 0.828897 0.946727
O O15 0.445867 0.750000 0.915804
O O16 0.505214 0.838879 0.014099
O O17 0.750000 0.840820 0.100830
O O18 0.911584 0.750000 0.100784
O O19 0.250000 0.389826 0.423570
O O20 0.064239 0.317496 0.489161
O O21 0.750000 0.674424 0.380080
O O22 0.960143 0.750000 0.378672
#
# Coordination Sequence:
#
# PCOD8244913 Si02
#       8
#     8   8   8   8   8   8   8   8
#     4  11  22  36  56  81 110 144 181 225 278 328
#     4  11  20  30  48  72  99 133 175 222 267 312
#     4   9  20  37  54  76 107 142 182 225 268 320
#     4   9  18  35  58  82 110 143 181 226 272 321
#     4  10  21  37  58  85 114 141 174 220 271 324
#     4  10  21  38  60  84 109 140 181 226 271 324
#     4   9  19  35  53  74 103 140 180 221 264 311
#     4  10  21  36  53  76 108 146 188 230 272 324
#
# _framework density 19.010522999999999
#
# number of rings (size 3 to 8) (size 9 to 14) (size 15 to 20)
#    0.000    2.125    0.000    4.125    0.000    9.250 
#    0.000    1.875    0.000    0.000    0.000    0.000 
#    0.000    0.000    0.000    0.000    0.000    0.000 
#
# Total GULP energy -792941.565220 kJ/mol
# GULP energy per Si atom -12389.711957 kJ/mol
# Density = 1.896725 g / cm^3
# Si number density = 19.010523 Si / 1000 Ang^3
#
#
#
# Elastic Constant Matrix: (Units=GPa)
#
#
# Indices 1 2 3 4 5 6 
#
# 1 135.2290 31.7874 48.8349 0.0000 0.0000 0.0000
# 2 31.7874 48.0373 28.1100 0.0000 0.0000 0.0000
# 3 48.8349 28.1100 95.7591 0.0000 0.0000 0.0000
# 4 0.0000 0.0000 0.0000 20.1672 0.0000 0.0000
# 5 0.0000 0.0000 0.0000 0.0000 31.6457 0.0000
# 6 0.0000 0.0000 0.0000 0.0000 0.0000 26.5167
#
#
#
# Elastic Compliance Matrix: (Units=1/GPa)
#
#
# Indices 1 2 3 4 5 6 
#
# 1 0.009740 -0.004272 -0.003713 0.000000 0.000000 0.000000
# 2 -0.004272 0.027009 -0.005750 0.000000 0.000000 0.000000
# 3 -0.003713 -0.005750 0.014024 0.000000 0.000000 0.000000
# 4 0.000000 0.000000 0.000000 0.049585 0.000000 0.000000
# 5 0.000000 0.000000 0.000000 0.000000 0.031600 0.000000
# 6 0.000000 0.000000 0.000000 0.000000 0.000000 0.037712
#
#
# Mechanical properties :
#
#
# Convention : Reuss Voigt Hill
#
# Bulk Modulus (GPa) = 42.91294 55.16553 49.03923
# Shear Modulus (GPa) = 24.40118 27.01881 25.70999
#
# Velocity S-wave (km/s) = 3.58657 3.77404 3.68150
# Velocity P-wave (km/s) = 6.30663 6.93344 6.62745
#
# Compressibility (1/GPa) = 0.02330300
#
# Stress axis : x y z
#
# Youngs Moduli (GPa) = 102.66904 37.02494 71.30532
#
# Poissons Ratio (x) = 0.15819 0.26476
# Poissons Ratio (y) = 0.43865 0.40997
# Poissons Ratio (z) = 0.38121 0.21288
#
# Static dielectric constant tensor:
#      x y z
#    x 3.445860 0.000000 0.000000 
#    y 0.000000 3.342700 0.000000 
#    z 0.000000 0.000000 3.301440 
# 
# 
# High freq. dielectric constant tensor:
#      x y z
#    x 1.747870 0.000000 0.000000 
#    y 0.000000 1.726380 0.000000 
#    z 0.000000 0.000000 1.728950 
# 
# From -- ./inp_files/21626.got.cif
#   From: 2010.03.12/outbox.cif.g09.slc.cpg/sg59_11_cif.got.tgz:21626.got - 2010.04.16 16:29:54.
