data_PCOD8244319
_publ_section_title
;
Structure prediction by ZEFSAII (Michael W. Deem and Ramdas Pophale) SiO2 
 PCOD8244319
Probable space group: P M M N
;
_chemical_formula_sum "Si O2"
_cell_formula_units_Z 48
_cell_length_a 8.861540
_cell_length_b 10.152876
_cell_length_c 28.930334
_cell_angle_alpha 90.000000
_cell_angle_beta 90.000000
_cell_angle_gamma 90.000000
_cell_volume 2602.865529
_symmetry_space_group_name_H-M "P M M N"
_symmetry_group_IT_number 59
_space_group.IT_coordinate_system_code '2'
_symmetry_cell_setting 'orthorhombic'
loop_
_space_group_symop_operation_xyz
x,y,z
1/2-x,1/2-y,z
1/2+x,-y,-z
-x,1/2+y,-z
-x,-y,-z
1/2+x,1/2+y,-z
1/2-x,y,z
x,1/2-y,z
loop_
_atom_site_type_symbol
_atom_site_label
_atom_site_fract_x
_atom_site_fract_y
_atom_site_fract_z
Si Si1 0.424542 0.903811 0.805119
Si Si2 0.927086 0.603726 0.466234
Si Si3 0.929475 0.250000 0.049416
Si Si4 0.428703 0.487238 0.104300
Si Si5 0.071772 0.750000 0.054862
Si Si6 0.573797 0.900778 0.709194
Si Si7 0.574528 0.901819 0.360421
O O1 0.250000 0.942620 0.808648
O O2 0.450517 0.750000 0.814752
O O3 0.519097 0.984961 0.842624
O O4 0.483974 0.943426 0.754827
O O5 0.750000 0.598847 0.473262
O O6 0.987291 0.750000 0.478471
O O7 0.968206 0.570212 0.413488
O O8 0.000000 0.500000 0.500000
O O9 0.750000 0.250000 0.051556
O O10 0.989667 0.123036 0.074973
O O11 0.993064 0.250000 0.997148
O O12 0.250000 0.467938 0.101611
O O13 0.485311 0.623555 0.082612
O O14 0.250000 0.750000 0.051917
O O15 0.750000 0.915599 0.719327
O O16 0.533878 0.750000 0.695270
O O17 0.526992 0.998969 0.668702
O O18 0.750000 0.931499 0.351217
O O19 0.537976 0.750000 0.347590
#
# Coordination Sequence:
#
# PCOD8244319 Si02
#       7
#     8   8   4   8   4   8   8
#     4  10  20  36  58  82 109 141 180 224 271 325
#     4   9  19  35  54  78 110 147 187 231 276 325
#     4  11  21  37  59  83 111 145 185 223 266 327
#     4  11  21  37  59  82 110 145 182 225 274 322
#     4   9  22  39  55  81 115 145 179 225 272 321
#     4  10  21  36  56  83 111 140 179 226 274 327
#     4   9  19  37  57  78 109 148 187 227 275 329
#
# _framework density 18.441212
#
# number of rings (size 3 to 8) (size 9 to 14) (size 15 to 20)
#    0.000    2.167    0.833    3.250    0.000    3.667 
#    1.500    9.167    0.000    0.000    0.000    0.000 
#    0.000    0.000    0.000    0.000    0.000    0.000 
#
# Total GULP energy -595287.873006 kJ/mol
# GULP energy per Si atom -12401.830688 kJ/mol
# Density = 1.839924 g / cm^3
# Si number density = 18.441212 Si / 1000 Ang^3
#
#
#
# Elastic Constant Matrix: (Units=GPa)
#
#
# Indices 1 2 3 4 5 6 
#
# 1 70.1120 42.1615 44.0401 0.0000 0.0000 0.0000
# 2 42.1615 123.4317 76.6158 0.0000 0.0000 0.0000
# 3 44.0401 76.6158 125.6642 0.0000 0.0000 0.0000
# 4 0.0000 0.0000 0.0000 17.1291 0.0000 0.0000
# 5 0.0000 0.0000 0.0000 0.0000 36.2222 0.0000
# 6 0.0000 0.0000 0.0000 0.0000 0.0000 47.9155
#
#
#
# Elastic Compliance Matrix: (Units=1/GPa)
#
#
# Indices 1 2 3 4 5 6 
#
# 1 0.019372 -0.003866 -0.004432 0.000000 0.000000 0.000000
# 2 -0.003866 0.013806 -0.007062 0.000000 0.000000 0.000000
# 3 -0.004432 -0.007062 0.013817 0.000000 0.000000 0.000000
# 4 0.000000 0.000000 0.000000 0.058380 0.000000 0.000000
# 5 0.000000 0.000000 0.000000 0.000000 0.027607 0.000000
# 6 0.000000 0.000000 0.000000 0.000000 0.000000 0.020870
#
#
# Mechanical properties :
#
#
# Convention : Reuss Voigt Hill
#
# Bulk Modulus (GPa) = 61.44895 71.64920 66.54908
# Shear Modulus (GPa) = 26.31618 30.67936 28.49777
#
# Velocity S-wave (km/s) = 3.78170 4.08319 3.93533
# Velocity P-wave (km/s) = 7.24308 7.82093 7.53755
#
# Compressibility (1/GPa) = 0.01627367
#
# Stress axis : x y z
#
# Youngs Moduli (GPa) = 51.62216 72.43263 72.37563
#
# Poissons Ratio (x) = 0.28002 0.32076
# Poissons Ratio (y) = 0.19957 0.51115
# Poissons Ratio (z) = 0.22878 0.51155
#
# Static dielectric constant tensor:
#      x y z
#    x 3.330570 0.000000 0.000000 
#    y 0.000000 3.513030 0.000000 
#    z 0.000000 0.000000 3.101930 
# 
# 
# High freq. dielectric constant tensor:
#      x y z
#    x 1.714570 0.000000 0.000000 
#    y 0.000000 1.713210 0.000000 
#    z 0.000000 0.000000 1.724830 
# 
# From -- ./inp_files/33025.got.cif
#   From: 2010.03.12/outbox.cif.g09.slc.cpg/sg59_17_cif.got.tgz:33025.got - 2010.04.16 16:29:54.
