data_PCOD8244545
_publ_section_title
;
Structure prediction by ZEFSAII (Michael W. Deem and Ramdas Pophale) SiO2 
 PCOD8244545
Probable space group: P M M N
;
_chemical_formula_sum "Si O2"
_cell_formula_units_Z 48
_cell_length_a 10.458086
_cell_length_b 13.788608
_cell_length_c 15.875399
_cell_angle_alpha 90.000000
_cell_angle_beta 90.000000
_cell_angle_gamma 90.000000
_cell_volume 2289.271403
_symmetry_space_group_name_H-M "P M M N"
_symmetry_group_IT_number 59
_space_group.IT_coordinate_system_code '2'
_symmetry_cell_setting 'orthorhombic'
loop_
_space_group_symop_operation_xyz
x,y,z
1/2-x,1/2-y,z
1/2+x,-y,-z
-x,1/2+y,-z
-x,-y,-z
1/2+x,1/2+y,-z
1/2-x,y,z
x,1/2-y,z
loop_
_atom_site_type_symbol
_atom_site_label
_atom_site_fract_x
_atom_site_fract_y
_atom_site_fract_z
Si Si1 0.523827 0.862849 0.104840
Si Si2 0.604642 0.462302 0.197445
Si Si3 0.750000 0.364101 0.648015
Si Si4 0.106845 0.545505 0.611746
Si Si5 0.750000 0.364510 0.836579
Si Si6 0.893259 0.635969 0.917492
Si Si7 0.001048 0.637543 0.454986
O O1 0.542842 0.750000 0.126312
O O2 0.375244 0.896376 0.111207
O O3 0.602947 0.923476 0.173883
O O4 0.575145 0.890751 0.013453
O O5 0.750000 0.423271 0.184880
O O6 0.557673 0.448082 0.292775
O O7 0.503947 0.406850 0.139863
O O8 0.750000 0.250000 0.656227
O O9 0.750000 0.410497 0.742057
O O10 0.626560 0.396771 0.595915
O O11 0.250000 0.585349 0.606528
O O12 0.020318 0.615793 0.554143
O O13 0.108149 0.433350 0.580258
O O14 0.750000 0.250000 0.826768
O O15 0.750000 0.596150 0.895338
O O16 0.895770 0.750000 0.904723
O O17 0.964447 0.750000 0.441397
#
# Coordination Sequence:
#
# PCOD8244545 Si02
#       7
#     8   8   4   8   4   8   8
#     4  10  21  37  59  89 124 160 203 256 310 368
#     4  11  24  39  61  91 124 162 205 253 309 364
#     4   9  16  30  54  81 110 148 189 233 288 352
#     4  10  22  39  57  88 123 154 196 248 302 358
#     4   9  18  30  52  89 120 146 193 245 298 356
#     4  10  23  43  64  85 117 165 211 254 308 363
#     4  10  20  37  61  84 115 158 197 239 296 362
#
# _framework density 20.967368
#
# number of rings (size 3 to 8) (size 9 to 14) (size 15 to 20)
#    0.000    2.000    0.833    2.000    2.333    4.333 
#    1.500    3.333    0.000    0.000    0.000    0.000 
#    0.000    0.000    0.000    0.000    0.000    0.000 
#
# Total GULP energy -595092.120106 kJ/mol
# GULP energy per Si atom -12397.752502 kJ/mol
# Density = 2.091965 g / cm^3
# Si number density = 20.967368 Si / 1000 Ang^3
#
#
#
# Elastic Constant Matrix: (Units=GPa)
#
#
# Indices 1 2 3 4 5 6 
#
# 1 101.1855 16.8038 50.5229 0.0000 0.0000 0.0000
# 2 16.8038 41.1654 14.8352 0.0000 0.0000 0.0000
# 3 50.5229 14.8352 115.0610 0.0000 0.0000 0.0000
# 4 0.0000 0.0000 0.0000 19.6785 0.0000 0.0000
# 5 0.0000 0.0000 0.0000 0.0000 28.6057 0.0000
# 6 0.0000 0.0000 0.0000 0.0000 0.0000 26.6465
#
#
#
# Elastic Compliance Matrix: (Units=1/GPa)
#
#
# Indices 1 2 3 4 5 6 
#
# 1 0.013106 -0.003436 -0.005312 0.000000 0.000000 0.000000
# 2 -0.003436 0.026377 -0.001892 0.000000 0.000000 0.000000
# 3 -0.005312 -0.001892 0.011267 0.000000 0.000000 0.000000
# 4 0.000000 0.000000 0.000000 0.050817 0.000000 0.000000
# 5 0.000000 0.000000 0.000000 0.000000 0.034958 0.000000
# 6 0.000000 0.000000 0.000000 0.000000 0.000000 0.037528
#
#
# Mechanical properties :
#
#
# Convention : Reuss Voigt Hill
#
# Bulk Modulus (GPa) = 33.93216 46.85952 40.39584
# Shear Modulus (GPa) = 24.37181 26.66948 25.52065
#
# Velocity S-wave (km/s) = 3.41305 3.57031 3.49257
# Velocity P-wave (km/s) = 5.63474 6.27642 5.96422
#
# Compressibility (1/GPa) = 0.02947057
#
# Stress axis : x y z
#
# Youngs Moduli (GPa) = 76.30369 37.91242 88.75204
#
# Poissons Ratio (x) = 0.13025 0.47142
# Poissons Ratio (y) = 0.26214 0.16794
# Poissons Ratio (z) = 0.40530 0.07174
#
# Static dielectric constant tensor:
#      x y z
#    x 3.934950 0.000000 0.000000 
#    y 0.000000 3.704420 0.000000 
#    z 0.000000 0.000000 3.894270 
# 
# 
# High freq. dielectric constant tensor:
#      x y z
#    x 1.820800 0.000000 0.000000 
#    y 0.000000 1.809820 0.000000 
#    z 0.000000 0.000000 1.826000 
# 
# From -- ./inp_files/22455.got.cif
#   From: 2010.03.12/outbox.cif.g09.slc.cpg/sg59_12_cif.got.tgz:22455.got - 2010.04.16 16:29:54.
