data_PCOD8244619
_publ_section_title
;
Structure prediction by ZEFSAII (Michael W. Deem and Ramdas Pophale) SiO2 
 PCOD8244619
Probable space group: P M M N
;
_chemical_formula_sum "Si O2"
_cell_formula_units_Z 48
_cell_length_a 20.353836
_cell_length_b 22.248991
_cell_length_c 5.126410
_cell_angle_alpha 90.000000
_cell_angle_beta 90.000000
_cell_angle_gamma 90.000000
_cell_volume 2321.506631
_symmetry_space_group_name_H-M "P M M N"
_symmetry_group_IT_number 59
_space_group.IT_coordinate_system_code '2'
_symmetry_cell_setting 'orthorhombic'
loop_
_space_group_symop_operation_xyz
x,y,z
1/2-x,1/2-y,z
1/2+x,-y,-z
-x,1/2+y,-z
-x,-y,-z
1/2+x,1/2+y,-z
1/2-x,y,z
x,1/2-y,z
loop_
_atom_site_type_symbol
_atom_site_label
_atom_site_fract_x
_atom_site_fract_y
_atom_site_fract_z
Si Si1 0.111406 0.876910 0.219898
Si Si2 0.250000 0.008340 0.761946
Si Si3 0.955039 0.998517 0.749483
Si Si4 0.450708 0.680184 0.719231
Si Si5 0.750000 0.076260 0.738419
Si Si6 0.322683 0.374396 0.750617
Si Si7 0.596616 0.868926 0.749192
O O1 0.092805 0.945647 0.260223
O O2 0.076556 0.835230 0.433593
O O3 0.189762 0.876796 0.247157
O O4 0.090397 0.856016 0.933228
O O5 0.250000 0.961109 0.528405
O O6 0.185633 0.052264 0.750937
O O7 0.250000 0.971557 0.028578
O O8 0.910456 0.940172 0.748641
O O9 0.000000 0.000000 0.500000
O O10 0.000000 0.000000 0.000000
O O11 0.441158 0.750000 0.772862
O O12 0.527106 0.664023 0.737042
O O13 0.250000 0.344797 0.762346
O O14 0.359311 0.350275 0.495501
O O15 0.365305 0.350115 0.990725
#
# Coordination Sequence:
#
# PCOD8244619 Si02
#       7
#     8   4   8   8   4   8   8
#     4  12  24  45  65 100 131 172 217 274 331 390
#     4  10  20  38  56 100 136 180 190 250 316 400
#     4  12  21  36  62  97 133 161 197 258 329 393
#     4  12  27  47  68  91 126 173 232 285 322 374
#     4  12  24  40  67  90 138 174 213 258 334 400
#     4  10  22  35  59  92 132 168 204 244 304 399
#     4  12  21  40  62  92 129 171 208 255 330 386
#
# _framework density 20.676228999999999
#
# number of rings (size 3 to 8) (size 9 to 14) (size 15 to 20)
#    0.500    0.000    3.333    7.000    0.000    0.000 
#    0.000    2.500    0.000    3.000    0.000    0.000 
#    0.000    0.000    0.000    0.000    0.000    0.000 
#
# Total GULP energy -595332.262731 kJ/mol
# GULP energy per Si atom -12402.755474 kJ/mol
# Density = 2.062917 g / cm^3
# Si number density = 20.676229 Si / 1000 Ang^3
#
#
#
# Elastic Constant Matrix: (Units=GPa)
#
#
# Indices 1 2 3 4 5 6 
#
# 1 139.3696 -0.8556 37.3046 0.0000 0.0000 0.0000
# 2 -0.8556 36.1285 -12.6384 0.0000 0.0000 0.0000
# 3 37.3046 -12.6384 129.6687 0.0000 0.0000 0.0000
# 4 0.0000 0.0000 0.0000 19.2590 0.0000 0.0000
# 5 0.0000 0.0000 0.0000 0.0000 27.4983 0.0000
# 6 0.0000 0.0000 0.0000 0.0000 0.0000 1.8539
#
#
#
# Elastic Compliance Matrix: (Units=1/GPa)
#
#
# Indices 1 2 3 4 5 6 
#
# 1 0.007787 -0.000620 -0.002301 0.000000 0.000000 0.000000
# 2 -0.000620 0.028705 0.002976 0.000000 0.000000 0.000000
# 3 -0.002301 0.002976 0.008664 0.000000 0.000000 0.000000
# 4 0.000000 0.000000 0.000000 0.051924 0.000000 0.000000
# 5 0.000000 0.000000 0.000000 0.000000 0.036366 0.000000
# 6 0.000000 0.000000 0.000000 0.000000 0.000000 0.539391
#
#
# Mechanical properties :
#
#
# Convention : Reuss Voigt Hill
#
# Bulk Modulus (GPa) = 22.09121 39.19866 30.64494
# Shear Modulus (GPa) = 7.26938 28.47933 17.87436
#
# Velocity S-wave (km/s) = 1.87709 3.71535 2.94341
# Velocity P-wave (km/s) = 3.92498 6.11593 5.13858
#
# Compressibility (1/GPa) = 0.04526687
#
# Stress axis : x y z
#
# Youngs Moduli (GPa) = 128.41582 34.83657 115.42051
#
# Poissons Ratio (x) = 0.02161 0.26556
# Poissons Ratio (y) = 0.07967 -0.34353
# Poissons Ratio (z) = 0.29546 -0.10369
#
# Static dielectric constant tensor:
#      x y z
#    x 4.166800 0.000000 0.000000 
#    y 0.000000 3.592370 0.000000 
#    z 0.000000 0.000000 3.997450 
# 
# 
# High freq. dielectric constant tensor:
#      x y z
#    x 1.821560 0.000000 0.000000 
#    y 0.000000 1.779640 0.000000 
#    z 0.000000 0.000000 1.831370 
# 
# From -- ./inp_files/2883.got.cif
#   From: 2010.03.12/outbox.cif.g09.slc.cpg/sg59_2_cif.got.tgz:2883.got - 2010.04.16 16:29:54.
