data_PCOD8244896
_publ_section_title
;
Structure prediction by ZEFSAII (Michael W. Deem and Ramdas Pophale) SiO2 
 PCOD8244896
Probable space group: P M M N
;
_chemical_formula_sum "Si O2"
_cell_formula_units_Z 40
_cell_length_a 21.505736
_cell_length_b 8.748085
_cell_length_c 11.746735
_cell_angle_alpha 90.000000
_cell_angle_beta 90.000000
_cell_angle_gamma 90.000000
_cell_volume 2209.960319
_symmetry_space_group_name_H-M "P M M N"
_symmetry_group_IT_number 59
_space_group.IT_coordinate_system_code '2'
_symmetry_cell_setting 'orthorhombic'
loop_
_space_group_symop_operation_xyz
x,y,z
1/2-x,1/2-y,z
1/2+x,-y,-z
-x,1/2+y,-z
-x,-y,-z
1/2+x,1/2+y,-z
1/2-x,y,z
x,1/2-y,z
loop_
_atom_site_type_symbol
_atom_site_label
_atom_site_fract_x
_atom_site_fract_y
_atom_site_fract_z
Si Si1 0.179541 0.078932 0.768361
Si Si2 0.942657 0.567902 0.572435
Si Si3 0.821734 0.428431 0.463053
Si Si4 0.080080 0.072910 0.941319
Si Si5 0.533738 0.929318 0.824174
O O1 0.250000 0.066845 0.803561
O O2 0.161821 0.250000 0.725443
O O3 0.146717 0.039966 0.887327
O O4 0.162869 0.960554 0.668967
O O5 0.947345 0.750000 0.564766
O O6 0.873571 0.517706 0.534681
O O7 0.948369 0.502235 0.701333
O O8 0.000000 0.500000 0.500000
O O9 0.750000 0.481988 0.490853
O O10 0.828872 0.250000 0.487212
O O11 0.060288 0.250000 0.937141
O O12 0.079878 0.016701 0.073134
O O13 0.034418 0.980080 0.860067
O O14 0.535406 0.750000 0.809955
#
# Coordination Sequence:
#
# PCOD8244896 Si02
#       5
#     8   8   8   8   8
#     4   9  17  30  50  74  97 123 158 199 243 294
#     4  11  22  35  53  77 105 136 172 213 254 300
#     4  10  21  36  53  74 103 137 171 210 255 301
#     4   9  17  31  50  71  96 125 157 196 244 295
#     4   9  19  33  48  70  98 127 160 199 245 293
#
# _framework density 18.099872000000001
#
# number of rings (size 3 to 8) (size 9 to 14) (size 15 to 20)
#    0.000    2.400    0.000    2.400    0.000    6.800 
#    0.000    1.000    0.000    3.600    0.000    2.800 
#    0.000    0.000    0.000    0.000    0.000    0.000 
#
# Total GULP energy -495647.007105 kJ/mol
# GULP energy per Si atom -12391.175178 kJ/mol
# Density = 1.805868 g / cm^3
# Si number density = 18.099872 Si / 1000 Ang^3
#
#
#
# Elastic Constant Matrix: (Units=GPa)
#
#
# Indices 1 2 3 4 5 6 
#
# 1 101.6731 27.7680 84.9442 0.0000 0.0000 0.0000
# 2 27.7680 34.7563 32.9400 0.0000 0.0000 0.0000
# 3 84.9442 32.9400 158.5703 0.0000 0.0000 0.0000
# 4 0.0000 0.0000 0.0000 22.6751 0.0000 0.0000
# 5 0.0000 0.0000 0.0000 0.0000 32.1572 0.0000
# 6 0.0000 0.0000 0.0000 0.0000 0.0000 28.5149
#
#
#
# Elastic Compliance Matrix: (Units=1/GPa)
#
#
# Indices 1 2 3 4 5 6 
#
# 1 0.019048 -0.006908 -0.008769 0.000000 0.000000 0.000000
# 2 -0.006908 0.038330 -0.004262 0.000000 0.000000 0.000000
# 3 -0.008769 -0.004262 0.011889 0.000000 0.000000 0.000000
# 4 0.000000 0.000000 0.000000 0.044101 0.000000 0.000000
# 5 0.000000 0.000000 0.000000 0.000000 0.031097 0.000000
# 6 0.000000 0.000000 0.000000 0.000000 0.000000 0.035069
#
#
# Mechanical properties :
#
#
# Convention : Reuss Voigt Hill
#
# Bulk Modulus (GPa) = 34.02515 65.14492 49.58504
# Shear Modulus (GPa) = 21.81421 26.62594 24.22008
#
# Velocity S-wave (km/s) = 3.47539 3.83960 3.66202
# Velocity P-wave (km/s) = 5.91133 7.46503 6.73315
#
# Compressibility (1/GPa) = 0.02939002
#
# Stress axis : x y z
#
# Youngs Moduli (GPa) = 52.49869 26.08942 84.11055
#
# Poissons Ratio (x) = 0.18021 0.73756
# Poissons Ratio (y) = 0.36264 0.35848
# Poissons Ratio (z) = 0.46036 0.11119
#
# Static dielectric constant tensor:
#      x y z
#    x 3.462200 0.000000 0.000000 
#    y 0.000000 3.353230 0.000000 
#    z 0.000000 0.000000 3.644850 
# 
# 
# High freq. dielectric constant tensor:
#      x y z
#    x 1.696900 0.000000 0.000000 
#    y 0.000000 1.697090 0.000000 
#    z 0.000000 0.000000 1.703320 
# 
# From -- ./inp_files/14052.got.cif
#   From: 2010.03.12/outbox.cif.g09.slc.cpg/sg59_8_cif.got.tgz:14052.got - 2010.04.16 16:29:54.
