data_PCOD8244283
_publ_section_title
;
Structure prediction by ZEFSAII (Michael W. Deem and Ramdas Pophale) SiO2 
 PCOD8244283
Probable space group: P M M N
;
_chemical_formula_sum "Si O2"
_cell_formula_units_Z 56
_cell_length_a 15.388948
_cell_length_b 8.674767
_cell_length_c 21.483760
_cell_angle_alpha 90.000000
_cell_angle_beta 90.000000
_cell_angle_gamma 90.000000
_cell_volume 2867.986105
_symmetry_space_group_name_H-M "P M M N"
_symmetry_group_IT_number 59
_space_group.IT_coordinate_system_code '2'
_symmetry_cell_setting 'orthorhombic'
loop_
_space_group_symop_operation_xyz
x,y,z
1/2-x,1/2-y,z
1/2+x,-y,-z
-x,1/2+y,-z
-x,-y,-z
1/2+x,1/2+y,-z
1/2-x,y,z
x,1/2-y,z
loop_
_atom_site_type_symbol
_atom_site_label
_atom_site_fract_x
_atom_site_fract_y
_atom_site_fract_z
Si Si1 0.344926 0.933209 0.134253
Si Si2 0.004589 0.433363 0.786862
Si Si3 0.346947 0.426819 0.877168
Si Si4 0.849821 0.429888 0.433893
Si Si5 0.000501 0.932060 0.353853
Si Si6 0.094669 0.931565 0.001388
Si Si7 0.150872 0.429288 0.433643
O O1 0.250000 0.989923 0.156911
O O2 0.350278 0.750000 0.134912
O O3 0.417501 0.000440 0.180906
O O4 0.359325 0.992971 0.063990
O O5 0.004705 0.250000 0.786992
O O6 0.087130 0.495869 0.825916
O O7 0.010059 0.493552 0.716482
O O8 0.250000 0.442813 0.849707
O O9 0.371288 0.250000 0.891307
O O10 0.350879 0.517833 0.941653
O O11 0.750000 0.470694 0.417198
O O12 0.869104 0.250000 0.425455
O O13 0.912282 0.526005 0.389322
O O14 0.870516 0.474942 0.504581
O O15 0.015589 0.750000 0.357082
O O16 0.085377 0.015532 0.380669
O O17 0.087947 0.750000 0.002357
O O18 0.000000 0.000000 0.000000
O O19 0.250000 0.460179 0.411604
O O20 0.135826 0.250000 0.448202
#
# Coordination Sequence:
#
# PCOD8244283 Si02
#       7
#     8   8   8   8   8   8   8
#     4   9  17  31  53  78 104 135 176 226 274 322
#     4   9  19  35  52  77 109 145 187 225 269 325
#     4  10  20  36  57  80 109 144 183 229 279 329
#     4  10  21  38  60  85 114 147 185 231 280 330
#     4  11  22  35  57  85 114 149 190 233 277 330
#     4  11  20  33  56  82 110 141 179 228 283 334
#     4  10  21  38  60  85 115 149 185 228 278 332
#
# _framework density 19.525897000000001
#
# number of rings (size 3 to 8) (size 9 to 14) (size 15 to 20)
#    0.000    2.000    1.429    2.571    0.000    3.714 
#    0.000    4.286    0.000    0.000    0.000    0.000 
#    0.000    0.000    0.000    0.000    0.000    0.000 
#
# Total GULP energy -694440.985037 kJ/mol
# GULP energy per Si atom -12400.731876 kJ/mol
# Density = 1.948146 g / cm^3
# Si number density = 19.525897 Si / 1000 Ang^3
#
#
#
# Elastic Constant Matrix: (Units=GPa)
#
#
# Indices 1 2 3 4 5 6 
#
# 1 144.0396 18.0467 67.0585 0.0000 0.0000 0.0000
# 2 18.0467 37.2335 11.4980 0.0000 0.0000 0.0000
# 3 67.0585 11.4980 127.9838 0.0000 0.0000 0.0000
# 4 0.0000 0.0000 0.0000 25.4045 0.0000 0.0000
# 5 0.0000 0.0000 0.0000 0.0000 18.0469 0.0000
# 6 0.0000 0.0000 0.0000 0.0000 0.0000 23.7226
#
#
#
# Elastic Compliance Matrix: (Units=1/GPa)
#
#
# Indices 1 2 3 4 5 6 
#
# 1 0.009532 -0.003166 -0.004710 0.000000 0.000000 0.000000
# 2 -0.003166 0.028675 -0.000918 0.000000 0.000000 0.000000
# 3 -0.004710 -0.000918 0.010364 0.000000 0.000000 0.000000
# 4 0.000000 0.000000 0.000000 0.039363 0.000000 0.000000
# 5 0.000000 0.000000 0.000000 0.000000 0.055411 0.000000
# 6 0.000000 0.000000 0.000000 0.000000 0.000000 0.042154
#
#
# Mechanical properties :
#
#
# Convention : Reuss Voigt Hill
#
# Bulk Modulus (GPa) = 32.27392 55.82925 44.05159
# Shear Modulus (GPa) = 23.42871 27.61171 25.52021
#
# Velocity S-wave (km/s) = 3.46768 3.76454 3.61916
# Velocity P-wave (km/s) = 5.70945 6.89566 6.33040
#
# Compressibility (1/GPa) = 0.03098477
#
# Stress axis : x y z
#
# Youngs Moduli (GPa) = 104.91105 34.87334 96.49024
#
# Poissons Ratio (x) = 0.11039 0.45446
# Poissons Ratio (y) = 0.33210 0.08853
# Poissons Ratio (z) = 0.49412 0.03200
#
# Static dielectric constant tensor:
#      x y z
#    x 3.795170 0.000000 0.000000 
#    y 0.000000 3.365680 0.000000 
#    z 0.000000 0.000000 3.691940 
# 
# 
# High freq. dielectric constant tensor:
#      x y z
#    x 1.778760 0.000000 0.000000 
#    y 0.000000 1.736000 0.000000 
#    z 0.000000 0.000000 1.756030 
# 
# From -- ./inp_files/28972.got.cif
#   From: 2010.03.12/outbox.cif.g09.slc.cpg/sg59_15_cif.got.tgz:28972.got - 2010.04.16 16:29:54.
