data_PCOD8244154
_publ_section_title
;
Structure prediction by ZEFSAII (Michael W. Deem and Ramdas Pophale) SiO2 
 PCOD8244154
Probable space group: P M M N
;
_chemical_formula_sum "Si O2"
_cell_formula_units_Z 64
_cell_length_a 8.834792
_cell_length_b 13.970622
_cell_length_c 26.756404
_cell_angle_alpha 90.000000
_cell_angle_beta 90.000000
_cell_angle_gamma 90.000000
_cell_volume 3302.477111
_symmetry_space_group_name_H-M "P M M N"
_symmetry_group_IT_number 59
_space_group.IT_coordinate_system_code '2'
_symmetry_cell_setting 'orthorhombic'
loop_
_space_group_symop_operation_xyz
x,y,z
1/2-x,1/2-y,z
1/2+x,-y,-z
-x,1/2+y,-z
-x,-y,-z
1/2+x,1/2+y,-z
1/2-x,y,z
x,1/2-y,z
loop_
_atom_site_type_symbol
_atom_site_label
_atom_site_fract_x
_atom_site_fract_y
_atom_site_fract_z
Si Si1 0.426559 0.513237 0.053519
Si Si2 0.075720 0.144989 0.218061
Si Si3 0.575641 0.359878 0.673561
Si Si4 0.571692 0.858697 0.134708
Si Si5 0.419975 0.856704 0.886649
Si Si6 0.572502 0.540821 0.237665
Si Si7 0.071802 0.356664 0.480464
Si Si8 0.928252 0.454779 0.572552
O O1 0.250000 0.530789 0.046874
O O2 0.494850 0.601868 0.084452
O O3 0.458219 0.415728 0.082694
O O4 0.500000 0.500000 0.000000
O O5 0.250000 0.127586 0.203085
O O6 0.059306 0.250000 0.244418
O O7 0.967984 0.143506 0.170448
O O8 0.015884 0.057677 0.252057
O O9 0.750000 0.381571 0.686630
O O10 0.552979 0.250000 0.657861
O O11 0.474181 0.380364 0.721914
O O12 0.518269 0.426667 0.628071
O O13 0.750000 0.862578 0.127062
O O14 0.516758 0.750000 0.143342
O O15 0.523228 0.922011 0.182669
O O16 0.250000 0.901159 0.890448
O O17 0.419944 0.750000 0.908721
O O18 0.750000 0.522890 0.240415
O O19 0.250000 0.360000 0.487500
O O20 0.019154 0.250000 0.463606
O O21 0.021033 0.435547 0.439179
O O22 0.000834 0.381312 0.533735
O O23 0.750000 0.442019 0.567727
#
# Coordination Sequence:
#
# PCOD8244154 Si02
#       8
#     8   8   8   8   8   8   8   8
#     4  12  25  40  60  84 114 149 185 228 279 334
#     4  10  20  35  58  87 114 142 179 221 268 323
#     4  10  21  36  54  78 111 150 192 238 286 338
#     4  10  22  41  62  84 113 148 186 229 279 336
#     4  10  20  36  59  85 112 142 178 220 267 321
#     4  11  22  37  60  86 115 150 189 232 281 334
#     4   9  17  30  51  79 109 143 186 237 291 346
#     4   9  18  33  52  76 109 149 191 236 286 339
#
# _framework density 19.379391999999999
#
# number of rings (size 3 to 8) (size 9 to 14) (size 15 to 20)
#    0.000    1.875    1.250    3.000    0.000    4.750 
#    0.000    0.625    0.000    2.250    0.000    0.000 
#    0.000    0.000    0.000    0.000    0.000    0.000 
#
# Total GULP energy -793524.409390 kJ/mol
# GULP energy per Si atom -12398.818897 kJ/mol
# Density = 1.933528 g / cm^3
# Si number density = 19.379392 Si / 1000 Ang^3
#
#
#
# Elastic Constant Matrix: (Units=GPa)
#
#
# Indices 1 2 3 4 5 6 
#
# 1 64.0495 41.7066 33.2780 0.0000 0.0000 0.0000
# 2 41.7066 134.1145 41.9646 0.0000 0.0000 0.0000
# 3 33.2780 41.9646 91.4918 0.0000 0.0000 0.0000
# 4 0.0000 0.0000 0.0000 25.4274 0.0000 0.0000
# 5 0.0000 0.0000 0.0000 0.0000 30.0843 0.0000
# 6 0.0000 0.0000 0.0000 0.0000 0.0000 29.7729
#
#
#
# Elastic Compliance Matrix: (Units=1/GPa)
#
#
# Indices 1 2 3 4 5 6 
#
# 1 0.021806 -0.005020 -0.005629 0.000000 0.000000 0.000000
# 2 -0.005020 0.009861 -0.002697 0.000000 0.000000 0.000000
# 3 -0.005629 -0.002697 0.014215 0.000000 0.000000 0.000000
# 4 0.000000 0.000000 0.000000 0.039328 0.000000 0.000000
# 5 0.000000 0.000000 0.000000 0.000000 0.033240 0.000000
# 6 0.000000 0.000000 0.000000 0.000000 0.000000 0.033588
#
#
# Mechanical properties :
#
#
# Convention : Reuss Voigt Hill
#
# Bulk Modulus (GPa) = 52.11101 58.17268 55.14184
# Shear Modulus (GPa) = 27.00854 28.57069 27.78961
#
# Velocity S-wave (km/s) = 3.73724 3.84380 3.79090
# Velocity P-wave (km/s) = 6.75062 7.05569 6.90484
#
# Compressibility (1/GPa) = 0.01918980
#
# Stress axis : x y z
#
# Youngs Moduli (GPa) = 45.85803 101.40567 70.35057
#
# Poissons Ratio (x) = 0.50905 0.39601
# Poissons Ratio (y) = 0.23021 0.18975
# Poissons Ratio (z) = 0.25814 0.27351
#
# Static dielectric constant tensor:
#      x y z
#    x 3.463980 0.000000 0.000000 
#    y 0.000000 4.119270 0.000000 
#    z 0.000000 0.000000 3.460410 
# 
# 
# High freq. dielectric constant tensor:
#      x y z
#    x 1.753940 0.000000 0.000000 
#    y 0.000000 1.771500 0.000000 
#    z 0.000000 0.000000 1.730030 
# 
# From -- ./inp_files/31478.got.cif
#   From: 2010.03.12/outbox.cif.g09.slc.cpg/sg59_16_cif.got.tgz:31478.got - 2010.04.16 16:29:54.
