data_PCOD8244947
_publ_section_title
;
Structure prediction by ZEFSAII (Michael W. Deem and Ramdas Pophale) SiO2 
 PCOD8244947
Probable space group: P M M N
;
_chemical_formula_sum "Si O2"
_cell_formula_units_Z 56
_cell_length_a 22.587515
_cell_length_b 9.039425
_cell_length_c 14.733357
_cell_angle_alpha 90.000000
_cell_angle_beta 90.000000
_cell_angle_gamma 90.000000
_cell_volume 3008.229543
_symmetry_space_group_name_H-M "P M M N"
_symmetry_group_IT_number 59
_space_group.IT_coordinate_system_code '2'
_symmetry_cell_setting 'orthorhombic'
loop_
_space_group_symop_operation_xyz
x,y,z
1/2-x,1/2-y,z
1/2+x,-y,-z
-x,1/2+y,-z
-x,-y,-z
1/2+x,1/2+y,-z
1/2-x,y,z
x,1/2-y,z
loop_
_atom_site_type_symbol
_atom_site_label
_atom_site_fract_x
_atom_site_fract_y
_atom_site_fract_z
Si Si1 0.046278 0.422450 0.615117
Si Si2 0.516158 0.081065 0.908313
Si Si3 0.633555 0.576696 0.886498
Si Si4 0.897813 0.582570 0.202387
Si Si5 0.926704 0.924441 0.587057
Si Si6 0.318681 0.579525 0.935724
Si Si7 0.685257 0.923832 0.695819
O O1 0.030485 0.250000 0.618625
O O2 0.094617 0.462794 0.692080
O O3 0.075304 0.467353 0.519135
O O4 0.985002 0.507569 0.632948
O O5 0.532566 0.250000 0.930470
O O6 0.462547 0.069124 0.839592
O O7 0.571746 0.000600 0.862948
O O8 0.500000 0.000000 0.000000
O O9 0.622538 0.750000 0.900444
O O10 0.676253 0.542268 0.802283
O O11 0.661578 0.515088 0.978285
O O12 0.873678 0.750000 0.192573
O O13 0.852401 0.472330 0.154613
O O14 0.930002 0.750000 0.602626
O O15 0.867551 0.991810 0.634356
O O16 0.250000 0.554126 0.917320
O O17 0.333824 0.750000 0.954610
O O18 0.750000 0.989699 0.668546
O O19 0.685730 0.750000 0.679099
#
# Coordination Sequence:
#
# PCOD8244947 Si02
#       7
#     8   8   8   8   8   8   8
#     4   9  18  33  54  81 109 135 170 215 265 316
#     4  11  21  33  51  77 107 139 175 218 265 311
#     4  11  21  34  54  78 105 140 177 215 264 318
#     4  10  21  36  54  77 106 140 175 215 263 313
#     4   9  17  32  55  81 107 137 172 212 261 315
#     4  11  24  39  54  73 100 137 180 223 263 310
#     4   9  18  32  51  77 107 139 177 218 259 310
#
# _framework density 18.615600000000001
#
# number of rings (size 3 to 8) (size 9 to 14) (size 15 to 20)
#    0.000    2.000    1.429    2.571    0.000    2.857 
#    0.000    1.429    0.000    4.714    0.000    0.000 
#    0.000    0.000    0.000    0.000    0.000    0.000 
#
# Total GULP energy -694411.105754 kJ/mol
# GULP energy per Si atom -12400.198317 kJ/mol
# Density = 1.857323 g / cm^3
# Si number density = 18.615600 Si / 1000 Ang^3
#
#
#
# Elastic Constant Matrix: (Units=GPa)
#
#
# Indices 1 2 3 4 5 6 
#
# 1 119.6549 45.1469 46.8566 0.0000 0.0000 0.0000
# 2 45.1469 76.5344 33.9818 0.0000 0.0000 0.0000
# 3 46.8566 33.9818 97.4965 0.0000 0.0000 0.0000
# 4 0.0000 0.0000 0.0000 18.1143 0.0000 0.0000
# 5 0.0000 0.0000 0.0000 0.0000 23.0105 0.0000
# 6 0.0000 0.0000 0.0000 0.0000 0.0000 27.0865
#
#
#
# Elastic Compliance Matrix: (Units=1/GPa)
#
#
# Indices 1 2 3 4 5 6 
#
# 1 0.011862 -0.005284 -0.003859 0.000000 0.000000 0.000000
# 2 -0.005284 0.017812 -0.003669 0.000000 0.000000 0.000000
# 3 -0.003859 -0.003669 0.013390 0.000000 0.000000 0.000000
# 4 0.000000 0.000000 0.000000 0.055205 0.000000 0.000000
# 5 0.000000 0.000000 0.000000 0.000000 0.043458 0.000000
# 6 0.000000 0.000000 0.000000 0.000000 0.000000 0.036919
#
#
# Mechanical properties :
#
#
# Convention : Reuss Voigt Hill
#
# Bulk Modulus (GPa) = 57.33790 60.62848 58.98319
# Shear Modulus (GPa) = 23.80000 24.82232 24.31116
#
# Velocity S-wave (km/s) = 3.57949 3.65556 3.61772
# Velocity P-wave (km/s) = 6.92470 7.10330 7.01457
#
# Compressibility (1/GPa) = 0.01744047
#
# Stress axis : x y z
#
# Youngs Moduli (GPa) = 84.30039 56.14218 74.68088
#
# Poissons Ratio (x) = 0.29665 0.28822
# Poissons Ratio (y) = 0.44544 0.27399
# Poissons Ratio (z) = 0.32534 0.20597
#
# Static dielectric constant tensor:
#      x y z
#    x 3.744370 0.000000 0.000000 
#    y 0.000000 3.270400 0.000000 
#    z 0.000000 0.000000 3.188810 
# 
# 
# High freq. dielectric constant tensor:
#      x y z
#    x 1.720760 0.000000 0.000000 
#    y 0.000000 1.711050 0.000000 
#    z 0.000000 0.000000 1.725870 
# 
# From -- ./inp_files/24260.got.cif
#   From: 2010.03.12/outbox.cif.g09.slc.cpg/sg59_13_cif.got.tgz:24260.got - 2010.04.16 16:29:54.
