data_PCOD8244167
_publ_section_title
;
Structure prediction by ZEFSAII (Michael W. Deem and Ramdas Pophale) SiO2 
 PCOD8244167
Probable space group: P M M N
;
_chemical_formula_sum "Si O2"
_cell_formula_units_Z 64
_cell_length_a 8.550270
_cell_length_b 14.441089
_cell_length_c 24.423073
_cell_angle_alpha 90.000000
_cell_angle_beta 90.000000
_cell_angle_gamma 90.000000
_cell_volume 3015.644069
_symmetry_space_group_name_H-M "P M M N"
_symmetry_group_IT_number 59
_space_group.IT_coordinate_system_code '2'
_symmetry_cell_setting 'orthorhombic'
loop_
_space_group_symop_operation_xyz
x,y,z
1/2-x,1/2-y,z
1/2+x,-y,-z
-x,1/2+y,-z
-x,-y,-z
1/2+x,1/2+y,-z
1/2-x,y,z
x,1/2-y,z
loop_
_atom_site_type_symbol
_atom_site_label
_atom_site_fract_x
_atom_site_fract_y
_atom_site_fract_z
Si Si1 0.925991 0.852357 0.386183
Si Si2 0.932734 0.644427 0.087381
Si Si3 0.064808 0.855265 0.651216
Si Si4 0.435170 0.535918 0.759383
Si Si5 0.070031 0.856014 0.971303
Si Si6 0.433304 0.034524 0.129457
Si Si7 0.070793 0.850538 0.271012
Si Si8 0.928649 0.983391 0.559066
O O1 0.750000 0.890808 0.396392
O O2 0.943446 0.750000 0.412007
O O3 0.954811 0.849542 0.322133
O O4 0.055508 0.918029 0.411909
O O5 0.750000 0.630823 0.098705
O O6 0.985851 0.750000 0.099977
O O7 0.028720 0.575386 0.126727
O O8 0.967697 0.619800 0.024305
O O9 0.250000 0.854593 0.652104
O O10 0.999969 0.750000 0.652570
O O11 0.002704 0.909706 0.705326
O O12 0.011216 0.904047 0.595115
O O13 0.250000 0.529069 0.757736
O O14 0.493574 0.582658 0.815779
O O15 0.513434 0.434746 0.765814
O O16 0.250000 0.877843 0.985129
O O17 0.046291 0.750000 0.953690
O O18 0.014018 0.918820 0.922004
O O19 0.250000 0.052536 0.129135
O O20 0.250000 0.866055 0.289518
O O21 0.054272 0.750000 0.241058
O O22 0.750000 0.954209 0.552978
O O23 0.000000 0.000000 0.500000
#
# Coordination Sequence:
#
# PCOD8244167 Si02
#       8
#     8   8   8   8   8   8   8   8
#     4  10  20  36  60  89 121 156 195 241 295 355
#     4  10  21  39  63  90 122 161 206 256 313 377
#     4  10  23  45  70  94 124 164 209 257 311 369
#     4  11  23  40  63  89 122 164 209 257 310 367
#     4  10  21  39  63  89 120 159 205 257 314 375
#     4  12  25  39  59  88 125 164 207 260 313 367
#     4  10  20  35  58  88 120 155 194 239 297 361
#     4  12  25  41  65  94 128 164 204 254 307 364
#
# _framework density 21.222663000000001
#
# number of rings (size 3 to 8) (size 9 to 14) (size 15 to 20)
#    0.000    1.375    1.250    4.500    0.000    5.250 
#    0.000    1.250    0.000    0.000    0.000    0.000 
#    0.000    0.000    0.000    0.000    0.000    0.000 
#
# Total GULP energy -793512.166167 kJ/mol
# GULP energy per Si atom -12398.627596 kJ/mol
# Density = 2.117436 g / cm^3
# Si number density = 21.222663 Si / 1000 Ang^3
#
#
#
# Elastic Constant Matrix: (Units=GPa)
#
#
# Indices 1 2 3 4 5 6 
#
# 1 58.1800 19.2635 5.7488 0.0000 0.0000 0.0000
# 2 19.2635 94.8893 32.6498 0.0000 0.0000 0.0000
# 3 5.7488 32.6498 94.5422 0.0000 0.0000 0.0000
# 4 0.0000 0.0000 0.0000 11.2893 0.0000 0.0000
# 5 0.0000 0.0000 0.0000 0.0000 35.8524 0.0000
# 6 0.0000 0.0000 0.0000 0.0000 0.0000 28.6105
#
#
#
# Elastic Compliance Matrix: (Units=1/GPa)
#
#
# Indices 1 2 3 4 5 6 
#
# 1 0.018430 -0.003808 0.000195 0.000000 0.000000 0.000000
# 2 -0.003808 0.012747 -0.004170 0.000000 0.000000 0.000000
# 3 0.000195 -0.004170 0.012006 0.000000 0.000000 0.000000
# 4 0.000000 0.000000 0.000000 0.088580 0.000000 0.000000
# 5 0.000000 0.000000 0.000000 0.000000 0.027892 0.000000
# 6 0.000000 0.000000 0.000000 0.000000 0.000000 0.034952
#
#
# Mechanical properties :
#
#
# Convention : Reuss Voigt Hill
#
# Bulk Modulus (GPa) = 36.21399 40.32620 38.27010
# Shear Modulus (GPa) = 22.79158 27.81373 25.30266
#
# Velocity S-wave (km/s) = 3.28064 3.62410 3.45664
# Velocity P-wave (km/s) = 5.60812 6.04606 5.83120
#
# Compressibility (1/GPa) = 0.02761364
#
# Stress axis : x y z
#
# Youngs Moduli (GPa) = 54.26002 78.45157 83.29375
#
# Poissons Ratio (x) = 0.29877 -0.01620
# Poissons Ratio (y) = 0.20664 0.34737
# Poissons Ratio (z) = -0.01056 0.32718
#
# Static dielectric constant tensor:
#      x y z
#    x 3.754680 0.000000 0.000000 
#    y 0.000000 3.935400 0.000000 
#    z 0.000000 0.000000 3.653320 
# 
# 
# High freq. dielectric constant tensor:
#      x y z
#    x 1.834560 0.000000 0.000000 
#    y 0.000000 1.835570 0.000000 
#    z 0.000000 0.000000 1.829470 
# 
# From -- ./inp_files/31606.got.cif
#   From: 2010.03.12/outbox.cif.g09.slc.cpg/sg59_16_cif.got.tgz:31606.got - 2010.04.16 16:29:54.
