data_PCOD8244063
_publ_section_title
;
Structure prediction by ZEFSAII (Michael W. Deem and Ramdas Pophale) SiO2 
 PCOD8244063
Probable space group: P M M N
;
_chemical_formula_sum "Si O2"
_cell_formula_units_Z 48
_cell_length_a 8.731841
_cell_length_b 25.287639
_cell_length_c 11.688708
_cell_angle_alpha 90.000000
_cell_angle_beta 90.000000
_cell_angle_gamma 90.000000
_cell_volume 2580.956063
_symmetry_space_group_name_H-M "P M M N"
_symmetry_group_IT_number 59
_space_group.IT_coordinate_system_code '2'
_symmetry_cell_setting 'orthorhombic'
loop_
_space_group_symop_operation_xyz
x,y,z
1/2-x,1/2-y,z
1/2+x,-y,-z
-x,1/2+y,-z
-x,-y,-z
1/2+x,1/2+y,-z
1/2-x,y,z
x,1/2-y,z
loop_
_atom_site_type_symbol
_atom_site_label
_atom_site_fract_x
_atom_site_fract_y
_atom_site_fract_z
Si Si1 0.427254 0.442500 0.509277
Si Si2 0.926043 0.811323 0.135968
Si Si3 0.570663 0.097982 0.733753
Si Si4 0.927186 0.909060 0.743559
Si Si5 0.068438 0.308007 0.121903
Si Si6 0.070123 0.004527 0.875849
O O1 0.500000 0.500000 0.500000
O O2 0.250000 0.449475 0.541455
O O3 0.510982 0.408356 0.605192
O O4 0.448516 0.410095 0.392328
O O5 0.750000 0.829198 0.150422
O O6 0.944868 0.750000 0.166185
O O7 0.032115 0.843238 0.223688
O O8 0.983875 0.822692 0.006687
O O9 0.750000 0.087157 0.735802
O O10 0.489428 0.057416 0.817962
O O11 0.750000 0.917935 0.777891
O O12 0.989116 0.852641 0.789842
O O13 0.027259 0.954746 0.798835
O O14 0.250000 0.304403 0.123029
O O15 0.002022 0.250000 0.156814
O O16 0.250000 0.008181 0.888037
O O17 0.000000 0.000000 0.000000
#
# Coordination Sequence:
#
# PCOD8244063 Si02
#       6
#     8   8   8   8   8   8
#     4  11  22  37  57  81 113 155 197 240 288 343
#     4   9  18  35  60  87 115 149 188 232 290 353
#     4  12  24  38  57  82 114 152 196 240 290 346
#     4  10  20  35  57  84 113 145 190 234 281 344
#     4   8  15  31  57  86 113 142 177 225 283 341
#     4  12  24  37  56  82 115 147 183 234 292 350
#
# _framework density 18.597760000000001
#
# number of rings (size 3 to 8) (size 9 to 14) (size 15 to 20)
#    0.000    1.667    1.667    5.500    0.000    2.333 
#    0.000    0.833    0.000    4.500    0.000    0.000 
#    0.000    0.000    0.000    0.000    0.000    0.000 
#
# Total GULP energy -595314.165184 kJ/mol
# GULP energy per Si atom -12402.378441 kJ/mol
# Density = 1.855543 g / cm^3
# Si number density = 18.597760 Si / 1000 Ang^3
#
#
#
# Elastic Constant Matrix: (Units=GPa)
#
#
# Indices 1 2 3 4 5 6 
#
# 1 115.6705 39.7060 51.1944 0.0000 0.0000 0.0000
# 2 39.7060 110.2396 57.0663 0.0000 0.0000 0.0000
# 3 51.1944 57.0663 117.3171 0.0000 0.0000 0.0000
# 4 0.0000 0.0000 0.0000 25.1989 0.0000 0.0000
# 5 0.0000 0.0000 0.0000 0.0000 27.2023 0.0000
# 6 0.0000 0.0000 0.0000 0.0000 0.0000 25.6208
#
#
#
# Elastic Compliance Matrix: (Units=1/GPa)
#
#
# Indices 1 2 3 4 5 6 
#
# 1 0.011029 -0.001979 -0.003850 0.000000 0.000000 0.000000
# 2 -0.001979 0.012479 -0.005207 0.000000 0.000000 0.000000
# 3 -0.003850 -0.005207 0.012736 0.000000 0.000000 0.000000
# 4 0.000000 0.000000 0.000000 0.039684 0.000000 0.000000
# 5 0.000000 0.000000 0.000000 0.000000 0.036762 0.000000
# 6 0.000000 0.000000 0.000000 0.000000 0.000000 0.039031
#
#
# Mechanical properties :
#
#
# Convention : Reuss Voigt Hill
#
# Bulk Modulus (GPa) = 70.55698 71.01784 70.78741
# Shear Modulus (GPa) = 28.00859 28.62176 28.31518
#
# Velocity S-wave (km/s) = 3.88496 3.92725 3.90616
# Velocity P-wave (km/s) = 7.62526 7.67030 7.64782
#
# Compressibility (1/GPa) = 0.01417294
#
# Stress axis : x y z
#
# Youngs Moduli (GPa) = 90.67358 80.13284 78.51480
#
# Poissons Ratio (x) = 0.15861 0.30226
# Poissons Ratio (y) = 0.17948 0.40879
# Poissons Ratio (z) = 0.34907 0.41721
#
# Static dielectric constant tensor:
#      x y z
#    x 3.572640 0.000000 0.000000 
#    y 0.000000 3.948610 0.000000 
#    z 0.000000 0.000000 3.637370 
# 
# 
# High freq. dielectric constant tensor:
#      x y z
#    x 1.710760 0.000000 0.000000 
#    y 0.000000 1.725180 0.000000 
#    z 0.000000 0.000000 1.725010 
# 
# From -- ./inp_files/14356.got.cif
#   From: 2010.03.12/outbox.cif.g09.slc.cpg/sg59_8_cif.got.tgz:14356.got - 2010.04.16 16:29:54.
