data_PCOD8244900
_publ_section_title
;
Structure prediction by ZEFSAII (Michael W. Deem and Ramdas Pophale) SiO2 
 PCOD8244900
Probable space group: P M M N
;
_chemical_formula_sum "Si O2"
_cell_formula_units_Z 64
_cell_length_a 14.319974
_cell_length_b 8.913009
_cell_length_c 28.152851
_cell_angle_alpha 90.000000
_cell_angle_beta 90.000000
_cell_angle_gamma 90.000000
_cell_volume 3593.262593
_symmetry_space_group_name_H-M "P M M N"
_symmetry_group_IT_number 59
_space_group.IT_coordinate_system_code '2'
_symmetry_cell_setting 'orthorhombic'
loop_
_space_group_symop_operation_xyz
x,y,z
1/2-x,1/2-y,z
1/2+x,-y,-z
-x,1/2+y,-z
-x,-y,-z
1/2+x,1/2+y,-z
1/2-x,y,z
x,1/2-y,z
loop_
_atom_site_type_symbol
_atom_site_label
_atom_site_fract_x
_atom_site_fract_y
_atom_site_fract_z
Si Si1 0.403108 0.427001 0.013902
Si Si2 0.649476 0.418235 0.074902
Si Si3 0.853318 0.572355 0.344960
Si Si4 0.481629 0.572628 0.840952
Si Si5 0.357603 0.425223 0.762542
Si Si6 0.356009 0.921435 0.112125
Si Si7 0.642938 0.926837 0.521813
Si Si8 0.476052 0.073081 0.569479
O O1 0.410524 0.250000 0.018778
O O2 0.364937 0.489224 0.063144
O O3 0.500000 0.500000 0.000000
O O4 0.337208 0.473695 0.970350
O O5 0.750000 0.415270 0.100948
O O6 0.621429 0.250000 0.058139
O O7 0.574083 0.479537 0.111991
O O8 0.750000 0.506946 0.356912
O O9 0.847549 0.750000 0.349910
O O10 0.881572 0.528499 0.291470
O O11 0.930897 0.510706 0.381598
O O12 0.493020 0.750000 0.838484
O O13 0.427754 0.519483 0.794525
O O14 0.582315 0.494776 0.845867
O O15 0.250000 0.465323 0.774231
O O16 0.375338 0.250000 0.771228
O O17 0.250000 0.931292 0.130084
O O18 0.386954 0.750000 0.103730
O O19 0.750000 0.987357 0.524609
O O20 0.642608 0.750000 0.528865
O O21 0.597281 0.972739 0.471573
O O22 0.577907 0.998538 0.562783
O O23 0.491663 0.250000 0.570693
#
# Coordination Sequence:
#
# PCOD8244900 Si02
#       8
#     8   8   8   8   8   8   8   8
#     4  12  23  36  55  78 105 137 171 204 243 289
#     4  10  21  36  53  75 104 136 165 196 238 288
#     4   8  14  27  49  75 100 129 167 209 251 297
#     4  11  22  36  56  79 105 136 166 202 247 299
#     4   9  18  33  54  79 106 134 165 205 254 306
#     4  11  24  41  60  80 103 133 169 210 253 296
#     4   9  17  28  42  64  98 137 171 207 255 307
#     4   9  16  27  46  70  95 128 173 217 253 296
#
# _framework density 17.811111
#
# number of rings (size 3 to 8) (size 9 to 14) (size 15 to 20)
#    0.000    2.125    1.250    3.750    0.000    5.750 
#    0.000    0.625    0.000    2.625    0.000    1.750 
#    0.000    0.000    0.000    0.000    0.000    0.000 
#
# Total GULP energy -793382.758521 kJ/mol
# GULP energy per Si atom -12396.605602 kJ/mol
# Density = 1.777057 g / cm^3
# Si number density = 17.811111 Si / 1000 Ang^3
#
#
#
# Elastic Constant Matrix: (Units=GPa)
#
#
# Indices 1 2 3 4 5 6 
#
# 1 131.2280 45.9341 60.6374 0.0000 0.0000 0.0000
# 2 45.9341 77.1958 42.5105 0.0000 0.0000 0.0000
# 3 60.6374 42.5105 102.9652 0.0000 0.0000 0.0000
# 4 0.0000 0.0000 0.0000 23.7285 0.0000 0.0000
# 5 0.0000 0.0000 0.0000 0.0000 29.7930 0.0000
# 6 0.0000 0.0000 0.0000 0.0000 0.0000 24.5990
#
#
#
# Elastic Compliance Matrix: (Units=1/GPa)
#
#
# Indices 1 2 3 4 5 6 
#
# 1 0.011339 -0.003973 -0.005037 0.000000 0.000000 0.000000
# 2 -0.003973 0.018158 -0.005157 0.000000 0.000000 0.000000
# 3 -0.005037 -0.005157 0.014808 0.000000 0.000000 0.000000
# 4 0.000000 0.000000 0.000000 0.042143 0.000000 0.000000
# 5 0.000000 0.000000 0.000000 0.000000 0.033565 0.000000
# 6 0.000000 0.000000 0.000000 0.000000 0.000000 0.040652
#
#
# Mechanical properties :
#
#
# Convention : Reuss Voigt Hill
#
# Bulk Modulus (GPa) = 62.61775 67.72811 65.17293
# Shear Modulus (GPa) = 25.73049 26.44457 26.08753
#
# Velocity S-wave (km/s) = 3.80495 3.85739 3.83126
# Velocity P-wave (km/s) = 7.38488 7.61233 7.49947
#
# Compressibility (1/GPa) = 0.01596991
#
# Stress axis : x y z
#
# Youngs Moduli (GPa) = 88.19501 55.07212 67.53304
#
# Poissons Ratio (x) = 0.21880 0.34017
# Poissons Ratio (y) = 0.35039 0.34827
# Poissons Ratio (z) = 0.44425 0.28401
#
# Static dielectric constant tensor:
#      x y z
#    x 3.487710 0.000000 0.000000 
#    y 0.000000 3.308920 0.000000 
#    z 0.000000 0.000000 3.647850 
# 
# 
# High freq. dielectric constant tensor:
#      x y z
#    x 1.694650 0.000000 0.000000 
#    y 0.000000 1.678160 0.000000 
#    z 0.000000 0.000000 1.667930 
# 
# From -- ./inp_files/33320.got.cif
#   From: 2010.03.12/outbox.cif.g09.slc.cpg/sg59_17_cif.got.tgz:33320.got - 2010.04.16 16:29:54.
