data_PCOD8244766
_publ_section_title
;
Structure prediction by ZEFSAII (Michael W. Deem and Ramdas Pophale) SiO2 
 PCOD8244766
Probable space group: P M M N
;
_chemical_formula_sum "Si O2"
_cell_formula_units_Z 48
_cell_length_a 8.848853
_cell_length_b 29.328883
_cell_length_c 10.093749
_cell_angle_alpha 90.000000
_cell_angle_beta 90.000000
_cell_angle_gamma 90.000000
_cell_volume 2619.600138
_symmetry_space_group_name_H-M "P M M N"
_symmetry_group_IT_number 59
_space_group.IT_coordinate_system_code '2'
_symmetry_cell_setting 'orthorhombic'
loop_
_space_group_symop_operation_xyz
x,y,z
1/2-x,1/2-y,z
1/2+x,-y,-z
-x,1/2+y,-z
-x,-y,-z
1/2+x,1/2+y,-z
1/2-x,y,z
x,1/2-y,z
loop_
_atom_site_type_symbol
_atom_site_label
_atom_site_fract_x
_atom_site_fract_y
_atom_site_fract_z
Si Si1 0.928347 0.198675 0.374876
Si Si2 0.074200 0.871648 0.404119
Si Si3 0.427209 0.969384 0.112110
Si Si4 0.070941 0.467260 0.607794
Si Si5 0.078489 0.864126 0.103026
Si Si6 0.426487 0.301698 0.105054
O O1 0.750000 0.197911 0.363101
O O2 0.987917 0.250000 0.401514
O O3 0.982629 0.167019 0.495198
O O4 0.994771 0.179437 0.237778
O O5 0.250000 0.884779 0.424783
O O6 0.049211 0.852537 0.256601
O O7 0.973710 0.915902 0.429731
O O8 0.250000 0.979494 0.125291
O O9 0.505635 0.981758 0.250179
O O10 0.457286 0.916913 0.074974
O O11 0.500000 0.000000 0.000000
O O12 0.250000 0.472486 0.609599
O O13 0.000000 0.500000 0.500000
O O14 0.250000 0.852500 0.063184
O O15 0.967613 0.833147 0.018316
O O16 0.250000 0.303985 0.128997
O O17 0.480363 0.250000 0.075616
#
# Coordination Sequence:
#
# PCOD8244766 Si02
#       6
#     8   8   8   8   8   8
#     4   9  18  34  56  79 104 137 175 215 262 315
#     4   9  19  36  56  80 108 135 172 221 267 315
#     4  10  21  38  58  82 110 140 177 220 268 320
#     4  11  22  37  57  80 108 143 181 221 267 317
#     4   9  19  35  55  78 105 137 172 213 260 313
#     4  10  21  35  51  75 107 140 176 218 260 306
#
# _framework density 18.323408000000001
#
# number of rings (size 3 to 8) (size 9 to 14) (size 15 to 20)
#    0.000    2.333    0.000    3.500    0.000    7.000 
#    0.000    3.333    0.000    2.000    0.000    0.000 
#    0.000    0.000    0.000    0.000    0.000    0.000 
#
# Total GULP energy -595332.622313 kJ/mol
# GULP energy per Si atom -12402.762965 kJ/mol
# Density = 1.828170 g / cm^3
# Si number density = 18.323408 Si / 1000 Ang^3
#
#
#
# Elastic Constant Matrix: (Units=GPa)
#
#
# Indices 1 2 3 4 5 6 
#
# 1 82.6422 45.9185 53.5373 0.0000 0.0000 0.0000
# 2 45.9185 87.0531 84.4118 0.0000 0.0000 0.0000
# 3 53.5373 84.4118 139.7586 0.0000 0.0000 0.0000
# 4 0.0000 0.0000 0.0000 40.2792 0.0000 0.0000
# 5 0.0000 0.0000 0.0000 0.0000 29.6251 0.0000
# 6 0.0000 0.0000 0.0000 0.0000 0.0000 31.4225
#
#
#
# Elastic Compliance Matrix: (Units=1/GPa)
#
#
# Indices 1 2 3 4 5 6 
#
# 1 0.017538 -0.006604 -0.002729 0.000000 0.000000 0.000000
# 2 -0.006604 0.030211 -0.015717 0.000000 0.000000 0.000000
# 3 -0.002729 -0.015717 0.017694 0.000000 0.000000 0.000000
# 4 0.000000 0.000000 0.000000 0.024827 0.000000 0.000000
# 5 0.000000 0.000000 0.000000 0.000000 0.033755 0.000000
# 6 0.000000 0.000000 0.000000 0.000000 0.000000 0.031824
#
#
# Mechanical properties :
#
#
# Convention : Reuss Voigt Hill
#
# Bulk Modulus (GPa) = 65.18423 75.24325 70.21374
# Shear Modulus (GPa) = 23.68948 28.63779 26.16363
#
# Velocity S-wave (km/s) = 3.59953 3.95765 3.78283
# Velocity P-wave (km/s) = 7.27509 7.87637 7.58169
#
# Compressibility (1/GPa) = 0.01534113
#
# Stress axis : x y z
#
# Youngs Moduli (GPa) = 57.01878 33.10046 56.51769
#
# Poissons Ratio (x) = 0.21861 0.15426
# Poissons Ratio (y) = 0.37657 0.88829
# Poissons Ratio (z) = 0.15563 0.52024
#
# Static dielectric constant tensor:
#      x y z
#    x 3.402530 0.000000 0.000000 
#    y 0.000000 3.439300 0.000000 
#    z 0.000000 0.000000 3.454890 
# 
# 
# High freq. dielectric constant tensor:
#      x y z
#    x 1.712570 0.000000 0.000000 
#    y 0.000000 1.707530 0.000000 
#    z 0.000000 0.000000 1.718030 
# 
# From -- ./inp_files/6225.got.cif
#   From: 2010.03.12/outbox.cif.g09.slc.cpg/sg59_4_cif.got.tgz:6225.got - 2010.04.16 16:29:54.
