data_PCOD8244983
_publ_section_title
;
Structure prediction by ZEFSAII (Michael W. Deem and Ramdas Pophale) SiO2 
 PCOD8244983
Probable space group: P M M N
;
_chemical_formula_sum "Si O2"
_cell_formula_units_Z 48
_cell_length_a 11.893442
_cell_length_b 16.284351
_cell_length_c 13.620006
_cell_angle_alpha 90.000000
_cell_angle_beta 90.000000
_cell_angle_gamma 90.000000
_cell_volume 2637.881686
_symmetry_space_group_name_H-M "P M M N"
_symmetry_group_IT_number 59
_space_group.IT_coordinate_system_code '2'
_symmetry_cell_setting 'orthorhombic'
loop_
_space_group_symop_operation_xyz
x,y,z
1/2-x,1/2-y,z
1/2+x,-y,-z
-x,1/2+y,-z
-x,-y,-z
1/2+x,1/2+y,-z
1/2-x,y,z
x,1/2-y,z
loop_
_atom_site_type_symbol
_atom_site_label
_atom_site_fract_x
_atom_site_fract_y
_atom_site_fract_z
Si Si1 0.250000 0.654943 0.817093
Si Si2 0.620992 0.934366 0.393185
Si Si3 0.750000 0.152655 0.949695
Si Si4 0.121359 0.338735 0.798087
Si Si5 0.963236 0.457658 0.900613
Si Si6 0.879706 0.843340 0.585423
Si Si7 0.475216 0.572632 0.733919
O O1 0.250000 0.750000 0.783380
O O2 0.360680 0.609815 0.777392
O O3 0.250000 0.648044 0.933683
O O4 0.750000 0.961878 0.401978
O O5 0.606850 0.860994 0.315628
O O6 0.575840 0.901558 0.497445
O O7 0.549978 0.011270 0.355749
O O8 0.750000 0.250000 0.916956
O O9 0.643500 0.102614 0.907894
O O10 0.250000 0.336149 0.828717
O O11 0.064625 0.250000 0.814042
O O12 0.068988 0.403657 0.871004
O O13 0.949540 0.528121 0.817663
O O14 0.000000 0.500000 0.000000
O O15 0.750000 0.862436 0.607793
O O16 0.896386 0.750000 0.551434
O O17 0.948749 0.856884 0.685778
#
# Coordination Sequence:
#
# PCOD8244983 Si02
#       7
#     4   8   4   8   8   8   8
#     4  11  22  38  60  83 114 153 191 232 287 341
#     4   9  17  32  58  83 108 142 183 226 273 330
#     4  11  24  42  60  81 114 155 193 234 289 349
#     4   9  18  33  56  84 111 139 179 229 278 327
#     4  11  23  36  59  81 111 145 192 232 280 331
#     4  10  21  36  54  81 115 147 183 226 280 339
#     4  11  21  37  58  85 112 147 190 235 279 335
#
# _framework density 18.196418999999999
#
# number of rings (size 3 to 8) (size 9 to 14) (size 15 to 20)
#    0.000    1.833    2.500    2.000    3.500    2.000 
#    0.000    0.000    0.000    2.000    0.000    3.500 
#    0.000    0.000    0.000    0.000    0.000    0.000 
#
# Total GULP energy -594998.959703 kJ/mol
# GULP energy per Si atom -12395.811660 kJ/mol
# Density = 1.815500 g / cm^3
# Si number density = 18.196419 Si / 1000 Ang^3
#
#
#
# Elastic Constant Matrix: (Units=GPa)
#
#
# Indices 1 2 3 4 5 6 
#
# 1 73.1152 37.0695 47.0461 0.0000 0.0000 0.0000
# 2 37.0695 87.8320 44.8256 0.0000 0.0000 0.0000
# 3 47.0461 44.8256 101.9536 0.0000 0.0000 0.0000
# 4 0.0000 0.0000 0.0000 25.6278 0.0000 0.0000
# 5 0.0000 0.0000 0.0000 0.0000 27.8939 0.0000
# 6 0.0000 0.0000 0.0000 0.0000 0.0000 28.7336
#
#
#
# Elastic Compliance Matrix: (Units=1/GPa)
#
#
# Indices 1 2 3 4 5 6 
#
# 1 0.021068 -0.005067 -0.007494 0.000000 0.000000 0.000000
# 2 -0.005067 0.015898 -0.004652 0.000000 0.000000 0.000000
# 3 -0.007494 -0.004652 0.015312 0.000000 0.000000 0.000000
# 4 0.000000 0.000000 0.000000 0.039020 0.000000 0.000000
# 5 0.000000 0.000000 0.000000 0.000000 0.035850 0.000000
# 6 0.000000 0.000000 0.000000 0.000000 0.000000 0.034802
#
#
# Mechanical properties :
#
#
# Convention : Reuss Voigt Hill
#
# Bulk Modulus (GPa) = 56.01537 57.86478 56.94008
# Shear Modulus (GPa) = 24.71254 25.38170 25.04712
#
# Velocity S-wave (km/s) = 3.68924 3.73885 3.71413
# Velocity P-wave (km/s) = 6.99985 7.10689 7.05357
#
# Compressibility (1/GPa) = 0.01785224
#
# Stress axis : x y z
#
# Youngs Moduli (GPa) = 47.46512 62.90131 65.31023
#
# Poissons Ratio (x) = 0.31873 0.48943
# Poissons Ratio (y) = 0.24052 0.30379
# Poissons Ratio (z) = 0.35570 0.29259
#
# Static dielectric constant tensor:
#      x y z
#    x 3.483400 0.000000 0.000000 
#    y 0.000000 3.666360 0.000000 
#    z 0.000000 0.000000 3.387150 
# 
# 
# High freq. dielectric constant tensor:
#      x y z
#    x 1.694000 0.000000 0.000000 
#    y 0.000000 1.718330 0.000000 
#    z 0.000000 0.000000 1.705780 
# 
# From -- ./inp_files/22437.got.cif
#   From: 2010.03.12/outbox.cif.g09.slc.cpg/sg59_12_cif.got.tgz:22437.got - 2010.04.16 16:29:54.
