data_PCOD8244541
_publ_section_title
;
Structure prediction by ZEFSAII (Michael W. Deem and Ramdas Pophale) SiO2 
 PCOD8244541
Probable space group: P M M N
;
_chemical_formula_sum "Si O2"
_cell_formula_units_Z 64
_cell_length_a 9.041464
_cell_length_b 30.725817
_cell_length_c 11.886255
_cell_angle_alpha 90.000000
_cell_angle_beta 90.000000
_cell_angle_gamma 90.000000
_cell_volume 3302.077334
_symmetry_space_group_name_H-M "P M M N"
_symmetry_group_IT_number 59
_space_group.IT_coordinate_system_code '2'
_symmetry_cell_setting 'orthorhombic'
loop_
_space_group_symop_operation_xyz
x,y,z
1/2-x,1/2-y,z
1/2+x,-y,-z
-x,1/2+y,-z
-x,-y,-z
1/2+x,1/2+y,-z
1/2-x,y,z
x,1/2-y,z
loop_
_atom_site_type_symbol
_atom_site_label
_atom_site_fract_x
_atom_site_fract_y
_atom_site_fract_z
Si Si1 0.922555 0.624329 0.375179
Si Si2 0.580960 0.798759 0.215234
Si Si3 0.574373 0.122334 0.387771
Si Si4 0.421816 0.452698 0.248039
Si Si5 0.924758 0.169274 0.998589
Si Si6 0.425709 0.798326 0.761570
Si Si7 0.080905 0.420595 0.001322
Si Si8 0.919347 0.539272 0.232192
O O1 0.750000 0.626398 0.407326
O O2 0.974735 0.667525 0.309292
O O3 0.959472 0.583146 0.297879
O O4 0.019991 0.621233 0.485579
O O5 0.750000 0.809879 0.184318
O O6 0.564210 0.750000 0.264093
O O7 0.486732 0.801820 0.102151
O O8 0.750000 0.119260 0.384094
O O9 0.510163 0.081598 0.321558
O O10 0.516649 0.166961 0.329928
O O11 0.250000 0.448867 0.278172
O O12 0.454766 0.444803 0.117063
O O13 0.477412 0.500906 0.278769
O O14 0.750000 0.171676 0.994740
O O15 0.986792 0.188370 0.115785
O O16 0.973191 0.119733 0.985452
O O17 0.250000 0.798594 0.764442
O O18 0.484706 0.750000 0.730234
O O19 0.250000 0.403787 0.997302
O O20 0.050540 0.453984 0.900173
O O21 0.750000 0.525918 0.253665
#
# Coordination Sequence:
#
# PCOD8244541 Si02
#       8
#     8   8   8   8   8   8   8   8
#     4  10  22  41  61  83 114 154 197 244 291 338
#     4  10  21  39  62  87 120 159 195 236 292 352
#     4  11  23  40  61  84 114 155 199 243 292 347
#     4  11  23  38  61  90 120 150 190 242 290 347
#     4  11  20  33  59  90 122 154 190 238 287 346
#     4   9  19  36  57  84 118 153 188 233 290 342
#     4  10  20  37  60  87 120 155 189 233 291 352
#     4  10  21  39  62  85 117 155 190 235 292 351
#
# _framework density 19.381739
#
# number of rings (size 3 to 8) (size 9 to 14) (size 15 to 20)
#    0.000    1.750    2.500    1.875    0.000    3.750 
#    0.000    0.000    0.000    3.375    0.000    0.000 
#    0.000    0.000    0.000    0.000    0.000    0.000 
#
# Total GULP energy -793821.373374 kJ/mol
# GULP energy per Si atom -12403.458959 kJ/mol
# Density = 1.933762 g / cm^3
# Si number density = 19.381739 Si / 1000 Ang^3
#
#
#
# Elastic Constant Matrix: (Units=GPa)
#
#
# Indices 1 2 3 4 5 6 
#
# 1 65.9969 43.9886 49.2141 0.0000 0.0000 0.0000
# 2 43.9886 141.1926 57.3310 0.0000 0.0000 0.0000
# 3 49.2141 57.3310 127.3003 0.0000 0.0000 0.0000
# 4 0.0000 0.0000 0.0000 3.3329 0.0000 0.0000
# 5 0.0000 0.0000 0.0000 0.0000 31.1489 0.0000
# 6 0.0000 0.0000 0.0000 0.0000 0.0000 18.1327
#
#
#
# Elastic Compliance Matrix: (Units=1/GPa)
#
#
# Indices 1 2 3 4 5 6 
#
# 1 0.023341 -0.004415 -0.007035 0.000000 0.000000 0.000000
# 2 -0.004415 0.009503 -0.002573 0.000000 0.000000 0.000000
# 3 -0.007035 -0.002573 0.011734 0.000000 0.000000 0.000000
# 4 0.000000 0.000000 0.000000 0.300041 0.000000 0.000000
# 5 0.000000 0.000000 0.000000 0.000000 0.032104 0.000000
# 6 0.000000 0.000000 0.000000 0.000000 0.000000 0.055149
#
#
# Mechanical properties :
#
#
# Convention : Reuss Voigt Hill
#
# Bulk Modulus (GPa) = 60.49078 70.61745 65.55412
# Shear Modulus (GPa) = 10.74279 22.78662 16.76470
#
# Velocity S-wave (km/s) = 2.35686 3.43253 2.94424
# Velocity P-wave (km/s) = 6.21967 7.22661 6.74196
#
# Compressibility (1/GPa) = 0.01653144
#
# Stress axis : x y z
#
# Youngs Moduli (GPa) = 42.84239 105.23246 85.22318
#
# Poissons Ratio (x) = 0.46464 0.59957
# Poissons Ratio (y) = 0.18916 0.21925
# Poissons Ratio (z) = 0.30141 0.27073
#
# Static dielectric constant tensor:
#      x y z
#    x 3.415120 0.000000 0.000000 
#    y 0.000000 3.722240 0.000000 
#    z 0.000000 0.000000 3.565030 
# 
# 
# High freq. dielectric constant tensor:
#      x y z
#    x 1.741510 0.000000 0.000000 
#    y 0.000000 1.767140 0.000000 
#    z 0.000000 0.000000 1.753760 
# 
# From -- ./inp_files/14928.got.cif
#   From: 2010.03.12/outbox.cif.g09.slc.cpg/sg59_8_cif.got.tgz:14928.got - 2010.04.16 16:29:54.
