data_PCOD8244445
_publ_section_title
;
Structure prediction by ZEFSAII (Michael W. Deem and Ramdas Pophale) SiO2 
 PCOD8244445
Probable space group: P M M N
;
_chemical_formula_sum "Si O2"
_cell_formula_units_Z 48
_cell_length_a 8.736668
_cell_length_b 18.900597
_cell_length_c 14.981536
_cell_angle_alpha 90.000000
_cell_angle_beta 90.000000
_cell_angle_gamma 90.000000
_cell_volume 2473.874687
_symmetry_space_group_name_H-M "P M M N"
_symmetry_group_IT_number 59
_space_group.IT_coordinate_system_code '2'
_symmetry_cell_setting 'orthorhombic'
loop_
_space_group_symop_operation_xyz
x,y,z
1/2-x,1/2-y,z
1/2+x,-y,-z
-x,1/2+y,-z
-x,-y,-z
1/2+x,1/2+y,-z
1/2-x,y,z
x,1/2-y,z
loop_
_atom_site_type_symbol
_atom_site_label
_atom_site_fract_x
_atom_site_fract_y
_atom_site_fract_z
Si Si1 0.071057 0.831369 0.899495
Si Si2 0.426965 0.831310 0.554125
Si Si3 0.929823 0.570657 0.040131
Si Si4 0.070213 0.580275 0.726307
Si Si5 0.571308 0.433729 0.768818
Si Si6 0.574348 0.832909 0.370107
O O1 0.250000 0.840463 0.918540
O O2 0.025787 0.750000 0.886035
O O3 0.021567 0.873181 0.811125
O O4 0.979670 0.861303 0.983716
O O5 0.250000 0.843453 0.530044
O O6 0.457743 0.750000 0.579695
O O7 0.478151 0.877959 0.637855
O O8 0.527509 0.855282 0.469986
O O9 0.750000 0.561987 0.037300
O O10 0.980938 0.582017 0.141000
O O11 0.000000 0.500000 0.000000
O O12 0.250000 0.563735 0.728160
O O13 0.977250 0.507962 0.726266
O O14 0.750000 0.434271 0.790012
O O15 0.533419 0.372009 0.699733
O O16 0.750000 0.854690 0.354501
O O17 0.547520 0.750000 0.356240
#
# Coordination Sequence:
#
# PCOD8244445 Si02
#       6
#     8   8   8   8   8   8
#     4  10  21  38  62  92 124 160 201 245 295 354
#     4   9  18  35  60  89 121 159 200 243 296 355
#     4  12  24  41  63  87 119 159 200 246 300 357
#     4  10  20  36  60  89 124 161 198 244 295 354
#     4  12  25  40  62  89 118 157 200 248 302 359
#     4  10  22  41  63  87 117 155 200 252 304 355
#
# _framework density 19.402760000000001
#
# number of rings (size 3 to 8) (size 9 to 14) (size 15 to 20)
#    0.000    1.500    1.667    4.000    0.000    5.333 
#    0.000    0.000    0.000    3.000    0.000    0.000 
#    0.000    0.000    0.000    0.000    0.000    0.000 
#
# Total GULP energy -595501.623251 kJ/mol
# GULP energy per Si atom -12406.283818 kJ/mol
# Density = 1.935860 g / cm^3
# Si number density = 19.402760 Si / 1000 Ang^3
#
#
#
# Elastic Constant Matrix: (Units=GPa)
#
#
# Indices 1 2 3 4 5 6 
#
# 1 80.4590 40.9558 34.3230 0.0000 0.0000 0.0000
# 2 40.9558 89.2741 59.7555 0.0000 0.0000 0.0000
# 3 34.3230 59.7555 121.7203 0.0000 0.0000 0.0000
# 4 0.0000 0.0000 0.0000 39.9778 0.0000 0.0000
# 5 0.0000 0.0000 0.0000 0.0000 33.8486 0.0000
# 6 0.0000 0.0000 0.0000 0.0000 0.0000 30.5576
#
#
#
# Elastic Compliance Matrix: (Units=1/GPa)
#
#
# Indices 1 2 3 4 5 6 
#
# 1 0.016370 -0.006584 -0.001384 0.000000 0.000000 0.000000
# 2 -0.006584 0.019332 -0.007634 0.000000 0.000000 0.000000
# 3 -0.001384 -0.007634 0.012353 0.000000 0.000000 0.000000
# 4 0.000000 0.000000 0.000000 0.025014 0.000000 0.000000
# 5 0.000000 0.000000 0.000000 0.000000 0.029543 0.000000
# 6 0.000000 0.000000 0.000000 0.000000 0.000000 0.032725
#
#
# Mechanical properties :
#
#
# Convention : Reuss Voigt Hill
#
# Bulk Modulus (GPa) = 59.33955 62.39133 60.86544
# Shear Modulus (GPa) = 29.04303 31.30475 30.17389
#
# Velocity S-wave (km/s) = 3.87311 4.02109 3.94780
# Velocity P-wave (km/s) = 7.11694 7.33380 7.22618
#
# Compressibility (1/GPa) = 0.01685217
#
# Stress axis : x y z
#
# Youngs Moduli (GPa) = 61.08581 51.72892 80.94897
#
# Poissons Ratio (x) = 0.34057 0.11204
# Poissons Ratio (y) = 0.40217 0.61795
# Poissons Ratio (z) = 0.08454 0.39489
#
# Static dielectric constant tensor:
#      x y z
#    x 3.562760 0.000000 0.000000 
#    y 0.000000 3.593020 0.000000 
#    z 0.000000 0.000000 3.765300 
# 
# 
# High freq. dielectric constant tensor:
#      x y z
#    x 1.755110 0.000000 0.000000 
#    y 0.000000 1.759120 0.000000 
#    z 0.000000 0.000000 1.767400 
# 
# From -- ./inp_files/20345.got.cif
#   From: 2010.03.12/outbox.cif.g09.slc.cpg/sg59_11_cif.got.tgz:20345.got - 2010.04.16 16:29:54.
