data_PCOD8244561
_publ_section_title
;
Structure prediction by ZEFSAII (Michael W. Deem and Ramdas Pophale) SiO2 
 PCOD8244561
Probable space group: P M M N
;
_chemical_formula_sum "Si O2"
_cell_formula_units_Z 64
_cell_length_a 27.148605
_cell_length_b 9.216456
_cell_length_c 13.132662
_cell_angle_alpha 90.000000
_cell_angle_beta 90.000000
_cell_angle_gamma 90.000000
_cell_volume 3285.974884
_symmetry_space_group_name_H-M "P M M N"
_symmetry_group_IT_number 59
_space_group.IT_coordinate_system_code '2'
_symmetry_cell_setting 'orthorhombic'
loop_
_space_group_symop_operation_xyz
x,y,z
1/2-x,1/2-y,z
1/2+x,-y,-z
-x,1/2+y,-z
-x,-y,-z
1/2+x,1/2+y,-z
1/2-x,y,z
x,1/2-y,z
loop_
_atom_site_type_symbol
_atom_site_label
_atom_site_fract_x
_atom_site_fract_y
_atom_site_fract_z
Si Si1 0.541714 0.592870 0.232665
Si Si2 0.977102 0.918305 0.907080
Si Si3 0.844969 0.579381 0.240703
Si Si4 0.865212 0.581423 0.869005
Si Si5 0.305327 0.422210 0.541513
Si Si6 0.526260 0.091130 0.584197
Si Si7 0.807651 0.084182 0.042533
Si Si8 0.376974 0.079516 0.361222
O O1 0.539349 0.750000 0.173349
O O2 0.510392 0.462716 0.187087
O O3 0.597669 0.541734 0.240904
O O4 0.518915 0.618808 0.341460
O O5 0.981363 0.750000 0.925708
O O6 0.921201 0.966127 0.889563
O O7 0.000000 0.000000 0.000000
O O8 0.834575 0.750000 0.228133
O O9 0.823393 0.521203 0.348128
O O10 0.820144 0.498046 0.146663
O O11 0.856922 0.750000 0.895158
O O12 0.852772 0.550619 0.750052
O O13 0.831555 0.487606 0.943041
O O14 0.250000 0.480385 0.522165
O O15 0.306252 0.250000 0.541566
O O16 0.340138 0.477590 0.449452
O O17 0.544512 0.250000 0.545531
O O18 0.500000 0.000000 0.500000
O O19 0.572106 0.006732 0.632782
O O20 0.750000 0.076148 0.024416
O O21 0.826019 0.250000 0.051317
O O22 0.388805 0.250000 0.373507
#
# Coordination Sequence:
#
# PCOD8244561 Si02
#       8
#     8   8   8   8   8   8   8   8
#     4  10  21  36  55  83 114 150 191 233 286 344
#     4  11  22  36  55  83 116 152 191 235 285 343
#     4  10  20  37  61  88 117 149 194 245 293 352
#     4  10  22  39  60  86 118 156 199 245 292 352
#     4   9  18  34  60  90 117 151 195 246 301 351
#     4  11  22  36  57  84 118 158 197 238 290 349
#     4  11  25  42  60  85 117 154 197 248 304 355
#     4  10  20  38  61  88 122 155 197 248 295 354
#
# _framework density 19.476714999999999
#
# number of rings (size 3 to 8) (size 9 to 14) (size 15 to 20)
#    0.000    1.750    1.250    3.000    0.000    9.500 
#    0.000    3.125    0.000    1.125    0.000    0.000 
#    0.000    0.000    0.000    0.000    0.000    0.000 
#
# Total GULP energy -793350.295303 kJ/mol
# GULP energy per Si atom -12396.098364 kJ/mol
# Density = 1.943238 g / cm^3
# Si number density = 19.476715 Si / 1000 Ang^3
#
#
#
# Elastic Constant Matrix: (Units=GPa)
#
#
# Indices 1 2 3 4 5 6 
#
# 1 108.1143 45.3328 51.0513 0.0000 0.0000 0.0000
# 2 45.3328 73.3550 55.0955 0.0000 0.0000 0.0000
# 3 51.0513 55.0955 142.4238 0.0000 0.0000 0.0000
# 4 0.0000 0.0000 0.0000 24.6982 0.0000 0.0000
# 5 0.0000 0.0000 0.0000 0.0000 40.2291 0.0000
# 6 0.0000 0.0000 0.0000 0.0000 0.0000 8.9894
#
#
#
# Elastic Compliance Matrix: (Units=1/GPa)
#
#
# Indices 1 2 3 4 5 6 
#
# 1 0.012947 -0.006365 -0.002179 0.000000 0.000000 0.000000
# 2 -0.006365 0.022344 -0.006362 0.000000 0.000000 0.000000
# 3 -0.002179 -0.006362 0.010263 0.000000 0.000000 0.000000
# 4 0.000000 0.000000 0.000000 0.040489 0.000000 0.000000
# 5 0.000000 0.000000 0.000000 0.000000 0.024858 0.000000
# 6 0.000000 0.000000 0.000000 0.000000 0.000000 0.111242
#
#
# Mechanical properties :
#
#
# Convention : Reuss Voigt Hill
#
# Bulk Modulus (GPa) = 63.51912 69.65028 66.58470
# Shear Modulus (GPa) = 19.43992 26.27756 22.85874
#
# Velocity S-wave (km/s) = 3.16272 3.67710 3.42957
# Velocity P-wave (km/s) = 6.78385 7.33938 7.06708
#
# Compressibility (1/GPa) = 0.01574329
#
# Stress axis : x y z
#
# Youngs Moduli (GPa) = 77.23784 44.75410 97.43344
#
# Poissons Ratio (x) = 0.28485 0.21227
# Poissons Ratio (y) = 0.49161 0.61990
# Poissons Ratio (z) = 0.16827 0.28474
#
# Static dielectric constant tensor:
#      x y z
#    x 3.549250 0.000000 0.000000 
#    y 0.000000 4.420120 0.000000 
#    z 0.000000 0.000000 3.623100 
# 
# 
# High freq. dielectric constant tensor:
#      x y z
#    x 1.763570 0.000000 0.000000 
#    y 0.000000 1.746470 0.000000 
#    z 0.000000 0.000000 1.770470 
# 
# From -- ./inp_files/19292.got.cif
#   From: 2010.03.12/outbox.cif.g09.slc.cpg/sg59_10_cif.got.tgz:19292.got - 2010.04.16 16:29:54.
