data_PCOD8244051
_publ_section_title
;
Structure prediction by ZEFSAII (Michael W. Deem and Ramdas Pophale) SiO2 
 PCOD8244051
Probable space group: P M M N
;
_chemical_formula_sum "Si O2"
_cell_formula_units_Z 48
_cell_length_a 8.879453
_cell_length_b 18.895368
_cell_length_c 15.093754
_cell_angle_alpha 90.000000
_cell_angle_beta 90.000000
_cell_angle_gamma 90.000000
_cell_volume 2532.438077
_symmetry_space_group_name_H-M "P M M N"
_symmetry_group_IT_number 59
_space_group.IT_coordinate_system_code '2'
_symmetry_cell_setting 'orthorhombic'
loop_
_space_group_symop_operation_xyz
x,y,z
1/2-x,1/2-y,z
1/2+x,-y,-z
-x,1/2+y,-z
-x,-y,-z
1/2+x,1/2+y,-z
1/2-x,y,z
x,1/2-y,z
loop_
_atom_site_type_symbol
_atom_site_label
_atom_site_fract_x
_atom_site_fract_y
_atom_site_fract_z
Si Si1 0.426438 0.669291 0.939282
Si Si2 0.927349 0.669583 0.119079
Si Si3 0.072247 0.570530 0.461068
Si Si4 0.076105 0.431700 0.725078
Si Si5 0.925950 0.668046 0.599127
Si Si6 0.923583 0.406262 0.237900
O O1 0.250000 0.662934 0.953563
O O2 0.476249 0.750000 0.920961
O O3 0.480229 0.622407 0.856558
O O4 0.503908 0.639818 0.027951
O O5 0.750000 0.664399 0.109959
O O6 0.981366 0.750000 0.136135
O O7 0.983802 0.622098 0.200493
O O8 0.250000 0.563500 0.470096
O O9 0.000000 0.500000 0.500000
O O10 0.026585 0.581122 0.359855
O O11 0.016492 0.638289 0.515451
O O12 0.250000 0.417088 0.699962
O O13 0.055371 0.510010 0.762868
O O14 0.750000 0.655864 0.582494
O O15 0.966896 0.750000 0.609817
O O16 0.972949 0.627401 0.687333
O O17 0.750000 0.384722 0.255586
#
# Coordination Sequence:
#
# PCOD8244051 Si02
#       6
#     8   8   8   8   8   8
#     4   9  18  33  53  78 110 148 190 237 291 345
#     4   9  19  36  56  79 111 151 193 238 289 342
#     4  12  24  40  62  86 116 154 194 237 289 349
#     4  10  21  37  58  84 113 150 194 240 290 346
#     4  11  24  40  60  88 119 151 192 241 290 345
#     4  10  20  35  57  83 114 152 192 238 290 346
#
# _framework density 18.954066999999998
#
# number of rings (size 3 to 8) (size 9 to 14) (size 15 to 20)
#    0.000    1.833    1.667    2.500    0.000    4.667 
#    0.000    3.333    0.000    0.000    0.000    0.000 
#    0.000    0.000    0.000    0.000    0.000    0.000 
#
# Total GULP energy -595423.961472 kJ/mol
# GULP energy per Si atom -12404.665864 kJ/mol
# Density = 1.891093 g / cm^3
# Si number density = 18.954067 Si / 1000 Ang^3
#
#
#
# Elastic Constant Matrix: (Units=GPa)
#
#
# Indices 1 2 3 4 5 6 
#
# 1 74.3082 36.5217 47.9249 0.0000 0.0000 0.0000
# 2 36.5217 90.3508 61.5856 0.0000 0.0000 0.0000
# 3 47.9249 61.5856 159.3793 0.0000 0.0000 0.0000
# 4 0.0000 0.0000 0.0000 40.6472 0.0000 0.0000
# 5 0.0000 0.0000 0.0000 0.0000 39.2303 0.0000
# 6 0.0000 0.0000 0.0000 0.0000 0.0000 14.6065
#
#
#
# Elastic Compliance Matrix: (Units=1/GPa)
#
#
# Indices 1 2 3 4 5 6 
#
# 1 0.018173 -0.004916 -0.003565 0.000000 0.000000 0.000000
# 2 -0.004916 0.016355 -0.004842 0.000000 0.000000 0.000000
# 3 -0.003565 -0.004842 0.009217 0.000000 0.000000 0.000000
# 4 0.000000 0.000000 0.000000 0.024602 0.000000 0.000000
# 5 0.000000 0.000000 0.000000 0.000000 0.025491 0.000000
# 6 0.000000 0.000000 0.000000 0.000000 0.000000 0.068463
#
#
# Mechanical properties :
#
#
# Convention : Reuss Voigt Hill
#
# Bulk Modulus (GPa) = 58.47852 68.45585 63.46719
# Shear Modulus (GPa) = 25.68774 30.76386 28.22580
#
# Velocity S-wave (km/s) = 3.68538 4.03311 3.86316
# Velocity P-wave (km/s) = 7.00208 7.60809 7.31137
#
# Compressibility (1/GPa) = 0.01710030
#
# Stress axis : x y z
#
# Youngs Moduli (GPa) = 55.02738 61.14245 108.49310
#
# Poissons Ratio (x) = 0.30057 0.38678
# Poissons Ratio (y) = 0.27051 0.52528
# Poissons Ratio (z) = 0.19617 0.29603
#
# Static dielectric constant tensor:
#      x y z
#    x 3.447870 0.000000 0.000000 
#    y 0.000000 3.611100 0.000000 
#    z 0.000000 0.000000 3.651310 
# 
# 
# High freq. dielectric constant tensor:
#      x y z
#    x 1.731670 0.000000 0.000000 
#    y 0.000000 1.738590 0.000000 
#    z 0.000000 0.000000 1.747650 
# 
# From -- ./inp_files/20369.got.cif
#   From: 2010.03.12/outbox.cif.g09.slc.cpg/sg59_11_cif.got.tgz:20369.got - 2010.04.16 16:29:54.
