data_PCOD8244844
_publ_section_title
;
Structure prediction by ZEFSAII (Michael W. Deem and Ramdas Pophale) SiO2 
 PCOD8244844
Probable space group: P M M N
;
_chemical_formula_sum "Si O2"
_cell_formula_units_Z 48
_cell_length_a 7.921701
_cell_length_b 14.333669
_cell_length_c 20.836125
_cell_angle_alpha 90.000000
_cell_angle_beta 90.000000
_cell_angle_gamma 90.000000
_cell_volume 2365.880320
_symmetry_space_group_name_H-M "P M M N"
_symmetry_group_IT_number 59
_space_group.IT_coordinate_system_code '2'
_symmetry_cell_setting 'orthorhombic'
loop_
_space_group_symop_operation_xyz
x,y,z
1/2-x,1/2-y,z
1/2+x,-y,-z
-x,1/2+y,-z
-x,-y,-z
1/2+x,1/2+y,-z
1/2-x,y,z
x,1/2-y,z
loop_
_atom_site_type_symbol
_atom_site_label
_atom_site_fract_x
_atom_site_fract_y
_atom_site_fract_z
Si Si1 0.450437 0.644058 0.991928
Si Si2 0.250000 0.639096 0.436233
Si Si3 0.560932 0.497319 0.243285
Si Si4 0.941057 0.858660 0.350003
Si Si5 0.062581 0.356978 0.336096
Si Si6 0.250000 0.861115 0.579870
Si Si7 0.944799 0.493220 0.898248
O O1 0.250000 0.640980 0.988252
O O2 0.517875 0.750000 0.995626
O O3 0.523864 0.595427 0.928263
O O4 0.515844 0.586819 0.054005
O O5 0.250000 0.750000 0.439233
O O6 0.420343 0.603826 0.400789
O O7 0.250000 0.597455 0.508088
O O8 0.750000 0.462533 0.255277
O O9 0.524450 0.592205 0.282076
O O10 0.441951 0.414695 0.269728
O O11 0.538600 0.517161 0.168681
O O12 0.750000 0.879146 0.375604
O O13 0.967425 0.750000 0.337055
O O14 0.250000 0.367491 0.366935
O O15 0.024399 0.250000 0.319071
O O16 0.920126 0.397126 0.384587
O O17 0.250000 0.750000 0.577671
O O18 0.750000 0.477291 0.884843
#
# Coordination Sequence:
#
# PCOD8244844 Si02
#       7
#     8   4   8   8   8   4   8
#     4   9  19  38  59  80 113 149 187 230 275 333
#     4   9  18  34  60  84 109 150 189 234 293 342
#     4  11  22  37  59  81 115 153 189 237 287 337
#     4   9  20  37  56  82 114 148 191 238 285 342
#     4  10  21  37  58  82 112 150 190 239 292 341
#     4   9  18  36  58  84 113 144 191 238 287 350
#     4  10  21  35  55  85 112 146 188 231 281 335
#
# _framework density 20.288432
#
# number of rings (size 3 to 8) (size 9 to 14) (size 15 to 20)
#    0.000    2.333    0.833    1.000    2.333    3.000 
#    0.000    4.167    0.000    0.000    0.000    0.000 
#    0.000    0.000    0.000    0.000    0.000    0.000 
#
# Total GULP energy -595170.700910 kJ/mol
# GULP energy per Si atom -12399.389602 kJ/mol
# Density = 2.024225 g / cm^3
# Si number density = 20.288432 Si / 1000 Ang^3
#
#
#
# Elastic Constant Matrix: (Units=GPa)
#
#
# Indices 1 2 3 4 5 6 
#
# 1 103.9148 31.9526 48.4052 0.0000 0.0000 0.0000
# 2 31.9526 75.2631 32.5589 0.0000 0.0000 0.0000
# 3 48.4052 32.5589 134.4626 0.0000 0.0000 0.0000
# 4 0.0000 0.0000 0.0000 22.5645 0.0000 0.0000
# 5 0.0000 0.0000 0.0000 0.0000 30.1764 0.0000
# 6 0.0000 0.0000 0.0000 0.0000 0.0000 24.0404
#
#
#
# Elastic Compliance Matrix: (Units=1/GPa)
#
#
# Indices 1 2 3 4 5 6 
#
# 1 0.012436 -0.003734 -0.003573 0.000000 0.000000 0.000000
# 2 -0.003734 0.015963 -0.002521 0.000000 0.000000 0.000000
# 3 -0.003573 -0.002521 0.009334 0.000000 0.000000 0.000000
# 4 0.000000 0.000000 0.000000 0.044317 0.000000 0.000000
# 5 0.000000 0.000000 0.000000 0.000000 0.033138 0.000000
# 6 0.000000 0.000000 0.000000 0.000000 0.000000 0.041597
#
#
# Mechanical properties :
#
#
# Convention : Reuss Voigt Hill
#
# Bulk Modulus (GPa) = 55.32004 59.94155 57.63080
# Shear Modulus (GPa) = 27.40257 28.73786 28.07021
#
# Velocity S-wave (km/s) = 3.67911 3.76768 3.72366
# Velocity P-wave (km/s) = 6.73600 6.96678 6.85236
#
# Compressibility (1/GPa) = 0.01807663
#
# Stress axis : x y z
#
# Youngs Moduli (GPa) = 80.41453 62.64667 107.14073
#
# Poissons Ratio (x) = 0.23392 0.38276
# Poissons Ratio (y) = 0.30027 0.27010
# Poissons Ratio (z) = 0.28728 0.15793
#
# Static dielectric constant tensor:
#      x y z
#    x 3.826790 0.000000 0.000000 
#    y 0.000000 3.633520 0.000000 
#    z 0.000000 0.000000 3.621590 
# 
# 
# High freq. dielectric constant tensor:
#      x y z
#    x 1.803420 0.000000 0.000000 
#    y 0.000000 1.787200 0.000000 
#    z 0.000000 0.000000 1.778130 
# 
# From -- ./inp_files/25523.got.cif
#   From: 2010.03.12/outbox.cif.g09.slc.cpg/sg59_13_cif.got.tgz:25523.got - 2010.04.16 16:29:54.
