data_PCOD8244535
_publ_section_title
;
Structure prediction by ZEFSAII (Michael W. Deem and Ramdas Pophale) SiO2 
 PCOD8244535
Probable space group: P M M N
;
_chemical_formula_sum "Si O2"
_cell_formula_units_Z 64
_cell_length_a 19.701318
_cell_length_b 8.835330
_cell_length_c 19.686357
_cell_angle_alpha 90.000000
_cell_angle_beta 90.000000
_cell_angle_gamma 90.000000
_cell_volume 3426.757821
_symmetry_space_group_name_H-M "P M M N"
_symmetry_group_IT_number 59
_space_group.IT_coordinate_system_code '2'
_symmetry_cell_setting 'orthorhombic'
loop_
_space_group_symop_operation_xyz
x,y,z
1/2-x,1/2-y,z
1/2+x,-y,-z
-x,1/2+y,-z
-x,-y,-z
1/2+x,1/2+y,-z
1/2-x,y,z
x,1/2-y,z
loop_
_atom_site_type_symbol
_atom_site_label
_atom_site_fract_x
_atom_site_fract_y
_atom_site_fract_z
Si Si1 0.171243 0.422532 0.431974
Si Si2 0.327904 0.423891 0.057612
Si Si3 0.567677 0.428067 0.470524
Si Si4 0.951429 0.576475 0.332916
Si Si5 0.575058 0.072696 0.837950
Si Si6 0.171581 0.423108 0.900427
Si Si7 0.563304 0.427275 0.190732
Si Si8 0.391884 0.921919 0.311307
O O1 0.250000 0.441437 0.447935
O O2 0.147366 0.250000 0.442199
O O3 0.131325 0.531207 0.482733
O O4 0.157117 0.469951 0.354136
O O5 0.250000 0.462441 0.074402
O O6 0.343613 0.250000 0.075929
O O7 0.375342 0.533432 0.100808
O O8 0.343399 0.455701 0.979155
O O9 0.500000 0.500000 0.500000
O O10 0.557948 0.250000 0.469005
O O11 0.582967 0.488082 0.395013
O O12 0.927984 0.750000 0.335305
O O13 0.925336 0.506352 0.262927
O O14 0.032239 0.562255 0.340037
O O15 0.558347 0.250000 0.837202
O O16 0.610459 0.025306 0.767055
O O17 0.504193 0.986065 0.846878
O O18 0.250000 0.454145 0.883844
O O19 0.152601 0.250000 0.882933
O O20 0.127484 0.537144 0.856161
O O21 0.557028 0.250000 0.202469
O O22 0.366141 0.750000 0.318502
#
# Coordination Sequence:
#
# PCOD8244535 Si02
#       8
#     8   8   8   8   8   8   8   8
#     4  11  24  39  56  82 116 152 191 237 286 337
#     4   9  19  36  57  81 110 146 190 237 287 344
#     4  12  23  37  61  88 114 149 190 235 282 335
#     4  10  20  37  60  86 114 145 185 232 279 336
#     4  10  21  36  55  81 115 152 191 234 282 337
#     4   9  19  38  61  82 109 148 190 234 288 349
#     4  11  22  36  57  86 117 148 186 237 286 335
#     4   9  19  35  55  78 107 146 187 227 275 334
#
# _framework density 18.676545000000001
#
# number of rings (size 3 to 8) (size 9 to 14) (size 15 to 20)
#    0.000    1.875    1.250    4.875    0.000    5.500 
#    0.000    4.375    0.000    3.750    0.000    0.000 
#    0.000    0.000    0.000    0.000    0.000    0.000 
#
# Total GULP energy -793888.693946 kJ/mol
# GULP energy per Si atom -12404.510843 kJ/mol
# Density = 1.863404 g / cm^3
# Si number density = 18.676545 Si / 1000 Ang^3
#
#
#
# Elastic Constant Matrix: (Units=GPa)
#
#
# Indices 1 2 3 4 5 6 
#
# 1 76.1722 46.2316 52.7070 0.0000 0.0000 0.0000
# 2 46.2316 126.2285 50.9595 0.0000 0.0000 0.0000
# 3 52.7070 50.9595 98.7514 0.0000 0.0000 0.0000
# 4 0.0000 0.0000 0.0000 36.3067 0.0000 0.0000
# 5 0.0000 0.0000 0.0000 0.0000 29.5446 0.0000
# 6 0.0000 0.0000 0.0000 0.0000 0.0000 30.8787
#
#
#
# Elastic Compliance Matrix: (Units=1/GPa)
#
#
# Indices 1 2 3 4 5 6 
#
# 1 0.022515 -0.004288 -0.009804 0.000000 0.000000 0.000000
# 2 -0.004288 0.010824 -0.003297 0.000000 0.000000 0.000000
# 3 -0.009804 -0.003297 0.017060 0.000000 0.000000 0.000000
# 4 0.000000 0.000000 0.000000 0.027543 0.000000 0.000000
# 5 0.000000 0.000000 0.000000 0.000000 0.033847 0.000000
# 6 0.000000 0.000000 0.000000 0.000000 0.000000 0.032385
#
#
# Mechanical properties :
#
#
# Convention : Reuss Voigt Hill
#
# Bulk Modulus (GPa) = 64.01631 66.77203 65.39417
# Shear Modulus (GPa) = 27.15060 29.42960 28.29010
#
# Velocity S-wave (km/s) = 3.81691 3.97388 3.89619
# Velocity P-wave (km/s) = 7.33320 7.54222 7.43844
#
# Compressibility (1/GPa) = 0.01562102
#
# Stress axis : x y z
#
# Youngs Moduli (GPa) = 44.41568 92.39097 58.61542
#
# Poissons Ratio (x) = 0.39618 0.57466
# Poissons Ratio (y) = 0.19046 0.19324
# Poissons Ratio (z) = 0.43545 0.30458
#
# Static dielectric constant tensor:
#      x y z
#    x 3.228740 0.000000 0.000000 
#    y 0.000000 3.459890 0.000000 
#    z 0.000000 0.000000 3.513210 
# 
# 
# High freq. dielectric constant tensor:
#      x y z
#    x 1.708760 0.000000 0.000000 
#    y 0.000000 1.731960 0.000000 
#    z 0.000000 0.000000 1.732450 
# 
# From -- ./inp_files/28140.got.cif
#   From: 2010.03.12/outbox.cif.g09.slc.cpg/sg59_15_cif.got.tgz:28140.got - 2010.04.16 16:29:54.
