data_PCOD8244604
_publ_section_title
;
Structure prediction by ZEFSAII (Michael W. Deem and Ramdas Pophale) SiO2 
 PCOD8244604
Probable space group: P M M N
;
_chemical_formula_sum "Si O2"
_cell_formula_units_Z 56
_cell_length_a 8.800147
_cell_length_b 22.386879
_cell_length_c 14.690624
_cell_angle_alpha 90.000000
_cell_angle_beta 90.000000
_cell_angle_gamma 90.000000
_cell_volume 2894.167898
_symmetry_space_group_name_H-M "P M M N"
_symmetry_group_IT_number 59
_space_group.IT_coordinate_system_code '2'
_symmetry_cell_setting 'orthorhombic'
loop_
_space_group_symop_operation_xyz
x,y,z
1/2-x,1/2-y,z
1/2+x,-y,-z
-x,1/2+y,-z
-x,-y,-z
1/2+x,1/2+y,-z
1/2-x,y,z
x,1/2-y,z
loop_
_atom_site_type_symbol
_atom_site_label
_atom_site_fract_x
_atom_site_fract_y
_atom_site_fract_z
Si Si1 0.572111 0.015694 0.904206
Si Si2 0.924221 0.087622 0.199361
Si Si3 0.923971 0.819659 0.921873
Si Si4 0.425653 0.816931 0.297053
Si Si5 0.576344 0.446987 0.398785
Si Si6 0.429651 0.360692 0.879315
Si Si7 0.426738 0.081986 0.580400
O O1 0.750000 0.025176 0.916553
O O2 0.497505 0.074204 0.861849
O O3 0.538952 0.962308 0.835810
O O4 0.500000 0.000000 0.000000
O O5 0.750000 0.071825 0.174270
O O6 0.944624 0.091731 0.307753
O O7 0.970203 0.150055 0.153810
O O8 0.750000 0.841128 0.910349
O O9 0.939668 0.750000 0.906163
O O10 0.982926 0.836211 0.022675
O O11 0.250000 0.830358 0.279621
O O12 0.449985 0.750000 0.337318
O O13 0.510225 0.818280 0.200148
O O14 0.486125 0.866286 0.366553
O O15 0.750000 0.445442 0.433561
O O16 0.529903 0.516289 0.380729
O O17 0.471131 0.416162 0.474173
O O18 0.250000 0.363638 0.873293
O O19 0.250000 0.095450 0.591739
#
# Coordination Sequence:
#
# PCOD8244604 Si02
#       7
#     8   8   8   8   8   8   8
#     4  12  23  36  56  85 119 155 193 239 291 343
#     4  11  22  37  59  86 117 154 193 237 288 346
#     4  10  22  39  57  78 110 153 197 242 288 336
#     4  11  24  40  59  86 121 160 200 244 294 352
#     4   9  20  38  60  88 119 149 187 236 293 354
#     4  11  22  38  60  85 115 154 197 243 294 347
#     4  10  20  37  63  90 116 149 190 240 296 352
#
# _framework density 19.349257000000001
#
# number of rings (size 3 to 8) (size 9 to 14) (size 15 to 20)
#    0.000    1.429    1.429    4.286    0.000    5.429 
#    0.000    0.714    0.000    0.857    0.000    0.000 
#    0.000    0.000    0.000    0.000    0.000    0.000 
#
# Total GULP energy -694614.645555 kJ/mol
# GULP energy per Si atom -12403.832956 kJ/mol
# Density = 1.930522 g / cm^3
# Si number density = 19.349257 Si / 1000 Ang^3
#
#
#
# Elastic Constant Matrix: (Units=GPa)
#
#
# Indices 1 2 3 4 5 6 
#
# 1 94.7171 42.0449 47.3998 0.0000 0.0000 0.0000
# 2 42.0449 97.8946 50.7082 0.0000 0.0000 0.0000
# 3 47.3998 50.7082 108.0536 0.0000 0.0000 0.0000
# 4 0.0000 0.0000 0.0000 28.2241 0.0000 0.0000
# 5 0.0000 0.0000 0.0000 0.0000 34.9308 0.0000
# 6 0.0000 0.0000 0.0000 0.0000 0.0000 31.7440
#
#
#
# Elastic Compliance Matrix: (Units=1/GPa)
#
#
# Indices 1 2 3 4 5 6 
#
# 1 0.014570 -0.003894 -0.004564 0.000000 0.000000 0.000000
# 2 -0.003894 0.014536 -0.005114 0.000000 0.000000 0.000000
# 3 -0.004564 -0.005114 0.013657 0.000000 0.000000 0.000000
# 4 0.000000 0.000000 0.000000 0.035431 0.000000 0.000000
# 5 0.000000 0.000000 0.000000 0.000000 0.028628 0.000000
# 6 0.000000 0.000000 0.000000 0.000000 0.000000 0.031502
#
#
# Mechanical properties :
#
#
# Convention : Reuss Voigt Hill
#
# Bulk Modulus (GPa) = 64.02044 64.55235 64.28639
# Shear Modulus (GPa) = 29.29571 29.68061 29.48816
#
# Velocity S-wave (km/s) = 3.89530 3.92080 3.90807
# Velocity P-wave (km/s) = 7.30683 7.34378 7.32532
#
# Compressibility (1/GPa) = 0.01562001
#
# Stress axis : x y z
#
# Youngs Moduli (GPa) = 68.63297 68.79423 73.22427
#
# Poissons Ratio (x) = 0.26785 0.33422
# Poissons Ratio (y) = 0.26722 0.37444
# Poissons Ratio (z) = 0.31326 0.35179
#
# Static dielectric constant tensor:
#      x y z
#    x 3.994520 0.000000 0.000000 
#    y 0.000000 3.502390 0.000000 
#    z 0.000000 0.000000 3.637610 
# 
# 
# High freq. dielectric constant tensor:
#      x y z
#    x 1.762620 0.000000 0.000000 
#    y 0.000000 1.749220 0.000000 
#    z 0.000000 0.000000 1.750710 
# 
# From -- ./inp_files/20972.got.cif
#   From: 2010.03.12/outbox.cif.g09.slc.cpg/sg59_11_cif.got.tgz:20972.got - 2010.04.16 16:29:54.
