data_PCOD8244246
_publ_section_title
;
Structure prediction by ZEFSAII (Michael W. Deem and Ramdas Pophale) SiO2 
 PCOD8244246
Probable space group: P M M N
;
_chemical_formula_sum "Si O2"
_cell_formula_units_Z 48
_cell_length_a 9.132125
_cell_length_b 34.717150
_cell_length_c 7.793685
_cell_angle_alpha 90.000000
_cell_angle_beta 90.000000
_cell_angle_gamma 90.000000
_cell_volume 2470.920441
_symmetry_space_group_name_H-M "P M M N"
_symmetry_group_IT_number 59
_space_group.IT_coordinate_system_code '2'
_symmetry_cell_setting 'orthorhombic'
loop_
_space_group_symop_operation_xyz
x,y,z
1/2-x,1/2-y,z
1/2+x,-y,-z
-x,1/2+y,-z
-x,-y,-z
1/2+x,1/2+y,-z
1/2-x,y,z
x,1/2-y,z
loop_
_atom_site_type_symbol
_atom_site_label
_atom_site_fract_x
_atom_site_fract_y
_atom_site_fract_z
Si Si1 0.424194 0.501993 0.319663
Si Si2 0.077183 0.651219 0.217913
Si Si3 0.922075 0.346529 0.176461
Si Si4 0.409449 0.079536 0.187338
Si Si5 0.411910 0.076116 0.791092
Si Si6 0.576240 0.292979 0.480129
O O1 0.500000 0.500000 0.500000
O O2 0.250000 0.506631 0.331682
O O3 0.472691 0.462777 0.225289
O O4 0.490464 0.538115 0.220864
O O5 0.250000 0.643580 0.228795
O O6 0.026586 0.685075 0.346384
O O7 0.997094 0.612712 0.287253
O O8 0.032161 0.662279 0.021433
O O9 0.750000 0.350349 0.190418
O O10 0.980605 0.313344 0.304891
O O11 0.983794 0.386812 0.251048
O O12 0.250000 0.084108 0.277034
O O13 0.389519 0.085001 0.987642
O O14 0.250000 0.071049 0.704583
O O15 0.750000 0.291078 0.475344
O O16 0.509191 0.250000 0.485783
#
# Coordination Sequence:
#
# PCOD8244246 Si02
#       6
#     8   8   8   8   8   8
#     4  11  23  36  51  77 109 142 180 221 264 315
#     4   9  18  33  53  78 107 140 178 220 268 320
#     4   9  18  32  53  79 105 138 178 219 266 319
#     4   9  20  37  55  75 103 139 178 220 268 316
#     4  10  20  36  56  77 103 139 179 223 270 315
#     4   9  18  32  52  80 109 136 172 220 271 322
#
# _framework density 19.425958000000001
#
# number of rings (size 3 to 8) (size 9 to 14) (size 15 to 20)
#    0.000    2.500    0.000    1.500    2.333    2.667 
#    0.000    3.333    0.000    2.000    0.000    4.667 
#    0.000    0.000    0.000    0.000    0.000    0.000 
#
# Total GULP energy -594891.106983 kJ/mol
# GULP energy per Si atom -12393.564729 kJ/mol
# Density = 1.938174 g / cm^3
# Si number density = 19.425958 Si / 1000 Ang^3
#
#
#
# Elastic Constant Matrix: (Units=GPa)
#
#
# Indices 1 2 3 4 5 6 
#
# 1 60.5213 49.3014 28.3768 0.0000 0.0000 0.0000
# 2 49.3014 187.5773 62.3434 0.0000 0.0000 0.0000
# 3 28.3768 62.3434 82.5900 0.0000 0.0000 0.0000
# 4 0.0000 0.0000 0.0000 34.9484 0.0000 0.0000
# 5 0.0000 0.0000 0.0000 0.0000 15.3025 0.0000
# 6 0.0000 0.0000 0.0000 0.0000 0.0000 24.9458
#
#
#
# Elastic Compliance Matrix: (Units=1/GPa)
#
#
# Indices 1 2 3 4 5 6 
#
# 1 0.022105 -0.004386 -0.004284 0.000000 0.000000 0.000000
# 2 -0.004386 0.007987 -0.004522 0.000000 0.000000 0.000000
# 3 -0.004284 -0.004522 0.016993 0.000000 0.000000 0.000000
# 4 0.000000 0.000000 0.000000 0.028614 0.000000 0.000000
# 5 0.000000 0.000000 0.000000 0.000000 0.065349 0.000000
# 6 0.000000 0.000000 0.000000 0.000000 0.000000 0.040087
#
#
# Mechanical properties :
#
#
# Convention : Reuss Voigt Hill
#
# Bulk Modulus (GPa) = 48.30714 67.85909 58.08311
# Shear Modulus (GPa) = 23.31889 27.75048 25.53469
#
# Velocity S-wave (km/s) = 3.46844 3.78368 3.62948
# Velocity P-wave (km/s) = 6.40011 7.35502 6.89412
#
# Compressibility (1/GPa) = 0.02070087
#
# Stress axis : x y z
#
# Youngs Moduli (GPa) = 45.23933 125.20630 58.84649
#
# Poissons Ratio (x) = 0.54915 0.25210
# Poissons Ratio (y) = 0.19842 0.26610
# Poissons Ratio (z) = 0.19381 0.56618
#
# Static dielectric constant tensor:
#      x y z
#    x 3.732860 0.000000 0.000000 
#    y 0.000000 2.351520 0.000000 
#    z 0.000000 0.000000 2.981660 
# 
# 
# High freq. dielectric constant tensor:
#      x y z
#    x 1.736470 0.000000 0.000000 
#    y 0.000000 1.757850 0.000000 
#    z 0.000000 0.000000 1.757030 
# 
# From -- ./inp_files/6280.got.cif
#   From: 2010.03.12/outbox.cif.g09.slc.cpg/sg59_4_cif.got.tgz:6280.got - 2010.04.16 16:29:54.
