data_PCOD8244421
_publ_section_title
;
Structure prediction by ZEFSAII (Michael W. Deem and Ramdas Pophale) SiO2 
 PCOD8244421
Probable space group: P M M N
;
_chemical_formula_sum "Si O2"
_cell_formula_units_Z 48
_cell_length_a 8.968258
_cell_length_b 7.806382
_cell_length_c 34.176334
_cell_angle_alpha 90.000000
_cell_angle_beta 90.000000
_cell_angle_gamma 90.000000
_cell_volume 2392.673107
_symmetry_space_group_name_H-M "P M M N"
_symmetry_group_IT_number 59
_space_group.IT_coordinate_system_code '2'
_symmetry_cell_setting 'orthorhombic'
loop_
_space_group_symop_operation_xyz
x,y,z
1/2-x,1/2-y,z
1/2+x,-y,-z
-x,1/2+y,-z
-x,-y,-z
1/2+x,1/2+y,-z
1/2-x,y,z
x,1/2-y,z
loop_
_atom_site_type_symbol
_atom_site_label
_atom_site_fract_x
_atom_site_fract_y
_atom_site_fract_z
Si Si1 0.927004 0.450474 0.040861
Si Si2 0.573103 0.439353 0.228205
Si Si3 0.571143 0.250000 0.909789
Si Si4 0.409366 0.943587 0.537229
Si Si5 0.572291 0.750000 0.173656
Si Si6 0.914690 0.055619 0.610439
Si Si7 0.581700 0.049906 0.315088
O O1 0.750000 0.483713 0.039315
O O2 0.959288 0.250000 0.050866
O O3 0.001883 0.575841 0.072438
O O4 0.000000 0.500000 0.000000
O O5 0.750000 0.433464 0.230699
O O6 0.514235 0.250000 0.215357
O O7 0.521495 0.581677 0.197411
O O8 0.514718 0.485870 0.271716
O O9 0.750000 0.250000 0.915545
O O10 0.526361 0.250000 0.864833
O O11 0.250000 0.043283 0.539295
O O12 0.372511 0.750000 0.529815
O O13 0.500000 0.000000 0.500000
O O14 0.492071 0.955857 0.578385
O O15 0.750000 0.750000 0.164769
O O16 0.750000 0.974522 0.612180
O O17 0.907504 0.250000 0.596395
O O18 0.983862 0.048839 0.653519
O O19 0.750000 0.979689 0.317900
O O20 0.577568 0.250000 0.324581
#
# Coordination Sequence:
#
# PCOD8244421 Si02
#       7
#     8   8   4   8   4   8   8
#     4  11  23  40  66  96 127 165 211 265 323 380
#     4   8  16  32  56  86 116 147 193 252 306 362
#     4  12  26  42  60  90 132 176 216 262 316 380
#     4  11  24  41  61  84 109 140 180 224 271 329
#     4  10  20  36  60  86 116 160 210 258 312 368
#     4  11  24  38  53  80 115 148 185 228 273 331
#     4   9  18  34  57  85 113 143 185 237 291 345
#
# _framework density 20.061243999999999
#
# number of rings (size 3 to 8) (size 9 to 14) (size 15 to 20)
#    0.000    1.833    0.833    4.250    1.167    8.667 
#    0.000    2.500    0.000    1.000    0.000    0.000 
#    0.000    0.000    0.000    0.000    0.000    0.000 
#
# Total GULP energy -594982.811041 kJ/mol
# GULP energy per Si atom -12395.475230 kJ/mol
# Density = 2.001558 g / cm^3
# Si number density = 20.061244 Si / 1000 Ang^3
#
#
#
# Elastic Constant Matrix: (Units=GPa)
#
#
# Indices 1 2 3 4 5 6 
#
# 1 130.8474 49.3298 60.8136 0.0000 0.0000 0.0000
# 2 49.3298 115.8016 63.2316 0.0000 0.0000 0.0000
# 3 60.8136 63.2316 151.4104 0.0000 0.0000 0.0000
# 4 0.0000 0.0000 0.0000 37.3547 0.0000 0.0000
# 5 0.0000 0.0000 0.0000 0.0000 34.4629 0.0000
# 6 0.0000 0.0000 0.0000 0.0000 0.0000 21.3964
#
#
#
# Elastic Compliance Matrix: (Units=1/GPa)
#
#
# Indices 1 2 3 4 5 6 
#
# 1 0.009999 -0.002677 -0.002898 0.000000 0.000000 0.000000
# 2 -0.002677 0.011903 -0.003896 0.000000 0.000000 0.000000
# 3 -0.002898 -0.003896 0.009395 0.000000 0.000000 0.000000
# 4 0.000000 0.000000 0.000000 0.026770 0.000000 0.000000
# 5 0.000000 0.000000 0.000000 0.000000 0.029017 0.000000
# 6 0.000000 0.000000 0.000000 0.000000 0.000000 0.046737
#
#
# Mechanical properties :
#
#
# Convention : Reuss Voigt Hill
#
# Bulk Modulus (GPa) = 80.93340 82.75659 81.84500
# Shear Modulus (GPa) = 31.87135 33.62176 32.74656
#
# Velocity S-wave (km/s) = 3.99018 4.09829 4.04459
# Velocity P-wave (km/s) = 7.85235 7.98349 7.91819
#
# Compressibility (1/GPa) = 0.01235584
#
# Stress axis : x y z
#
# Youngs Moduli (GPa) = 100.01439 84.01272 106.43421
#
# Poissons Ratio (x) = 0.22489 0.30845
# Poissons Ratio (y) = 0.26772 0.41464
# Poissons Ratio (z) = 0.28984 0.32729
#
# Static dielectric constant tensor:
#      x y z
#    x 3.558260 0.000000 0.000000 
#    y 0.000000 4.452300 0.000000 
#    z 0.000000 0.000000 3.708240 
# 
# 
# High freq. dielectric constant tensor:
#      x y z
#    x 1.770410 0.000000 0.000000 
#    y 0.000000 1.791780 0.000000 
#    z 0.000000 0.000000 1.785670 
# 
# From -- ./inp_files/33030.got.cif
#   From: 2010.03.12/outbox.cif.g09.slc.cpg/sg59_17_cif.got.tgz:33030.got - 2010.04.16 16:29:54.
