data_PCOD8244423
_publ_section_title
;
Structure prediction by ZEFSAII (Michael W. Deem and Ramdas Pophale) SiO2 
 PCOD8244423
Probable space group: P M M N
;
_chemical_formula_sum "Si O2"
_cell_formula_units_Z 64
_cell_length_a 8.974766
_cell_length_b 23.083174
_cell_length_c 15.727075
_cell_angle_alpha 90.000000
_cell_angle_beta 90.000000
_cell_angle_gamma 90.000000
_cell_volume 3258.116559
_symmetry_space_group_name_H-M "P M M N"
_symmetry_group_IT_number 59
_space_group.IT_coordinate_system_code '2'
_symmetry_cell_setting 'orthorhombic'
loop_
_space_group_symop_operation_xyz
x,y,z
1/2-x,1/2-y,z
1/2+x,-y,-z
-x,1/2+y,-z
-x,-y,-z
1/2+x,1/2+y,-z
1/2-x,y,z
x,1/2-y,z
loop_
_atom_site_type_symbol
_atom_site_label
_atom_site_fract_x
_atom_site_fract_y
_atom_site_fract_z
Si Si1 0.924943 0.999585 0.908430
Si Si2 0.080216 0.315125 0.172510
Si Si3 0.577028 0.079129 0.220572
Si Si4 0.920028 0.919470 0.442654
Si Si5 0.075519 0.183927 0.675519
Si Si6 0.580186 0.969902 0.621109
Si Si7 0.422765 0.621299 0.166598
Si Si8 0.915613 0.815889 0.023565
O O1 0.750000 0.995227 0.923418
O O2 0.965529 0.054110 0.847685
O O3 0.984355 0.943649 0.859826
O O4 0.000000 0.000000 0.000000
O O5 0.250000 0.335486 0.186975
O O6 0.059785 0.250000 0.205119
O O7 0.967917 0.353568 0.228303
O O8 0.036353 0.319934 0.073923
O O9 0.750000 0.070478 0.203485
O O10 0.533745 0.047694 0.306690
O O11 0.750000 0.935420 0.416197
O O12 0.960356 0.854751 0.408700
O O13 0.935403 0.923479 0.544603
O O14 0.036476 0.965066 0.404601
O O15 0.250000 0.188377 0.690693
O O16 0.011048 0.250000 0.665704
O O17 0.011052 0.150189 0.756378
O O18 0.750000 0.971343 0.654940
O O19 0.250000 0.629311 0.186437
O O20 0.461273 0.651452 0.077878
O O21 0.750000 0.842852 0.037089
O O22 0.912165 0.750000 0.054496
#
# Coordination Sequence:
#
# PCOD8244423 Si02
#       8
#     8   8   8   8   8   8   8   8
#     4  11  24  40  57  81 114 151 192 239 291 342
#     4   9  19  37  59  80 104 138 180 226 276 326
#     4  12  24  37  56  83 114 147 184 225 272 329
#     4   9  19  37  60  85 111 140 180 230 283 338
#     4  10  21  37  57  81 111 148 188 229 277 339
#     4  10  20  36  60  87 113 143 182 230 283 338
#     4  11  23  35  50  77 110 144 184 229 276 327
#     4   9  18  33  53  75 100 136 181 224 266 316
#
# _framework density 19.643249999999998
#
# number of rings (size 3 to 8) (size 9 to 14) (size 15 to 20)
#    0.000    1.875    0.000    4.875    0.000    9.750 
#    0.000    1.875    0.000    2.250    0.000    0.000 
#    0.000    0.000    0.000    0.000    0.000    0.000 
#
# Total GULP energy -793551.914593 kJ/mol
# GULP energy per Si atom -12399.248666 kJ/mol
# Density = 1.959854 g / cm^3
# Si number density = 19.643250 Si / 1000 Ang^3
#
#
#
# Elastic Constant Matrix: (Units=GPa)
#
#
# Indices 1 2 3 4 5 6 
#
# 1 71.3961 46.9316 37.3247 0.0000 0.0000 0.0000
# 2 46.9316 103.5958 37.1455 0.0000 0.0000 0.0000
# 3 37.3247 37.1455 67.4966 0.0000 0.0000 0.0000
# 4 0.0000 0.0000 0.0000 31.7610 0.0000 0.0000
# 5 0.0000 0.0000 0.0000 0.0000 30.3804 0.0000
# 6 0.0000 0.0000 0.0000 0.0000 0.0000 28.8772
#
#
#
# Elastic Compliance Matrix: (Units=1/GPa)
#
#
# Indices 1 2 3 4 5 6 
#
# 1 0.023596 -0.007489 -0.008927 0.000000 0.000000 0.000000
# 2 -0.007489 0.014403 -0.003785 0.000000 0.000000 0.000000
# 3 -0.008927 -0.003785 0.021835 0.000000 0.000000 0.000000
# 4 0.000000 0.000000 0.000000 0.031485 0.000000 0.000000
# 5 0.000000 0.000000 0.000000 0.000000 0.032916 0.000000
# 6 0.000000 0.000000 0.000000 0.000000 0.000000 0.034629
#
#
# Mechanical properties :
#
#
# Convention : Reuss Voigt Hill
#
# Bulk Modulus (GPa) = 51.46104 53.92136 52.69120
# Shear Modulus (GPa) = 24.30218 26.27617 25.28918
#
# Velocity S-wave (km/s) = 3.52117 3.66138 3.59196
# Velocity P-wave (km/s) = 6.54112 6.73678 6.63967
#
# Compressibility (1/GPa) = 0.01943218
#
# Stress axis : x y z
#
# Youngs Moduli (GPa) = 42.38040 69.43160 45.79784
#
# Poissons Ratio (x) = 0.51995 0.40883
# Poissons Ratio (y) = 0.31737 0.17335
# Poissons Ratio (z) = 0.37833 0.26281
#
# Static dielectric constant tensor:
#      x y z
#    x 3.510030 0.000000 0.000000 
#    y 0.000000 3.856230 0.000000 
#    z 0.000000 0.000000 3.481580 
# 
# 
# High freq. dielectric constant tensor:
#      x y z
#    x 1.762730 0.000000 0.000000 
#    y 0.000000 1.770750 0.000000 
#    z 0.000000 0.000000 1.755750 
# 
# From -- ./inp_files/21602.got.cif
#   From: 2010.03.12/outbox.cif.g09.slc.cpg/sg59_11_cif.got.tgz:21602.got - 2010.04.16 16:29:54.
