data_PCOD8244197
_publ_section_title
;
Structure prediction by ZEFSAII (Michael W. Deem and Ramdas Pophale) SiO2 
 PCOD8244197
Probable space group: P M M N
;
_chemical_formula_sum "Si O2"
_cell_formula_units_Z 64
_cell_length_a 14.447105
_cell_length_b 8.658095
_cell_length_c 24.343963
_cell_angle_alpha 90.000000
_cell_angle_beta 90.000000
_cell_angle_gamma 90.000000
_cell_volume 3045.050190
_symmetry_space_group_name_H-M "P M M N"
_symmetry_group_IT_number 59
_space_group.IT_coordinate_system_code '2'
_symmetry_cell_setting 'orthorhombic'
loop_
_space_group_symop_operation_xyz
x,y,z
1/2-x,1/2-y,z
1/2+x,-y,-z
-x,1/2+y,-z
-x,-y,-z
1/2+x,1/2+y,-z
1/2-x,y,z
x,1/2-y,z
loop_
_atom_site_type_symbol
_atom_site_label
_atom_site_fract_x
_atom_site_fract_y
_atom_site_fract_z
Si Si1 0.852434 0.076605 0.613567
Si Si2 0.355108 0.069181 0.079689
Si Si3 0.974347 0.930185 0.131336
Si Si4 0.150666 0.076910 0.274677
Si Si5 0.642147 0.072705 0.036759
Si Si6 0.856847 0.567511 0.349156
Si Si7 0.983724 0.071946 0.440895
Si Si8 0.549267 0.072104 0.241045
O O1 0.750000 0.057457 0.587824
O O2 0.890092 0.250000 0.602096
O O3 0.849130 0.051385 0.678341
O O4 0.918632 0.947298 0.589048
O O5 0.250000 0.028699 0.097607
O O6 0.366192 0.250000 0.068886
O O7 0.425925 0.014471 0.126677
O O8 0.382994 0.979435 0.024462
O O9 0.991735 0.750000 0.136856
O O10 0.912190 0.965572 0.078798
O O11 0.917650 0.989502 0.185196
O O12 0.250000 0.062499 0.242441
O O13 0.143094 0.250000 0.300194
O O14 0.061763 0.048325 0.237221
O O15 0.750000 0.049916 0.048299
O O16 0.611397 0.250000 0.044488
O O17 0.750000 0.514533 0.348482
O O18 0.866109 0.750000 0.347210
O O19 0.902847 0.508709 0.405635
O O20 0.908307 0.500649 0.295912
O O21 0.957278 0.250000 0.446688
O O22 0.000000 0.000000 0.500000
O O23 0.579198 0.250000 0.240017
#
# Coordination Sequence:
#
# PCOD8244197 Si02
#       8
#     8   8   8   8   8   8   8   8
#     4  10  20  35  59  90 123 157 194 240 294 356
#     4  10  21  39  63  90 123 163 206 255 314 380
#     4  12  25  39  59  88 125 166 209 261 314 370
#     4   9  18  34  58  87 117 152 193 238 295 361
#     4  10  21  39  63  89 119 157 205 261 318 378
#     4  11  25  46  70  95 127 168 212 259 313 372
#     4  12  25  42  66  95 128 166 206 256 309 364
#     4  11  23  40  63  91 124 166 211 258 309 366
#
# _framework density 21.017717000000001
#
# number of rings (size 3 to 8) (size 9 to 14) (size 15 to 20)
#    0.000    1.375    1.250    4.500    0.000    5.250 
#    0.000    1.250    0.000    0.000    0.000    0.000 
#    0.000    0.000    0.000    0.000    0.000    0.000 
#
# Total GULP energy -793485.088871 kJ/mol
# GULP energy per Si atom -12398.204514 kJ/mol
# Density = 2.096988 g / cm^3
# Si number density = 21.017717 Si / 1000 Ang^3
#
#
#
# Elastic Constant Matrix: (Units=GPa)
#
#
# Indices 1 2 3 4 5 6 
#
# 1 95.9703 38.5830 41.3311 0.0000 0.0000 0.0000
# 2 38.5830 101.1522 31.3949 0.0000 0.0000 0.0000
# 3 41.3311 31.3949 100.2721 0.0000 0.0000 0.0000
# 4 0.0000 0.0000 0.0000 35.8212 0.0000 0.0000
# 5 0.0000 0.0000 0.0000 0.0000 12.1577 0.0000
# 6 0.0000 0.0000 0.0000 0.0000 0.0000 31.8646
#
#
#
# Elastic Compliance Matrix: (Units=1/GPa)
#
#
# Indices 1 2 3 4 5 6 
#
# 1 0.013940 -0.003914 -0.004521 0.000000 0.000000 0.000000
# 2 -0.003914 0.012049 -0.002159 0.000000 0.000000 0.000000
# 3 -0.004521 -0.002159 0.012512 0.000000 0.000000 0.000000
# 4 0.000000 0.000000 0.000000 0.027916 0.000000 0.000000
# 5 0.000000 0.000000 0.000000 0.000000 0.082252 0.000000
# 6 0.000000 0.000000 0.000000 0.000000 0.000000 0.031383
#
#
# Mechanical properties :
#
#
# Convention : Reuss Voigt Hill
#
# Bulk Modulus (GPa) = 57.75705 57.77917 57.76811
# Shear Modulus (GPa) = 24.15313 28.37443 26.26378
#
# Velocity S-wave (km/s) = 3.39363 3.67825 3.53881
# Velocity P-wave (km/s) = 6.54946 6.75202 6.65151
#
# Compressibility (1/GPa) = 0.01731390
#
# Stress axis : x y z
#
# Youngs Moduli (GPa) = 71.73405 82.99240 79.92195
#
# Poissons Ratio (x) = 0.32486 0.36129
# Poissons Ratio (y) = 0.28079 0.17257
# Poissons Ratio (z) = 0.32428 0.17919
#
# Static dielectric constant tensor:
#      x y z
#    x 3.133170 0.000000 0.000000 
#    y 0.000000 3.803740 0.000000 
#    z 0.000000 0.000000 2.953540 
# 
# 
# High freq. dielectric constant tensor:
#      x y z
#    x 1.830950 0.000000 0.000000 
#    y 0.000000 1.832770 0.000000 
#    z 0.000000 0.000000 1.813890 
# 
# From -- ./inp_files/32115.got.cif
#   From: 2010.03.12/outbox.cif.g09.slc.cpg/sg59_17_cif.got.tgz:32115.got - 2010.04.16 16:29:54.
