data_PCOD8244904
_publ_section_title
;
Structure prediction by ZEFSAII (Michael W. Deem and Ramdas Pophale) SiO2 
 PCOD8244904
Probable space group: P M M N
;
_chemical_formula_sum "Si O2"
_cell_formula_units_Z 64
_cell_length_a 8.892479
_cell_length_b 18.236150
_cell_length_c 21.195536
_cell_angle_alpha 90.000000
_cell_angle_beta 90.000000
_cell_angle_gamma 90.000000
_cell_volume 3437.165213
_symmetry_space_group_name_H-M "P M M N"
_symmetry_group_IT_number 59
_space_group.IT_coordinate_system_code '2'
_symmetry_cell_setting 'orthorhombic'
loop_
_space_group_symop_operation_xyz
x,y,z
1/2-x,1/2-y,z
1/2+x,-y,-z
-x,1/2+y,-z
-x,-y,-z
1/2+x,1/2+y,-z
1/2-x,y,z
x,1/2-y,z
loop_
_atom_site_type_symbol
_atom_site_label
_atom_site_fract_x
_atom_site_fract_y
_atom_site_fract_z
Si Si1 0.423851 0.958903 0.680852
Si Si2 0.079009 0.665008 0.882485
Si Si3 0.075822 0.335077 0.245632
Si Si4 0.927665 0.030814 0.562767
Si Si5 0.427999 0.921227 0.005368
Si Si6 0.575026 0.666426 0.380936
Si Si7 0.578071 0.895851 0.247733
Si Si8 0.571983 0.167174 0.873651
O O1 0.250000 0.954530 0.660896
O O2 0.479593 0.880190 0.704096
O O3 0.520209 0.980359 0.620314
O O4 0.447064 0.018587 0.736244
O O5 0.250000 0.643666 0.864678
O O6 0.066499 0.750000 0.898994
O O7 0.021225 0.622708 0.943622
O O8 0.972889 0.642721 0.824702
O O9 0.250000 0.354062 0.253940
O O10 0.041342 0.250000 0.258436
O O11 0.750000 0.028136 0.556793
O O12 0.979431 0.114794 0.573023
O O13 0.000000 0.000000 0.500000
O O14 0.250000 0.928925 0.009282
O O15 0.490809 0.878117 0.066512
O O16 0.500000 0.000000 0.000000
O O17 0.750000 0.646702 0.390067
O O18 0.539381 0.750000 0.399098
O O19 0.530750 0.652706 0.308159
O O20 0.750000 0.880103 0.228934
O O21 0.474017 0.874331 0.189784
O O22 0.750000 0.170401 0.876693
O O23 0.506102 0.250000 0.874884
#
# Coordination Sequence:
#
# PCOD8244904 Si02
#       8
#     8   8   8   8   8   8   8   8
#     4  10  21  38  59  83 113 149 187 226 270 326
#     4   9  18  35  57  75  97 137 184 226 273 332
#     4  10  21  36  56  84 114 141 177 230 287 336
#     4  11  22  38  60  86 118 154 192 232 276 326
#     4  10  22  37  52  73 101 137 180 227 276 328
#     4   9  18  35  58  84 116 152 190 232 277 325
#     4   9  19  34  54  81 111 143 179 220 268 322
#     4  10  21  36  53  75 105 140 177 221 273 327
#
# _framework density 18.619994999999999
#
# number of rings (size 3 to 8) (size 9 to 14) (size 15 to 20)
#    0.000    2.250    0.000    3.375    1.750    6.750 
#    0.000    0.625    0.000    6.000    0.000    0.000 
#    0.000    0.000    0.000    0.000    0.000    0.000 
#
# Total GULP energy -793778.977784 kJ/mol
# GULP energy per Si atom -12402.796528 kJ/mol
# Density = 1.857762 g / cm^3
# Si number density = 18.619995 Si / 1000 Ang^3
#
#
#
# Elastic Constant Matrix: (Units=GPa)
#
#
# Indices 1 2 3 4 5 6 
#
# 1 80.6623 51.3665 46.6184 0.0000 0.0000 0.0000
# 2 51.3665 108.9834 71.9602 0.0000 0.0000 0.0000
# 3 46.6184 71.9602 106.8574 0.0000 0.0000 0.0000
# 4 0.0000 0.0000 0.0000 26.5246 0.0000 0.0000
# 5 0.0000 0.0000 0.0000 0.0000 33.4666 0.0000
# 6 0.0000 0.0000 0.0000 0.0000 0.0000 33.1849
#
#
#
# Elastic Compliance Matrix: (Units=1/GPa)
#
#
# Indices 1 2 3 4 5 6 
#
# 1 0.018610 -0.006141 -0.003983 0.000000 0.000000 0.000000
# 2 -0.006141 0.018549 -0.009812 0.000000 0.000000 0.000000
# 3 -0.003983 -0.009812 0.017704 0.000000 0.000000 0.000000
# 4 0.000000 0.000000 0.000000 0.037701 0.000000 0.000000
# 5 0.000000 0.000000 0.000000 0.000000 0.029881 0.000000
# 6 0.000000 0.000000 0.000000 0.000000 0.000000 0.030134
#
#
# Mechanical properties :
#
#
# Convention : Reuss Voigt Hill
#
# Bulk Modulus (GPa) = 66.71301 70.71037 68.71169
# Shear Modulus (GPa) = 25.32299 27.07242 26.19770
#
# Velocity S-wave (km/s) = 3.69180 3.81720 3.75502
# Velocity P-wave (km/s) = 7.35384 7.58195 7.46877
#
# Compressibility (1/GPa) = 0.01498958
#
# Stress axis : x y z
#
# Youngs Moduli (GPa) = 53.73336 53.91109 56.48512
#
# Poissons Ratio (x) = 0.33109 0.22500
# Poissons Ratio (y) = 0.33000 0.55424
# Poissons Ratio (z) = 0.21404 0.52898
#
# Static dielectric constant tensor:
#      x y z
#    x 3.239750 0.000000 0.000000 
#    y 0.000000 3.528270 0.000000 
#    z 0.000000 0.000000 3.386100 
# 
# 
# High freq. dielectric constant tensor:
#      x y z
#    x 1.718400 0.000000 0.000000 
#    y 0.000000 1.730010 0.000000 
#    z 0.000000 0.000000 1.717910 
# 
# From -- ./inp_files/29492.got.cif
#   From: 2010.03.12/outbox.cif.g09.slc.cpg/sg59_15_cif.got.tgz:29492.got - 2010.04.16 16:29:54.
