data_PCOD8244411
_publ_section_title
;
Structure prediction by ZEFSAII (Michael W. Deem and Ramdas Pophale) SiO2 
 PCOD8244411
Probable space group: P M M N
;
_chemical_formula_sum "Si O2"
_cell_formula_units_Z 56
_cell_length_a 16.232830
_cell_length_b 8.743576
_cell_length_c 19.721361
_cell_angle_alpha 90.000000
_cell_angle_beta 90.000000
_cell_angle_gamma 90.000000
_cell_volume 2799.111592
_symmetry_space_group_name_H-M "P M M N"
_symmetry_group_IT_number 59
_space_group.IT_coordinate_system_code '2'
_symmetry_cell_setting 'orthorhombic'
loop_
_space_group_symop_operation_xyz
x,y,z
1/2-x,1/2-y,z
1/2+x,-y,-z
-x,1/2+y,-z
-x,-y,-z
1/2+x,1/2+y,-z
1/2-x,y,z
x,1/2-y,z
loop_
_atom_site_type_symbol
_atom_site_label
_atom_site_fract_x
_atom_site_fract_y
_atom_site_fract_z
Si Si1 0.410740 0.431675 0.983228
Si Si2 0.655747 0.928570 0.424180
Si Si3 0.250000 0.932013 0.056979
Si Si4 0.250000 0.929613 0.213815
Si Si5 0.563883 0.930868 0.288126
Si Si6 0.652424 0.076887 0.561963
Si Si7 0.159819 0.430379 0.842399
Si Si8 0.607048 0.571751 0.699312
O O1 0.411568 0.250000 0.994942
O O2 0.334283 0.500488 0.025636
O O3 0.500000 0.500000 0.000000
O O4 0.397742 0.477752 0.904909
O O5 0.750000 0.974604 0.409764
O O6 0.647914 0.750000 0.438871
O O7 0.602996 0.978805 0.359625
O O8 0.620429 0.016504 0.489596
O O9 0.250000 0.750000 0.047329
O O10 0.250000 0.980467 0.135712
O O11 0.250000 0.750000 0.220878
O O12 0.330026 0.989384 0.251435
O O13 0.546302 0.750000 0.284814
O O14 0.623709 0.987462 0.228623
O O15 0.482145 0.025597 0.274884
O O16 0.750000 0.063615 0.565668
O O17 0.621690 0.250000 0.571509
O O18 0.614567 0.976228 0.621227
O O19 0.250000 0.505129 0.852176
O O20 0.168969 0.250000 0.840277
O O21 0.622541 0.750000 0.705403
#
# Coordination Sequence:
#
# PCOD8244411 Si02
#       8
#     8   8   4   4   8   8   8   8
#     4  11  23  41  66  98 135 172 214 264 317 379
#     4   9  18  34  58  88 118 152 200 255 302 350
#     4  11  25  45  69  97 128 169 216 263 321 384
#     4  11  25  45  67  87 116 157 202 247 305 376
#     4  10  21  37  60  88 121 159 202 250 303 361
#     4  10  20  36  60  84 113 157 202 245 300 366
#     4   9  18  37  65  92 120 162 209 250 300 364
#     4  12  25  40  60  88 121 155 197 250 305 361
#
# _framework density 20.006347999999999
#
# number of rings (size 3 to 8) (size 9 to 14) (size 15 to 20)
#    0.000    1.714    1.429    3.000    2.000    4.571 
#    0.000    0.714    0.000    0.857    0.000    0.000 
#    0.000    0.000    0.000    0.000    0.000    0.000 
#
# Total GULP energy -694441.449971 kJ/mol
# GULP energy per Si atom -12400.740178 kJ/mol
# Density = 1.996081 g / cm^3
# Si number density = 20.006348 Si / 1000 Ang^3
#
#
#
# Elastic Constant Matrix: (Units=GPa)
#
#
# Indices 1 2 3 4 5 6 
#
# 1 132.3323 34.1144 66.6839 0.0000 0.0000 0.0000
# 2 34.1144 60.5278 42.5619 0.0000 0.0000 0.0000
# 3 66.6839 42.5619 150.4786 0.0000 0.0000 0.0000
# 4 0.0000 0.0000 0.0000 30.8286 0.0000 0.0000
# 5 0.0000 0.0000 0.0000 0.0000 32.2052 0.0000
# 6 0.0000 0.0000 0.0000 0.0000 0.0000 24.8583
#
#
#
# Elastic Compliance Matrix: (Units=1/GPa)
#
#
# Indices 1 2 3 4 5 6 
#
# 1 0.010206 -0.003210 -0.003615 0.000000 0.000000 0.000000
# 2 -0.003210 0.021633 -0.004696 0.000000 0.000000 0.000000
# 3 -0.003615 -0.004696 0.009576 0.000000 0.000000 0.000000
# 4 0.000000 0.000000 0.000000 0.032437 0.000000 0.000000
# 5 0.000000 0.000000 0.000000 0.000000 0.031051 0.000000
# 6 0.000000 0.000000 0.000000 0.000000 0.000000 0.040228
#
#
# Mechanical properties :
#
#
# Convention : Reuss Voigt Hill
#
# Bulk Modulus (GPa) = 54.43039 70.00655 62.21847
# Shear Modulus (GPa) = 28.68671 30.91033 29.79852
#
# Velocity S-wave (km/s) = 3.79077 3.93495 3.86353
# Velocity P-wave (km/s) = 6.81363 7.46413 7.14628
#
# Compressibility (1/GPa) = 0.01837209
#
# Stress axis : x y z
#
# Youngs Moduli (GPa) = 97.98344 46.22577 104.43317
#
# Poissons Ratio (x) = 0.14841 0.37748
# Poissons Ratio (y) = 0.31457 0.49042
# Poissons Ratio (z) = 0.35417 0.21708
#
# Static dielectric constant tensor:
#      x y z
#    x 3.473790 0.000000 0.000000 
#    y 0.000000 3.584240 0.000000 
#    z 0.000000 0.000000 3.908010 
# 
# 
# High freq. dielectric constant tensor:
#      x y z
#    x 1.787970 0.000000 0.000000 
#    y 0.000000 1.767840 0.000000 
#    z 0.000000 0.000000 1.796260 
# 
# From -- ./inp_files/30507.got.cif
#   From: 2010.03.12/outbox.cif.g09.slc.cpg/sg59_16_cif.got.tgz:30507.got - 2010.04.16 16:29:54.
