data_PCOD8244492
_publ_section_title
;
Structure prediction by ZEFSAII (Michael W. Deem and Ramdas Pophale) SiO2 
 PCOD8244492
Probable space group: P M M N
;
_chemical_formula_sum "Si O2"
_cell_formula_units_Z 64
_cell_length_a 17.929819
_cell_length_b 8.915473
_cell_length_c 21.469924
_cell_angle_alpha 90.000000
_cell_angle_beta 90.000000
_cell_angle_gamma 90.000000
_cell_volume 3432.027836
_symmetry_space_group_name_H-M "P M M N"
_symmetry_group_IT_number 59
_space_group.IT_coordinate_system_code '2'
_symmetry_cell_setting 'orthorhombic'
loop_
_space_group_symop_operation_xyz
x,y,z
1/2-x,1/2-y,z
1/2+x,-y,-z
-x,1/2+y,-z
-x,-y,-z
1/2+x,1/2+y,-z
1/2-x,y,z
x,1/2-y,z
loop_
_atom_site_type_symbol
_atom_site_label
_atom_site_fract_x
_atom_site_fract_y
_atom_site_fract_z
Si Si1 0.835660 0.926721 0.729265
Si Si2 0.337143 0.077169 0.498837
Si Si3 0.085115 0.575556 0.386428
Si Si4 0.666201 0.575881 0.136215
Si Si5 0.975536 0.576007 0.062898
Si Si6 0.950096 0.426510 0.810321
Si Si7 0.091981 0.926793 0.752445
Si Si8 0.912811 0.576773 0.372972
O O1 0.750000 0.976242 0.726224
O O2 0.844550 0.750000 0.735310
O O3 0.876312 0.980020 0.667259
O O4 0.871287 0.003004 0.790621
O O5 0.250000 0.046538 0.491593
O O6 0.356864 0.250000 0.483761
O O7 0.361904 0.035396 0.568354
O O8 0.380762 0.969488 0.452364
O O9 0.100031 0.750000 0.373471
O O10 0.997982 0.537906 0.388967
O O11 0.750000 0.549412 0.111280
O O12 0.651171 0.750000 0.152445
O O13 0.607651 0.523343 0.083220
O O14 0.654385 0.480948 0.198760
O O15 0.975971 0.750000 0.049159
O O16 0.033498 0.533849 0.117715
O O17 0.000000 0.500000 0.000000
O O18 0.949303 0.250000 0.798761
O O19 0.013186 0.495008 0.766040
O O20 0.082556 0.750000 0.757201
O O21 0.117131 0.975086 0.683605
O O22 0.903615 0.750000 0.354101
#
# Coordination Sequence:
#
# PCOD8244492 Si02
#       8
#     8   8   8   8   8   8   8   8
#     4  11  23  37  56  84 114 144 183 233 286 335
#     4  10  22  39  56  75 104 142 184 232 283 336
#     4  11  22  36  57  80 106 143 186 232 278 336
#     4   9  19  37  59  82 113 153 194 235 279 332
#     4   9  19  35  58  86 114 149 191 231 275 328
#     4  10  20  37  58  81 112 148 188 227 268 329
#     4  11  21  33  55  85 114 144 180 229 284 332
#     4  10  21  37  56  79 107 144 188 228 276 340
#
# _framework density 18.647867999999999
#
# number of rings (size 3 to 8) (size 9 to 14) (size 15 to 20)
#    0.000    1.875    1.250    3.750    0.000    7.000 
#    0.000    1.875    0.000    2.250    0.000    0.000 
#    0.000    0.000    0.000    0.000    0.000    0.000 
#
# Total GULP energy -793805.029566 kJ/mol
# GULP energy per Si atom -12403.203587 kJ/mol
# Density = 1.860542 g / cm^3
# Si number density = 18.647868 Si / 1000 Ang^3
#
#
#
# Elastic Constant Matrix: (Units=GPa)
#
#
# Indices 1 2 3 4 5 6 
#
# 1 63.4490 23.7551 29.7072 0.0000 0.0000 0.0000
# 2 23.7551 64.9369 36.0475 0.0000 0.0000 0.0000
# 3 29.7072 36.0475 113.3240 0.0000 0.0000 0.0000
# 4 0.0000 0.0000 0.0000 37.5036 0.0000 0.0000
# 5 0.0000 0.0000 0.0000 0.0000 22.0896 0.0000
# 6 0.0000 0.0000 0.0000 0.0000 0.0000 26.3659
#
#
#
# Elastic Compliance Matrix: (Units=1/GPa)
#
#
# Indices 1 2 3 4 5 6 
#
# 1 0.019292 -0.005161 -0.003416 0.000000 0.000000 0.000000
# 2 -0.005161 0.020083 -0.005035 0.000000 0.000000 0.000000
# 3 -0.003416 -0.005035 0.011321 0.000000 0.000000 0.000000
# 4 0.000000 0.000000 0.000000 0.026664 0.000000 0.000000
# 5 0.000000 0.000000 0.000000 0.000000 0.045270 0.000000
# 6 0.000000 0.000000 0.000000 0.000000 0.000000 0.037928
#
#
# Mechanical properties :
#
#
# Convention : Reuss Voigt Hill
#
# Bulk Modulus (GPa) = 42.60380 46.74773 44.67577
# Shear Modulus (GPa) = 25.56149 27.33849 26.44999
#
# Velocity S-wave (km/s) = 3.70638 3.83304 3.77024
# Velocity P-wave (km/s) = 6.41969 6.68676 6.55458
#
# Compressibility (1/GPa) = 0.02347208
#
# Stress axis : x y z
#
# Youngs Moduli (GPa) = 51.83419 49.79387 88.32942
#
# Poissons Ratio (x) = 0.25701 0.30169
# Poissons Ratio (y) = 0.26754 0.44475
# Poissons Ratio (z) = 0.17704 0.25072
#
# Static dielectric constant tensor:
#      x y z
#    x 3.608090 0.000000 0.000000 
#    y 0.000000 3.424310 0.000000 
#    z 0.000000 0.000000 3.428260 
# 
# 
# High freq. dielectric constant tensor:
#      x y z
#    x 1.723530 0.000000 0.000000 
#    y 0.000000 1.725090 0.000000 
#    z 0.000000 0.000000 1.721050 
# 
# From -- ./inp_files/30784.got.cif
#   From: 2010.03.12/outbox.cif.g09.slc.cpg/sg59_16_cif.got.tgz:30784.got - 2010.04.16 16:29:54.
