data_PCOD8244850
_publ_section_title
;
Structure prediction by ZEFSAII (Michael W. Deem and Ramdas Pophale) SiO2 
 PCOD8244850
Probable space group: P M M N
;
_chemical_formula_sum "Si O2"
_cell_formula_units_Z 48
_cell_length_a 21.048495
_cell_length_b 23.738541
_cell_length_c 4.992415
_cell_angle_alpha 90.000000
_cell_angle_beta 90.000000
_cell_angle_gamma 90.000000
_cell_volume 2494.512882
_symmetry_space_group_name_H-M "P M M N"
_symmetry_group_IT_number 59
_space_group.IT_coordinate_system_code '2'
_symmetry_cell_setting 'orthorhombic'
loop_
_space_group_symop_operation_xyz
x,y,z
1/2-x,1/2-y,z
1/2+x,-y,-z
-x,1/2+y,-z
-x,-y,-z
1/2+x,1/2+y,-z
1/2-x,y,z
x,1/2-y,z
loop_
_atom_site_type_symbol
_atom_site_label
_atom_site_fract_x
_atom_site_fract_y
_atom_site_fract_z
Si Si1 0.750000 0.021172 0.235575
Si Si2 0.431333 0.185037 0.822284
Si Si3 0.117596 0.574222 0.748369
Si Si4 0.452522 0.882701 0.220869
Si Si5 0.878457 0.623378 0.662845
Si Si6 0.750000 0.938457 0.731060
Si Si7 0.050039 0.466915 0.662458
O O1 0.750000 0.972713 0.456345
O O2 0.807264 0.065924 0.268286
O O3 0.750000 0.986665 0.958477
O O4 0.421581 0.250000 0.891309
O O5 0.506732 0.175044 0.746053
O O6 0.384200 0.168951 0.577446
O O7 0.413402 0.148160 0.079625
O O8 0.087025 0.599895 0.481520
O O9 0.093386 0.511008 0.824263
O O10 0.098101 0.618081 0.980588
O O11 0.510351 0.925793 0.143804
O O12 0.807972 0.605422 0.748246
O O13 0.909936 0.566337 0.558173
O O14 0.000000 0.500000 0.500000
#
# Coordination Sequence:
#
# PCOD8244850 Si02
#       7
#     4   8   8   8   8   4   8
#     4  12  24  36  58  80 126 164 194 218 262 343
#     4  11  23  42  63  85 109 145 195 258 306 337
#     4  11  21  35  53  86 116 155 187 221 278 346
#     4  10  21  35  56  82 114 143 189 238 294 340
#     4  11  23  38  58  84 114 155 198 238 286 341
#     4  12  24  40  55  82 120 166 197 228 270 337
#     4   9  18  31  53  78 114 144 179 228 275 338
#
# _framework density 19.242232999999999
#
# number of rings (size 3 to 8) (size 9 to 14) (size 15 to 20)
#    0.000    1.333    1.667    6.000    4.667    0.000 
#    0.000    2.500    0.000    0.000    0.000    3.500 
#    0.000    0.000    0.000    0.000    0.000    0.000 
#
# Total GULP energy -594683.112119 kJ/mol
# GULP energy per Si atom -12389.231502 kJ/mol
# Density = 1.919844 g / cm^3
# Si number density = 19.242233 Si / 1000 Ang^3
#
#
#
# Elastic Constant Matrix: (Units=GPa)
#
#
# Indices 1 2 3 4 5 6 
#
# 1 116.8139 37.2742 30.7640 0.0000 0.0000 0.0000
# 2 37.2742 61.7156 15.3665 0.0000 0.0000 0.0000
# 3 30.7640 15.3665 102.7124 0.0000 0.0000 0.0000
# 4 0.0000 0.0000 0.0000 16.6520 0.0000 0.0000
# 5 0.0000 0.0000 0.0000 0.0000 26.6729 0.0000
# 6 0.0000 0.0000 0.0000 0.0000 0.0000 18.3251
#
#
#
# Elastic Compliance Matrix: (Units=1/GPa)
#
#
# Indices 1 2 3 4 5 6 
#
# 1 0.011156 -0.006135 -0.002424 0.000000 0.000000 0.000000
# 2 -0.006135 0.020204 -0.001185 0.000000 0.000000 0.000000
# 3 -0.002424 -0.001185 0.010639 0.000000 0.000000 0.000000
# 4 0.000000 0.000000 0.000000 0.060053 0.000000 0.000000
# 5 0.000000 0.000000 0.000000 0.000000 0.037491 0.000000
# 6 0.000000 0.000000 0.000000 0.000000 0.000000 0.054570
#
#
# Mechanical properties :
#
#
# Convention : Reuss Voigt Hill
#
# Bulk Modulus (GPa) = 44.42059 49.78348 47.10203
# Shear Modulus (GPa) = 22.61374 25.51913 24.06644
#
# Velocity S-wave (km/s) = 3.43186 3.64566 3.54037
# Velocity P-wave (km/s) = 6.23206 6.60676 6.42214
#
# Compressibility (1/GPa) = 0.02251208
#
# Stress axis : x y z
#
# Youngs Moduli (GPa) = 89.63420 49.49614 93.99211
#
# Poissons Ratio (x) = 0.30364 0.22781
# Poissons Ratio (y) = 0.54987 0.11140
# Poissons Ratio (z) = 0.21725 0.05866
#
# Static dielectric constant tensor:
#      x y z
#    x 3.696830 0.000000 0.000000 
#    y 0.000000 2.525300 0.000000 
#    z 0.000000 0.000000 3.466500 
# 
# 
# High freq. dielectric constant tensor:
#      x y z
#    x 1.749050 0.000000 0.000000 
#    y 0.000000 1.715150 0.000000 
#    z 0.000000 0.000000 1.759980 
# 
# From -- ./inp_files/3420.got.cif
#   From: 2010.03.12/outbox.cif.g09.slc.cpg/sg59_2_cif.got.tgz:3420.got - 2010.04.16 16:29:54.
