data_PCOD8244412
_publ_section_title
;
Structure prediction by ZEFSAII (Michael W. Deem and Ramdas Pophale) SiO2 
 PCOD8244412
Probable space group: P M M N
;
_chemical_formula_sum "Si O2"
_cell_formula_units_Z 64
_cell_length_a 28.782602
_cell_length_b 9.039844
_cell_length_c 12.332319
_cell_angle_alpha 90.000000
_cell_angle_beta 90.000000
_cell_angle_gamma 90.000000
_cell_volume 3208.748942
_symmetry_space_group_name_H-M "P M M N"
_symmetry_group_IT_number 59
_space_group.IT_coordinate_system_code '2'
_symmetry_cell_setting 'orthorhombic'
loop_
_space_group_symop_operation_xyz
x,y,z
1/2-x,1/2-y,z
1/2+x,-y,-z
-x,1/2+y,-z
-x,-y,-z
1/2+x,1/2+y,-z
1/2-x,y,z
x,1/2-y,z
loop_
_atom_site_type_symbol
_atom_site_label
_atom_site_fract_x
_atom_site_fract_y
_atom_site_fract_z
Si Si1 0.198263 0.081709 0.701888
Si Si2 0.068896 0.083433 0.495687
Si Si3 0.840581 0.076126 0.493271
Si Si4 0.196979 0.923561 0.077332
Si Si5 0.973169 0.575488 0.098660
Si Si6 0.488193 0.917090 0.329861
Si Si7 0.804002 0.919300 0.700483
Si Si8 0.134817 0.076759 0.901534
O O1 0.250000 0.062450 0.752613
O O2 0.190439 0.250000 0.663254
O O3 0.158747 0.037160 0.787387
O O4 0.195621 0.977356 0.597176
O O5 0.087277 0.250000 0.477510
O O6 0.031040 0.080631 0.588934
O O7 0.108521 0.976843 0.542434
O O8 0.050990 0.023865 0.379232
O O9 0.837226 0.250000 0.504683
O O10 0.831774 0.003164 0.608584
O O11 0.250000 0.962679 0.043420
O O12 0.190841 0.750000 0.094316
O O13 0.183161 0.004418 0.187260
O O14 0.161015 0.979231 0.989088
O O15 0.977527 0.750000 0.084905
O O16 0.996423 0.523964 0.211737
O O17 0.919025 0.529148 0.100418
O O18 0.000000 0.500000 0.000000
O O19 0.468536 0.750000 0.320859
O O20 0.750000 0.933592 0.673869
O O21 0.820153 0.750000 0.705912
O O22 0.141061 0.250000 0.928069
#
# Coordination Sequence:
#
# PCOD8244412 Si02
#       8
#     8   8   8   8   8   8   8   8
#     4  10  21  38  61  87 116 153 196 241 290 346
#     4  10  20  36  60  85 110 144 186 232 280 336
#     4  12  24  36  54  83 119 153 186 229 283 341
#     4  10  21  37  58  86 119 152 189 238 295 350
#     4  10  22  39  59  83 114 151 190 237 291 346
#     4   9  19  38  60  82 110 143 183 233 287 338
#     4  10  21  38  59  80 106 145 190 232 276 331
#     4  10  21  39  62  86 114 153 200 243 286 344
#
# _framework density 19.945467000000001
#
# number of rings (size 3 to 8) (size 9 to 14) (size 15 to 20)
#    0.000    1.875    0.000    3.750    0.000    8.750 
#    0.000    3.750    0.000    0.000    0.000    0.000 
#    0.000    0.000    0.000    0.000    0.000    0.000 
#
# Total GULP energy -793728.953955 kJ/mol
# GULP energy per Si atom -12402.014906 kJ/mol
# Density = 1.990007 g / cm^3
# Si number density = 19.945467 Si / 1000 Ang^3
#
#
#
# Elastic Constant Matrix: (Units=GPa)
#
#
# Indices 1 2 3 4 5 6 
#
# 1 87.3244 31.2339 48.8295 0.0000 0.0000 0.0000
# 2 31.2339 91.3768 61.8204 0.0000 0.0000 0.0000
# 3 48.8295 61.8204 120.4406 0.0000 0.0000 0.0000
# 4 0.0000 0.0000 0.0000 19.1394 0.0000 0.0000
# 5 0.0000 0.0000 0.0000 0.0000 26.3891 0.0000
# 6 0.0000 0.0000 0.0000 0.0000 0.0000 28.8193
#
#
#
# Elastic Compliance Matrix: (Units=1/GPa)
#
#
# Indices 1 2 3 4 5 6 
#
# 1 0.014950 -0.001547 -0.005267 0.000000 0.000000 0.000000
# 2 -0.001547 0.016926 -0.008061 0.000000 0.000000 0.000000
# 3 -0.005267 -0.008061 0.014576 0.000000 0.000000 0.000000
# 4 0.000000 0.000000 0.000000 0.052248 0.000000 0.000000
# 5 0.000000 0.000000 0.000000 0.000000 0.037894 0.000000
# 6 0.000000 0.000000 0.000000 0.000000 0.000000 0.034699
#
#
# Mechanical properties :
#
#
# Convention : Reuss Voigt Hill
#
# Bulk Modulus (GPa) = 59.87157 64.76771 62.31964
# Shear Modulus (GPa) = 24.20022 25.35344 24.77683
#
# Velocity S-wave (km/s) = 3.48705 3.56917 3.52835
# Velocity P-wave (km/s) = 6.80408 7.03763 6.92184
#
# Compressibility (1/GPa) = 0.01670242
#
# Stress axis : x y z
#
# Youngs Moduli (GPa) = 66.88940 59.08148 68.60702
#
# Poissons Ratio (x) = 0.09138 0.36137
# Poissons Ratio (y) = 0.10345 0.55302
# Poissons Ratio (z) = 0.35232 0.47624
#
# Static dielectric constant tensor:
#      x y z
#    x 3.720810 0.000000 0.000000 
#    y 0.000000 3.827270 0.000000 
#    z 0.000000 0.000000 3.665810 
# 
# 
# High freq. dielectric constant tensor:
#      x y z
#    x 1.781170 0.000000 0.000000 
#    y 0.000000 1.777280 0.000000 
#    z 0.000000 0.000000 1.782240 
# 
# From -- ./inp_files/19309.got.cif
#   From: 2010.03.12/outbox.cif.g09.slc.cpg/sg59_10_cif.got.tgz:19309.got - 2010.04.16 16:29:54.
