data_PCOD8245803
_publ_section_title
;
Structure prediction by ZEFSAII (Michael W. Deem and Ramdas Pophale) SiO2 
 PCOD8245803
Probable space group: P M M N
;
_chemical_formula_sum "Si O2"
_cell_formula_units_Z 64
_cell_length_a 17.741397
_cell_length_b 19.852302
_cell_length_c 9.527372
_cell_angle_alpha 90.000000
_cell_angle_beta 90.000000
_cell_angle_gamma 90.000000
_cell_volume 3355.612552
_symmetry_space_group_name_H-M "P M M N"
_symmetry_group_IT_number 59
_space_group.IT_coordinate_system_code '2'
_symmetry_cell_setting 'orthorhombic'
loop_
_space_group_symop_operation_xyz
x,y,z
1/2-x,1/2-y,z
1/2+x,-y,-z
-x,1/2+y,-z
-x,-y,-z
1/2+x,1/2+y,-z
1/2-x,y,z
x,1/2-y,z
loop_
_atom_site_type_symbol
_atom_site_label
_atom_site_fract_x
_atom_site_fract_y
_atom_site_fract_z
Si Si1 0.115842 0.429100 0.640975
Si Si2 0.837558 0.426343 0.469086
Si Si3 0.162991 0.673823 0.774516
Si Si4 0.162964 0.327873 0.410251
Si Si5 0.587288 0.915087 0.817931
Si Si6 0.445389 0.939515 0.287966
Si Si7 0.066873 0.902001 0.973412
Si Si8 0.165040 0.031169 0.929457
O O1 0.148127 0.497260 0.574866
O O2 0.145051 0.365507 0.554760
O O3 0.148671 0.420568 0.797690
O O4 0.025763 0.429498 0.640056
O O5 0.750000 0.414628 0.501487
O O6 0.865895 0.376316 0.346796
O O7 0.882950 0.407908 0.609523
O O8 0.250000 0.660964 0.807545
O O9 0.147842 0.750000 0.725527
O O10 0.117985 0.659290 0.918380
O O11 0.250000 0.338622 0.369758
O O12 0.143201 0.250000 0.432400
O O13 0.110932 0.355524 0.285180
O O14 0.515055 0.893988 0.907334
O O15 0.570300 0.981270 0.727238
O O16 0.655561 0.927888 0.926434
O O17 0.439546 0.899957 0.141106
O O18 0.103750 0.971792 0.922187
O O19 0.250000 0.002090 0.922395
#
# Coordination Sequence:
#
# PCOD8245803 Si02
#       8
#     8   8   8   8   8   8   8   8
#     4  12  21  39  61  92 121 161 198 257 305 358
#     4  11  22  36  60  93 122 159 205 248 299 361
#     4  10  22  40  61  87 122 161 199 244 302 369
#     4  11  26  44  61  86 122 163 209 258 308 366
#     4  11  21  39  60  89 123 155 198 252 307 358
#     4  11  22  37  61  91 126 152 195 254 305 353
#     4  11  21  38  58  91 123 154 196 247 300 360
#     4  11  20  34  62  92 121 157 197 246 302 358
#
# _framework density 19.072523
#
# number of rings (size 3 to 8) (size 9 to 14) (size 15 to 20)
#    0.000    1.000    5.000    3.000    1.750    3.000 
#    0.000    1.875    0.000    3.750    0.000    0.000 
#    0.000    0.000    0.000    0.000    0.000    0.000 
#
# Total GULP energy -793900.523459 kJ/mol
# GULP energy per Si atom -12404.695679 kJ/mol
# Density = 1.902911 g / cm^3
# Si number density = 19.072523 Si / 1000 Ang^3
#
#
#
# Elastic Constant Matrix: (Units=GPa)
#
#
# Indices 1 2 3 4 5 6 
#
# 1 94.7417 32.2588 32.8481 0.0000 0.0000 0.0000
# 2 32.2588 100.1040 47.4177 0.0000 0.0000 0.0000
# 3 32.8481 47.4177 79.7620 0.0000 0.0000 0.0000
# 4 0.0000 0.0000 0.0000 28.0118 0.0000 0.0000
# 5 0.0000 0.0000 0.0000 0.0000 38.5279 0.0000
# 6 0.0000 0.0000 0.0000 0.0000 0.0000 11.7611
#
#
#
# Elastic Compliance Matrix: (Units=1/GPa)
#
#
# Indices 1 2 3 4 5 6 
#
# 1 0.012665 -0.002242 -0.003883 0.000000 0.000000 0.000000
# 2 -0.002242 0.014302 -0.007579 0.000000 0.000000 0.000000
# 3 -0.003883 -0.007579 0.018642 0.000000 0.000000 0.000000
# 4 0.000000 0.000000 0.000000 0.035699 0.000000 0.000000
# 5 0.000000 0.000000 0.000000 0.000000 0.025955 0.000000
# 6 0.000000 0.000000 0.000000 0.000000 0.000000 0.085026
#
#
# Mechanical properties :
#
#
# Convention : Reuss Voigt Hill
#
# Bulk Modulus (GPa) = 54.94218 55.51745 55.22981
# Shear Modulus (GPa) = 22.14699 26.46570 24.30634
#
# Velocity S-wave (km/s) = 3.41133 3.72914 3.57377
# Velocity P-wave (km/s) = 6.66227 6.90751 6.78600
#
# Compressibility (1/GPa) = 0.01820095
#
# Stress axis : x y z
#
# Youngs Moduli (GPa) = 78.96026 69.91896 53.64200
#
# Poissons Ratio (x) = 0.15676 0.20828
# Poissons Ratio (y) = 0.17703 0.40657
# Poissons Ratio (z) = 0.30659 0.52993
#
# Static dielectric constant tensor:
#      x y z
#    x 3.643830 0.000000 0.000000 
#    y 0.000000 3.273230 0.000000 
#    z 0.000000 0.000000 3.703390 
# 
# 
# High freq. dielectric constant tensor:
#      x y z
#    x 1.758270 0.000000 0.000000 
#    y 0.000000 1.707390 0.000000 
#    z 0.000000 0.000000 1.753070 
# 
# From -- ./inp_files/10712.got.cif
#   From: 2010.03.12/outbox.cif.g09.slc.cpg/sg59_6_cif.got.tgz:10712.got - 2010.04.16 16:29:54.
