data_PCOD8245625
_publ_section_title
;
Structure prediction by ZEFSAII (Michael W. Deem and Ramdas Pophale) SiO2 
 PCOD8245625
Probable space group: P M M N
;
_chemical_formula_sum "Si O2"
_cell_formula_units_Z 56
_cell_length_a 14.988755
_cell_length_b 8.587599
_cell_length_c 21.946789
_cell_angle_alpha 90.000000
_cell_angle_beta 90.000000
_cell_angle_gamma 90.000000
_cell_volume 2824.934001
_symmetry_space_group_name_H-M "P M M N"
_symmetry_group_IT_number 59
_space_group.IT_coordinate_system_code '2'
_symmetry_cell_setting 'orthorhombic'
loop_
_space_group_symop_operation_xyz
x,y,z
1/2-x,1/2-y,z
1/2+x,-y,-z
-x,1/2+y,-z
-x,-y,-z
1/2+x,1/2+y,-z
1/2-x,y,z
x,1/2-y,z
loop_
_atom_site_type_symbol
_atom_site_label
_atom_site_fract_x
_atom_site_fract_y
_atom_site_fract_z
Si Si1 0.059391 0.934115 0.945648
Si Si2 0.750000 0.566641 0.023956
Si Si3 0.750000 0.933929 0.882001
Si Si4 0.654217 0.566319 0.619274
Si Si5 0.511150 0.934657 0.714270
Si Si6 0.150302 0.573141 0.633961
Si Si7 0.903781 0.932710 0.491251
Si Si8 0.561745 0.432896 0.841993
O O1 0.063556 0.750000 0.951855
O O2 0.160553 0.998036 0.945627
O O3 0.010249 0.980434 0.883788
O O4 0.000000 0.000000 0.000000
O O5 0.750000 0.750000 0.034317
O O6 0.750000 0.522660 0.952981
O O7 0.750000 0.750000 0.871125
O O8 0.838176 0.004700 0.851571
O O9 0.750000 0.517832 0.646757
O O10 0.642035 0.750000 0.617871
O O11 0.578331 0.499332 0.662974
O O12 0.650357 0.503657 0.549874
O O13 0.521400 0.750000 0.727377
O O14 0.413668 0.980601 0.688876
O O15 0.530614 0.033099 0.773934
O O16 0.250000 0.553461 0.659365
O O17 0.126520 0.750000 0.616958
O O18 0.141318 0.478882 0.571829
O O19 0.909121 0.750000 0.492373
O O20 0.000000 0.000000 0.500000
O O21 0.559914 0.250000 0.855906
#
# Coordination Sequence:
#
# PCOD8245625 Si02
#       8
#     8   4   4   8   8   8   8   8
#     4  12  24  42  68  98 131 171 213 260 314 372
#     4  11  23  41  69 103 134 168 211 262 317 374
#     4  11  23  41  69  99 130 170 211 250 305 382
#     4   9  18  33  55  83 112 148 193 242 300 368
#     4  10  21  40  61  83 117 161 207 251 306 375
#     4  10  21  39  62  87 116 156 205 259 313 372
#     4  11  20  34  57  85 118 154 196 250 308 369
#     4  12  26  43  64  94 132 169 210 265 317 370
#
# _framework density 19.82347
#
# number of rings (size 3 to 8) (size 9 to 14) (size 15 to 20)
#    0.000    1.286    2.857    3.857    1.000    2.000 
#    1.286    0.000    0.000    1.714    0.000    0.000 
#    0.000    0.000    0.000    0.000    0.000    0.000 
#
# Total GULP energy -694329.928899 kJ/mol
# GULP energy per Si atom -12398.748730 kJ/mol
# Density = 1.977835 g / cm^3
# Si number density = 19.823470 Si / 1000 Ang^3
#
#
#
# Elastic Constant Matrix: (Units=GPa)
#
#
# Indices 1 2 3 4 5 6 
#
# 1 175.6634 41.5283 67.3261 0.0000 0.0000 0.0000
# 2 41.5283 84.3520 36.6001 0.0000 0.0000 0.0000
# 3 67.3261 36.6001 117.4379 0.0000 0.0000 0.0000
# 4 0.0000 0.0000 0.0000 31.5632 0.0000 0.0000
# 5 0.0000 0.0000 0.0000 0.0000 21.1317 0.0000
# 6 0.0000 0.0000 0.0000 0.0000 0.0000 27.2472
#
#
#
# Elastic Compliance Matrix: (Units=1/GPa)
#
#
# Indices 1 2 3 4 5 6 
#
# 1 0.007617 -0.002146 -0.003698 0.000000 0.000000 0.000000
# 2 -0.002146 0.014313 -0.003231 0.000000 0.000000 0.000000
# 3 -0.003698 -0.003231 0.011642 0.000000 0.000000 0.000000
# 4 0.000000 0.000000 0.000000 0.031682 0.000000 0.000000
# 5 0.000000 0.000000 0.000000 0.000000 0.047322 0.000000
# 6 0.000000 0.000000 0.000000 0.000000 0.000000 0.036701
#
#
# Mechanical properties :
#
#
# Convention : Reuss Voigt Hill
#
# Bulk Modulus (GPa) = 64.83570 74.26248 69.54909
# Shear Modulus (GPa) = 28.97391 31.45500 30.21446
#
# Velocity S-wave (km/s) = 3.82723 3.98773 3.90830
# Velocity P-wave (km/s) = 7.23241 7.66459 7.45163
#
# Compressibility (1/GPa) = 0.01542360
#
# Stress axis : x y z
#
# Youngs Moduli (GPa) = 131.27897 69.86566 85.89413
#
# Poissons Ratio (x) = 0.14990 0.31766
# Poissons Ratio (y) = 0.28166 0.27750
# Poissons Ratio (z) = 0.48551 0.22572
#
# Static dielectric constant tensor:
#      x y z
#    x 3.880840 0.000000 0.000000 
#    y 0.000000 3.385780 0.000000 
#    z 0.000000 0.000000 4.300080 
# 
# 
# High freq. dielectric constant tensor:
#      x y z
#    x 1.792650 0.000000 0.000000 
#    y 0.000000 1.762740 0.000000 
#    z 0.000000 0.000000 1.771050 
# 
# From -- ./inp_files/30470.got.cif
#   From: 2010.03.12/outbox.cif.g09.slc.cpg/sg59_16_cif.got.tgz:30470.got - 2010.04.16 16:29:54.
