data_PCOD8245293
_publ_section_title
;
Structure prediction by ZEFSAII (Michael W. Deem and Ramdas Pophale) SiO2 
 PCOD8245293
Probable space group: P M M N
;
_chemical_formula_sum "Si O2"
_cell_formula_units_Z 48
_cell_length_a 9.038796
_cell_length_b 9.140992
_cell_length_c 31.335245
_cell_angle_alpha 90.000000
_cell_angle_beta 90.000000
_cell_angle_gamma 90.000000
_cell_volume 2589.029556
_symmetry_space_group_name_H-M "P M M N"
_symmetry_group_IT_number 59
_space_group.IT_coordinate_system_code '2'
_symmetry_cell_setting 'orthorhombic'
loop_
_space_group_symop_operation_xyz
x,y,z
1/2-x,1/2-y,z
1/2+x,-y,-z
-x,1/2+y,-z
-x,-y,-z
1/2+x,1/2+y,-z
1/2-x,y,z
x,1/2-y,z
loop_
_atom_site_type_symbol
_atom_site_label
_atom_site_fract_x
_atom_site_fract_y
_atom_site_fract_z
Si Si1 0.419971 0.575448 0.222313
Si Si2 0.079497 0.921948 0.038258
Si Si3 0.580063 0.578265 0.461473
Si Si4 0.421389 0.578685 0.701874
Si Si5 0.076715 0.580924 0.374677
Si Si6 0.425103 0.910375 0.129716
O O1 0.250000 0.535028 0.233399
O O2 0.440007 0.750000 0.224256
O O3 0.530127 0.498649 0.254696
O O4 0.464290 0.512476 0.174927
O O5 0.250000 0.957030 0.032073
O O6 0.047183 0.750000 0.036639
O O7 0.024376 0.985905 0.084889
O O8 0.000000 0.000000 0.000000
O O9 0.500000 0.500000 0.500000
O O10 0.750000 0.528674 0.459860
O O11 0.563524 0.750000 0.468488
O O12 0.503601 0.529155 0.417647
O O13 0.250000 0.543666 0.693258
O O14 0.451209 0.750000 0.706152
O O15 0.518092 0.517419 0.663418
O O16 0.250000 0.554586 0.380578
O O17 0.041305 0.750000 0.364335
O O18 0.250000 0.891728 0.127485
O O19 0.498165 0.750000 0.130980
#
# Coordination Sequence:
#
# PCOD8245293 Si02
#       6
#     8   8   8   8   8   8
#     4   9  17  32  56  80  97 121 164 213 256 300
#     4   9  17  30  48  70  97 129 164 203 248 297
#     4  10  21  37  58  84 113 145 179 215 258 306
#     4  11  24  38  51  73 107 142 171 203 250 306
#     4  10  21  38  60  83 105 134 176 221 260 301
#     4   7  12  26  48  71  94 122 160 205 248 293
#
# _framework density 18.539764999999999
#
# number of rings (size 3 to 8) (size 9 to 14) (size 15 to 20)
#    0.000    2.667    0.000    4.000    0.000    6.667 
#    0.000    1.667    0.000    8.000    0.000    0.000 
#    0.000    0.000    0.000    0.000    0.000    0.000 
#
# Total GULP energy -594811.332526 kJ/mol
# GULP energy per Si atom -12391.902761 kJ/mol
# Density = 1.849757 g / cm^3
# Si number density = 18.539765 Si / 1000 Ang^3
#
#
#
# Elastic Constant Matrix: (Units=GPa)
#
#
# Indices 1 2 3 4 5 6 
#
# 1 83.8653 35.6625 63.8869 0.0000 0.0000 0.0000
# 2 35.6625 42.5879 47.8808 0.0000 0.0000 0.0000
# 3 63.8869 47.8808 178.8640 0.0000 0.0000 0.0000
# 4 0.0000 0.0000 0.0000 29.4027 0.0000 0.0000
# 5 0.0000 0.0000 0.0000 0.0000 35.8356 0.0000
# 6 0.0000 0.0000 0.0000 0.0000 0.0000 28.2041
#
#
#
# Elastic Compliance Matrix: (Units=1/GPa)
#
#
# Indices 1 2 3 4 5 6 
#
# 1 0.020212 -0.012601 -0.003846 0.000000 0.000000 0.000000
# 2 -0.012601 0.041447 -0.006594 0.000000 0.000000 0.000000
# 3 -0.003846 -0.006594 0.008730 0.000000 0.000000 0.000000
# 4 0.000000 0.000000 0.000000 0.034010 0.000000 0.000000
# 5 0.000000 0.000000 0.000000 0.000000 0.027905 0.000000
# 6 0.000000 0.000000 0.000000 0.000000 0.000000 0.035456
#
#
# Mechanical properties :
#
#
# Convention : Reuss Voigt Hill
#
# Bulk Modulus (GPa) = 41.14271 66.68640 53.91455
# Shear Modulus (GPa) = 22.52807 29.21428 25.87117
#
# Velocity S-wave (km/s) = 3.48964 3.97389 3.73961
# Velocity P-wave (km/s) = 6.20295 7.55667 6.91303
#
# Compressibility (1/GPa) = 0.02430564
#
# Stress axis : x y z
#
# Youngs Moduli (GPa) = 49.47459 24.12743 114.55013
#
# Poissons Ratio (x) = 0.30404 0.44058
# Poissons Ratio (y) = 0.62345 0.75534
# Poissons Ratio (z) = 0.19029 0.15910
#
# Static dielectric constant tensor:
#      x y z
#    x 3.197080 0.000000 0.000000 
#    y 0.000000 3.152090 0.000000 
#    z 0.000000 0.000000 3.970210 
# 
# 
# High freq. dielectric constant tensor:
#      x y z
#    x 1.706270 0.000000 0.000000 
#    y 0.000000 1.688460 0.000000 
#    z 0.000000 0.000000 1.747290 
# 
# From -- ./inp_files/32890.got.cif
#   From: 2010.03.12/outbox.cif.g09.slc.cpg/sg59_17_cif.got.tgz:32890.got - 2010.04.16 16:29:54.
