data_PCOD8245668
_publ_section_title
;
Structure prediction by ZEFSAII (Michael W. Deem and Ramdas Pophale) SiO2 
 PCOD8245668
Probable space group: P M M N
;
_chemical_formula_sum "Si O2"
_cell_formula_units_Z 48
_cell_length_a 15.039830
_cell_length_b 17.147421
_cell_length_c 9.192114
_cell_angle_alpha 90.000000
_cell_angle_beta 90.000000
_cell_angle_gamma 90.000000
_cell_volume 2370.593776
_symmetry_space_group_name_H-M "P M M N"
_symmetry_group_IT_number 59
_space_group.IT_coordinate_system_code '2'
_symmetry_cell_setting 'orthorhombic'
loop_
_space_group_symop_operation_xyz
x,y,z
1/2-x,1/2-y,z
1/2+x,-y,-z
-x,1/2+y,-z
-x,-y,-z
1/2+x,1/2+y,-z
1/2-x,y,z
x,1/2-y,z
loop_
_atom_site_type_symbol
_atom_site_label
_atom_site_fract_x
_atom_site_fract_y
_atom_site_fract_z
Si Si1 0.350337 0.922039 0.816526
Si Si2 0.148977 0.406692 0.906432
Si Si3 0.001382 0.417102 0.418983
Si Si4 0.996093 0.660262 0.288247
Si Si5 0.854765 0.658221 0.781652
Si Si6 0.152972 0.659217 0.099408
O O1 0.250000 0.916588 0.754144
O O2 0.416043 0.913670 0.682812
O O3 0.362806 0.000467 0.911243
O O4 0.371600 0.853269 0.930242
O O5 0.250000 0.381326 0.877807
O O6 0.094581 0.377482 0.767570
O O7 0.115597 0.368234 0.056701
O O8 0.000000 0.500000 0.500000
O O9 0.992115 0.350835 0.540552
O O10 0.091138 0.396786 0.330164
O O11 0.991599 0.750000 0.248685
O O12 0.079464 0.620437 0.204275
O O13 0.750000 0.642801 0.756652
O O14 0.877390 0.750000 0.760831
O O15 0.250000 0.620945 0.131723
O O16 0.157766 0.750000 0.131561
#
# Coordination Sequence:
#
# PCOD8245668 Si02
#       6
#     8   8   8   8   8   8
#     4  10  22  40  62  88 120 159 204 252 305 365
#     4  10  21  39  64  92 119 154 204 258 310 361
#     4  12  25  39  59  87 128 167 202 244 300 370
#     4  11  23  38  60  89 121 159 200 245 300 362
#     4  10  23  43  66  92 123 162 208 258 311 366
#     4   9  20  39  62  87 115 152 201 255 305 356
#
# _framework density 20.248090999999999
#
# number of rings (size 3 to 8) (size 9 to 14) (size 15 to 20)
#    0.000    1.667    1.667    2.000    2.333    7.000 
#    0.000    0.000    0.000    0.000    0.000    0.000 
#    0.000    0.000    0.000    0.000    0.000    0.000 
#
# Total GULP energy -595158.281807 kJ/mol
# GULP energy per Si atom -12399.130871 kJ/mol
# Density = 2.020201 g / cm^3
# Si number density = 20.248091 Si / 1000 Ang^3
#
#
#
# Elastic Constant Matrix: (Units=GPa)
#
#
# Indices 1 2 3 4 5 6 
#
# 1 121.3231 32.2030 76.7082 0.0000 0.0000 0.0000
# 2 32.2030 46.1424 20.0333 0.0000 0.0000 0.0000
# 3 76.7082 20.0333 124.6955 0.0000 0.0000 0.0000
# 4 0.0000 0.0000 0.0000 40.1537 0.0000 0.0000
# 5 0.0000 0.0000 0.0000 0.0000 28.1050 0.0000
# 6 0.0000 0.0000 0.0000 0.0000 0.0000 28.0889
#
#
#
# Elastic Compliance Matrix: (Units=1/GPa)
#
#
# Indices 1 2 3 4 5 6 
#
# 1 0.015402 -0.007133 -0.008329 0.000000 0.000000 0.000000
# 2 -0.007133 0.026601 0.000114 0.000000 0.000000 0.000000
# 3 -0.008329 0.000114 0.013125 0.000000 0.000000 0.000000
# 4 0.000000 0.000000 0.000000 0.024904 0.000000 0.000000
# 5 0.000000 0.000000 0.000000 0.000000 0.035581 0.000000
# 6 0.000000 0.000000 0.000000 0.000000 0.000000 0.035601
#
#
# Mechanical properties :
#
#
# Convention : Reuss Voigt Hill
#
# Bulk Modulus (GPa) = 40.92918 61.11666 51.02292
# Shear Modulus (GPa) = 26.30863 30.15060 28.22961
#
# Velocity S-wave (km/s) = 3.60851 3.86302 3.73793
# Velocity P-wave (km/s) = 6.13348 7.08143 6.62443
#
# Compressibility (1/GPa) = 0.02443245
#
# Stress axis : x y z
#
# Youngs Moduli (GPa) = 64.92820 37.59324 76.19274
#
# Poissons Ratio (x) = 0.26815 0.63458
# Poissons Ratio (y) = 0.46313 -0.00871
# Poissons Ratio (z) = 0.54076 -0.00430
#
# Static dielectric constant tensor:
#      x y z
#    x 4.013360 0.000000 0.000000 
#    y 0.000000 3.711620 0.000000 
#    z 0.000000 0.000000 3.674500 
# 
# 
# High freq. dielectric constant tensor:
#      x y z
#    x 1.804120 0.000000 0.000000 
#    y 0.000000 1.789890 0.000000 
#    z 0.000000 0.000000 1.786150 
# 
# From -- ./inp_files/8982.got.cif
#   From: 2010.03.12/outbox.cif.g09.slc.cpg/sg59_5_cif.got.tgz:8982.got - 2010.04.16 16:29:54.
