data_PCOD8245028
_publ_section_title
;
Structure prediction by ZEFSAII (Michael W. Deem and Ramdas Pophale) SiO2 
 PCOD8245028
Probable space group: P M M N
;
_chemical_formula_sum "Si O2"
_cell_formula_units_Z 64
_cell_length_a 8.957830
_cell_length_b 29.839566
_cell_length_c 12.161944
_cell_angle_alpha 90.000000
_cell_angle_beta 90.000000
_cell_angle_gamma 90.000000
_cell_volume 3250.860382
_symmetry_space_group_name_H-M "P M M N"
_symmetry_group_IT_number 59
_space_group.IT_coordinate_system_code '2'
_symmetry_cell_setting 'orthorhombic'
loop_
_space_group_symop_operation_xyz
x,y,z
1/2-x,1/2-y,z
1/2+x,-y,-z
-x,1/2+y,-z
-x,-y,-z
1/2+x,1/2+y,-z
1/2-x,y,z
x,1/2-y,z
loop_
_atom_site_type_symbol
_atom_site_label
_atom_site_fract_x
_atom_site_fract_y
_atom_site_fract_z
Si Si1 0.927769 0.624938 0.365850
Si Si2 0.581798 0.848678 0.122857
Si Si3 0.429016 0.969657 0.406921
Si Si4 0.081536 0.062071 0.991953
Si Si5 0.076839 0.999736 0.174762
Si Si6 0.416347 0.303076 0.260439
Si Si7 0.086273 0.802199 0.950604
Si Si8 0.575027 0.302462 0.482889
O O1 0.750000 0.619364 0.378291
O O2 0.975875 0.631898 0.238535
O O3 0.009040 0.581036 0.413294
O O4 0.983004 0.669011 0.428951
O O5 0.750000 0.831205 0.138188
O O6 0.569681 0.885164 0.024993
O O7 0.482557 0.808893 0.072968
O O8 0.250000 0.968560 0.417795
O O9 0.500000 0.000000 0.500000
O O10 0.491769 0.993287 0.295596
O O11 0.250000 0.045157 0.968131
O O12 0.036518 0.047564 0.117003
O O13 0.974149 0.039587 0.904666
O O14 0.250000 0.993801 0.192150
O O15 0.250000 0.323468 0.275298
O O16 0.405547 0.250000 0.253569
O O17 0.485801 0.322677 0.147725
O O18 0.520071 0.317327 0.362293
O O19 0.250000 0.824730 0.946260
O O20 0.101981 0.750000 0.930113
O O21 0.750000 0.312890 0.492699
O O22 0.541648 0.250000 0.504816
#
# Coordination Sequence:
#
# PCOD8245028 Si02
#       8
#     8   8   8   8   8   8   8   8
#     4  11  23  40  61  86 117 156 201 248 299 357
#     4  10  21  36  56  81 113 151 191 239 293 349
#     4  11  23  40  61  85 117 157 198 243 299 360
#     4   9  17  33  56  82 110 139 178 227 279 336
#     4   9  18  33  57  84 108 140 181 226 279 337
#     4   9  17  33  58  83 109 145 188 235 288 344
#     4  10  21  36  55  81 115 154 194 238 289 346
#     4  10  21  38  61  89 121 157 198 245 297 354
#
# _framework density 19.687094999999999
#
# number of rings (size 3 to 8) (size 9 to 14) (size 15 to 20)
#    0.000    2.125    1.250    1.875    0.000    5.500 
#    2.250    2.500    0.000    0.000    0.000    0.000 
#    0.000    0.000    0.000    0.000    0.000    0.000 
#
# Total GULP energy -793268.464934 kJ/mol
# GULP energy per Si atom -12394.819765 kJ/mol
# Density = 1.964229 g / cm^3
# Si number density = 19.687095 Si / 1000 Ang^3
#
#
#
# Elastic Constant Matrix: (Units=GPa)
#
#
# Indices 1 2 3 4 5 6 
#
# 1 81.6633 32.2819 47.3911 0.0000 0.0000 0.0000
# 2 32.2819 56.3060 51.4278 0.0000 0.0000 0.0000
# 3 47.3911 51.4278 120.9747 0.0000 0.0000 0.0000
# 4 0.0000 0.0000 0.0000 34.3302 0.0000 0.0000
# 5 0.0000 0.0000 0.0000 0.0000 30.9214 0.0000
# 6 0.0000 0.0000 0.0000 0.0000 0.0000 27.8652
#
#
#
# Elastic Compliance Matrix: (Units=1/GPa)
#
#
# Indices 1 2 3 4 5 6 
#
# 1 0.017000 -0.005990 -0.004113 0.000000 0.000000 0.000000
# 2 -0.005990 0.031143 -0.010893 0.000000 0.000000 0.000000
# 3 -0.004113 -0.010893 0.014508 0.000000 0.000000 0.000000
# 4 0.000000 0.000000 0.000000 0.029129 0.000000 0.000000
# 5 0.000000 0.000000 0.000000 0.000000 0.032340 0.000000
# 6 0.000000 0.000000 0.000000 0.000000 0.000000 0.035887
#
#
# Mechanical properties :
#
#
# Convention : Reuss Voigt Hill
#
# Bulk Modulus (GPa) = 48.40332 57.90506 53.15419
# Shear Modulus (GPa) = 23.93638 27.14625 25.54132
#
# Velocity S-wave (km/s) = 3.49067 3.71736 3.60580
# Velocity P-wave (km/s) = 6.39422 6.92110 6.66287
#
# Compressibility (1/GPa) = 0.02065974
#
# Stress axis : x y z
#
# Youngs Moduli (GPa) = 58.82246 32.10947 68.92567
#
# Poissons Ratio (x) = 0.19233 0.28352
# Poissons Ratio (y) = 0.35233 0.75081
# Poissons Ratio (z) = 0.24196 0.34977
#
# Static dielectric constant tensor:
#      x y z
#    x 3.733910 0.000000 0.000000 
#    y 0.000000 3.384900 0.000000 
#    z 0.000000 0.000000 3.750860 
# 
# 
# High freq. dielectric constant tensor:
#      x y z
#    x 1.774210 0.000000 0.000000 
#    y 0.000000 1.744300 0.000000 
#    z 0.000000 0.000000 1.772810 
# 
# From -- ./inp_files/15072.got.cif
#   From: 2010.03.12/outbox.cif.g09.slc.cpg/sg59_8_cif.got.tgz:15072.got - 2010.04.16 16:29:54.
