data_PCOD8245705
_publ_section_title
;
Structure prediction by ZEFSAII (Michael W. Deem and Ramdas Pophale) SiO2 
 PCOD8245705
Probable space group: P M M N
;
_chemical_formula_sum "Si O2"
_cell_formula_units_Z 48
_cell_length_a 16.860238
_cell_length_b 9.482805
_cell_length_c 16.807189
_cell_angle_alpha 90.000000
_cell_angle_beta 90.000000
_cell_angle_gamma 90.000000
_cell_volume 2687.172861
_symmetry_space_group_name_H-M "P M M N"
_symmetry_group_IT_number 59
_space_group.IT_coordinate_system_code '2'
_symmetry_cell_setting 'orthorhombic'
loop_
_space_group_symop_operation_xyz
x,y,z
1/2-x,1/2-y,z
1/2+x,-y,-z
-x,1/2+y,-z
-x,-y,-z
1/2+x,1/2+y,-z
1/2-x,y,z
x,1/2-y,z
loop_
_atom_site_type_symbol
_atom_site_label
_atom_site_fract_x
_atom_site_fract_y
_atom_site_fract_z
Si Si1 0.661455 0.417539 0.750050
Si Si2 0.750000 0.915219 0.170168
Si Si3 0.074178 0.585691 0.092660
Si Si4 0.750000 0.085128 0.332334
Si Si5 0.441108 0.914356 0.396376
Si Si6 0.104938 0.086787 0.941218
Si Si7 0.592158 0.086882 0.424435
O O1 0.750000 0.481049 0.753243
O O2 0.664816 0.250000 0.749748
O O3 0.612272 0.471334 0.826022
O O4 0.619479 0.471598 0.669875
O O5 0.750000 0.750000 0.189876
O O6 0.671975 0.959093 0.121083
O O7 0.750000 0.999710 0.251377
O O8 0.091603 0.750000 0.079196
O O9 0.980402 0.555029 0.097795
O O10 0.115789 0.503151 0.020930
O O11 0.750000 0.250000 0.311819
O O12 0.674221 0.042121 0.384416
O O13 0.459683 0.750000 0.384604
O O14 0.401740 0.945786 0.481672
O O15 0.523284 0.995687 0.384561
O O16 0.113933 0.250000 0.964570
O O17 0.572321 0.250000 0.409648
#
# Coordination Sequence:
#
# PCOD8245705 Si02
#       7
#     8   4   8   4   8   8   8
#     4   9  18  30  50  80 105 129 168 213 251 294
#     4  10  22  36  54  77 104 134 170 215 258 308
#     4   9  18  33  53  75 100 130 167 208 249 299
#     4  10  22  36  52  77 108 138 172 215 260 306
#     4   9  18  33  56  78 101 137 175 210 254 306
#     4   9  19  35  52  73 101 132 165 206 256 303
#     4   9  19  35  53  76 106 137 171 213 259 305
#
# _framework density 17.862639999999999
#
# number of rings (size 3 to 8) (size 9 to 14) (size 15 to 20)
#    0.000    2.833    0.000    0.000    4.667    1.333 
#    0.000    0.833    0.000    1.500    0.000    0.000 
#    0.000    0.000    0.000    0.000    0.000    0.000 
#
# Total GULP energy -595285.054009 kJ/mol
# GULP energy per Si atom -12401.771959 kJ/mol
# Density = 1.782198 g / cm^3
# Si number density = 17.862640 Si / 1000 Ang^3
#
#
#
# Elastic Constant Matrix: (Units=GPa)
#
#
# Indices 1 2 3 4 5 6 
#
# 1 151.7800 47.7318 101.6146 0.0000 0.0000 0.0000
# 2 47.7318 40.7387 49.7091 0.0000 0.0000 0.0000
# 3 101.6146 49.7091 149.9078 0.0000 0.0000 0.0000
# 4 0.0000 0.0000 0.0000 28.1207 0.0000 0.0000
# 5 0.0000 0.0000 0.0000 0.0000 33.8662 0.0000
# 6 0.0000 0.0000 0.0000 0.0000 0.0000 23.7112
#
#
#
# Elastic Compliance Matrix: (Units=1/GPa)
#
#
# Indices 1 2 3 4 5 6 
#
# 1 0.013373 -0.007739 -0.006499 0.000000 0.000000 0.000000
# 2 -0.007739 0.045707 -0.009910 0.000000 0.000000 0.000000
# 3 -0.006499 -0.009910 0.014362 0.000000 0.000000 0.000000
# 4 0.000000 0.000000 0.000000 0.035561 0.000000 0.000000
# 5 0.000000 0.000000 0.000000 0.000000 0.029528 0.000000
# 6 0.000000 0.000000 0.000000 0.000000 0.000000 0.042174
#
#
# Mechanical properties :
#
#
# Convention : Reuss Voigt Hill
#
# Bulk Modulus (GPa) = 39.76808 82.28194 61.02501
# Shear Modulus (GPa) = 21.06304 26.69768 23.88036
#
# Velocity S-wave (km/s) = 3.43763 3.87021 3.66032
# Velocity P-wave (km/s) = 6.16992 8.13235 7.21814
#
# Compressibility (1/GPa) = 0.02514580
#
# Stress axis : x y z
#
# Youngs Moduli (GPa) = 74.77784 21.87865 69.62776
#
# Poissons Ratio (x) = 0.16932 0.45248
# Poissons Ratio (y) = 0.57870 0.69004
# Poissons Ratio (z) = 0.48595 0.21683
#
# Static dielectric constant tensor:
#      x y z
#    x 3.477040 0.000000 0.000000 
#    y 0.000000 3.100080 0.000000 
#    z 0.000000 0.000000 3.374540 
# 
# 
# High freq. dielectric constant tensor:
#      x y z
#    x 1.700340 0.000000 0.000000 
#    y 0.000000 1.666900 0.000000 
#    z 0.000000 0.000000 1.697380 
# 
# From -- ./inp_files/20506.got.cif
#   From: 2010.03.12/outbox.cif.g09.slc.cpg/sg59_11_cif.got.tgz:20506.got - 2010.04.16 16:29:54.
