data_PCOD8245043
_publ_section_title
;
Structure prediction by ZEFSAII (Michael W. Deem and Ramdas Pophale) SiO2 
 PCOD8245043
Probable space group: P M M N
;
_chemical_formula_sum "Si O2"
_cell_formula_units_Z 56
_cell_length_a 22.357790
_cell_length_b 9.182620
_cell_length_c 14.380967
_cell_angle_alpha 90.000000
_cell_angle_beta 90.000000
_cell_angle_gamma 90.000000
_cell_volume 2952.456957
_symmetry_space_group_name_H-M "P M M N"
_symmetry_group_IT_number 59
_space_group.IT_coordinate_system_code '2'
_symmetry_cell_setting 'orthorhombic'
loop_
_space_group_symop_operation_xyz
x,y,z
1/2-x,1/2-y,z
1/2+x,-y,-z
-x,1/2+y,-z
-x,-y,-z
1/2+x,1/2+y,-z
1/2-x,y,z
x,1/2-y,z
loop_
_atom_site_type_symbol
_atom_site_label
_atom_site_fract_x
_atom_site_fract_y
_atom_site_fract_z
Si Si1 0.750000 0.421288 0.171025
Si Si2 0.750000 0.583146 0.975177
Si Si3 0.022910 0.419555 0.714854
Si Si4 0.524667 0.084929 0.914781
Si Si5 0.865051 0.585120 0.857544
Si Si6 0.816990 0.582878 0.494438
Si Si7 0.405712 0.417159 0.343695
Si Si8 0.352365 0.577177 0.686063
O O1 0.750000 0.250000 0.156827
O O2 0.750000 0.491979 0.069559
O O3 0.809909 0.468385 0.227244
O O4 0.750000 0.750000 0.007084
O O5 0.803958 0.545492 0.907177
O O6 0.027268 0.250000 0.687112
O O7 0.083347 0.501210 0.688981
O O8 0.016081 0.440928 0.824857
O O9 0.965890 0.486806 0.661216
O O10 0.527107 0.250000 0.944943
O O11 0.590943 0.032515 0.898338
O O12 0.500000 0.000000 0.000000
O O13 0.885505 0.750000 0.881650
O O14 0.863056 0.564861 0.746311
O O15 0.750000 0.570006 0.536488
O O16 0.829809 0.750000 0.464664
O O17 0.865620 0.530691 0.569968
O O18 0.820253 0.476809 0.406776
O O19 0.426072 0.250000 0.354853
O O20 0.360967 0.750000 0.682655
#
# Coordination Sequence:
#
# PCOD8245043 Si02
#       8
#     4   4   8   8   8   8   8   8
#     4  10  24  42  57  80 114 152 195 240 287 344
#     4  10  22  36  57  86 116 152 191 232 281 332
#     4  10  22  39  59  85 115 149 192 240 287 337
#     4  10  21  36  56  81 111 147 190 236 283 335
#     4   9  19  36  56  84 118 150 187 229 276 335
#     4  10  21  37  61  91 118 151 192 235 284 339
#     4   9  19  37  61  88 120 153 188 231 285 343
#     4  11  23  41  62  84 114 152 193 239 292 344
#
# _framework density 18.967254000000001
#
# number of rings (size 3 to 8) (size 9 to 14) (size 15 to 20)
#    0.000    2.143    0.714    1.286    3.000    4.571 
#    0.000    0.000    0.000    0.000    0.000    0.000 
#    0.000    0.000    0.000    0.000    0.000    0.000 
#
# Total GULP energy -694295.692246 kJ/mol
# GULP energy per Si atom -12398.137362 kJ/mol
# Density = 1.892408 g / cm^3
# Si number density = 18.967254 Si / 1000 Ang^3
#
#
#
# Elastic Constant Matrix: (Units=GPa)
#
#
# Indices 1 2 3 4 5 6 
#
# 1 119.7115 53.9646 56.5518 0.0000 0.0000 0.0000
# 2 53.9646 78.6267 39.5169 0.0000 0.0000 0.0000
# 3 56.5518 39.5169 81.9197 0.0000 0.0000 0.0000
# 4 0.0000 0.0000 0.0000 30.8920 0.0000 0.0000
# 5 0.0000 0.0000 0.0000 0.0000 10.9937 0.0000
# 6 0.0000 0.0000 0.0000 0.0000 0.0000 26.4357
#
#
#
# Elastic Compliance Matrix: (Units=1/GPa)
#
#
# Indices 1 2 3 4 5 6 
#
# 1 0.014552 -0.006519 -0.006901 0.000000 0.000000 0.000000
# 2 -0.006519 0.019709 -0.005007 0.000000 0.000000 0.000000
# 3 -0.006901 -0.005007 0.019386 0.000000 0.000000 0.000000
# 4 0.000000 0.000000 0.000000 0.032371 0.000000 0.000000
# 5 0.000000 0.000000 0.000000 0.000000 0.090961 0.000000
# 6 0.000000 0.000000 0.000000 0.000000 0.000000 0.037828
#
#
# Mechanical properties :
#
#
# Convention : Reuss Voigt Hill
#
# Bulk Modulus (GPa) = 59.54800 64.48051 62.01425
# Shear Modulus (GPa) = 19.43555 22.34591 20.89073
#
# Velocity S-wave (km/s) = 3.20455 3.43611 3.32235
# Velocity P-wave (km/s) = 6.71978 7.05776 6.89085
#
# Compressibility (1/GPa) = 0.01679317
#
# Stress axis : x y z
#
# Youngs Moduli (GPa) = 68.71718 50.73746 51.58270
#
# Poissons Ratio (x) = 0.33078 0.35598
# Poissons Ratio (y) = 0.44800 0.25827
# Poissons Ratio (z) = 0.47422 0.25404
#
# Static dielectric constant tensor:
#      x y z
#    x 3.343770 0.000000 0.000000 
#    y 0.000000 3.540470 0.000000 
#    z 0.000000 0.000000 -0.729580 
# 
# 
# High freq. dielectric constant tensor:
#      x y z
#    x 1.745080 0.000000 0.000000 
#    y 0.000000 1.739300 0.000000 
#    z 0.000000 0.000000 1.739270 
# 
# From -- ./inp_files/21136.got.cif
#   From: 2010.03.12/outbox.cif.g09.slc.cpg/sg59_11_cif.got.tgz:21136.got - 2010.04.16 16:29:54.
