data_PCOD8245510
_publ_section_title
;
Structure prediction by ZEFSAII (Michael W. Deem and Ramdas Pophale) SiO2 
 PCOD8245510
Probable space group: P M M N
;
_chemical_formula_sum "Si O2"
_cell_formula_units_Z 48
_cell_length_a 7.782784
_cell_length_b 15.729053
_cell_length_c 19.388394
_cell_angle_alpha 90.000000
_cell_angle_beta 90.000000
_cell_angle_gamma 90.000000
_cell_volume 2373.446189
_symmetry_space_group_name_H-M "P M M N"
_symmetry_group_IT_number 59
_space_group.IT_coordinate_system_code '2'
_symmetry_cell_setting 'orthorhombic'
loop_
_space_group_symop_operation_xyz
x,y,z
1/2-x,1/2-y,z
1/2+x,-y,-z
-x,1/2+y,-z
-x,-y,-z
1/2+x,1/2+y,-z
1/2-x,y,z
x,1/2-y,z
loop_
_atom_site_type_symbol
_atom_site_label
_atom_site_fract_x
_atom_site_fract_y
_atom_site_fract_z
Si Si1 0.554885 0.345654 0.918453
Si Si2 0.055710 0.957415 0.311413
Si Si3 0.947758 0.062986 0.439325
Si Si4 0.551381 0.845601 0.930356
Si Si5 0.056386 0.502676 0.832786
Si Si6 0.250000 0.155077 0.495584
Si Si7 0.750000 0.850037 0.352133
O O1 0.750000 0.351398 0.892655
O O2 0.481460 0.250000 0.904197
O O3 0.449269 0.416946 0.878132
O O4 0.551735 0.365120 0.999862
O O5 0.250000 0.929136 0.331638
O O6 0.061453 0.995848 0.234757
O O7 0.924111 0.878261 0.313157
O O8 0.984593 0.027556 0.363733
O O9 0.750000 0.092683 0.446421
O O10 0.078570 0.140922 0.450623
O O11 0.000000 0.000000 0.500000
O O12 0.750000 0.854060 0.949141
O O13 0.508467 0.750000 0.903316
O O14 0.502221 0.914197 0.873580
O O15 0.250000 0.516014 0.807888
O O16 0.250000 0.250000 0.521063
O O17 0.250000 0.106079 0.570540
O O18 0.750000 0.750000 0.352023
#
# Coordination Sequence:
#
# PCOD8245510 Si02
#       7
#     8   8   8   8   8   4   4
#     4  10  21  38  60  87 120 160 205 253 311 372
#     4  12  23  41  65  92 123 170 214 252 311 378
#     4  12  20  38  67  92 122 168 212 255 308 369
#     4  10  21  39  62  88 118 156 204 259 316 371
#     4  12  24  39  60  89 124 161 208 259 310 378
#     4  11  24  40  64 100 130 159 208 267 313 364
#     4  11  24  42  62  96 134 161 208 263 309 368
#
# _framework density 20.223758
#
# number of rings (size 3 to 8) (size 9 to 14) (size 15 to 20)
#    0.000    0.833    5.000    3.000    0.000    3.333 
#    0.000    2.500    0.000    2.000    0.000    0.000 
#    0.000    0.000    0.000    0.000    0.000    0.000 
#
# Total GULP energy -595162.445787 kJ/mol
# GULP energy per Si atom -12399.217621 kJ/mol
# Density = 2.017773 g / cm^3
# Si number density = 20.223758 Si / 1000 Ang^3
#
#
#
# Elastic Constant Matrix: (Units=GPa)
#
#
# Indices 1 2 3 4 5 6 
#
# 1 151.0705 30.1174 21.7928 0.0000 0.0000 0.0000
# 2 30.1174 96.9325 54.6808 0.0000 0.0000 0.0000
# 3 21.7928 54.6808 109.9015 0.0000 0.0000 0.0000
# 4 0.0000 0.0000 0.0000 18.6413 0.0000 0.0000
# 5 0.0000 0.0000 0.0000 0.0000 32.1534 0.0000
# 6 0.0000 0.0000 0.0000 0.0000 0.0000 18.2918
#
#
#
# Elastic Compliance Matrix: (Units=1/GPa)
#
#
# Indices 1 2 3 4 5 6 
#
# 1 0.007071 -0.001955 -0.000430 0.000000 0.000000 0.000000
# 2 -0.001955 0.014882 -0.007017 0.000000 0.000000 0.000000
# 3 -0.000430 -0.007017 0.012675 0.000000 0.000000 0.000000
# 4 0.000000 0.000000 0.000000 0.053644 0.000000 0.000000
# 5 0.000000 0.000000 0.000000 0.000000 0.031101 0.000000
# 6 0.000000 0.000000 0.000000 0.000000 0.000000 0.054669
#
#
# Mechanical properties :
#
#
# Convention : Reuss Voigt Hill
#
# Bulk Modulus (GPa) = 63.18608 63.45407 63.32007
# Shear Modulus (GPa) = 25.23712 30.57154 27.90433
#
# Velocity S-wave (km/s) = 3.53639 3.89223 3.71857
# Velocity P-wave (km/s) = 6.92720 7.18633 7.05795
#
# Compressibility (1/GPa) = 0.01582627
#
# Stress axis : x y z
#
# Youngs Moduli (GPa) = 141.42101 67.19475 78.89258
#
# Poissons Ratio (x) = 0.13134 0.03389
# Poissons Ratio (y) = 0.27643 0.55358
# Poissons Ratio (z) = 0.06076 0.47150
#
# Static dielectric constant tensor:
#      x y z
#    x 4.732210 0.000000 0.000000 
#    y 0.000000 3.702260 0.000000 
#    z 0.000000 0.000000 3.655340 
# 
# 
# High freq. dielectric constant tensor:
#      x y z
#    x 1.807720 0.000000 0.000000 
#    y 0.000000 1.775450 0.000000 
#    z 0.000000 0.000000 1.786430 
# 
# From -- ./inp_files/25585.got.cif
#   From: 2010.03.12/outbox.cif.g09.slc.cpg/sg59_13_cif.got.tgz:25585.got - 2010.04.16 16:29:54.
