data_PCOD8245734
_publ_section_title
;
Structure prediction by ZEFSAII (Michael W. Deem and Ramdas Pophale) SiO2 
 PCOD8245734
Probable space group: P M M N
;
_chemical_formula_sum "Si O2"
_cell_formula_units_Z 48
_cell_length_a 28.515887
_cell_length_b 8.769146
_cell_length_c 9.936885
_cell_angle_alpha 90.000000
_cell_angle_beta 90.000000
_cell_angle_gamma 90.000000
_cell_volume 2484.817229
_symmetry_space_group_name_H-M "P M M N"
_symmetry_group_IT_number 59
_space_group.IT_coordinate_system_code '2'
_symmetry_cell_setting 'orthorhombic'
loop_
_space_group_symop_operation_xyz
x,y,z
1/2-x,1/2-y,z
1/2+x,-y,-z
-x,1/2+y,-z
-x,-y,-z
1/2+x,1/2+y,-z
1/2-x,y,z
x,1/2-y,z
loop_
_atom_site_type_symbol
_atom_site_label
_atom_site_fract_x
_atom_site_fract_y
_atom_site_fract_z
Si Si1 0.870884 0.923966 0.995520
Si Si2 0.802923 0.430106 0.486116
Si Si3 0.480223 0.430336 0.634908
Si Si4 0.882011 0.070364 0.280238
Si Si5 0.472461 0.424222 0.119806
Si Si6 0.803761 0.571709 0.763701
O O1 0.861389 0.750000 0.041689
O O2 0.917880 0.933670 0.909409
O O3 0.830816 0.986919 0.895869
O O4 0.872195 0.029882 0.125785
O O5 0.750000 0.492412 0.457739
O O6 0.802266 0.250000 0.493545
O O7 0.837637 0.486078 0.368312
O O8 0.822289 0.491439 0.628384
O O9 0.500000 0.500000 0.500000
O O10 0.478725 0.250000 0.624082
O O11 0.428226 0.487657 0.667038
O O12 0.516893 0.479897 0.747960
O O13 0.889656 0.250000 0.293663
O O14 0.489323 0.250000 0.138401
O O15 0.500000 0.500000 0.000000
O O16 0.750000 0.529310 0.788115
O O17 0.812435 0.750000 0.744286
#
# Coordination Sequence:
#
# PCOD8245734 Si02
#       6
#     8   8   8   8   8   8
#     4  10  22  38  58  86 118 155 193 239 293 348
#     4   9  20  39  60  85 118 153 192 241 295 351
#     4  12  26  43  62  87 120 157 199 248 296 351
#     4  11  23  39  60  88 119 155 199 243 293 353
#     4  11  22  39  61  87 120 158 197 240 291 349
#     4   9  19  37  60  87 117 150 193 241 291 350
#
# _framework density 19.317316999999999
#
# number of rings (size 3 to 8) (size 9 to 14) (size 15 to 20)
#    0.000    1.667    1.667    2.500    2.333    3.333 
#    0.000    0.000    0.000    0.000    0.000    0.000 
#    0.000    0.000    0.000    0.000    0.000    0.000 
#
# Total GULP energy -595330.677795 kJ/mol
# GULP energy per Si atom -12402.722454 kJ/mol
# Density = 1.927335 g / cm^3
# Si number density = 19.317317 Si / 1000 Ang^3
#
#
#
# Elastic Constant Matrix: (Units=GPa)
#
#
# Indices 1 2 3 4 5 6 
#
# 1 95.9281 41.2281 72.3101 0.0000 0.0000 0.0000
# 2 41.2281 89.0054 53.5821 0.0000 0.0000 0.0000
# 3 72.3101 53.5821 164.3588 0.0000 0.0000 0.0000
# 4 0.0000 0.0000 0.0000 39.1311 0.0000 0.0000
# 5 0.0000 0.0000 0.0000 0.0000 40.7534 0.0000
# 6 0.0000 0.0000 0.0000 0.0000 0.0000 24.5629
#
#
#
# Elastic Compliance Matrix: (Units=1/GPa)
#
#
# Indices 1 2 3 4 5 6 
#
# 1 0.016734 -0.004130 -0.006016 0.000000 0.000000 0.000000
# 2 -0.004130 0.014998 -0.003073 0.000000 0.000000 0.000000
# 3 -0.006016 -0.003073 0.009733 0.000000 0.000000 0.000000
# 4 0.000000 0.000000 0.000000 0.025555 0.000000 0.000000
# 5 0.000000 0.000000 0.000000 0.000000 0.024538 0.000000
# 6 0.000000 0.000000 0.000000 0.000000 0.000000 0.040712
#
#
# Mechanical properties :
#
#
# Convention : Reuss Voigt Hill
#
# Bulk Modulus (GPa) = 66.54117 75.94809 71.24463
# Shear Modulus (GPa) = 30.54085 33.03428 31.78756
#
# Velocity S-wave (km/s) = 3.98050 4.13981 4.06094
# Velocity P-wave (km/s) = 7.45969 7.89000 7.67786
#
# Compressibility (1/GPa) = 0.01502829
#
# Stress axis : x y z
#
# Youngs Moduli (GPa) = 59.75813 66.67598 102.74738
#
# Poissons Ratio (x) = 0.27536 0.61812
# Poissons Ratio (y) = 0.24679 0.31569
# Poissons Ratio (z) = 0.35950 0.20486
#
# Static dielectric constant tensor:
#      x y z
#    x 3.714620 0.000000 0.000000 
#    y 0.000000 3.608440 0.000000 
#    z 0.000000 0.000000 3.726020 
# 
# 
# High freq. dielectric constant tensor:
#      x y z
#    x 1.759880 0.000000 0.000000 
#    y 0.000000 1.753040 0.000000 
#    z 0.000000 0.000000 1.762130 
# 
# From -- ./inp_files/6274.got.cif
#   From: 2010.03.12/outbox.cif.g09.slc.cpg/sg59_4_cif.got.tgz:6274.got - 2010.04.16 16:29:54.
