data_PCOD8245580
_publ_section_title
;
Structure prediction by ZEFSAII (Michael W. Deem and Ramdas Pophale) SiO2 
 PCOD8245580
Probable space group: P M M N
;
_chemical_formula_sum "Si O2"
_cell_formula_units_Z 64
_cell_length_a 30.923765
_cell_length_b 8.644926
_cell_length_c 12.030583
_cell_angle_alpha 90.000000
_cell_angle_beta 90.000000
_cell_angle_gamma 90.000000
_cell_volume 3216.179786
_symmetry_space_group_name_H-M "P M M N"
_symmetry_group_IT_number 59
_space_group.IT_coordinate_system_code '2'
_symmetry_cell_setting 'orthorhombic'
loop_
_space_group_symop_operation_xyz
x,y,z
1/2-x,1/2-y,z
1/2+x,-y,-z
-x,1/2+y,-z
-x,-y,-z
1/2+x,1/2+y,-z
1/2-x,y,z
x,1/2-y,z
loop_
_atom_site_type_symbol
_atom_site_label
_atom_site_fract_x
_atom_site_fract_y
_atom_site_fract_z
Si Si1 0.373080 0.067584 0.361341
Si Si2 0.200009 0.570483 0.509251
Si Si3 0.940696 0.570511 0.239553
Si Si4 0.514531 0.569352 0.884100
Si Si5 0.605419 0.428867 0.862041
Si Si6 0.952490 0.929674 0.489549
Si Si7 0.864923 0.427458 0.103953
Si Si8 0.799189 0.574073 0.259974
O O1 0.375608 0.250000 0.340654
O O2 0.417173 0.007294 0.422032
O O3 0.330500 0.031859 0.432128
O O4 0.367033 0.976299 0.245747
O O5 0.250000 0.525631 0.485662
O O6 0.191390 0.750000 0.486074
O O7 0.188323 0.534616 0.637000
O O8 0.934000 0.750000 0.210554
O O9 0.931801 0.536745 0.368776
O O10 0.910133 0.469384 0.161304
O O11 0.989514 0.517960 0.214530
O O12 0.504053 0.750000 0.880941
O O13 0.564672 0.541806 0.864228
O O14 0.500000 0.500000 0.000000
O O15 0.590885 0.250000 0.856457
O O16 0.633535 0.458859 0.972279
O O17 0.959206 0.750000 0.508607
O O18 0.000000 0.000000 0.500000
O O19 0.854389 0.250000 0.129138
O O20 0.827230 0.532843 0.152895
O O21 0.750000 0.549602 0.223687
O O22 0.808578 0.750000 0.295983
#
# Coordination Sequence:
#
# PCOD8245580 Si02
#       8
#     8   8   8   8   8   8   8   8
#     4  11  23  40  62  89 121 160 205 252 307 368
#     4  10  21  39  65  95 124 156 198 247 302 365
#     4  11  22  37  59  85 116 151 193 246 298 352
#     4  12  23  37  57  83 115 155 201 248 297 353
#     4  11  24  41  59  84 118 158 204 251 299 357
#     4  10  23  39  56  83 116 154 196 242 295 353
#     4  11  23  38  59  86 116 151 195 242 293 354
#     4  10  21  38  62  91 122 153 188 237 297 359
#
# _framework density 19.899384999999999
#
# number of rings (size 3 to 8) (size 9 to 14) (size 15 to 20)
#    0.000    1.250    1.250    4.875    0.000    8.000 
#    0.000    0.625    0.000    0.750    0.000    0.000 
#    0.000    0.000    0.000    0.000    0.000    0.000 
#
# Total GULP energy -793885.574220 kJ/mol
# GULP energy per Si atom -12404.462097 kJ/mol
# Density = 1.985409 g / cm^3
# Si number density = 19.899385 Si / 1000 Ang^3
#
#
#
# Elastic Constant Matrix: (Units=GPa)
#
#
# Indices 1 2 3 4 5 6 
#
# 1 91.8388 22.5556 47.2761 0.0000 0.0000 0.0000
# 2 22.5556 55.6992 40.5931 0.0000 0.0000 0.0000
# 3 47.2761 40.5931 114.9262 0.0000 0.0000 0.0000
# 4 0.0000 0.0000 0.0000 31.9147 0.0000 0.0000
# 5 0.0000 0.0000 0.0000 0.0000 32.5587 0.0000
# 6 0.0000 0.0000 0.0000 0.0000 0.0000 34.7054
#
#
#
# Elastic Compliance Matrix: (Units=1/GPa)
#
#
# Indices 1 2 3 4 5 6 
#
# 1 0.013974 -0.001979 -0.005049 0.000000 0.000000 0.000000
# 2 -0.001979 0.024457 -0.007825 0.000000 0.000000 0.000000
# 3 -0.005049 -0.007825 0.013542 0.000000 0.000000 0.000000
# 4 0.000000 0.000000 0.000000 0.031334 0.000000 0.000000
# 5 0.000000 0.000000 0.000000 0.000000 0.030714 0.000000
# 6 0.000000 0.000000 0.000000 0.000000 0.000000 0.028814
#
#
# Mechanical properties :
#
#
# Convention : Reuss Voigt Hill
#
# Bulk Modulus (GPa) = 44.90788 53.70152 49.30470
# Shear Modulus (GPa) = 27.78351 29.97173 28.87762
#
# Velocity S-wave (km/s) = 3.74063 3.88514 3.81357
# Velocity P-wave (km/s) = 6.42440 6.86811 6.64995
#
# Compressibility (1/GPa) = 0.02226780
#
# Stress axis : x y z
#
# Youngs Moduli (GPa) = 71.56183 40.88739 73.84389
#
# Poissons Ratio (x) = 0.08091 0.37287
# Poissons Ratio (y) = 0.14161 0.57780
# Poissons Ratio (z) = 0.36134 0.31993
#
# Static dielectric constant tensor:
#      x y z
#    x 2.871210 0.000000 0.000000 
#    y 0.000000 3.632110 0.000000 
#    z 0.000000 0.000000 3.948110 
# 
# 
# High freq. dielectric constant tensor:
#      x y z
#    x 1.769210 0.000000 0.000000 
#    y 0.000000 1.785830 0.000000 
#    z 0.000000 0.000000 1.781320 
# 
# From -- ./inp_files/19230.got.cif
#   From: 2010.03.12/outbox.cif.g09.slc.cpg/sg59_10_cif.got.tgz:19230.got - 2010.04.16 16:29:54.
