data_PCOD8245324
_publ_section_title
;
Structure prediction by ZEFSAII (Michael W. Deem and Ramdas Pophale) SiO2 
 PCOD8245324
Probable space group: P M M N
;
_chemical_formula_sum "Si O2"
_cell_formula_units_Z 56
_cell_length_a 14.367815
_cell_length_b 9.270538
_cell_length_c 21.617802
_cell_angle_alpha 90.000000
_cell_angle_beta 90.000000
_cell_angle_gamma 90.000000
_cell_volume 2879.434478
_symmetry_space_group_name_H-M "P M M N"
_symmetry_group_IT_number 59
_space_group.IT_coordinate_system_code '2'
_symmetry_cell_setting 'orthorhombic'
loop_
_space_group_symop_operation_xyz
x,y,z
1/2-x,1/2-y,z
1/2+x,-y,-z
-x,1/2+y,-z
-x,-y,-z
1/2+x,1/2+y,-z
1/2-x,y,z
x,1/2-y,z
loop_
_atom_site_type_symbol
_atom_site_label
_atom_site_fract_x
_atom_site_fract_y
_atom_site_fract_z
Si Si1 0.494623 0.418586 0.277979
Si Si2 0.013073 0.418215 0.594239
Si Si3 0.139287 0.088593 0.941132
Si Si4 0.855956 0.416033 0.176714
Si Si5 0.639709 0.410023 0.944716
Si Si6 0.640646 0.415237 0.806658
Si Si7 0.857710 0.416307 0.495683
O O1 0.480723 0.250000 0.291344
O O2 0.504480 0.502628 0.341264
O O3 0.586882 0.449729 0.238332
O O4 0.405719 0.476985 0.241501
O O5 0.032282 0.250000 0.604821
O O6 0.101232 0.483801 0.558168
O O7 0.916323 0.444078 0.557990
O O8 0.250000 0.083917 0.942701
O O9 0.100453 0.250000 0.938326
O O10 0.102545 0.006812 0.880381
O O11 0.098129 0.015910 0.003238
O O12 0.750000 0.460570 0.191129
O O13 0.863418 0.250000 0.157100
O O14 0.750000 0.405550 0.949108
O O15 0.600087 0.250000 0.956988
O O16 0.610583 0.462106 0.876134
O O17 0.750000 0.431317 0.797792
O O18 0.610168 0.250000 0.794015
O O19 0.750000 0.457346 0.508008
O O20 0.867102 0.250000 0.474779
#
# Coordination Sequence:
#
# PCOD8245324 Si02
#       7
#     8   8   8   8   8   8   8
#     4  11  23  37  55  81 112 147 186 227 272 320
#     4  10  21  37  58  86 118 150 184 223 268 318
#     4   9  16  26  45  74 102 128 166 222 282 331
#     4   9  19  36  54  71  98 140 185 225 270 328
#     4   8  14  27  48  71  96 131 174 218 270 333
#     4   9  19  36  56  77 104 142 185 227 275 331
#     4   9  19  38  63  88 115 148 184 222 265 314
#
# _framework density 19.448262
#
# number of rings (size 3 to 8) (size 9 to 14) (size 15 to 20)
#    0.000    2.714    0.000    2.143    0.000    5.714 
#    0.000    5.000    0.000    0.000    0.000    0.000 
#    0.000    0.000    0.000    0.000    0.000    0.000 
#
# Total GULP energy -694352.765217 kJ/mol
# GULP energy per Si atom -12399.156522 kJ/mol
# Density = 1.940400 g / cm^3
# Si number density = 19.448262 Si / 1000 Ang^3
#
#
#
# Elastic Constant Matrix: (Units=GPa)
#
#
# Indices 1 2 3 4 5 6 
#
# 1 92.0334 49.0897 49.5471 0.0000 0.0000 0.0000
# 2 49.0897 134.5258 102.2379 0.0000 0.0000 0.0000
# 3 49.5471 102.2379 167.9236 0.0000 0.0000 0.0000
# 4 0.0000 0.0000 0.0000 49.3513 0.0000 0.0000
# 5 0.0000 0.0000 0.0000 0.0000 28.8845 0.0000
# 6 0.0000 0.0000 0.0000 0.0000 0.0000 20.8366
#
#
#
# Elastic Compliance Matrix: (Units=1/GPa)
#
#
# Indices 1 2 3 4 5 6 
#
# 1 0.013801 -0.003613 -0.001872 0.000000 0.000000 0.000000
# 2 -0.003613 0.014781 -0.007933 0.000000 0.000000 0.000000
# 3 -0.001872 -0.007933 0.011337 0.000000 0.000000 0.000000
# 4 0.000000 0.000000 0.000000 0.020263 0.000000 0.000000
# 5 0.000000 0.000000 0.000000 0.000000 0.034621 0.000000
# 6 0.000000 0.000000 0.000000 0.000000 0.000000 0.047992
#
#
# Mechanical properties :
#
#
# Convention : Reuss Voigt Hill
#
# Bulk Modulus (GPa) = 76.43926 88.47024 82.45475
# Shear Modulus (GPa) = 28.73676 32.72169 30.72922
#
# Velocity S-wave (km/s) = 3.84813 4.10628 3.97930
# Velocity P-wave (km/s) = 7.68982 8.25050 7.97509
#
# Compressibility (1/GPa) = 0.01308228
#
# Stress axis : x y z
#
# Youngs Moduli (GPa) = 72.45971 67.65394 88.20301
#
# Poissons Ratio (x) = 0.24445 0.16513
# Poissons Ratio (y) = 0.26181 0.69973
# Poissons Ratio (z) = 0.13566 0.53671
#
# Static dielectric constant tensor:
#      x y z
#    x 3.449650 0.000000 0.000000 
#    y 0.000000 3.714880 0.000000 
#    z 0.000000 0.000000 3.563760 
# 
# 
# High freq. dielectric constant tensor:
#      x y z
#    x 1.753880 0.000000 0.000000 
#    y 0.000000 1.759590 0.000000 
#    z 0.000000 0.000000 1.754980 
# 
# From -- ./inp_files/29086.got.cif
#   From: 2010.03.12/outbox.cif.g09.slc.cpg/sg59_15_cif.got.tgz:29086.got - 2010.04.16 16:29:54.
