data_PCOD8245374
_publ_section_title
;
Structure prediction by ZEFSAII (Michael W. Deem and Ramdas Pophale) SiO2 
 PCOD8245374
Probable space group: P M M N
;
_chemical_formula_sum "Si O2"
_cell_formula_units_Z 40
_cell_length_a 8.673621
_cell_length_b 20.410146
_cell_length_c 11.458792
_cell_angle_alpha 90.000000
_cell_angle_beta 90.000000
_cell_angle_gamma 90.000000
_cell_volume 2028.548469
_symmetry_space_group_name_H-M "P M M N"
_symmetry_group_IT_number 59
_space_group.IT_coordinate_system_code '2'
_symmetry_cell_setting 'orthorhombic'
loop_
_space_group_symop_operation_xyz
x,y,z
1/2-x,1/2-y,z
1/2+x,-y,-z
-x,1/2+y,-z
-x,-y,-z
1/2+x,1/2+y,-z
1/2-x,y,z
x,1/2-y,z
loop_
_atom_site_type_symbol
_atom_site_label
_atom_site_fract_x
_atom_site_fract_y
_atom_site_fract_z
Si Si1 0.430266 0.427157 0.491096
Si Si2 0.067547 0.250000 0.128070
Si Si3 0.568341 0.500277 0.125978
Si Si4 0.567085 0.373439 0.261870
Si Si5 0.429298 0.371803 0.742461
Si Si6 0.070056 0.750000 0.130795
O O1 0.500000 0.500000 0.500000
O O2 0.250000 0.435739 0.466143
O O3 0.509500 0.382133 0.393592
O O4 0.459518 0.384627 0.606707
O O5 0.250000 0.250000 0.128207
O O6 0.007930 0.187573 0.197776
O O7 0.013790 0.250000 0.993992
O O8 0.750000 0.499188 0.119535
O O9 0.508024 0.437272 0.194182
O O10 0.509343 0.564373 0.191234
O O11 0.500000 0.500000 0.000000
O O12 0.750000 0.365188 0.260941
O O13 0.250000 0.357782 0.767572
O O14 0.527730 0.312071 0.790750
O O15 0.250000 0.750000 0.103783
#
# Coordination Sequence:
#
# PCOD8245374 Si02
#       6
#     8   4   8   8   8   4
#     4  11  22  40  66  96 130 169 214 265 321 380
#     4  12  26  45  66  93 128 173 215 257 319 388
#     4  10  21  37  59  89 121 158 208 259 313 373
#     4  11  23  42  65  94 128 166 212 267 321 377
#     4  10  22  42  64  89 125 170 212 258 314 379
#     4  12  26  43  64  95 128 167 213 265 321 376
#
# _framework density 19.718532
#
# number of rings (size 3 to 8) (size 9 to 14) (size 15 to 20)
#    0.000    1.200    2.000    4.200    0.000    8.000 
#    0.000    1.000    0.000    0.000    0.000    0.000 
#    0.000    0.000    0.000    0.000    0.000    0.000 
#
# Total GULP energy -496097.663195 kJ/mol
# GULP energy per Si atom -12402.441580 kJ/mol
# Density = 1.967365 g / cm^3
# Si number density = 19.718532 Si / 1000 Ang^3
#
#
#
# Elastic Constant Matrix: (Units=GPa)
#
#
# Indices 1 2 3 4 5 6 
#
# 1 102.7555 63.6535 55.8157 0.0000 0.0000 0.0000
# 2 63.6535 169.0498 76.7017 0.0000 0.0000 0.0000
# 3 55.8157 76.7017 151.8130 0.0000 0.0000 0.0000
# 4 0.0000 0.0000 0.0000 38.6141 0.0000 0.0000
# 5 0.0000 0.0000 0.0000 0.0000 38.9224 0.0000
# 6 0.0000 0.0000 0.0000 0.0000 0.0000 121.2710
#
#
#
# Elastic Compliance Matrix: (Units=1/GPa)
#
#
# Indices 1 2 3 4 5 6 
#
# 1 0.013776 -0.003749 -0.003171 0.000000 0.000000 0.000000
# 2 -0.003749 0.008695 -0.003015 0.000000 0.000000 0.000000
# 3 -0.003171 -0.003015 0.009276 0.000000 0.000000 0.000000
# 4 0.000000 0.000000 0.000000 0.025897 0.000000 0.000000
# 5 0.000000 0.000000 0.000000 0.000000 0.025692 0.000000
# 6 0.000000 0.000000 0.000000 0.000000 0.000000 0.008246
#
#
# Mechanical properties :
#
#
# Convention : Reuss Voigt Hill
#
# Bulk Modulus (GPa) = 84.18586 90.66226 87.42406
# Shear Modulus (GPa) = 43.32341 54.92466 49.12404
#
# Velocity S-wave (km/s) = 4.69240 5.28345 4.99667
# Velocity P-wave (km/s) = 8.49380 9.12676 8.81596
#
# Compressibility (1/GPa) = 0.01187848
#
# Stress axis : x y z
#
# Youngs Moduli (GPa) = 72.58755 115.01235 107.80368
#
# Poissons Ratio (x) = 0.43113 0.34186
# Poissons Ratio (y) = 0.27210 0.32500
# Poissons Ratio (z) = 0.23019 0.34673
#
# Static dielectric constant tensor:
#      x y z
#    x 3.576140 0.000000 0.000000 
#    y 0.000000 3.778020 0.000000 
#    z 0.000000 0.000000 3.775210 
# 
# 
# High freq. dielectric constant tensor:
#      x y z
#    x 1.773010 0.000000 0.000000 
#    y 0.000000 1.780140 0.000000 
#    z 0.000000 0.000000 1.788440 
# 
# From -- ./inp_files/14136.got.cif
#   From: 2010.03.12/outbox.cif.g09.slc.cpg/sg59_8_cif.got.tgz:14136.got - 2010.04.16 16:29:54.
