data_PCOD8245402
_publ_section_title
;
Structure prediction by ZEFSAII (Michael W. Deem and Ramdas Pophale) SiO2 
 PCOD8245402
Probable space group: P M M N
;
_chemical_formula_sum "Si O2"
_cell_formula_units_Z 56
_cell_length_a 31.104228
_cell_length_b 13.805624
_cell_length_c 5.594363
_cell_angle_alpha 90.000000
_cell_angle_beta 90.000000
_cell_angle_gamma 90.000000
_cell_volume 2402.293746
_symmetry_space_group_name_H-M "P M M N"
_symmetry_group_IT_number 59
_space_group.IT_coordinate_system_code '2'
_symmetry_cell_setting 'orthorhombic'
loop_
_space_group_symop_operation_xyz
x,y,z
1/2-x,1/2-y,z
1/2+x,-y,-z
-x,1/2+y,-z
-x,-y,-z
1/2+x,1/2+y,-z
1/2-x,y,z
x,1/2-y,z
loop_
_atom_site_type_symbol
_atom_site_label
_atom_site_fract_x
_atom_site_fract_y
_atom_site_fract_z
Si Si1 0.509984 0.363750 0.193614
Si Si2 0.415759 0.357247 0.344439
Si Si3 0.047234 0.861747 0.307136
Si Si4 0.330992 0.142549 0.042725
Si Si5 0.865661 0.990365 0.329810
Si Si6 0.868801 0.360040 0.946596
Si Si7 0.201369 0.965291 0.297063
O O1 0.520727 0.250000 0.186483
O O2 0.459350 0.386186 0.210617
O O3 0.532017 0.407786 0.438385
O O4 0.525963 0.407937 0.936773
O O5 0.420160 0.250000 0.464922
O O6 0.378298 0.355423 0.152115
O O7 0.405427 0.441377 0.533058
O O8 0.033562 0.750000 0.312615
O O9 0.099232 0.874445 0.281405
O O10 0.310866 0.250000 0.023824
O O11 0.299384 0.075607 0.199825
O O12 0.337504 0.096708 0.783723
O O13 0.829480 0.046897 0.478127
O O14 0.886645 0.068430 0.151219
O O15 0.870265 0.250000 0.039445
O O16 0.819667 0.391023 0.893694
O O17 0.250000 0.934046 0.354739
#
# Coordination Sequence:
#
# PCOD8245402 Si02
#       7
#     8   8   8   8   8   8   8
#     4   9  18  32  56  90 128 170 219 266 311 367
#     4   9  18  33  58  91 130 174 210 249 297 360
#     4   9  19  35  57  88 123 167 218 269 320 374
#     4   9  19  37  62  90 126 166 201 239 297 370
#     4  10  21  37  61  90 124 158 206 253 315 371
#     4  10  23  42  65  85 115 159 207 263 327 385
#     4  10  23  42  62  88 121 152 195 256 318 385
#
# _framework density 23.311053000000001
#
# number of rings (size 3 to 8) (size 9 to 14) (size 15 to 20)
#    0.000    2.571    0.000    0.429    4.000    4.000 
#    0.000    1.429    0.000    0.000    0.000    0.000 
#    0.000    0.000    0.000    0.000    0.000    0.000 
#
# Total GULP energy -693964.669983 kJ/mol
# GULP energy per Si atom -12392.226250 kJ/mol
# Density = 2.325800 g / cm^3
# Si number density = 23.311053 Si / 1000 Ang^3
#
#
#
# Elastic Constant Matrix: (Units=GPa)
#
#
# Indices 1 2 3 4 5 6 
#
# 1 107.5884 8.3770 15.8624 0.0000 0.0000 0.0000
# 2 8.3770 65.9517 4.8884 0.0000 0.0000 0.0000
# 3 15.8624 4.8884 99.5485 0.0000 0.0000 0.0000
# 4 0.0000 0.0000 0.0000 10.7177 0.0000 0.0000
# 5 0.0000 0.0000 0.0000 0.0000 14.7334 0.0000
# 6 0.0000 0.0000 0.0000 0.0000 0.0000 22.7066
#
#
#
# Elastic Compliance Matrix: (Units=1/GPa)
#
#
# Indices 1 2 3 4 5 6 
#
# 1 0.009599 -0.001110 -0.001475 0.000000 0.000000 0.000000
# 2 -0.001110 0.015346 -0.000577 0.000000 0.000000 0.000000
# 3 -0.001475 -0.000577 0.010309 0.000000 0.000000 0.000000
# 4 0.000000 0.000000 0.000000 0.093304 0.000000 0.000000
# 5 0.000000 0.000000 0.000000 0.000000 0.067873 0.000000
# 6 0.000000 0.000000 0.000000 0.000000 0.000000 0.044040
#
#
# Mechanical properties :
#
#
# Convention : Reuss Voigt Hill
#
# Bulk Modulus (GPa) = 34.56565 36.81603 35.69084
# Shear Modulus (GPa) = 19.49799 25.89561 22.69680
#
# Velocity S-wave (km/s) = 2.89524 3.33659 3.12372
# Velocity P-wave (km/s) = 5.10262 5.53818 5.32486
#
# Compressibility (1/GPa) = 0.02893046
#
# Stress axis : x y z
#
# Youngs Moduli (GPa) = 104.18234 65.16215 97.00545
#
# Poissons Ratio (x) = 0.07232 0.14308
# Poissons Ratio (y) = 0.11563 0.05595
# Poissons Ratio (z) = 0.15367 0.03758
#
# Static dielectric constant tensor:
#      x y z
#    x 3.836990 0.000000 0.000000 
#    y 0.000000 4.308880 0.000000 
#    z 0.000000 0.000000 4.330370 
# 
# 
# High freq. dielectric constant tensor:
#      x y z
#    x 1.903170 0.000000 0.000000 
#    y 0.000000 1.919140 0.000000 
#    z 0.000000 0.000000 1.917460 
# 
# From -- ./inp_files/2292.got.cif
#   From: 2010.03.12/outbox.cif.g09.slc.cpg/sg59_2_cif.got.tgz:2292.got - 2010.04.16 16:29:54.
