data_PCOD8245242
_publ_section_title
;
Structure prediction by ZEFSAII (Michael W. Deem and Ramdas Pophale) SiO2 
 PCOD8245242
Probable space group: P M M N
;
_chemical_formula_sum "Si O2"
_cell_formula_units_Z 64
_cell_length_a 28.632470
_cell_length_b 8.759382
_cell_length_c 12.347340
_cell_angle_alpha 90.000000
_cell_angle_beta 90.000000
_cell_angle_gamma 90.000000
_cell_volume 3096.746733
_symmetry_space_group_name_H-M "P M M N"
_symmetry_group_IT_number 59
_space_group.IT_coordinate_system_code '2'
_symmetry_cell_setting 'orthorhombic'
loop_
_space_group_symop_operation_xyz
x,y,z
1/2-x,1/2-y,z
1/2+x,-y,-z
-x,1/2+y,-z
-x,-y,-z
1/2+x,1/2+y,-z
1/2-x,y,z
x,1/2-y,z
loop_
_atom_site_type_symbol
_atom_site_label
_atom_site_fract_x
_atom_site_fract_y
_atom_site_fract_z
Si Si1 0.337836 0.922751 0.481701
Si Si2 0.802902 0.071287 0.943671
Si Si3 0.197897 0.926857 0.710277
Si Si4 0.523460 0.567678 0.107339
Si Si5 0.570179 0.577683 0.489220
Si Si6 0.000897 0.925411 0.671672
Si Si7 0.196260 0.076986 0.274625
Si Si8 0.868227 0.570981 0.122176
O O1 0.331852 0.750000 0.440471
O O2 0.303161 0.955454 0.581426
O O3 0.389778 0.952642 0.523163
O O4 0.330498 0.038085 0.383740
O O5 0.750000 0.007852 0.962533
O O6 0.803485 0.250000 0.960785
O O7 0.820188 0.030390 0.823266
O O8 0.839326 0.999306 0.024712
O O9 0.250000 0.974192 0.751060
O O10 0.188683 0.750000 0.737274
O O11 0.156870 0.022761 0.766408
O O12 0.518122 0.750000 0.107864
O O13 0.495595 0.493910 0.208072
O O14 0.577899 0.516831 0.116877
O O15 0.500000 0.500000 0.000000
O O16 0.588067 0.750000 0.467086
O O17 0.548570 0.568090 0.609832
O O18 0.534617 0.536162 0.394544
O O19 0.018865 0.750000 0.676121
O O20 0.250000 0.048811 0.300377
O O21 0.185258 0.250000 0.241264
O O22 0.865967 0.750000 0.111205
#
# Coordination Sequence:
#
# PCOD8245242 Si02
#       8
#     8   8   8   8   8   8   8   8
#     4  11  22  36  57  85 118 156 197 239 285 340
#     4  10  21  38  61  87 115 151 196 242 289 348
#     4  10  22  39  59  86 121 160 200 241 286 342
#     4  11  25  43  63  87 117 154 196 246 302 360
#     4  10  21  37  59  87 118 151 190 239 289 341
#     4  10  21  39  62  86 114 149 190 236 289 348
#     4  10  21  37  57  81 112 150 189 233 286 339
#     4  11  24  40  60  88 119 151 192 243 298 354
#
# _framework density 20.666851000000001
#
# number of rings (size 3 to 8) (size 9 to 14) (size 15 to 20)
#    0.000    1.625    0.000    4.125    0.000   11.250 
#    0.000    1.250    0.000    0.000    0.000    0.000 
#    0.000    0.000    0.000    0.000    0.000    0.000 
#
# Total GULP energy -793675.502547 kJ/mol
# GULP energy per Si atom -12401.179727 kJ/mol
# Density = 2.061981 g / cm^3
# Si number density = 20.666851 Si / 1000 Ang^3
#
#
#
# Elastic Constant Matrix: (Units=GPa)
#
#
# Indices 1 2 3 4 5 6 
#
# 1 61.3468 34.4069 27.1290 0.0000 0.0000 0.0000
# 2 34.4069 76.3127 37.6333 0.0000 0.0000 0.0000
# 3 27.1290 37.6333 117.4308 0.0000 0.0000 0.0000
# 4 0.0000 0.0000 0.0000 38.7501 0.0000 0.0000
# 5 0.0000 0.0000 0.0000 0.0000 22.1788 0.0000
# 6 0.0000 0.0000 0.0000 0.0000 0.0000 32.0283
#
#
#
# Elastic Compliance Matrix: (Units=1/GPa)
#
#
# Indices 1 2 3 4 5 6 
#
# 1 0.022327 -0.008935 -0.002295 0.000000 0.000000 0.000000
# 2 -0.008935 0.019139 -0.004069 0.000000 0.000000 0.000000
# 3 -0.002295 -0.004069 0.010350 0.000000 0.000000 0.000000
# 4 0.000000 0.000000 0.000000 0.025806 0.000000 0.000000
# 5 0.000000 0.000000 0.000000 0.000000 0.045088 0.000000
# 6 0.000000 0.000000 0.000000 0.000000 0.000000 0.031222
#
#
# Mechanical properties :
#
#
# Convention : Reuss Voigt Hill
#
# Bulk Modulus (GPa) = 47.12959 50.38099 48.75529
# Shear Modulus (GPa) = 26.09561 28.98616 27.54088
#
# Velocity S-wave (km/s) = 3.55728 3.74912 3.65446
# Velocity P-wave (km/s) = 6.30287 6.57052 6.43809
#
# Compressibility (1/GPa) = 0.02121809
#
# Stress axis : x y z
#
# Youngs Moduli (GPa) = 44.78955 52.24868 96.61922
#
# Poissons Ratio (x) = 0.46683 0.22170
# Poissons Ratio (y) = 0.40019 0.39319
# Poissons Ratio (z) = 0.10277 0.21262
#
# Static dielectric constant tensor:
#      x y z
#    x 3.910150 0.000000 0.000000 
#    y 0.000000 3.115470 0.000000 
#    z 0.000000 0.000000 3.838770 
# 
# 
# High freq. dielectric constant tensor:
#      x y z
#    x 1.802270 0.000000 0.000000 
#    y 0.000000 1.815110 0.000000 
#    z 0.000000 0.000000 1.818260 
# 
# From -- ./inp_files/19361.got.cif
#   From: 2010.03.12/outbox.cif.g09.slc.cpg/sg59_10_cif.got.tgz:19361.got - 2010.04.16 16:29:54.
