data_PCOD8245725
_publ_section_title
;
Structure prediction by ZEFSAII (Michael W. Deem and Ramdas Pophale) SiO2 
 PCOD8245725
Probable space group: P M M N
;
_chemical_formula_sum "Si O2"
_cell_formula_units_Z 56
_cell_length_a 9.539171
_cell_length_b 14.930365
_cell_length_c 20.052112
_cell_angle_alpha 90.000000
_cell_angle_beta 90.000000
_cell_angle_gamma 90.000000
_cell_volume 2855.888060
_symmetry_space_group_name_H-M "P M M N"
_symmetry_group_IT_number 59
_space_group.IT_coordinate_system_code '2'
_symmetry_cell_setting 'orthorhombic'
loop_
_space_group_symop_operation_xyz
x,y,z
1/2-x,1/2-y,z
1/2+x,-y,-z
-x,1/2+y,-z
-x,-y,-z
1/2+x,1/2+y,-z
1/2-x,y,z
x,1/2-y,z
loop_
_atom_site_type_symbol
_atom_site_label
_atom_site_fract_x
_atom_site_fract_y
_atom_site_fract_z
Si Si1 0.092837 0.143135 0.703494
Si Si2 0.416267 0.151853 0.560944
Si Si3 0.911167 0.852874 0.828137
Si Si4 0.092141 0.357427 0.417679
Si Si5 0.413281 0.852823 0.172844
Si Si6 0.092105 0.856409 0.703278
Si Si7 0.587842 0.001808 0.933421
O O1 0.250000 0.109516 0.719605
O O2 0.089881 0.250000 0.698753
O O3 0.040251 0.103650 0.631096
O O4 0.992258 0.109069 0.762123
O O5 0.250000 0.162802 0.561998
O O6 0.486886 0.250000 0.560461
O O7 0.457637 0.104028 0.490655
O O8 0.750000 0.864616 0.805343
O O9 0.944399 0.750000 0.846215
O O10 0.944027 0.911087 0.893164
O O11 0.008810 0.888525 0.768562
O O12 0.250000 0.389903 0.400705
O O13 0.090077 0.250000 0.419931
O O14 0.985847 0.394916 0.362056
O O15 0.250000 0.863878 0.188093
O O16 0.454076 0.750000 0.157457
O O17 0.458135 0.911833 0.109588
O O18 0.250000 0.894958 0.705276
O O19 0.093108 0.750000 0.700749
O O20 0.750000 0.008444 0.952989
O O21 0.500000 0.000000 0.000000
#
# Coordination Sequence:
#
# PCOD8245725 Si02
#       7
#     8   8   8   8   8   8   8
#     4   8  13  23  41  65  92 124 165 207 239 273
#     4   7  10  17  31  54  85 120 159 202 241 275
#     4   9  18  34  54  73  95 126 163 200 236 276
#     4   8  12  19  33  54  84 124 164 199 238 283
#     4   9  18  33  51  72 101 133 159 187 232 289
#     4   9  16  25  39  63  94 125 159 200 243 286
#     4  10  22  38  55  77 102 126 156 193 233 283
#
# _framework density 19.608612000000001
#
# number of rings (size 3 to 8) (size 9 to 14) (size 15 to 20)
#    0.000    3.429    0.000    2.143    0.000    3.429 
#    0.000    0.714    0.000    4.286    0.000    1.000 
#    0.000    0.000    0.000    0.000    0.000    0.000 
#
# Total GULP energy -693845.238942 kJ/mol
# GULP energy per Si atom -12390.093553 kJ/mol
# Density = 1.956398 g / cm^3
# Si number density = 19.608612 Si / 1000 Ang^3
#
#
#
# Elastic Constant Matrix: (Units=GPa)
#
#
# Indices 1 2 3 4 5 6 
#
# 1 97.2261 25.3588 96.7189 0.0000 0.0000 0.0000
# 2 25.3588 51.8081 43.8860 0.0000 0.0000 0.0000
# 3 96.7189 43.8860 208.7432 0.0000 0.0000 0.0000
# 4 0.0000 0.0000 0.0000 -20.8142 0.0000 0.0000
# 5 0.0000 0.0000 0.0000 0.0000 33.8006 0.0000
# 6 0.0000 0.0000 0.0000 0.0000 0.0000 7.4151
#
#
#
# Elastic Compliance Matrix: (Units=1/GPa)
#
#
# Indices 1 2 3 4 5 6 
#
# 1 0.019298 -0.002277 -0.008463 0.000000 0.000000 0.000000
# 2 -0.002277 0.023753 -0.003939 0.000000 0.000000 0.000000
# 3 -0.008463 -0.003939 0.009540 0.000000 0.000000 0.000000
# 4 0.000000 0.000000 0.000000 -0.048044 0.000000 0.000000
# 5 0.000000 0.000000 0.000000 0.000000 0.029585 0.000000
# 6 0.000000 0.000000 0.000000 0.000000 0.000000 0.134861
#
#
# Mechanical properties :
#
#
# Convention : Reuss Voigt Hill
#
# Bulk Modulus (GPa) = 43.04136 76.63386 59.83761
# Shear Modulus (GPa) = 24.26077 16.86786 20.56432
#
# Velocity S-wave (km/s) = 3.52127 2.93615 3.24194
# Velocity P-wave (km/s) = 6.20728 7.11767 6.67801
#
# Compressibility (1/GPa) = 0.02323347
#
# Stress axis : x y z
#
# Youngs Moduli (GPa) = 51.81950 42.09981 104.82471
#
# Poissons Ratio (x) = 0.09587 0.88710
# Poissons Ratio (y) = 0.11800 0.41288
# Poissons Ratio (z) = 0.43853 0.16582
#
# Static dielectric constant tensor:
#      x y z
#    x 3.500400 0.000000 0.000000 
#    y 0.000000 3.231280 0.000000 
#    z 0.000000 0.000000 3.807300 
# 
# 
# High freq. dielectric constant tensor:
#      x y z
#    x 1.742290 0.000000 0.000000 
#    y 0.000000 1.732160 0.000000 
#    z 0.000000 0.000000 1.771020 
# 
# From -- ./inp_files/29064.got.cif
#   From: 2010.03.12/outbox.cif.g09.slc.cpg/sg59_15_cif.got.tgz:29064.got - 2010.04.16 16:29:54.
