data_PCOD8245268
_publ_section_title
;
Structure prediction by ZEFSAII (Michael W. Deem and Ramdas Pophale) SiO2 
 PCOD8245268
Probable space group: P M M N
;
_chemical_formula_sum "Si O2"
_cell_formula_units_Z 48
_cell_length_a 8.858907
_cell_length_b 30.284265
_cell_length_c 9.125129
_cell_angle_alpha 90.000000
_cell_angle_beta 90.000000
_cell_angle_gamma 90.000000
_cell_volume 2448.139680
_symmetry_space_group_name_H-M "P M M N"
_symmetry_group_IT_number 59
_space_group.IT_coordinate_system_code '2'
_symmetry_cell_setting 'orthorhombic'
loop_
_space_group_symop_operation_xyz
x,y,z
1/2-x,1/2-y,z
1/2+x,-y,-z
-x,1/2+y,-z
-x,-y,-z
1/2+x,1/2+y,-z
1/2-x,y,z
x,1/2-y,z
loop_
_atom_site_type_symbol
_atom_site_label
_atom_site_fract_x
_atom_site_fract_y
_atom_site_fract_z
Si Si1 0.425299 0.301136 0.585491
Si Si2 0.572761 0.959528 0.083247
Si Si3 0.071404 0.458721 0.581062
Si Si4 0.575609 0.380694 0.081415
Si Si5 0.076937 0.799775 0.114308
Si Si6 0.072573 0.877283 0.581153
O O1 0.250000 0.312275 0.566428
O O2 0.461090 0.250000 0.554795
O O3 0.472802 0.314072 0.750097
O O4 0.521582 0.328898 0.469631
O O5 0.750000 0.964939 0.072674
O O6 0.518346 0.959961 0.250906
O O7 0.525628 0.913882 0.010248
O O8 0.500000 0.000000 0.000000
O O9 0.250000 0.461480 0.566082
O O10 0.000000 0.500000 0.500000
O O11 0.014922 0.413425 0.512115
O O12 0.750000 0.394022 0.061658
O O13 0.527436 0.382856 0.249940
O O14 0.543870 0.331399 0.022859
O O15 0.250000 0.803803 0.166526
O O16 0.039209 0.750000 0.062867
O O17 0.250000 0.883066 0.557040
#
# Coordination Sequence:
#
# PCOD8245268 Si02
#       6
#     8   8   8   8   8   8
#     4  10  21  37  57  83 115 150 190 236 284 336
#     4  11  24  40  60  85 113 146 186 231 279 333
#     4  11  24  41  61  87 117 149 188 232 279 334
#     4  10  22  38  57  84 116 148 187 233 279 331
#     4   9  18  35  59  84 111 147 189 232 280 332
#     4  11  23  38  58  85 116 151 191 234 281 335
#
# _framework density 19.606725000000001
#
# number of rings (size 3 to 8) (size 9 to 14) (size 15 to 20)
#    0.000    1.667    0.000    4.000    0.000   13.000 
#    0.000    1.667    0.000    2.000    0.000    0.000 
#    0.000    0.000    0.000    0.000    0.000    0.000 
#
# Total GULP energy -595468.072337 kJ/mol
# GULP energy per Si atom -12405.584840 kJ/mol
# Density = 1.956210 g / cm^3
# Si number density = 19.606725 Si / 1000 Ang^3
#
#
#
# Elastic Constant Matrix: (Units=GPa)
#
#
# Indices 1 2 3 4 5 6 
#
# 1 57.5260 38.6060 58.2167 0.0000 0.0000 0.0000
# 2 38.6060 116.3906 76.0926 0.0000 0.0000 0.0000
# 3 58.2167 76.0926 163.9689 0.0000 0.0000 0.0000
# 4 0.0000 0.0000 0.0000 42.7086 0.0000 0.0000
# 5 0.0000 0.0000 0.0000 0.0000 30.4687 0.0000
# 6 0.0000 0.0000 0.0000 0.0000 0.0000 38.4965
#
#
#
# Elastic Compliance Matrix: (Units=1/GPa)
#
#
# Indices 1 2 3 4 5 6 
#
# 1 0.028409 -0.004061 -0.008202 0.000000 0.000000 0.000000
# 2 -0.004061 0.012914 -0.004551 0.000000 0.000000 0.000000
# 3 -0.008202 -0.004551 0.011123 0.000000 0.000000 0.000000
# 4 0.000000 0.000000 0.000000 0.023414 0.000000 0.000000
# 5 0.000000 0.000000 0.000000 0.000000 0.032821 0.000000
# 6 0.000000 0.000000 0.000000 0.000000 0.000000 0.025976
#
#
# Mechanical properties :
#
#
# Convention : Reuss Voigt Hill
#
# Bulk Modulus (GPa) = 53.14072 75.96843 64.55458
# Shear Modulus (GPa) = 28.64360 33.33279 30.98820
#
# Velocity S-wave (km/s) = 3.82633 4.12766 3.97985
# Velocity P-wave (km/s) = 6.83251 7.84519 7.35630
#
# Compressibility (1/GPa) = 0.01881796
#
# Stress axis : x y z
#
# Youngs Moduli (GPa) = 35.19966 77.43422 89.90420
#
# Poissons Ratio (x) = 0.31445 0.73741
# Poissons Ratio (y) = 0.14294 0.40918
# Poissons Ratio (z) = 0.28871 0.35242
#
# Static dielectric constant tensor:
#      x y z
#    x 3.666870 0.000000 0.000000 
#    y 0.000000 3.717010 0.000000 
#    z 0.000000 0.000000 3.641840 
# 
# 
# High freq. dielectric constant tensor:
#      x y z
#    x 1.769260 0.000000 0.000000 
#    y 0.000000 1.779320 0.000000 
#    z 0.000000 0.000000 1.768750 
# 
# From -- ./inp_files/6180.got.cif
#   From: 2010.03.12/outbox.cif.g09.slc.cpg/sg59_4_cif.got.tgz:6180.got - 2010.04.16 16:29:54.
