data_PCOD8245372
_publ_section_title
;
Structure prediction by ZEFSAII (Michael W. Deem and Ramdas Pophale) SiO2 
 PCOD8245372
Probable space group: P M M N
;
_chemical_formula_sum "Si O2"
_cell_formula_units_Z 40
_cell_length_a 14.252752
_cell_length_b 8.684343
_cell_length_c 16.940137
_cell_angle_alpha 90.000000
_cell_angle_beta 90.000000
_cell_angle_gamma 90.000000
_cell_volume 2096.778790
_symmetry_space_group_name_H-M "P M M N"
_symmetry_group_IT_number 59
_space_group.IT_coordinate_system_code '2'
_symmetry_cell_setting 'orthorhombic'
loop_
_space_group_symop_operation_xyz
x,y,z
1/2-x,1/2-y,z
1/2+x,-y,-z
-x,1/2+y,-z
-x,-y,-z
1/2+x,1/2+y,-z
1/2-x,y,z
x,1/2-y,z
loop_
_atom_site_type_symbol
_atom_site_label
_atom_site_fract_x
_atom_site_fract_y
_atom_site_fract_z
Si Si1 0.010406 0.927988 0.124504
Si Si2 0.250000 0.426763 0.358423
Si Si3 0.750000 0.069272 0.472262
Si Si4 0.948454 0.927906 0.710771
Si Si5 0.058283 0.069662 0.571316
Si Si6 0.641821 0.070952 0.020329
O O1 0.008600 0.750000 0.149321
O O2 0.910049 0.972078 0.087292
O O3 0.028478 0.033200 0.199680
O O4 0.094396 0.963560 0.063824
O O5 0.250000 0.250000 0.387309
O O6 0.250000 0.532820 0.435121
O O7 0.160354 0.464877 0.305050
O O8 0.750000 0.250000 0.460985
O O9 0.661399 0.999642 0.427828
O O10 0.971482 0.750000 0.693973
O O11 0.011149 0.032964 0.654491
O O12 0.063901 0.250000 0.557812
O O13 0.000000 0.000000 0.500000
O O14 0.750000 0.019179 0.016373
O O15 0.631838 0.250000 0.042098
#
# Coordination Sequence:
#
# PCOD8245372 Si02
#       6
#     8   4   4   8   8   8
#     4  10  21  37  59  89 121 153 193 244 298 354
#     4  10  22  38  60  88 121 156 199 250 298 352
#     4  12  24  40  64  90 117 160 205 248 306 362
#     4  11  23  40  61  89 123 159 199 246 300 358
#     4  12  24  41  63  89 122 160 203 252 301 358
#     4   9  19  38  62  86 116 156 196 238 292 357
#
# _framework density 19.076881
#
# number of rings (size 3 to 8) (size 9 to 14) (size 15 to 20)
#    0.000    1.400    2.000    3.900    1.400    2.000 
#    1.800    0.000    0.000    0.000    0.000    0.000 
#    0.000    0.000    0.000    0.000    0.000    0.000 
#
# Total GULP energy -496251.140028 kJ/mol
# GULP energy per Si atom -12406.278501 kJ/mol
# Density = 1.903346 g / cm^3
# Si number density = 19.076881 Si / 1000 Ang^3
#
#
#
# Elastic Constant Matrix: (Units=GPa)
#
#
# Indices 1 2 3 4 5 6 
#
# 1 163.8758 51.9246 53.1311 0.0000 0.0000 0.0000
# 2 51.9246 110.6681 34.8075 0.0000 0.0000 0.0000
# 3 53.1311 34.8075 98.1805 0.0000 0.0000 0.0000
# 4 0.0000 0.0000 0.0000 35.7565 0.0000 0.0000
# 5 0.0000 0.0000 0.0000 0.0000 -97.9898 0.0000
# 6 0.0000 0.0000 0.0000 0.0000 0.0000 30.1771
#
#
#
# Elastic Compliance Matrix: (Units=1/GPa)
#
#
# Indices 1 2 3 4 5 6 
#
# 1 0.008065 -0.002714 -0.003402 0.000000 0.000000 0.000000
# 2 -0.002714 0.011083 -0.002461 0.000000 0.000000 0.000000
# 3 -0.003402 -0.002461 0.012899 0.000000 0.000000 0.000000
# 4 0.000000 0.000000 0.000000 0.027967 0.000000 0.000000
# 5 0.000000 0.000000 0.000000 0.000000 -0.010205 0.000000
# 6 0.000000 0.000000 0.000000 0.000000 0.000000 0.033138
#
#
# Mechanical properties :
#
#
# Convention : Reuss Voigt Hill
#
# Bulk Modulus (GPa) = 67.14362 72.49455 69.81908
# Shear Modulus (GPa) = 47.58939 9.11284 28.35111
#
# Velocity S-wave (km/s) = 5.00003 2.18798 3.85924
# Velocity P-wave (km/s) = 8.28290 6.66834 7.51908
#
# Compressibility (1/GPa) = 0.01489345
#
# Stress axis : x y z
#
# Youngs Moduli (GPa) = 123.98900 90.22550 77.52606
#
# Poissons Ratio (x) = 0.24487 0.26377
# Poissons Ratio (y) = 0.33651 0.19076
# Poissons Ratio (z) = 0.42186 0.22201
#
# Static dielectric constant tensor:
#      x y z
#    x 4.053120 0.000000 0.000000 
#    y 0.000000 3.586320 0.000000 
#    z 0.000000 0.000000 3.362600 
# 
# 
# High freq. dielectric constant tensor:
#      x y z
#    x 1.752960 0.000000 0.000000 
#    y 0.000000 1.752110 0.000000 
#    z 0.000000 0.000000 1.737010 
# 
# From -- ./inp_files/22977.got.cif
#   From: 2010.03.12/outbox.cif.g09.slc.cpg/sg59_12_cif.got.tgz:22977.got - 2010.04.16 16:29:54.
