data_PCOD8245780
_publ_section_title
;
Structure prediction by ZEFSAII (Michael W. Deem and Ramdas Pophale) SiO2 
 PCOD8245780
Probable space group: P M M N
;
_chemical_formula_sum "Si O2"
_cell_formula_units_Z 48
_cell_length_a 27.598917
_cell_length_b 7.880103
_cell_length_c 10.537303
_cell_angle_alpha 90.000000
_cell_angle_beta 90.000000
_cell_angle_gamma 90.000000
_cell_volume 2291.676983
_symmetry_space_group_name_H-M "P M M N"
_symmetry_group_IT_number 59
_space_group.IT_coordinate_system_code '2'
_symmetry_cell_setting 'orthorhombic'
loop_
_space_group_symop_operation_xyz
x,y,z
1/2-x,1/2-y,z
1/2+x,-y,-z
-x,1/2+y,-z
-x,-y,-z
1/2+x,1/2+y,-z
1/2-x,y,z
x,1/2-y,z
loop_
_atom_site_type_symbol
_atom_site_label
_atom_site_fract_x
_atom_site_fract_y
_atom_site_fract_z
Si Si1 0.192793 0.250000 0.363402
Si Si2 0.126195 0.554809 0.733931
Si Si3 0.808229 0.750000 0.349731
Si Si4 0.970156 0.941524 0.377723
Si Si5 0.479273 0.439671 0.133405
Si Si6 0.888695 0.058222 0.980933
Si Si7 0.694477 0.440551 0.802489
O O1 0.250000 0.250000 0.360936
O O2 0.174297 0.250000 0.505652
O O3 0.173799 0.422283 0.297007
O O4 0.145800 0.750000 0.731736
O O5 0.169783 0.424162 0.706385
O O6 0.080359 0.543201 0.638803
O O7 0.106711 0.502032 0.873195
O O8 0.750000 0.750000 0.330893
O O9 0.954110 0.750000 0.399581
O O10 0.000000 0.000000 0.500000
O O11 0.003716 0.950189 0.252747
O O12 0.496558 0.250000 0.163419
O O13 0.421347 0.446865 0.114541
O O14 0.500000 0.500000 0.000000
O O15 0.907390 0.250000 0.967414
O O16 0.833329 0.039044 0.935580
O O17 0.750000 0.476805 0.835701
O O18 0.687313 0.250000 0.745873
#
# Coordination Sequence:
#
# PCOD8245780 Si02
#       7
#     4   8   4   8   8   8   8
#     4   9  20  39  61  87 123 164 215 271 317 383
#     4  11  24  44  68  96 135 177 222 282 343 400
#     4  11  26  45  67  97 135 184 237 281 338 407
#     4  12  25  45  69  98 136 179 227 284 347 417
#     4  12  24  39  64  94 127 171 221 271 334 403
#     4  10  22  39  63  94 127 167 216 271 334 403
#     4   9  19  37  62  92 127 164 206 266 330 385
#
# _framework density 20.945359
#
# number of rings (size 3 to 8) (size 9 to 14) (size 15 to 20)
#    0.000    1.333    2.500    3.000    2.333    3.000 
#    0.000    5.833    0.000    0.000    0.000    0.000 
#    0.000    0.000    0.000    0.000    0.000    0.000 
#
# Total GULP energy -595079.524666 kJ/mol
# GULP energy per Si atom -12397.490097 kJ/mol
# Density = 2.089769 g / cm^3
# Si number density = 20.945359 Si / 1000 Ang^3
#
#
#
# Elastic Constant Matrix: (Units=GPa)
#
#
# Indices 1 2 3 4 5 6 
#
# 1 104.7236 35.7464 39.3424 0.0000 0.0000 0.0000
# 2 35.7464 126.8442 35.1274 0.0000 0.0000 0.0000
# 3 39.3424 35.1274 108.5209 0.0000 0.0000 0.0000
# 4 0.0000 0.0000 0.0000 33.5559 0.0000 0.0000
# 5 0.0000 0.0000 0.0000 0.0000 33.3948 0.0000
# 6 0.0000 0.0000 0.0000 0.0000 0.0000 30.0533
#
#
#
# Elastic Compliance Matrix: (Units=1/GPa)
#
#
# Indices 1 2 3 4 5 6 
#
# 1 0.011645 -0.002321 -0.003470 0.000000 0.000000 0.000000
# 2 -0.002321 0.009122 -0.002112 0.000000 0.000000 0.000000
# 3 -0.003470 -0.002112 0.011156 0.000000 0.000000 0.000000
# 4 0.000000 0.000000 0.000000 0.029801 0.000000 0.000000
# 5 0.000000 0.000000 0.000000 0.000000 0.029945 0.000000
# 6 0.000000 0.000000 0.000000 0.000000 0.000000 0.033274
#
#
# Mechanical properties :
#
#
# Convention : Reuss Voigt Hill
#
# Bulk Modulus (GPa) = 62.04063 62.28013 62.16038
# Shear Modulus (GPa) = 34.21800 34.72562 34.47181
#
# Velocity S-wave (km/s) = 4.04626 4.07617 4.06124
# Velocity P-wave (km/s) = 7.17734 7.20782 7.19260
#
# Compressibility (1/GPa) = 0.01611847
#
# Stress axis : x y z
#
# Youngs Moduli (GPa) = 85.87493 109.61995 89.63396
#
# Poissons Ratio (x) = 0.25438 0.31107
# Poissons Ratio (y) = 0.19928 0.18927
# Poissons Ratio (z) = 0.29803 0.23147
#
# Static dielectric constant tensor:
#      x y z
#    x 3.843320 0.000000 0.000000 
#    y 0.000000 4.185970 0.000000 
#    z 0.000000 0.000000 3.834000 
# 
# 
# High freq. dielectric constant tensor:
#      x y z
#    x 1.818880 0.000000 0.000000 
#    y 0.000000 1.832990 0.000000 
#    z 0.000000 0.000000 1.811410 
# 
# From -- ./inp_files/13071.got.cif
#   From: 2010.03.12/outbox.cif.g09.slc.cpg/sg59_7_cif.got.tgz:13071.got - 2010.04.16 16:29:54.
