data_PCOD8245944
_publ_section_title
;
Structure prediction by ZEFSAII (Michael W. Deem and Ramdas Pophale) SiO2 
 PCOD8245944
Probable space group: P M M N
;
_chemical_formula_sum "Si O2"
_cell_formula_units_Z 48
_cell_length_a 20.308559
_cell_length_b 9.190926
_cell_length_c 15.348140
_cell_angle_alpha 90.000000
_cell_angle_beta 90.000000
_cell_angle_gamma 90.000000
_cell_volume 2864.798829
_symmetry_space_group_name_H-M "P M M N"
_symmetry_group_IT_number 59
_space_group.IT_coordinate_system_code '2'
_symmetry_cell_setting 'orthorhombic'
loop_
_space_group_symop_operation_xyz
x,y,z
1/2-x,1/2-y,z
1/2+x,-y,-z
-x,1/2+y,-z
-x,-y,-z
1/2+x,1/2+y,-z
1/2-x,y,z
x,1/2-y,z
loop_
_atom_site_type_symbol
_atom_site_label
_atom_site_fract_x
_atom_site_fract_y
_atom_site_fract_z
Si Si1 0.449331 0.583716 0.598754
Si Si2 0.455940 0.586130 0.787189
Si Si3 0.437791 0.077423 0.957098
Si Si4 0.917965 0.083658 0.584124
Si Si5 0.176732 0.422911 0.083743
Si Si6 0.108701 0.082961 0.255280
O O1 0.478032 0.750000 0.594255
O O2 0.417203 0.562361 0.695000
O O3 0.506721 0.466649 0.589306
O O4 0.397358 0.561771 0.518490
O O5 0.445214 0.750000 0.822586
O O6 0.428863 0.472260 0.857363
O O7 0.532990 0.558649 0.770354
O O8 0.447915 0.250000 0.962062
O O9 0.372491 0.025570 0.007933
O O10 0.500000 0.000000 0.000000
O O11 0.913010 0.250000 0.612498
O O12 0.873560 0.995306 0.653100
O O13 0.250000 0.482786 0.063943
O O14 0.176217 0.250000 0.087913
O O15 0.152637 0.483695 0.177372
O O16 0.125842 0.250000 0.269668
#
# Coordination Sequence:
#
# PCOD8245944 Si02
#       6
#     8   8   8   8   8   8
#     4   8  15  26  38  56  88 122 149 178 217 264
#     4   9  16  28  44  65  91 120 151 186 228 273
#     4  11  20  31  48  70  92 119 154 194 237 281
#     4   9  15  23  38  61  87 117 148 180 219 263
#     4   9  18  33  50  66  88 122 161 193 227 280
#     4   9  16  28  44  63  88 119 150 183 225 272
#
# _framework density 16.755102999999998
#
# number of rings (size 3 to 8) (size 9 to 14) (size 15 to 20)
#    0.000    2.833    1.667    2.000    0.000    3.333 
#    0.000    0.000    0.000    4.500    0.000    1.167 
#    0.000    9.333    0.000    0.000    0.000    0.000 
#
# Total GULP energy -594664.571390 kJ/mol
# GULP energy per Si atom -12388.845237 kJ/mol
# Density = 1.671697 g / cm^3
# Si number density = 16.755103 Si / 1000 Ang^3
#
#
#
# Elastic Constant Matrix: (Units=GPa)
#
#
# Indices 1 2 3 4 5 6 
#
# 1 62.3814 23.2733 50.2783 0.0000 0.0000 0.0000
# 2 23.2733 61.5703 52.5961 0.0000 0.0000 0.0000
# 3 50.2783 52.5961 164.7989 0.0000 0.0000 0.0000
# 4 0.0000 0.0000 0.0000 32.7406 0.0000 0.0000
# 5 0.0000 0.0000 0.0000 0.0000 15.8414 0.0000
# 6 0.0000 0.0000 0.0000 0.0000 0.0000 10.5510
#
#
#
# Elastic Compliance Matrix: (Units=1/GPa)
#
#
# Indices 1 2 3 4 5 6 
#
# 1 0.021798 -0.003518 -0.005528 0.000000 0.000000 0.000000
# 2 -0.003518 0.022897 -0.006234 0.000000 0.000000 0.000000
# 3 -0.005528 -0.006234 0.009744 0.000000 0.000000 0.000000
# 4 0.000000 0.000000 0.000000 0.030543 0.000000 0.000000
# 5 0.000000 0.000000 0.000000 0.000000 0.063126 0.000000
# 6 0.000000 0.000000 0.000000 0.000000 0.000000 0.094778
#
#
# Mechanical properties :
#
#
# Convention : Reuss Voigt Hill
#
# Bulk Modulus (GPa) = 41.87656 60.11623 50.99640
# Shear Modulus (GPa) = 17.76799 22.66679 20.21739
#
# Velocity S-wave (km/s) = 3.25999 3.68207 3.47744
# Velocity P-wave (km/s) = 6.26240 7.35079 6.82831
#
# Compressibility (1/GPa) = 0.02387971
#
# Stress axis : x y z
#
# Youngs Moduli (GPa) = 45.87585 43.67387 102.62532
#
# Poissons Ratio (x) = 0.15363 0.56728
# Poissons Ratio (y) = 0.16137 0.63982
# Poissons Ratio (z) = 0.25359 0.27228
#
# Static dielectric constant tensor:
#      x y z
#    x 2.740040 0.000000 0.000000 
#    y 0.000000 3.079570 0.000000 
#    z 0.000000 0.000000 3.820130 
# 
# 
# High freq. dielectric constant tensor:
#      x y z
#    x 1.572060 0.000000 0.000000 
#    y 0.000000 1.635780 0.000000 
#    z 0.000000 0.000000 1.672910 
# 
# From -- ./inp_files/24106.got.cif
#   From: 2010.03.12/outbox.cif.g09.slc.cpg/sg59_13_cif.got.tgz:24106.got - 2010.04.16 16:29:54.
