data_PCOD8245023
_publ_section_title
;
Structure prediction by ZEFSAII (Michael W. Deem and Ramdas Pophale) SiO2 
 PCOD8245023
Probable space group: P M M N
;
_chemical_formula_sum "Si O2"
_cell_formula_units_Z 56
_cell_length_a 22.605794
_cell_length_b 8.865819
_cell_length_c 14.670321
_cell_angle_alpha 90.000000
_cell_angle_beta 90.000000
_cell_angle_gamma 90.000000
_cell_volume 2940.209274
_symmetry_space_group_name_H-M "P M M N"
_symmetry_group_IT_number 59
_space_group.IT_coordinate_system_code '2'
_symmetry_cell_setting 'orthorhombic'
loop_
_space_group_symop_operation_xyz
x,y,z
1/2-x,1/2-y,z
1/2+x,-y,-z
-x,1/2+y,-z
-x,-y,-z
1/2+x,1/2+y,-z
1/2-x,y,z
x,1/2-y,z
loop_
_atom_site_type_symbol
_atom_site_label
_atom_site_fract_x
_atom_site_fract_y
_atom_site_fract_z
Si Si1 0.907565 0.576353 0.698718
Si Si2 0.511659 0.927439 0.403226
Si Si3 0.575227 0.571826 0.087258
Si Si4 0.818708 0.074993 0.575209
Si Si5 0.455415 0.423315 0.111436
Si Si6 0.632562 0.428042 0.378655
Si Si7 0.683646 0.574080 0.208359
O O1 0.920240 0.750000 0.672050
O O2 0.845179 0.524311 0.657250
O O3 0.907558 0.555464 0.808049
O O4 0.957225 0.466097 0.660668
O O5 0.517911 0.750000 0.414588
O O6 0.500000 0.000000 0.500000
O O7 0.570227 0.994046 0.357239
O O8 0.574072 0.750000 0.094139
O O9 0.516147 0.509990 0.135946
O O10 0.634956 0.511535 0.136269
O O11 0.574696 0.516358 0.981778
O O12 0.750000 0.040171 0.571793
O O13 0.832052 0.250000 0.593759
O O14 0.846347 0.023727 0.479152
O O15 0.473551 0.250000 0.099581
O O16 0.626079 0.250000 0.371103
O O17 0.678734 0.485750 0.303700
O O18 0.750000 0.545811 0.169645
O O19 0.673092 0.750000 0.227706
#
# Coordination Sequence:
#
# PCOD8245023 Si02
#       7
#     8   8   8   8   8   8   8
#     4  11  22  36  56  83 113 146 182 226 275 326
#     4  12  23  36  55  82 113 146 182 226 275 325
#     4   9  18  35  57  81 109 142 179 224 278 333
#     4  10  22  39  56  74 103 146 190 229 270 321
#     4   9  19  35  56  83 111 139 179 227 278 333
#     4  11  22  37  57  81 110 147 186 228 278 330
#     4  10  21  36  55  81 112 148 189 231 277 334
#
# _framework density 19.046264999999998
#
# number of rings (size 3 to 8) (size 9 to 14) (size 15 to 20)
#    0.000    1.714    1.429    3.429    0.000    5.714 
#    0.000    0.714    0.000    2.571    0.000    0.000 
#    0.000    0.000    0.000    0.000    0.000    0.000 
#
# Total GULP energy -694503.944241 kJ/mol
# GULP energy per Si atom -12401.856147 kJ/mol
# Density = 1.900291 g / cm^3
# Si number density = 19.046265 Si / 1000 Ang^3
#
#
#
# Elastic Constant Matrix: (Units=GPa)
#
#
# Indices 1 2 3 4 5 6 
#
# 1 97.8631 32.3125 36.4922 0.0000 0.0000 0.0000
# 2 32.3125 63.2358 34.5841 0.0000 0.0000 0.0000
# 3 36.4922 34.5841 86.1550 0.0000 0.0000 0.0000
# 4 0.0000 0.0000 0.0000 25.6622 0.0000 0.0000
# 5 0.0000 0.0000 0.0000 0.0000 30.4692 0.0000
# 6 0.0000 0.0000 0.0000 0.0000 0.0000 29.4483
#
#
#
# Elastic Compliance Matrix: (Units=1/GPa)
#
#
# Indices 1 2 3 4 5 6 
#
# 1 0.013143 -0.004704 -0.003679 0.000000 0.000000 0.000000
# 2 -0.004704 0.021946 -0.006817 0.000000 0.000000 0.000000
# 3 -0.003679 -0.006817 0.015902 0.000000 0.000000 0.000000
# 4 0.000000 0.000000 0.000000 0.038968 0.000000 0.000000
# 5 0.000000 0.000000 0.000000 0.000000 0.032820 0.000000
# 6 0.000000 0.000000 0.000000 0.000000 0.000000 0.033958
#
#
# Mechanical properties :
#
#
# Convention : Reuss Voigt Hill
#
# Bulk Modulus (GPa) = 48.56449 50.44795 49.50622
# Shear Modulus (GPa) = 25.77325 26.70695 26.24010
#
# Velocity S-wave (km/s) = 3.68257 3.74868 3.71577
# Velocity P-wave (km/s) = 6.60570 6.72914 6.66771
#
# Compressibility (1/GPa) = 0.02059118
#
# Stress axis : x y z
#
# Youngs Moduli (GPa) = 76.08420 45.56685 62.88682
#
# Poissons Ratio (x) = 0.21435 0.23134
# Poissons Ratio (y) = 0.35791 0.42869
# Poissons Ratio (z) = 0.27989 0.31062
#
# Static dielectric constant tensor:
#      x y z
#    x 3.577750 0.000000 0.000000 
#    y 0.000000 3.514000 0.000000 
#    z 0.000000 0.000000 3.784530 
# 
# 
# High freq. dielectric constant tensor:
#      x y z
#    x 1.734860 0.000000 0.000000 
#    y 0.000000 1.739490 0.000000 
#    z 0.000000 0.000000 1.740670 
# 
# From -- ./inp_files/24191.got.cif
#   From: 2010.03.12/outbox.cif.g09.slc.cpg/sg59_13_cif.got.tgz:24191.got - 2010.04.16 16:29:54.
