data_PCOD8245169
_publ_section_title
;
Structure prediction by ZEFSAII (Michael W. Deem and Ramdas Pophale) SiO2 
 PCOD8245169
Probable space group: P M M N
;
_chemical_formula_sum "Si O2"
_cell_formula_units_Z 56
_cell_length_a 9.069184
_cell_length_b 14.953075
_cell_length_c 21.789711
_cell_angle_alpha 90.000000
_cell_angle_beta 90.000000
_cell_angle_gamma 90.000000
_cell_volume 2954.950396
_symmetry_space_group_name_H-M "P M M N"
_symmetry_group_IT_number 59
_space_group.IT_coordinate_system_code '2'
_symmetry_cell_setting 'orthorhombic'
loop_
_space_group_symop_operation_xyz
x,y,z
1/2-x,1/2-y,z
1/2+x,-y,-z
-x,1/2+y,-z
-x,-y,-z
1/2+x,1/2+y,-z
1/2-x,y,z
x,1/2-y,z
loop_
_atom_site_type_symbol
_atom_site_label
_atom_site_fract_x
_atom_site_fract_y
_atom_site_fract_z
Si Si1 0.576734 0.351632 0.560530
Si Si2 0.423386 0.148643 0.436053
Si Si3 0.424561 0.502000 0.345586
Si Si4 0.412385 0.855856 0.005699
Si Si5 0.574380 0.496467 0.792722
Si Si6 0.423386 0.853140 0.869150
Si Si7 0.579313 0.855012 0.124717
O O1 0.750000 0.363287 0.550675
O O2 0.533132 0.250000 0.576185
O O3 0.499791 0.384294 0.498323
O O4 0.518837 0.411669 0.616841
O O5 0.250000 0.138536 0.446152
O O6 0.468914 0.250000 0.420113
O O7 0.479506 0.087604 0.379934
O O8 0.250000 0.502797 0.342329
O O9 0.487070 0.504521 0.276799
O O10 0.250000 0.895039 0.021392
O O11 0.401034 0.750000 0.003943
O O12 0.528004 0.887388 0.057112
O O13 0.463719 0.886818 0.938035
O O14 0.750000 0.494442 0.796152
O O15 0.516760 0.587328 0.822902
O O16 0.512106 0.407746 0.824525
O O17 0.250000 0.866199 0.857387
O O18 0.468965 0.750000 0.859090
O O19 0.750000 0.879330 0.131157
O O20 0.549063 0.750000 0.134321
#
# Coordination Sequence:
#
# PCOD8245169 Si02
#       7
#     8   8   8   8   8   8   8
#     4   9  17  31  52  76 100 126 161 206 252 298
#     4   9  17  31  52  76 101 128 160 202 251 299
#     4   9  19  34  50  71 100 135 172 206 245 296
#     4   8  15  31  56  81 102 130 171 217 266 318
#     4  11  23  36  53  78 106 142 186 221 254 307
#     4   9  19  37  58  79 107 140 173 217 271 319
#     4  10  21  37  56  78 106 138 173 219 272 320
#
# _framework density 18.951248
#
# number of rings (size 3 to 8) (size 9 to 14) (size 15 to 20)
#    0.000    2.714    0.000    2.143    0.000    3.429 
#    0.000    7.143    0.000    3.429    0.000    0.000 
#    0.000    0.000    0.000    0.000    0.000    0.000 
#
# Total GULP energy -694324.019303 kJ/mol
# GULP energy per Si atom -12398.643202 kJ/mol
# Density = 1.890811 g / cm^3
# Si number density = 18.951248 Si / 1000 Ang^3
#
#
#
# Elastic Constant Matrix: (Units=GPa)
#
#
# Indices 1 2 3 4 5 6 
#
# 1 63.0710 39.2861 55.4460 0.0000 0.0000 0.0000
# 2 39.2861 97.2353 75.8714 0.0000 0.0000 0.0000
# 3 55.4460 75.8714 177.9024 0.0000 0.0000 0.0000
# 4 0.0000 0.0000 0.0000 28.4151 0.0000 0.0000
# 5 0.0000 0.0000 0.0000 0.0000 26.3688 0.0000
# 6 0.0000 0.0000 0.0000 0.0000 0.0000 25.2414
#
#
#
# Elastic Compliance Matrix: (Units=1/GPa)
#
#
# Indices 1 2 3 4 5 6 
#
# 1 0.023798 -0.005737 -0.004970 0.000000 0.000000 0.000000
# 2 -0.005737 0.016797 -0.005375 0.000000 0.000000 0.000000
# 3 -0.004970 -0.005375 0.009463 0.000000 0.000000 0.000000
# 4 0.000000 0.000000 0.000000 0.035193 0.000000 0.000000
# 5 0.000000 0.000000 0.000000 0.000000 0.037924 0.000000
# 6 0.000000 0.000000 0.000000 0.000000 0.000000 0.039617
#
#
# Mechanical properties :
#
#
# Convention : Reuss Voigt Hill
#
# Bulk Modulus (GPa) = 55.89086 75.49062 65.69074
# Shear Modulus (GPa) = 24.88554 27.17875 26.03214
#
# Velocity S-wave (km/s) = 3.62765 3.79111 3.71028
# Velocity P-wave (km/s) = 6.86312 7.68661 7.28651
#
# Compressibility (1/GPa) = 0.01789201
#
# Stress axis : x y z
#
# Youngs Moduli (GPa) = 42.02029 59.53618 105.67891
#
# Poissons Ratio (x) = 0.34155 0.52527
# Poissons Ratio (y) = 0.24106 0.56806
# Poissons Ratio (z) = 0.20886 0.32003
#
# Static dielectric constant tensor:
#      x y z
#    x 3.434940 0.000000 0.000000 
#    y 0.000000 3.497750 0.000000 
#    z 0.000000 0.000000 3.737850 
# 
# 
# High freq. dielectric constant tensor:
#      x y z
#    x 1.718800 0.000000 0.000000 
#    y 0.000000 1.741200 0.000000 
#    z 0.000000 0.000000 1.735850 
# 
# From -- ./inp_files/29031.got.cif
#   From: 2010.03.12/outbox.cif.g09.slc.cpg/sg59_15_cif.got.tgz:29031.got - 2010.04.16 16:29:54.
