data_PCOD8245170
_publ_section_title
;
Structure prediction by ZEFSAII (Michael W. Deem and Ramdas Pophale) SiO2 
 PCOD8245170
Probable space group: P M M N
;
_chemical_formula_sum "Si O2"
_cell_formula_units_Z 64
_cell_length_a 9.006858
_cell_length_b 14.071362
_cell_length_c 25.867391
_cell_angle_alpha 90.000000
_cell_angle_beta 90.000000
_cell_angle_gamma 90.000000
_cell_volume 3278.401044
_symmetry_space_group_name_H-M "P M M N"
_symmetry_group_IT_number 59
_space_group.IT_coordinate_system_code '2'
_symmetry_cell_setting 'orthorhombic'
loop_
_space_group_symop_operation_xyz
x,y,z
1/2-x,1/2-y,z
1/2+x,-y,-z
-x,1/2+y,-z
-x,-y,-z
1/2+x,1/2+y,-z
1/2-x,y,z
x,1/2-y,z
loop_
_atom_site_type_symbol
_atom_site_label
_atom_site_fract_x
_atom_site_fract_y
_atom_site_fract_z
Si Si1 0.573942 0.642035 0.723311
Si Si2 0.917384 0.638934 0.532938
Si Si3 0.425530 0.353411 0.582243
Si Si4 0.925123 0.524668 0.822275
Si Si5 0.423361 0.140941 0.077238
Si Si6 0.424745 0.359365 0.871501
Si Si7 0.917614 0.136982 0.975834
Si Si8 0.575892 0.453524 0.373758
O O1 0.750000 0.641929 0.720566
O O2 0.515039 0.750000 0.728811
O O3 0.517916 0.580707 0.771963
O O4 0.513073 0.595514 0.671709
O O5 0.750000 0.597781 0.540243
O O6 0.914011 0.750000 0.544676
O O7 0.981592 0.619516 0.475348
O O8 0.032569 0.591477 0.571789
O O9 0.250000 0.345372 0.577399
O O10 0.489887 0.250000 0.599787
O O11 0.469031 0.434471 0.623604
O O12 0.750000 0.507107 0.820230
O O13 0.973049 0.586222 0.871657
O O14 0.007959 0.423017 0.825218
O O15 0.250000 0.131212 0.066473
O O16 0.469387 0.250000 0.085643
O O17 0.505985 0.095562 0.027557
O O18 0.250000 0.372922 0.874889
O O19 0.467512 0.250000 0.860460
O O20 0.495475 0.396872 0.925007
O O21 0.750000 0.098309 0.971904
O O22 0.922919 0.250000 0.978958
O O23 0.750000 0.439577 0.364193
#
# Coordination Sequence:
#
# PCOD8245170 Si02
#       8
#     8   8   8   8   8   8   8   8
#     4  10  22  41  61  79 104 139 175 211 257 316
#     4   9  17  31  52  76 105 144 183 216 259 318
#     4   8  16  32  52  75 106 144 182 217 258 312
#     4  10  21  37  58  80 100 131 177 223 264 307
#     4   9  17  31  52  78 107 136 169 213 265 318
#     4  10  21  37  56  78 106 139 173 211 258 311
#     4   9  17  30  50  77 108 141 175 210 251 304
#     4  11  21  32  52  81 109 139 178 224 268 307
#
# _framework density 19.521711
#
# number of rings (size 3 to 8) (size 9 to 14) (size 15 to 20)
#    0.000    2.500    0.000    3.000    0.000    7.250 
#    0.000    1.250    0.000    7.500    0.000    0.000 
#    0.000    0.000    0.000    0.000    0.000    0.000 
#
# Total GULP energy -793549.454239 kJ/mol
# GULP energy per Si atom -12399.210222 kJ/mol
# Density = 1.947728 g / cm^3
# Si number density = 19.521711 Si / 1000 Ang^3
#
#
#
# Elastic Constant Matrix: (Units=GPa)
#
#
# Indices 1 2 3 4 5 6 
#
# 1 34.2220 29.2020 25.1893 0.0000 0.0000 0.0000
# 2 29.2020 101.4480 66.4276 0.0000 0.0000 0.0000
# 3 25.1893 66.4276 82.8106 0.0000 0.0000 0.0000
# 4 0.0000 0.0000 0.0000 33.2980 0.0000 0.0000
# 5 0.0000 0.0000 0.0000 0.0000 22.6851 0.0000
# 6 0.0000 0.0000 0.0000 0.0000 0.0000 24.6860
#
#
#
# Elastic Compliance Matrix: (Units=1/GPa)
#
#
# Indices 1 2 3 4 5 6 
#
# 1 0.040194 -0.007508 -0.006204 0.000000 0.000000 0.000000
# 2 -0.007508 0.022166 -0.015497 0.000000 0.000000 0.000000
# 3 -0.006204 -0.015497 0.026394 0.000000 0.000000 0.000000
# 4 0.000000 0.000000 0.000000 0.030032 0.000000 0.000000
# 5 0.000000 0.000000 0.000000 0.000000 0.044082 0.000000
# 6 0.000000 0.000000 0.000000 0.000000 0.000000 0.040509
#
#
# Mechanical properties :
#
#
# Convention : Reuss Voigt Hill
#
# Bulk Modulus (GPa) = 32.96343 51.12428 42.04385
# Shear Modulus (GPa) = 18.38888 22.64460 20.51674
#
# Velocity S-wave (km/s) = 3.07248 3.40953 3.24538
# Velocity P-wave (km/s) = 5.43222 6.46105 5.96884
#
# Compressibility (1/GPa) = 0.03033665
#
# Stress axis : x y z
#
# Youngs Moduli (GPa) = 24.87964 45.11516 37.88785
#
# Poissons Ratio (x) = 0.33871 0.23505
# Poissons Ratio (y) = 0.18679 0.58714
# Poissons Ratio (z) = 0.15435 0.69914
#
# Static dielectric constant tensor:
#      x y z
#    x 3.382480 0.000000 0.000000 
#    y 0.000000 3.885830 0.000000 
#    z 0.000000 0.000000 3.495680 
# 
# 
# High freq. dielectric constant tensor:
#      x y z
#    x 1.742240 0.000000 0.000000 
#    y 0.000000 1.772640 0.000000 
#    z 0.000000 0.000000 1.745440 
# 
# From -- ./inp_files/31558.got.cif
#   From: 2010.03.12/outbox.cif.g09.slc.cpg/sg59_16_cif.got.tgz:31558.got - 2010.04.16 16:29:54.
