data_PCOD8245773
_publ_section_title
;
Structure prediction by ZEFSAII (Michael W. Deem and Ramdas Pophale) SiO2 
 PCOD8245773
Probable space group: P M M N
;
_chemical_formula_sum "Si O2"
_cell_formula_units_Z 64
_cell_length_a 28.834676
_cell_length_b 8.880380
_cell_length_c 12.421587
_cell_angle_alpha 90.000000
_cell_angle_beta 90.000000
_cell_angle_gamma 90.000000
_cell_volume 3180.707342
_symmetry_space_group_name_H-M "P M M N"
_symmetry_group_IT_number 59
_space_group.IT_coordinate_system_code '2'
_symmetry_cell_setting 'orthorhombic'
loop_
_space_group_symop_operation_xyz
x,y,z
1/2-x,1/2-y,z
1/2+x,-y,-z
-x,1/2+y,-z
-x,-y,-z
1/2+x,1/2+y,-z
1/2-x,y,z
x,1/2-y,z
loop_
_atom_site_type_symbol
_atom_site_label
_atom_site_fract_x
_atom_site_fract_y
_atom_site_fract_z
Si Si1 0.560233 0.076836 0.681121
Si Si2 0.891280 0.572690 0.877567
Si Si3 0.954005 0.428113 0.049069
Si Si4 0.105100 0.074951 0.519802
Si Si5 0.044819 0.421880 0.725005
Si Si6 0.301376 0.425680 0.617584
Si Si7 0.197635 0.571277 0.067356
Si Si8 0.304357 0.913641 0.828412
O O1 0.572607 0.250000 0.707305
O O2 0.505419 0.052131 0.672182
O O3 0.578585 0.969530 0.774576
O O4 0.583172 0.031711 0.568970
O O5 0.893351 0.750000 0.895187
O O6 0.910150 0.488267 0.983006
O O7 0.838440 0.516983 0.856605
O O8 0.957636 0.250000 0.036678
O O9 0.947264 0.470113 0.173527
O O10 0.000000 0.500000 0.000000
O O11 0.097279 0.250000 0.489386
O O12 0.082130 0.037495 0.634338
O O13 0.160202 0.035602 0.527194
O O14 0.050087 0.250000 0.764642
O O15 0.250000 0.493426 0.588349
O O16 0.296487 0.250000 0.630539
O O17 0.321603 0.481312 0.732059
O O18 0.250000 0.524486 0.099545
O O19 0.191654 0.750000 0.078401
O O20 0.185434 0.517291 0.945801
O O21 0.250000 0.891116 0.817822
O O22 0.328682 0.750000 0.817269
#
# Coordination Sequence:
#
# PCOD8245773 Si02
#       8
#     8   8   8   8   8   8   8   8
#     4  11  23  41  63  85 115 156 203 253 309 368
#     4  12  25  40  62  89 123 165 207 252 305 365
#     4  12  24  40  63  92 125 162 202 246 303 368
#     4  10  22  39  60  87 119 154 199 250 302 361
#     4  10  22  40  62  89 122 157 196 250 308 366
#     4   9  18  33  53  80 115 153 191 237 293 350
#     4   9  19  37  59  86 122 161 203 253 306 361
#     4   8  15  29  50  76 109 148 186 231 288 345
#
# _framework density 20.121310999999999
#
# number of rings (size 3 to 8) (size 9 to 14) (size 15 to 20)
#    0.000    1.875    1.250    3.750    1.750    2.250 
#    0.000    1.875    0.000    2.250    0.000    0.000 
#    0.000    0.000    0.000    0.000    0.000    0.000 
#
# Total GULP energy -793512.164817 kJ/mol
# GULP energy per Si atom -12398.627575 kJ/mol
# Density = 2.007551 g / cm^3
# Si number density = 20.121311 Si / 1000 Ang^3
#
#
#
# Elastic Constant Matrix: (Units=GPa)
#
#
# Indices 1 2 3 4 5 6 
#
# 1 109.0041 45.2812 28.7307 0.0000 0.0000 0.0000
# 2 45.2812 95.4962 33.1907 0.0000 0.0000 0.0000
# 3 28.7307 33.1907 64.5209 0.0000 0.0000 0.0000
# 4 0.0000 0.0000 0.0000 34.8370 0.0000 0.0000
# 5 0.0000 0.0000 0.0000 0.0000 16.4204 0.0000
# 6 0.0000 0.0000 0.0000 0.0000 0.0000 24.8019
#
#
#
# Elastic Compliance Matrix: (Units=1/GPa)
#
#
# Indices 1 2 3 4 5 6 
#
# 1 0.011856 -0.004611 -0.002907 0.000000 0.000000 0.000000
# 2 -0.004611 0.014545 -0.005429 0.000000 0.000000 0.000000
# 3 -0.002907 -0.005429 0.019586 0.000000 0.000000 0.000000
# 4 0.000000 0.000000 0.000000 0.028705 0.000000 0.000000
# 5 0.000000 0.000000 0.000000 0.000000 0.060900 0.000000
# 6 0.000000 0.000000 0.000000 0.000000 0.000000 0.040319
#
#
# Mechanical properties :
#
#
# Convention : Reuss Voigt Hill
#
# Bulk Modulus (GPa) = 49.77024 53.71404 51.74214
# Shear Modulus (GPa) = 23.98044 25.99978 24.99011
#
# Velocity S-wave (km/s) = 3.45598 3.59855 3.52799
# Velocity P-wave (km/s) = 6.38074 6.63469 6.50896
#
# Compressibility (1/GPa) = 0.02009233
#
# Stress axis : x y z
#
# Youngs Moduli (GPa) = 84.34721 68.75242 51.05663
#
# Poissons Ratio (x) = 0.31703 0.14843
# Poissons Ratio (y) = 0.38894 0.27718
# Poissons Ratio (z) = 0.24521 0.37325
#
# Static dielectric constant tensor:
#      x y z
#    x 4.024290 0.000000 0.000000 
#    y 0.000000 3.865360 0.000000 
#    z 0.000000 0.000000 3.609540 
# 
# 
# High freq. dielectric constant tensor:
#      x y z
#    x 1.798280 0.000000 0.000000 
#    y 0.000000 1.779320 0.000000 
#    z 0.000000 0.000000 1.766860 
# 
# From -- ./inp_files/19289.got.cif
#   From: 2010.03.12/outbox.cif.g09.slc.cpg/sg59_10_cif.got.tgz:19289.got - 2010.04.16 16:29:54.
