data_PCOD8245167
_publ_section_title
;
Structure prediction by ZEFSAII (Michael W. Deem and Ramdas Pophale) SiO2 
 PCOD8245167
Probable space group: P M M N
;
_chemical_formula_sum "Si O2"
_cell_formula_units_Z 64
_cell_length_a 15.494911
_cell_length_b 8.899234
_cell_length_c 23.955414
_cell_angle_alpha 90.000000
_cell_angle_beta 90.000000
_cell_angle_gamma 90.000000
_cell_volume 3303.280041
_symmetry_space_group_name_H-M "P M M N"
_symmetry_group_IT_number 59
_space_group.IT_coordinate_system_code '2'
_symmetry_cell_setting 'orthorhombic'
loop_
_space_group_symop_operation_xyz
x,y,z
1/2-x,1/2-y,z
1/2+x,-y,-z
-x,1/2+y,-z
-x,-y,-z
1/2+x,1/2+y,-z
1/2-x,y,z
x,1/2-y,z
loop_
_atom_site_type_symbol
_atom_site_label
_atom_site_fract_x
_atom_site_fract_y
_atom_site_fract_z
Si Si1 0.846561 0.577959 0.676110
Si Si2 0.650504 0.076196 0.940439
Si Si3 0.509072 0.928028 0.865573
Si Si4 0.656149 0.928752 0.321559
Si Si5 0.992187 0.072576 0.745906
Si Si6 0.345078 0.571582 0.932956
Si Si7 0.407573 0.426168 0.563171
Si Si8 0.588088 0.923207 0.558280
O O1 0.750000 0.543800 0.697450
O O2 0.872638 0.750000 0.689390
O O3 0.911670 0.467087 0.706743
O O4 0.846397 0.550467 0.609182
O O5 0.750000 0.053346 0.922845
O O6 0.623821 0.250000 0.933725
O O7 0.591396 0.974617 0.901546
O O8 0.636146 0.020023 0.003781
O O9 0.506173 0.750000 0.861695
O O10 0.420307 0.991825 0.892948
O O11 0.519978 0.995001 0.804791
O O12 0.750000 0.982319 0.299094
O O13 0.650795 0.750000 0.322018
O O14 0.580347 0.990828 0.281837
O O15 0.646330 0.993633 0.384857
O O16 0.995097 0.250000 0.754251
O O17 0.250000 0.511621 0.913870
O O18 0.343867 0.750000 0.931627
O O19 0.406021 0.250000 0.570426
O O20 0.370021 0.471380 0.501803
O O21 0.505233 0.477415 0.569925
O O22 0.558775 0.750000 0.554481
#
# Coordination Sequence:
#
# PCOD8245167 Si02
#       8
#     8   8   8   8   8   8   8   8
#     4  10  21  37  56  78 105 137 175 223 276 324
#     4   9  18  35  59  85 114 147 180 215 258 312
#     4  11  22  35  56  83 111 144 181 223 268 311
#     4   9  18  33  54  78 103 134 175 221 265 312
#     4  11  23  39  56  75 104 142 185 227 267 314
#     4   8  16  33  57  85 116 147 178 213 258 315
#     4   9  16  29  51  78 105 136 170 207 259 321
#     4   9  17  29  50  78 107 134 165 211 265 321
#
# _framework density 19.374682
#
# number of rings (size 3 to 8) (size 9 to 14) (size 15 to 20)
#    0.000    2.500    1.250    1.875    0.000    2.000 
#    0.000    3.125    0.000    5.625    0.000    3.500 
#    0.000    0.000    0.000    0.000    0.000    0.000 
#
# Total GULP energy -793223.444843 kJ/mol
# GULP energy per Si atom -12394.116326 kJ/mol
# Density = 1.933058 g / cm^3
# Si number density = 19.374682 Si / 1000 Ang^3
#
#
#
# Elastic Constant Matrix: (Units=GPa)
#
#
# Indices 1 2 3 4 5 6 
#
# 1 103.0811 20.7581 42.4412 0.0000 0.0000 0.0000
# 2 20.7581 31.0706 23.7458 0.0000 0.0000 0.0000
# 3 42.4412 23.7458 93.7723 0.0000 0.0000 0.0000
# 4 0.0000 0.0000 0.0000 11.9465 0.0000 0.0000
# 5 0.0000 0.0000 0.0000 0.0000 12.1336 0.0000
# 6 0.0000 0.0000 0.0000 0.0000 0.0000 22.6687
#
#
#
# Elastic Compliance Matrix: (Units=1/GPa)
#
#
# Indices 1 2 3 4 5 6 
#
# 1 0.012520 -0.005002 -0.004400 0.000000 0.000000 0.000000
# 2 -0.005002 0.041907 -0.008348 0.000000 0.000000 0.000000
# 3 -0.004400 -0.008348 0.014769 0.000000 0.000000 0.000000
# 4 0.000000 0.000000 0.000000 0.083707 0.000000 0.000000
# 5 0.000000 0.000000 0.000000 0.000000 0.082416 0.000000
# 6 0.000000 0.000000 0.000000 0.000000 0.000000 0.044114
#
#
# Mechanical properties :
#
#
# Convention : Reuss Voigt Hill
#
# Bulk Modulus (GPa) = 29.67689 44.64605 37.16147
# Shear Modulus (GPa) = 15.32971 18.74833 17.03902
#
# Velocity S-wave (km/s) = 2.81592 3.11412 2.96877
# Velocity P-wave (km/s) = 5.09148 6.00199 5.56538
#
# Compressibility (1/GPa) = 0.03369625
#
# Stress axis : x y z
#
# Youngs Moduli (GPa) = 79.87279 23.86261 67.70715
#
# Poissons Ratio (x) = 0.11936 0.29790
# Poissons Ratio (y) = 0.39951 0.56523
# Poissons Ratio (z) = 0.35143 0.19921
#
# Static dielectric constant tensor:
#      x y z
#    x 3.887750 0.000000 0.000000 
#    y 0.000000 3.226620 0.000000 
#    z 0.000000 0.000000 3.747040 
# 
# 
# High freq. dielectric constant tensor:
#      x y z
#    x 1.754510 0.000000 0.000000 
#    y 0.000000 1.721880 0.000000 
#    z 0.000000 0.000000 1.760100 
# 
# From -- ./inp_files/32152.got.cif
#   From: 2010.03.12/outbox.cif.g09.slc.cpg/sg59_17_cif.got.tgz:32152.got - 2010.04.16 16:29:54.
