data_PCOD8245177
_publ_section_title
;
Structure prediction by ZEFSAII (Michael W. Deem and Ramdas Pophale) SiO2 
 PCOD8245177
Probable space group: P M M N
;
_chemical_formula_sum "Si O2"
_cell_formula_units_Z 64
_cell_length_a 9.099268
_cell_length_b 13.272858
_cell_length_c 23.888314
_cell_angle_alpha 90.000000
_cell_angle_beta 90.000000
_cell_angle_gamma 90.000000
_cell_volume 2885.070324
_symmetry_space_group_name_H-M "P M M N"
_symmetry_group_IT_number 59
_space_group.IT_coordinate_system_code '2'
_symmetry_cell_setting 'orthorhombic'
loop_
_space_group_symop_operation_xyz
x,y,z
1/2-x,1/2-y,z
1/2+x,-y,-z
-x,1/2+y,-z
-x,-y,-z
1/2+x,1/2+y,-z
1/2-x,y,z
x,1/2-y,z
loop_
_atom_site_type_symbol
_atom_site_label
_atom_site_fract_x
_atom_site_fract_y
_atom_site_fract_z
Si Si1 0.417502 0.362921 0.762090
Si Si2 0.579536 0.960137 0.586072
Si Si3 0.916667 0.370258 0.871109
Si Si4 0.081056 0.555317 0.697589
Si Si5 0.083237 0.370320 0.979710
Si Si6 0.583091 0.370537 0.089336
Si Si7 0.586660 0.632278 0.803091
Si Si8 0.918246 0.865380 0.469545
O O1 0.250000 0.363683 0.783992
O O2 0.464560 0.250000 0.744097
O O3 0.519159 0.407373 0.811548
O O4 0.435850 0.435259 0.708547
O O5 0.750000 0.966997 0.600714
O O6 0.496665 0.915842 0.639736
O O7 0.546362 0.885450 0.534666
O O8 0.522313 0.071158 0.570869
O O9 0.750000 0.408097 0.877738
O O10 0.925393 0.250000 0.871917
O O11 0.014367 0.413785 0.922086
O O12 0.250000 0.588164 0.693812
O O13 0.008046 0.616371 0.747691
O O14 0.250000 0.408661 0.985355
O O15 0.077405 0.250000 0.979305
O O16 0.987769 0.411910 0.031757
O O17 0.750000 0.409277 0.093313
O O18 0.578348 0.250000 0.090276
O O19 0.492045 0.415846 0.142105
O O20 0.750000 0.585065 0.796797
O O21 0.600062 0.750000 0.813667
O O22 0.750000 0.895518 0.456833
O O23 0.949504 0.750000 0.456029
#
# Coordination Sequence:
#
# PCOD8245177 Si02
#       8
#     8   8   8   8   8   8   8   8
#     4   9  19  36  55  75 103 142 186 229 276 333
#     4  10  21  37  58  88 122 153 191 236 279 327
#     4   9  16  26  43  69  99 131 172 224 279 333
#     4  11  23  38  58  84 115 153 193 233 278 328
#     4   9  15  23  39  65  97 133 173 218 272 336
#     4   9  16  27  45  70 100 133 174 226 280 336
#     4  10  21  37  56  78 107 145 188 234 285 339
#     4   9  19  38  63  88 118 157 194 230 277 329
#
# _framework density 22.183167000000001
#
# number of rings (size 3 to 8) (size 9 to 14) (size 15 to 20)
#    0.000    2.500    0.000    2.250    0.000    8.000 
#    0.000    2.500    0.000    0.750    0.000    0.000 
#    0.000    0.000    0.000    0.000    0.000    0.000 
#
# Total GULP energy -793881.856355 kJ/mol
# GULP energy per Si atom -12404.404006 kJ/mol
# Density = 2.213268 g / cm^3
# Si number density = 22.183167 Si / 1000 Ang^3
#
#
#
# Elastic Constant Matrix: (Units=GPa)
#
#
# Indices 1 2 3 4 5 6 
#
# 1 150.8485 -4.6077 55.3825 0.0000 0.0000 0.0000
# 2 -4.6077 12.8792 -11.5266 0.0000 0.0000 0.0000
# 3 55.3825 -11.5266 109.7148 0.0000 0.0000 0.0000
# 4 0.0000 0.0000 0.0000 20.9433 0.0000 0.0000
# 5 0.0000 0.0000 0.0000 0.0000 45.7548 0.0000
# 6 0.0000 0.0000 0.0000 0.0000 0.0000 22.7767
#
#
#
# Elastic Compliance Matrix: (Units=1/GPa)
#
#
# Indices 1 2 3 4 5 6 
#
# 1 0.008146 -0.000845 -0.004201 0.000000 0.000000 0.000000
# 2 -0.000845 0.085791 0.009440 0.000000 0.000000 0.000000
# 3 -0.004201 0.009440 0.012227 0.000000 0.000000 0.000000
# 4 0.000000 0.000000 0.000000 0.047748 0.000000 0.000000
# 5 0.000000 0.000000 0.000000 0.000000 0.021856 0.000000
# 6 0.000000 0.000000 0.000000 0.000000 0.000000 0.043904
#
#
# Mechanical properties :
#
#
# Convention : Reuss Voigt Hill
#
# Bulk Modulus (GPa) = 8.69937 39.10432 23.90185
# Shear Modulus (GPa) = 20.06422 33.50792 26.78607
#
# Velocity S-wave (km/s) = 3.01072 3.89075 3.47867
# Velocity P-wave (km/s) = 4.00200 6.15224 5.18971
#
# Compressibility (1/GPa) = 0.11495079
#
# Stress axis : x y z
#
# Youngs Moduli (GPa) = 122.76665 11.65629 81.78852
#
# Poissons Ratio (x) = 0.00985 0.34356
# Poissons Ratio (y) = 0.10377 -0.77207
# Poissons Ratio (z) = 0.51569 -0.11003
#
# Static dielectric constant tensor:
#      x y z
#    x 4.118230 0.000000 0.000000 
#    y 0.000000 3.827160 0.000000 
#    z 0.000000 0.000000 3.861670 
# 
# 
# High freq. dielectric constant tensor:
#      x y z
#    x 1.878400 0.000000 0.000000 
#    y 0.000000 1.878260 0.000000 
#    z 0.000000 0.000000 1.865390 
# 
# From -- ./inp_files/31430.got.cif
#   From: 2010.03.12/outbox.cif.g09.slc.cpg/sg59_16_cif.got.tgz:31430.got - 2010.04.16 16:29:54.
