data_PCOD8245016
_publ_section_title
;
Structure prediction by ZEFSAII (Michael W. Deem and Ramdas Pophale) SiO2 
 PCOD8245016
Probable space group: P M M N
;
_chemical_formula_sum "Si O2"
_cell_formula_units_Z 48
_cell_length_a 8.982475
_cell_length_b 30.617386
_cell_length_c 9.558295
_cell_angle_alpha 90.000000
_cell_angle_beta 90.000000
_cell_angle_gamma 90.000000
_cell_volume 2628.721376
_symmetry_space_group_name_H-M "P M M N"
_symmetry_group_IT_number 59
_space_group.IT_coordinate_system_code '2'
_symmetry_cell_setting 'orthorhombic'
loop_
_space_group_symop_operation_xyz
x,y,z
1/2-x,1/2-y,z
1/2+x,-y,-z
-x,1/2+y,-z
-x,-y,-z
1/2+x,1/2+y,-z
1/2-x,y,z
x,1/2-y,z
loop_
_atom_site_type_symbol
_atom_site_label
_atom_site_fract_x
_atom_site_fract_y
_atom_site_fract_z
Si Si1 0.926048 0.605964 0.208825
Si Si2 0.079051 0.143495 0.083827
Si Si3 0.424327 0.515510 0.141743
Si Si4 0.074566 0.871936 0.487820
Si Si5 0.580010 0.569999 0.697120
Si Si6 0.925301 0.201126 0.295125
O O1 0.750000 0.598410 0.218193
O O2 0.004962 0.559482 0.199183
O O3 0.987195 0.631610 0.342754
O O4 0.968540 0.635791 0.076095
O O5 0.250000 0.156834 0.095435
O O6 0.045603 0.098684 0.165615
O O7 0.986827 0.183497 0.147872
O O8 0.250000 0.521946 0.112369
O O9 0.451890 0.479925 0.263170
O O10 0.500000 0.500000 0.000000
O O11 0.250000 0.873066 0.460051
O O12 0.023197 0.829818 0.577488
O O13 0.027433 0.915832 0.570497
O O14 0.750000 0.576755 0.647992
O O15 0.750000 0.200780 0.282592
O O16 0.985688 0.250000 0.322653
#
# Coordination Sequence:
#
# PCOD8245016 Si02
#       6
#     8   8   8   8   8   8
#     4  11  22  37  54  78 112 148 182 226 274 319
#     4   9  18  34  55  79 107 138 177 220 265 317
#     4  11  21  34  54  80 110 146 189 232 272 317
#     4  10  21  36  55  81 109 144 183 222 273 329
#     4   9  18  35  54  75 105 144 184 225 267 311
#     4   9  19  37  60  84 108 135 173 221 272 329
#
# _framework density 18.259827999999999
#
# number of rings (size 3 to 8) (size 9 to 14) (size 15 to 20)
#    0.000    2.167    1.667    1.500    0.000    4.333 
#    0.000    0.833    0.000    3.000    0.000    0.000 
#    0.000    0.000    0.000    0.000    0.000    0.000 
#
# Total GULP energy -595309.825975 kJ/mol
# GULP energy per Si atom -12402.288041 kJ/mol
# Density = 1.821827 g / cm^3
# Si number density = 18.259828 Si / 1000 Ang^3
#
#
#
# Elastic Constant Matrix: (Units=GPa)
#
#
# Indices 1 2 3 4 5 6 
#
# 1 68.4454 44.6542 46.6163 0.0000 0.0000 0.0000
# 2 44.6542 117.2742 56.5327 0.0000 0.0000 0.0000
# 3 46.6163 56.5327 130.5441 0.0000 0.0000 0.0000
# 4 0.0000 0.0000 0.0000 18.7134 0.0000 0.0000
# 5 0.0000 0.0000 0.0000 0.0000 35.1467 0.0000
# 6 0.0000 0.0000 0.0000 0.0000 0.0000 26.8901
#
#
#
# Elastic Compliance Matrix: (Units=1/GPa)
#
#
# Indices 1 2 3 4 5 6 
#
# 1 0.022052 -0.005814 -0.005357 0.000000 0.000000 0.000000
# 2 -0.005814 0.012310 -0.003255 0.000000 0.000000 0.000000
# 3 -0.005357 -0.003255 0.010982 0.000000 0.000000 0.000000
# 4 0.000000 0.000000 0.000000 0.053438 0.000000 0.000000
# 5 0.000000 0.000000 0.000000 0.000000 0.028452 0.000000
# 6 0.000000 0.000000 0.000000 0.000000 0.000000 0.037188
#
#
# Mechanical properties :
#
#
# Convention : Reuss Voigt Hill
#
# Bulk Modulus (GPa) = 60.63189 67.98556 64.30873
# Shear Modulus (GPa) = 25.15459 27.38074 26.26766
#
# Velocity S-wave (km/s) = 3.71562 3.87655 3.79694
# Velocity P-wave (km/s) = 7.18922 7.57298 7.38359
#
# Compressibility (1/GPa) = 0.01649297
#
# Stress axis : x y z
#
# Youngs Moduli (GPa) = 45.34790 81.23585 91.05458
#
# Poissons Ratio (x) = 0.47234 0.48774
# Poissons Ratio (y) = 0.26367 0.29634
# Poissons Ratio (z) = 0.24291 0.26439
#
# Static dielectric constant tensor:
#      x y z
#    x 3.381920 0.000000 0.000000 
#    y 0.000000 3.494510 0.000000 
#    z 0.000000 0.000000 3.440460 
# 
# 
# High freq. dielectric constant tensor:
#      x y z
#    x 1.712640 0.000000 0.000000 
#    y 0.000000 1.695040 0.000000 
#    z 0.000000 0.000000 1.707320 
# 
# From -- ./inp_files/6179.got.cif
#   From: 2010.03.12/outbox.cif.g09.slc.cpg/sg59_4_cif.got.tgz:6179.got - 2010.04.16 16:29:54.
