data_PCOD8245879
_publ_section_title
;
Structure prediction by ZEFSAII (Michael W. Deem and Ramdas Pophale) SiO2 
 PCOD8245879
Probable space group: P M M N
;
_chemical_formula_sum "Si O2"
_cell_formula_units_Z 56
_cell_length_a 14.539194
_cell_length_b 21.217982
_cell_length_c 9.168145
_cell_angle_alpha 90.000000
_cell_angle_beta 90.000000
_cell_angle_gamma 90.000000
_cell_volume 2828.302657
_symmetry_space_group_name_H-M "P M M N"
_symmetry_group_IT_number 59
_space_group.IT_coordinate_system_code '2'
_symmetry_cell_setting 'orthorhombic'
loop_
_space_group_symop_operation_xyz
x,y,z
1/2-x,1/2-y,z
1/2+x,-y,-z
-x,1/2+y,-z
-x,-y,-z
1/2+x,1/2+y,-z
1/2-x,y,z
x,1/2-y,z
loop_
_atom_site_type_symbol
_atom_site_label
_atom_site_fract_x
_atom_site_fract_y
_atom_site_fract_z
Si Si1 0.001805 0.930455 0.935846
Si Si2 0.586233 0.537725 0.442231
Si Si3 0.643997 0.615273 0.718974
Si Si4 0.356285 0.822314 0.438722
Si Si5 0.639883 0.750000 0.290732
Si Si6 0.013861 0.138988 0.774032
Si Si7 0.359024 0.250000 0.376625
Si Si8 0.851290 0.416687 0.312456
O O1 0.086263 0.918973 0.828893
O O2 0.907833 0.920860 0.846959
O O3 0.012683 0.879436 0.062460
O O4 0.000000 0.000000 0.000000
O O5 0.500000 0.500000 0.500000
O O6 0.632552 0.580668 0.564576
O O7 0.553838 0.578482 0.306285
O O8 0.657705 0.485465 0.386314
O O9 0.750000 0.615434 0.763267
O O10 0.605803 0.686994 0.704398
O O11 0.250000 0.838653 0.397859
O O12 0.365283 0.750000 0.488636
O O13 0.421280 0.834507 0.300174
O O14 0.391586 0.866148 0.571509
O O15 0.750000 0.750000 0.271608
O O16 0.596344 0.810904 0.214928
O O17 0.605215 0.750000 0.457823
O O18 0.250000 0.250000 0.383482
O O19 0.750000 0.395008 0.263597
#
# Coordination Sequence:
#
# PCOD8245879 Si02
#       8
#     8   8   8   8   4   8   4   8
#     4  12  26  44  58  90 136 171 209 253 316 388
#     4  12  20  39  66  96 125 162 216 265 308 377
#     4  11  23  41  67  95 126 167 211 263 317 375
#     4  10  22  43  70  98 122 158 217 274 321 372
#     4  11  24  41  66 102 131 163 215 264 318 386
#     4  12  23  40  67  92 131 173 205 257 323 377
#     4   9  20  39  65  96 121 153 210 262 309 368
#     4  11  24  43  68  94 124 166 216 272 321 372
#
# _framework density 19.799861
#
# number of rings (size 3 to 8) (size 9 to 14) (size 15 to 20)
#    0.000    0.857    6.429    0.429    0.000    2.857 
#    1.286    0.714    0.000    0.000    0.000    0.000 
#    0.000    0.000    0.000    0.000    0.000    0.000 
#
# Total GULP energy -694562.373964 kJ/mol
# GULP energy per Si atom -12402.899535 kJ/mol
# Density = 1.975480 g / cm^3
# Si number density = 19.799861 Si / 1000 Ang^3
#
#
#
# Elastic Constant Matrix: (Units=GPa)
#
#
# Indices 1 2 3 4 5 6 
#
# 1 103.2649 41.8293 54.3356 0.0000 0.0000 0.0000
# 2 41.8293 128.0462 58.1397 0.0000 0.0000 0.0000
# 3 54.3356 58.1397 129.0413 0.0000 0.0000 0.0000
# 4 0.0000 0.0000 0.0000 33.3209 0.0000 0.0000
# 5 0.0000 0.0000 0.0000 0.0000 25.3586 0.0000
# 6 0.0000 0.0000 0.0000 0.0000 0.0000 30.9098
#
#
#
# Elastic Compliance Matrix: (Units=1/GPa)
#
#
# Indices 1 2 3 4 5 6 
#
# 1 0.012915 -0.002200 -0.004447 0.000000 0.000000 0.000000
# 2 -0.002200 0.010193 -0.003666 0.000000 0.000000 0.000000
# 3 -0.004447 -0.003666 0.011274 0.000000 0.000000 0.000000
# 4 0.000000 0.000000 0.000000 0.030011 0.000000 0.000000
# 5 0.000000 0.000000 0.000000 0.000000 0.039434 0.000000
# 6 0.000000 0.000000 0.000000 0.000000 0.000000 0.032352
#
#
# Mechanical properties :
#
#
# Convention : Reuss Voigt Hill
#
# Bulk Modulus (GPa) = 72.69728 74.32906 73.51317
# Shear Modulus (GPa) = 30.98083 31.65438 31.31760
#
# Velocity S-wave (km/s) = 3.95992 4.00273 3.98138
# Velocity P-wave (km/s) = 7.59630 7.68012 7.63832
#
# Compressibility (1/GPa) = 0.01375567
#
# Stress axis : x y z
#
# Youngs Moduli (GPa) = 77.43081 98.10728 88.70179
#
# Poissons Ratio (x) = 0.21581 0.39445
# Poissons Ratio (y) = 0.17033 0.32520
# Poissons Ratio (z) = 0.34433 0.35968
#
# Static dielectric constant tensor:
#      x y z
#    x 3.595230 0.000000 0.000000 
#    y 0.000000 4.537950 0.000000 
#    z 0.000000 0.000000 3.209780 
# 
# 
# High freq. dielectric constant tensor:
#      x y z
#    x 1.777930 0.000000 0.000000 
#    y 0.000000 1.790650 0.000000 
#    z 0.000000 0.000000 1.758510 
# 
# From -- ./inp_files/9406.got.cif
#   From: 2010.03.12/outbox.cif.g09.slc.cpg/sg59_5_cif.got.tgz:9406.got - 2010.04.16 16:29:54.
