data_PCOD8245684
_publ_section_title
;
Structure prediction by ZEFSAII (Michael W. Deem and Ramdas Pophale) SiO2 
 PCOD8245684
Probable space group: P M M N
;
_chemical_formula_sum "Si O2"
_cell_formula_units_Z 40
_cell_length_a 20.407166
_cell_length_b 8.601381
_cell_length_c 11.436974
_cell_angle_alpha 90.000000
_cell_angle_beta 90.000000
_cell_angle_gamma 90.000000
_cell_volume 2007.529872
_symmetry_space_group_name_H-M "P M M N"
_symmetry_group_IT_number 59
_space_group.IT_coordinate_system_code '2'
_symmetry_cell_setting 'orthorhombic'
loop_
_space_group_symop_operation_xyz
x,y,z
1/2-x,1/2-y,z
1/2+x,-y,-z
-x,1/2+y,-z
-x,-y,-z
1/2+x,1/2+y,-z
1/2-x,y,z
x,1/2-y,z
loop_
_atom_site_type_symbol
_atom_site_label
_atom_site_fract_x
_atom_site_fract_y
_atom_site_fract_z
Si Si1 0.372264 0.930302 0.754044
Si Si2 0.826034 0.069547 0.988294
Si Si3 0.378706 0.067143 0.239585
Si Si4 0.250000 0.067812 0.626210
Si Si5 0.250000 0.065510 0.368966
Si Si6 0.001948 0.433094 0.630824
O O1 0.366942 0.750000 0.723706
O O2 0.364244 0.960515 0.891403
O O3 0.314341 0.018128 0.691611
O O4 0.440146 0.994858 0.706974
O O5 0.750000 0.012788 0.996198
O O6 0.827710 0.250000 0.953849
O O7 0.868498 0.970743 0.896568
O O8 0.391753 0.250000 0.256325
O O9 0.313771 0.005073 0.302824
O O10 0.436894 0.971743 0.297806
O O11 0.250000 0.250000 0.613277
O O12 0.250000 0.992228 0.497729
O O13 0.250000 0.250000 0.370464
O O14 0.011893 0.250000 0.621090
O O15 0.000000 0.500000 0.500000
#
# Coordination Sequence:
#
# PCOD8245684 Si02
#       6
#     8   8   8   4   4   8
#     4  11  23  42  65  92 127 171 216 267 322 379
#     4  10  21  40  64  93 130 168 211 265 320 377
#     4  11  22  40  65  94 127 168 213 264 320 380
#     4  11  21  36  61  92 126 165 212 267 322 383
#     4   9  20  36  57  88 122 157 204 257 312 373
#     4  12  26  45  66  94 129 170 214 264 323 389
#
# _framework density 19.924983000000001
#
# number of rings (size 3 to 8) (size 9 to 14) (size 15 to 20)
#    0.000    1.200    2.000    4.500    0.000    4.000 
#    0.000    3.000    0.000    0.000    0.000    0.000 
#    0.000    0.000    0.000    0.000    0.000    0.000 
#
# Total GULP energy -496107.278200 kJ/mol
# GULP energy per Si atom -12402.681955 kJ/mol
# Density = 1.987963 g / cm^3
# Si number density = 19.924983 Si / 1000 Ang^3
#
#
#
# Elastic Constant Matrix: (Units=GPa)
#
#
# Indices 1 2 3 4 5 6 
#
# 1 93.8406 -29.5737 30.2580 0.0000 0.0000 0.0000
# 2 -29.5737 10.0478 13.3723 0.0000 0.0000 0.0000
# 3 30.2580 13.3723 109.6657 0.0000 0.0000 0.0000
# 4 0.0000 0.0000 0.0000 34.2913 0.0000 0.0000
# 5 0.0000 0.0000 0.0000 0.0000 43.9928 0.0000
# 6 0.0000 0.0000 0.0000 0.0000 0.0000 39.2902
#
#
#
# Elastic Compliance Matrix: (Units=1/GPa)
#
#
# Indices 1 2 3 4 5 6 
#
# 1 -0.021759 -0.085987 0.016488 0.000000 0.000000 0.000000
# 2 -0.085987 -0.221001 0.050673 0.000000 0.000000 0.000000
# 3 0.016488 0.050673 -0.001610 0.000000 0.000000 0.000000
# 4 0.000000 0.000000 0.000000 0.029162 0.000000 0.000000
# 5 0.000000 0.000000 0.000000 0.000000 0.022731 0.000000
# 6 0.000000 0.000000 0.000000 0.000000 0.000000 0.025452
#
#
# Mechanical properties :
#
#
# Convention : Reuss Voigt Hill
#
# Bulk Modulus (GPa) = -3.54584 26.85190 11.65303
# Shear Modulus (GPa) = -22.38340 36.81468 7.21564
#
# Velocity S-wave (km/s) = -3.35533 4.30311 1.90506
# Velocity P-wave (km/s) = 4.09810 6.18019 3.27111
#
# Compressibility (1/GPa) = -0.28202035
#
# Stress axis : x y z
#
# Youngs Moduli (GPa) = -45.95826 -4.52488 -621.26818
#
# Poissons Ratio (x) = -0.38908 10.24377
# Poissons Ratio (y) = -3.95181 31.48142
# Poissons Ratio (z) = 0.75778 0.22929
#
# Static dielectric constant tensor:
#      x y z
#    x 3.644080 0.000000 0.000000 
#    y 0.000000 3.615140 0.000000 
#    z 0.000000 0.000000 3.844260 
# 
# 
# High freq. dielectric constant tensor:
#      x y z
#    x 1.786970 0.000000 0.000000 
#    y 0.000000 1.777590 0.000000 
#    z 0.000000 0.000000 1.795950 
# 
# From -- ./inp_files/18169.got.cif
#   From: 2010.03.12/outbox.cif.g09.slc.cpg/sg59_10_cif.got.tgz:18169.got - 2010.04.16 16:29:54.
