data_PCOD8245747
_publ_section_title
;
Structure prediction by ZEFSAII (Michael W. Deem and Ramdas Pophale) SiO2 
 PCOD8245747
Probable space group: P M M N
;
_chemical_formula_sum "Si O2"
_cell_formula_units_Z 56
_cell_length_a 21.478174
_cell_length_b 8.742053
_cell_length_c 16.887706
_cell_angle_alpha 90.000000
_cell_angle_beta 90.000000
_cell_angle_gamma 90.000000
_cell_volume 3170.892007
_symmetry_space_group_name_H-M "P M M N"
_symmetry_group_IT_number 59
_space_group.IT_coordinate_system_code '2'
_symmetry_cell_setting 'orthorhombic'
loop_
_space_group_symop_operation_xyz
x,y,z
1/2-x,1/2-y,z
1/2+x,-y,-z
-x,1/2+y,-z
-x,-y,-z
1/2+x,1/2+y,-z
1/2-x,y,z
x,1/2-y,z
loop_
_atom_site_type_symbol
_atom_site_label
_atom_site_fract_x
_atom_site_fract_y
_atom_site_fract_z
Si Si1 0.524371 0.429158 0.874562
Si Si2 0.940920 0.930039 0.545775
Si Si3 0.682515 0.070639 0.148362
Si Si4 0.584826 0.427686 0.028640
Si Si5 0.383833 0.569760 0.695876
Si Si6 0.515817 0.068779 0.698751
Si Si7 0.820542 0.927953 0.446292
O O1 0.520912 0.250000 0.862899
O O2 0.460948 0.481092 0.914580
O O3 0.533176 0.498214 0.786413
O O4 0.579860 0.476598 0.935914
O O5 0.950605 0.750000 0.545926
O O6 0.873859 0.976083 0.509103
O O7 0.937955 0.992712 0.635475
O O8 0.000000 0.000000 0.500000
O O9 0.750000 0.990454 0.150775
O O10 0.690117 0.250000 0.161936
O O11 0.653445 0.036578 0.061747
O O12 0.639183 0.008705 0.218780
O O13 0.567201 0.250000 0.037463
O O14 0.397753 0.750000 0.695278
O O15 0.446033 0.477933 0.674718
O O16 0.330974 0.528220 0.632320
O O17 0.522662 0.250000 0.693696
O O18 0.750000 0.961926 0.477949
O O19 0.827431 0.750000 0.424670
#
# Coordination Sequence:
#
# PCOD8245747 Si02
#       7
#     8   8   8   8   8   8   8
#     4   9  18  30  47  70  97 127 161 205 252 291
#     4  11  22  36  56  80 105 135 171 214 262 312
#     4   9  17  28  44  70 102 132 164 204 248 299
#     4   9  16  29  48  69  94 127 165 202 244 295
#     4  11  20  31  50  76 105 137 173 210 254 307
#     4  11  21  33  50  74 107 139 171 214 260 307
#     4  10  22  39  56  75 103 138 173 211 260 318
#
# _framework density 17.660646
#
# number of rings (size 3 to 8) (size 9 to 14) (size 15 to 20)
#    0.000    2.000    2.857    1.714    0.000    2.000 
#    0.000    0.000    0.000    2.143    0.000    2.000 
#    0.000    0.000    0.000    0.000    0.000    0.000 
#
# Total GULP energy -694059.337976 kJ/mol
# GULP energy per Si atom -12393.916750 kJ/mol
# Density = 1.762045 g / cm^3
# Si number density = 17.660646 Si / 1000 Ang^3
#
#
#
# Elastic Constant Matrix: (Units=GPa)
#
#
# Indices 1 2 3 4 5 6 
#
# 1 102.1814 20.9261 56.4378 0.0000 0.0000 0.0000
# 2 20.9261 33.8237 27.6384 0.0000 0.0000 0.0000
# 3 56.4378 27.6384 134.7349 0.0000 0.0000 0.0000
# 4 0.0000 0.0000 0.0000 22.1771 0.0000 0.0000
# 5 0.0000 0.0000 0.0000 0.0000 23.0830 0.0000
# 6 0.0000 0.0000 0.0000 0.0000 0.0000 16.6280
#
#
#
# Elastic Compliance Matrix: (Units=1/GPa)
#
#
# Indices 1 2 3 4 5 6 
#
# 1 0.013256 -0.004402 -0.004650 0.000000 0.000000 0.000000
# 2 -0.004402 0.036980 -0.005742 0.000000 0.000000 0.000000
# 3 -0.004650 -0.005742 0.010548 0.000000 0.000000 0.000000
# 4 0.000000 0.000000 0.000000 0.045091 0.000000 0.000000
# 5 0.000000 0.000000 0.000000 0.000000 0.043322 0.000000
# 6 0.000000 0.000000 0.000000 0.000000 0.000000 0.060140
#
#
# Mechanical properties :
#
#
# Convention : Reuss Voigt Hill
#
# Bulk Modulus (GPa) = 32.05452 53.41606 42.73529
# Shear Modulus (GPa) = 20.05426 23.42680 21.74053
#
# Velocity S-wave (km/s) = 3.37342 3.64606 3.51239
# Velocity P-wave (km/s) = 5.77607 6.93084 6.37963
#
# Compressibility (1/GPa) = 0.03119684
#
# Stress axis : x y z
#
# Youngs Moduli (GPa) = 75.43631 27.04131 94.80881
#
# Poissons Ratio (x) = 0.11903 0.44084
# Poissons Ratio (y) = 0.33206 0.54439
# Poissons Ratio (z) = 0.35076 0.15527
#
# Static dielectric constant tensor:
#      x y z
#    x -11.712940 0.000000 0.000000 
#    y 0.000000 3.153520 0.000000 
#    z 0.000000 0.000000 3.690040 
# 
# 
# High freq. dielectric constant tensor:
#      x y z
#    x 1.661010 0.000000 0.000000 
#    y 0.000000 1.672170 0.000000 
#    z 0.000000 0.000000 1.688770 
# 
# From -- ./inp_files/28084.got.cif
#   From: 2010.03.12/outbox.cif.g09.slc.cpg/sg59_15_cif.got.tgz:28084.got - 2010.04.16 16:29:54.
