data_PCOD8245497
_publ_section_title
;
Structure prediction by ZEFSAII (Michael W. Deem and Ramdas Pophale) SiO2 
 PCOD8245497
Probable space group: P M M N
;
_chemical_formula_sum "Si O2"
_cell_formula_units_Z 64
_cell_length_a 8.964568
_cell_length_b 14.489341
_cell_length_c 24.922999
_cell_angle_alpha 90.000000
_cell_angle_beta 90.000000
_cell_angle_gamma 90.000000
_cell_volume 3237.265354
_symmetry_space_group_name_H-M "P M M N"
_symmetry_group_IT_number 59
_space_group.IT_coordinate_system_code '2'
_symmetry_cell_setting 'orthorhombic'
loop_
_space_group_symop_operation_xyz
x,y,z
1/2-x,1/2-y,z
1/2+x,-y,-z
-x,1/2+y,-z
-x,-y,-z
1/2+x,1/2+y,-z
1/2-x,y,z
x,1/2-y,z
loop_
_atom_site_type_symbol
_atom_site_label
_atom_site_fract_x
_atom_site_fract_y
_atom_site_fract_z
Si Si1 0.926892 0.148471 0.026778
Si Si2 0.582128 0.150168 0.415836
Si Si3 0.425733 0.855041 0.093857
Si Si4 0.426470 0.404032 0.515379
Si Si5 0.419821 0.647408 0.376316
Si Si6 0.926871 0.467735 0.126211
Si Si7 0.925204 0.857906 0.779189
Si Si8 0.078345 0.038315 0.326871
O O1 0.750000 0.150922 0.026129
O O2 0.986706 0.250000 0.043685
O O3 0.984449 0.073290 0.069289
O O4 0.983105 0.125597 0.966792
O O5 0.750000 0.117296 0.429327
O O6 0.582895 0.250000 0.386837
O O7 0.488832 0.164803 0.470359
O O8 0.510762 0.074988 0.377572
O O9 0.250000 0.870215 0.099066
O O10 0.467284 0.750000 0.110866
O O11 0.507574 0.928795 0.132408
O O12 0.500000 0.500000 0.500000
O O13 0.250000 0.409854 0.512153
O O14 0.471068 0.370105 0.574188
O O15 0.250000 0.638567 0.397414
O O16 0.450087 0.750000 0.352778
O O17 0.445331 0.572896 0.328301
O O18 0.750000 0.472077 0.130070
O O19 0.985719 0.398733 0.171141
O O20 0.750000 0.872140 0.788857
O O21 0.964554 0.750000 0.771516
O O22 0.981595 0.916188 0.727727
O O23 0.250000 0.066506 0.334228
#
# Coordination Sequence:
#
# PCOD8245497 Si02
#       8
#     8   8   8   8   8   8   8   8
#     4   8  15  29  50  78 112 149 189 231 278 338
#     4  11  23  37  56  84 116 148 183 226 277 334
#     4   9  18  34  55  78 109 151 194 235 280 333
#     4  12  23  36  56  83 116 153 189 226 273 330
#     4  10  21  38  60  86 115 146 183 230 282 335
#     4  11  21  33  54  83 115 150 187 233 289 344
#     4  10  22  40  60  83 112 146 189 237 282 335
#     4  10  21  39  62  83 108 146 189 235 280 325
#
# _framework density 19.769773000000001
#
# number of rings (size 3 to 8) (size 9 to 14) (size 15 to 20)
#    0.000    1.875    1.250    4.125    0.000    4.750 
#    0.000    1.250    0.000    3.750    0.000    0.000 
#    0.000    0.000    0.000    0.000    0.000    0.000 
#
# Total GULP energy -793388.855766 kJ/mol
# GULP energy per Si atom -12396.700871 kJ/mol
# Density = 1.972478 g / cm^3
# Si number density = 19.769773 Si / 1000 Ang^3
#
#
#
# Elastic Constant Matrix: (Units=GPa)
#
#
# Indices 1 2 3 4 5 6 
#
# 1 82.0611 43.4662 31.6498 0.0000 0.0000 0.0000
# 2 43.4662 152.4066 51.7184 0.0000 0.0000 0.0000
# 3 31.6498 51.7184 72.7012 0.0000 0.0000 0.0000
# 4 0.0000 0.0000 0.0000 32.9172 0.0000 0.0000
# 5 0.0000 0.0000 0.0000 0.0000 26.6147 0.0000
# 6 0.0000 0.0000 0.0000 0.0000 0.0000 24.1950
#
#
#
# Elastic Compliance Matrix: (Units=1/GPa)
#
#
# Indices 1 2 3 4 5 6 
#
# 1 0.015507 -0.002810 -0.004752 0.000000 0.000000 0.000000
# 2 -0.002810 0.009159 -0.005292 0.000000 0.000000 0.000000
# 3 -0.004752 -0.005292 0.019588 0.000000 0.000000 0.000000
# 4 0.000000 0.000000 0.000000 0.030379 0.000000 0.000000
# 5 0.000000 0.000000 0.000000 0.000000 0.037573 0.000000
# 6 0.000000 0.000000 0.000000 0.000000 0.000000 0.041331
#
#
# Mechanical properties :
#
#
# Convention : Reuss Voigt Hill
#
# Bulk Modulus (GPa) = 53.91931 62.31531 58.11731
# Shear Modulus (GPa) = 26.96476 28.76770 27.86623
#
# Velocity S-wave (km/s) = 3.69716 3.81876 3.75845
# Velocity P-wave (km/s) = 6.74968 7.14373 6.94950
#
# Compressibility (1/GPa) = 0.01854623
#
# Stress axis : x y z
#
# Youngs Moduli (GPa) = 64.48606 109.18665 51.05116
#
# Poissons Ratio (x) = 0.30683 0.24259
# Poissons Ratio (y) = 0.18121 0.27016
# Poissons Ratio (z) = 0.30643 0.57781
#
# Static dielectric constant tensor:
#      x y z
#    x 3.441880 0.000000 0.000000 
#    y 0.000000 3.919300 0.000000 
#    z 0.000000 0.000000 3.572190 
# 
# 
# High freq. dielectric constant tensor:
#      x y z
#    x 1.756510 0.000000 0.000000 
#    y 0.000000 1.791590 0.000000 
#    z 0.000000 0.000000 1.744060 
# 
# From -- ./inp_files/31577.got.cif
#   From: 2010.03.12/outbox.cif.g09.slc.cpg/sg59_16_cif.got.tgz:31577.got - 2010.04.16 16:29:54.
