data_PCOD8245856
_publ_section_title
;
Structure prediction by ZEFSAII (Michael W. Deem and Ramdas Pophale) SiO2 
 PCOD8245856
Probable space group: P M M N
;
_chemical_formula_sum "Si O2"
_cell_formula_units_Z 48
_cell_length_a 15.804658
_cell_length_b 8.736956
_cell_length_c 16.882832
_cell_angle_alpha 90.000000
_cell_angle_beta 90.000000
_cell_angle_gamma 90.000000
_cell_volume 2331.259130
_symmetry_space_group_name_H-M "P M M N"
_symmetry_group_IT_number 59
_space_group.IT_coordinate_system_code '2'
_symmetry_cell_setting 'orthorhombic'
loop_
_space_group_symop_operation_xyz
x,y,z
1/2-x,1/2-y,z
1/2+x,-y,-z
-x,1/2+y,-z
-x,-y,-z
1/2+x,1/2+y,-z
1/2-x,y,z
x,1/2-y,z
loop_
_atom_site_type_symbol
_atom_site_label
_atom_site_fract_x
_atom_site_fract_y
_atom_site_fract_z
Si Si1 0.000888 0.930278 0.413752
Si Si2 0.919115 0.428009 0.853107
Si Si3 0.656156 0.068256 0.690422
Si Si4 0.092259 0.924600 0.841272
Si Si5 0.845943 0.923224 0.004631
Si Si6 0.155392 0.575026 0.671294
O O1 0.009046 0.750000 0.420525
O O2 0.082670 0.998604 0.366686
O O3 0.913710 0.968819 0.369870
O O4 0.000000 0.000000 0.500000
O O5 0.905500 0.250000 0.871051
O O6 0.859503 0.483842 0.781103
O O7 0.014649 0.460785 0.827274
O O8 0.903565 0.521960 0.932663
O O9 0.750000 0.010090 0.664439
O O10 0.651736 0.250000 0.686739
O O11 0.060224 0.750000 0.849542
O O12 0.153142 0.943370 0.766048
O O13 0.143341 0.970028 0.919414
O O14 0.750000 0.934043 0.975374
O O15 0.871871 0.750000 0.026776
O O16 0.250000 0.527456 0.643479
O O17 0.136575 0.750000 0.646655
#
# Coordination Sequence:
#
# PCOD8245856 Si02
#       6
#     8   8   8   8   8   8
#     4  11  23  41  65  94 127 161 203 253 307 371
#     4  11  21  37  61  87 118 157 206 255 306 365
#     4   9  19  37  62  90 120 158 202 248 301 363
#     4  11  22  38  61  87 120 160 207 256 306 364
#     4  11  24  39  55  82 120 160 206 257 308 361
#     4  10  22  41  65  92 124 164 208 255 310 369
#
# _framework density 20.589732000000001
#
# number of rings (size 3 to 8) (size 9 to 14) (size 15 to 20)
#    0.000    1.500    1.667    3.500    0.000    4.333 
#    0.000    1.667    0.000    4.500    0.000    0.000 
#    0.000    0.000    0.000    0.000    0.000    0.000 
#
# Total GULP energy -595277.669518 kJ/mol
# GULP energy per Si atom -12401.618115 kJ/mol
# Density = 2.054287 g / cm^3
# Si number density = 20.589732 Si / 1000 Ang^3
#
#
#
# Elastic Constant Matrix: (Units=GPa)
#
#
# Indices 1 2 3 4 5 6 
#
# 1 125.9911 26.8058 44.7414 0.0000 0.0000 0.0000
# 2 26.8058 56.1745 37.7755 0.0000 0.0000 0.0000
# 3 44.7414 37.7755 123.6097 0.0000 0.0000 0.0000
# 4 0.0000 0.0000 0.0000 31.8341 0.0000 0.0000
# 5 0.0000 0.0000 0.0000 0.0000 23.2170 0.0000
# 6 0.0000 0.0000 0.0000 0.0000 0.0000 28.2306
#
#
#
# Elastic Compliance Matrix: (Units=1/GPa)
#
#
# Indices 1 2 3 4 5 6 
#
# 1 0.009440 -0.002778 -0.002568 0.000000 0.000000 0.000000
# 2 -0.002778 0.023224 -0.006092 0.000000 0.000000 0.000000
# 3 -0.002568 -0.006092 0.010881 0.000000 0.000000 0.000000
# 4 0.000000 0.000000 0.000000 0.031413 0.000000 0.000000
# 5 0.000000 0.000000 0.000000 0.000000 0.043072 0.000000
# 6 0.000000 0.000000 0.000000 0.000000 0.000000 0.035423
#
#
# Mechanical properties :
#
#
# Convention : Reuss Voigt Hill
#
# Bulk Modulus (GPa) = 48.37987 58.26897 53.32442
# Shear Modulus (GPa) = 27.29003 29.75320 28.52161
#
# Velocity S-wave (km/s) = 3.64458 3.80551 3.72591
# Velocity P-wave (km/s) = 6.42330 6.90439 6.66818
#
# Compressibility (1/GPa) = 0.02066975
#
# Stress axis : x y z
#
# Youngs Moduli (GPa) = 105.93227 43.05941 91.90200
#
# Poissons Ratio (x) = 0.11961 0.23600
# Poissons Ratio (y) = 0.29426 0.55985
# Poissons Ratio (z) = 0.27203 0.26231
#
# Static dielectric constant tensor:
#      x y z
#    x 4.025440 0.000000 0.000000 
#    y 0.000000 3.593720 0.000000 
#    z 0.000000 0.000000 3.725780 
# 
# 
# High freq. dielectric constant tensor:
#      x y z
#    x 1.815750 0.000000 0.000000 
#    y 0.000000 1.790480 0.000000 
#    z 0.000000 0.000000 1.806330 
# 
# From -- ./inp_files/23633.got.cif
#   From: 2010.03.12/outbox.cif.g09.slc.cpg/sg59_12_cif.got.tgz:23633.got - 2010.04.16 16:29:54.
