data_PCOD8245350
_publ_section_title
;
Structure prediction by ZEFSAII (Michael W. Deem and Ramdas Pophale) SiO2 
 PCOD8245350
Probable space group: P M M N
;
_chemical_formula_sum "Si O2"
_cell_formula_units_Z 64
_cell_length_a 28.901868
_cell_length_b 8.891368
_cell_length_c 12.629967
_cell_angle_alpha 90.000000
_cell_angle_beta 90.000000
_cell_angle_gamma 90.000000
_cell_volume 3245.612852
_symmetry_space_group_name_H-M "P M M N"
_symmetry_group_IT_number 59
_space_group.IT_coordinate_system_code '2'
_symmetry_cell_setting 'orthorhombic'
loop_
_space_group_symop_operation_xyz
x,y,z
1/2-x,1/2-y,z
1/2+x,-y,-z
-x,1/2+y,-z
-x,-y,-z
1/2+x,1/2+y,-z
1/2-x,y,z
x,1/2-y,z
loop_
_atom_site_type_symbol
_atom_site_label
_atom_site_fract_x
_atom_site_fract_y
_atom_site_fract_z
Si Si1 0.893113 0.424536 0.868323
Si Si2 0.800576 0.572301 0.399377
Si Si3 0.558014 0.925258 0.677516
Si Si4 0.300711 0.576940 0.036388
Si Si5 0.046725 0.428377 0.957128
Si Si6 0.453167 0.573403 0.732338
Si Si7 0.399204 0.073791 0.544376
Si Si8 0.695836 0.586053 0.168042
O O1 0.906135 0.250000 0.886250
O O2 0.910886 0.477006 0.755225
O O3 0.837452 0.449849 0.869372
O O4 0.913524 0.525064 0.961974
O O5 0.750000 0.508979 0.439559
O O6 0.795170 0.750000 0.386955
O O7 0.844417 0.532749 0.474068
O O8 0.813069 0.508220 0.282193
O O9 0.567615 0.750000 0.698704
O O10 0.504772 0.967318 0.694485
O O11 0.572442 0.972500 0.559413
O O12 0.250000 0.507646 0.066501
O O13 0.294140 0.750000 0.012455
O O14 0.323360 0.511458 0.928808
O O15 0.041313 0.250000 0.954705
O O16 0.058707 0.487302 0.840251
O O17 0.000000 0.500000 0.000000
O O18 0.447585 0.750000 0.751772
O O19 0.417992 0.520516 0.642556
O O20 0.405061 0.250000 0.569394
O O21 0.750000 0.604182 0.151271
O O22 0.671511 0.750000 0.162777
#
# Coordination Sequence:
#
# PCOD8245350 Si02
#       8
#     8   8   8   8   8   8   8   8
#     4  11  23  38  60  86 116 157 199 240 292 349
#     4   8  15  30  52  79 111 144 182 233 291 344
#     4  10  22  40  59  81 115 156 197 245 295 347
#     4   9  19  35  53  78 113 151 192 238 287 340
#     4  12  24  40  62  89 120 153 190 234 288 351
#     4  11  23  39  59  85 119 156 193 238 292 349
#     4  10  21  37  59  87 114 149 199 245 290 343
#     4   8  14  26  46  72 102 139 180 221 274 338
#
# _framework density 19.718927000000001
#
# number of rings (size 3 to 8) (size 9 to 14) (size 15 to 20)
#    0.000    2.125    1.250    3.000    1.750    2.000 
#    0.000    0.625    0.000    1.125    0.000    0.000 
#    0.000    0.000    0.000    0.000    0.000    0.000 
#
# Total GULP energy -793244.878619 kJ/mol
# GULP energy per Si atom -12394.451228 kJ/mol
# Density = 1.967405 g / cm^3
# Si number density = 19.718927 Si / 1000 Ang^3
#
#
#
# Elastic Constant Matrix: (Units=GPa)
#
#
# Indices 1 2 3 4 5 6 
#
# 1 83.1376 31.4573 34.3760 0.0000 0.0000 0.0000
# 2 31.4573 73.9532 36.2206 0.0000 0.0000 0.0000
# 3 34.3760 36.2206 94.9796 0.0000 0.0000 0.0000
# 4 0.0000 0.0000 0.0000 27.4016 0.0000 0.0000
# 5 0.0000 0.0000 0.0000 0.0000 19.2097 0.0000
# 6 0.0000 0.0000 0.0000 0.0000 0.0000 16.8550
#
#
#
# Elastic Compliance Matrix: (Units=1/GPa)
#
#
# Indices 1 2 3 4 5 6 
#
# 1 0.015361 -0.004687 -0.003773 0.000000 0.000000 0.000000
# 2 -0.004687 0.018058 -0.005190 0.000000 0.000000 0.000000
# 3 -0.003773 -0.005190 0.013873 0.000000 0.000000 0.000000
# 4 0.000000 0.000000 0.000000 0.036494 0.000000 0.000000
# 5 0.000000 0.000000 0.000000 0.000000 0.052057 0.000000
# 6 0.000000 0.000000 0.000000 0.000000 0.000000 0.059329
#
#
# Mechanical properties :
#
#
# Convention : Reuss Voigt Hill
#
# Bulk Modulus (GPa) = 50.01532 50.68645 50.35088
# Shear Modulus (GPa) = 21.82111 22.69436 22.25773
#
# Velocity S-wave (km/s) = 3.33018 3.39616 3.36333
# Velocity P-wave (km/s) = 6.34082 6.41395 6.37749
#
# Compressibility (1/GPa) = 0.01999387
#
# Stress axis : x y z
#
# Youngs Moduli (GPa) = 65.09814 55.37848 72.08128
#
# Poissons Ratio (x) = 0.25953 0.27193
# Poissons Ratio (y) = 0.30508 0.37411
# Poissons Ratio (z) = 0.24559 0.28742
#
# Static dielectric constant tensor:
#      x y z
#    x 3.953830 0.000000 0.000000 
#    y 0.000000 3.583400 0.000000 
#    z 0.000000 0.000000 3.534060 
# 
# 
# High freq. dielectric constant tensor:
#      x y z
#    x 1.781000 0.000000 0.000000 
#    y 0.000000 1.752020 0.000000 
#    z 0.000000 0.000000 1.752390 
# 
# From -- ./inp_files/19220.got.cif
#   From: 2010.03.12/outbox.cif.g09.slc.cpg/sg59_10_cif.got.tgz:19220.got - 2010.04.16 16:29:54.
