data_PCOD8245860
_publ_section_title
;
Structure prediction by ZEFSAII (Michael W. Deem and Ramdas Pophale) SiO2 
 PCOD8245860
Probable space group: P M M N
;
_chemical_formula_sum "Si O2"
_cell_formula_units_Z 48
_cell_length_a 27.949238
_cell_length_b 8.475255
_cell_length_c 9.920251
_cell_angle_alpha 90.000000
_cell_angle_beta 90.000000
_cell_angle_gamma 90.000000
_cell_volume 2349.878494
_symmetry_space_group_name_H-M "P M M N"
_symmetry_group_IT_number 59
_space_group.IT_coordinate_system_code '2'
_symmetry_cell_setting 'orthorhombic'
loop_
_space_group_symop_operation_xyz
x,y,z
1/2-x,1/2-y,z
1/2+x,-y,-z
-x,1/2+y,-z
-x,-y,-z
1/2+x,1/2+y,-z
1/2-x,y,z
x,1/2-y,z
loop_
_atom_site_type_symbol
_atom_site_label
_atom_site_fract_x
_atom_site_fract_y
_atom_site_fract_z
Si Si1 0.605719 0.431650 0.738721
Si Si2 0.250000 0.565746 0.604594
Si Si3 0.491899 0.066621 0.351553
Si Si4 0.353279 0.430855 0.998229
Si Si5 0.750000 0.932889 0.104003
Si Si6 0.348378 0.067799 0.512694
Si Si7 0.594846 0.430064 0.250239
O O1 0.612452 0.250000 0.700049
O O2 0.550287 0.476754 0.724957
O O3 0.638324 0.538460 0.642222
O O4 0.623060 0.457854 0.890847
O O5 0.250000 0.750000 0.572572
O O6 0.250000 0.541451 0.764554
O O7 0.205453 0.483539 0.535359
O O8 0.478894 0.250000 0.365332
O O9 0.538211 0.040094 0.257958
O O10 0.500000 0.000000 0.500000
O O11 0.359790 0.250000 0.041487
O O12 0.297078 0.472527 0.983106
O O13 0.380586 0.456282 0.857611
O O14 0.750000 0.750000 0.149707
O O15 0.354759 0.250000 0.549980
O O16 0.383926 0.964656 0.602925
O O17 0.606353 0.250000 0.211391
#
# Coordination Sequence:
#
# PCOD8245860 Si02
#       7
#     8   4   8   8   4   8   8
#     4  12  26  44  65  94 133 172 220 273 329 389
#     4  12  24  39  66  99 132 166 216 272 322 379
#     4  11  23  40  66  96 131 171 218 269 330 390
#     4  11  24  43  67  95 132 174 218 267 329 395
#     4  10  22  41  66  95 128 170 216 262 322 391
#     4  12  24  41  66  95 130 169 216 266 323 384
#     4  11  23  40  65  98 130 167 216 267 321 385
#
# _framework density 20.426586
#
# number of rings (size 3 to 8) (size 9 to 14) (size 15 to 20)
#    0.000    0.667    3.333    5.250    0.000    4.000 
#    0.000    2.500    0.000    0.000    0.000    0.000 
#    0.000    0.000    0.000    0.000    0.000    0.000 
#
# Total GULP energy -595584.072222 kJ/mol
# GULP energy per Si atom -12408.001505 kJ/mol
# Density = 2.038009 g / cm^3
# Si number density = 20.426586 Si / 1000 Ang^3
#
#
#
# Elastic Constant Matrix: (Units=GPa)
#
#
# Indices 1 2 3 4 5 6 
#
# 1 132.6718 62.3150 37.1065 0.0000 0.0000 0.0000
# 2 62.3150 75.1473 25.4542 0.0000 0.0000 0.0000
# 3 37.1065 25.4542 82.9471 0.0000 0.0000 0.0000
# 4 0.0000 0.0000 0.0000 36.6691 0.0000 0.0000
# 5 0.0000 0.0000 0.0000 0.0000 43.7362 0.0000
# 6 0.0000 0.0000 0.0000 0.0000 0.0000 26.7354
#
#
#
# Elastic Compliance Matrix: (Units=1/GPa)
#
#
# Indices 1 2 3 4 5 6 
#
# 1 0.012894 -0.009752 -0.002776 0.000000 0.000000 0.000000
# 2 -0.009752 0.022227 -0.002458 0.000000 0.000000 0.000000
# 3 -0.002776 -0.002458 0.014052 0.000000 0.000000 0.000000
# 4 0.000000 0.000000 0.000000 0.027271 0.000000 0.000000
# 5 0.000000 0.000000 0.000000 0.000000 0.022864 0.000000
# 6 0.000000 0.000000 0.000000 0.000000 0.000000 0.037404
#
#
# Mechanical properties :
#
#
# Convention : Reuss Voigt Hill
#
# Bulk Modulus (GPa) = 52.08053 60.05751 56.06902
# Shear Modulus (GPa) = 28.88771 32.48750 30.68761
#
# Velocity S-wave (km/s) = 3.76469 3.99237 3.88020
# Velocity P-wave (km/s) = 6.66701 7.12162 6.89806
#
# Compressibility (1/GPa) = 0.01920103
#
# Stress axis : x y z
#
# Youngs Moduli (GPa) = 77.55399 44.99078 71.16504
#
# Poissons Ratio (x) = 0.43876 0.19752
# Poissons Ratio (y) = 0.75633 0.17493
# Poissons Ratio (z) = 0.21526 0.11059
#
# Static dielectric constant tensor:
#      x y z
#    x 3.936270 0.000000 0.000000 
#    y 0.000000 3.823110 0.000000 
#    z 0.000000 0.000000 3.481560 
# 
# 
# High freq. dielectric constant tensor:
#      x y z
#    x 1.815190 0.000000 0.000000 
#    y 0.000000 1.811410 0.000000 
#    z 0.000000 0.000000 1.789800 
# 
# From -- ./inp_files/13042.got.cif
#   From: 2010.03.12/outbox.cif.g09.slc.cpg/sg59_7_cif.got.tgz:13042.got - 2010.04.16 16:29:54.
