data_PCOD8245025
_publ_section_title
;
Structure prediction by ZEFSAII (Michael W. Deem and Ramdas Pophale) SiO2 
 PCOD8245025
Probable space group: P M M N
;
_chemical_formula_sum "Si O2"
_cell_formula_units_Z 48
_cell_length_a 8.841760
_cell_length_b 30.215451
_cell_length_c 9.151742
_cell_angle_alpha 90.000000
_cell_angle_beta 90.000000
_cell_angle_gamma 90.000000
_cell_volume 2444.958948
_symmetry_space_group_name_H-M "P M M N"
_symmetry_group_IT_number 59
_space_group.IT_coordinate_system_code '2'
_symmetry_cell_setting 'orthorhombic'
loop_
_space_group_symop_operation_xyz
x,y,z
1/2-x,1/2-y,z
1/2+x,-y,-z
-x,1/2+y,-z
-x,-y,-z
1/2+x,1/2+y,-z
1/2-x,y,z
x,1/2-y,z
loop_
_atom_site_type_symbol
_atom_site_label
_atom_site_fract_x
_atom_site_fract_y
_atom_site_fract_z
Si Si1 0.427868 0.300041 0.591934
Si Si2 0.570947 0.960168 0.089553
Si Si3 0.928930 0.460902 0.592468
Si Si4 0.574140 0.381828 0.079587
Si Si5 0.075158 0.799667 0.109831
Si Si6 0.074003 0.874205 0.587661
O O1 0.250000 0.302592 0.594518
O O2 0.485259 0.250000 0.563980
O O3 0.487111 0.317171 0.748179
O O4 0.487336 0.330527 0.462230
O O5 0.750000 0.966241 0.098531
O O6 0.502743 0.960436 0.249955
O O7 0.530635 0.914371 0.012085
O O8 0.500000 0.000000 0.000000
O O9 0.750000 0.467725 0.605124
O O10 0.970641 0.415103 0.514110
O O11 0.000000 0.500000 0.500000
O O12 0.750000 0.394777 0.057307
O O13 0.525389 0.385531 0.247609
O O14 0.541720 0.331903 0.025655
O O15 0.250000 0.800528 0.152781
O O16 0.023156 0.750000 0.065425
O O17 0.250000 0.863418 0.579914
#
# Coordination Sequence:
#
# PCOD8245025 Si02
#       6
#     8   8   8   8   8   8
#     4  10  21  36  55  81 113 149 191 238 285 336
#     4  12  25  41  62  87 116 152 193 238 291 346
#     4  11  23  40  62  89 120 154 194 238 287 343
#     4  10  21  38  59  86 118 149 189 238 285 339
#     4   9  18  34  57  83 112 149 191 234 282 336
#     4  10  22  38  58  84 115 151 189 232 282 340
#
# _framework density 19.632231999999998
#
# number of rings (size 3 to 8) (size 9 to 14) (size 15 to 20)
#    0.000    1.667    0.000    4.500    0.000    9.667 
#    0.000    1.667    0.000    2.000    0.000    0.000 
#    0.000    0.000    0.000    0.000    0.000    0.000 
#
# Total GULP energy -595427.563039 kJ/mol
# GULP energy per Si atom -12404.740897 kJ/mol
# Density = 1.958755 g / cm^3
# Si number density = 19.632232 Si / 1000 Ang^3
#
#
#
# Elastic Constant Matrix: (Units=GPa)
#
#
# Indices 1 2 3 4 5 6 
#
# 1 86.1195 56.9745 62.4436 0.0000 0.0000 0.0000
# 2 56.9745 117.1802 75.6559 0.0000 0.0000 0.0000
# 3 62.4436 75.6559 165.7709 0.0000 0.0000 0.0000
# 4 0.0000 0.0000 0.0000 37.6812 0.0000 0.0000
# 5 0.0000 0.0000 0.0000 0.0000 28.0543 0.0000
# 6 0.0000 0.0000 0.0000 0.0000 0.0000 34.1475
#
#
#
# Elastic Compliance Matrix: (Units=1/GPa)
#
#
# Indices 1 2 3 4 5 6 
#
# 1 0.018944 -0.006527 -0.004157 0.000000 0.000000 0.000000
# 2 -0.006527 0.014348 -0.004090 0.000000 0.000000 0.000000
# 3 -0.004157 -0.004090 0.009465 0.000000 0.000000 0.000000
# 4 0.000000 0.000000 0.000000 0.026538 0.000000 0.000000
# 5 0.000000 0.000000 0.000000 0.000000 0.035645 0.000000
# 6 0.000000 0.000000 0.000000 0.000000 0.000000 0.029285
#
#
# Mechanical properties :
#
#
# Convention : Reuss Voigt Hill
#
# Bulk Modulus (GPa) = 75.70365 84.35764 80.03064
# Shear Modulus (GPa) = 29.73094 31.57637 30.65365
#
# Velocity S-wave (km/s) = 3.89574 4.01483 3.95574
# Velocity P-wave (km/s) = 7.67335 8.03455 7.85603
#
# Compressibility (1/GPa) = 0.01320940
#
# Stress axis : x y z
#
# Youngs Moduli (GPa) = 52.78704 69.69793 105.65455
#
# Poissons Ratio (x) = 0.45490 0.43923
# Poissons Ratio (y) = 0.34453 0.43208
# Poissons Ratio (z) = 0.21945 0.28503
#
# Static dielectric constant tensor:
#      x y z
#    x 3.663180 0.000000 0.000000 
#    y 0.000000 3.803730 0.000000 
#    z 0.000000 0.000000 3.786370 
# 
# 
# High freq. dielectric constant tensor:
#      x y z
#    x 1.764220 0.000000 0.000000 
#    y 0.000000 1.778700 0.000000 
#    z 0.000000 0.000000 1.772390 
# 
# From -- ./inp_files/6200.got.cif
#   From: 2010.03.12/outbox.cif.g09.slc.cpg/sg59_4_cif.got.tgz:6200.got - 2010.04.16 16:29:54.
