data_PCOD8245481
_publ_section_title
;
Structure prediction by ZEFSAII (Michael W. Deem and Ramdas Pophale) SiO2 
 PCOD8245481
Probable space group: P M M N
;
_chemical_formula_sum "Si O2"
_cell_formula_units_Z 48
_cell_length_a 9.094374
_cell_length_b 30.772890
_cell_length_c 8.885298
_cell_angle_alpha 90.000000
_cell_angle_beta 90.000000
_cell_angle_gamma 90.000000
_cell_volume 2486.641015
_symmetry_space_group_name_H-M "P M M N"
_symmetry_group_IT_number 59
_space_group.IT_coordinate_system_code '2'
_symmetry_cell_setting 'orthorhombic'
loop_
_space_group_symop_operation_xyz
x,y,z
1/2-x,1/2-y,z
1/2+x,-y,-z
-x,1/2+y,-z
-x,-y,-z
1/2+x,1/2+y,-z
1/2-x,y,z
x,1/2-y,z
loop_
_atom_site_type_symbol
_atom_site_label
_atom_site_fract_x
_atom_site_fract_y
_atom_site_fract_z
Si Si1 0.923814 0.250000 0.832788
Si Si2 0.423067 0.999775 0.659572
Si Si3 0.079420 0.416710 0.846952
Si Si4 0.081674 0.250000 0.144784
Si Si5 0.423598 0.914237 0.836370
Si Si6 0.419812 0.328495 0.673220
Si Si7 0.580267 0.663297 0.672811
O O1 0.750000 0.250000 0.827734
O O2 0.980864 0.207188 0.751509
O O3 0.974468 0.250000 0.004350
O O4 0.250000 0.000180 0.631681
O O5 0.474946 0.957773 0.752131
O O6 0.500000 0.000000 0.500000
O O7 0.474032 0.041830 0.752553
O O8 0.250000 0.420539 0.890535
O O9 0.047424 0.374626 0.747560
O O10 0.987307 0.413744 0.997550
O O11 0.250000 0.250000 0.087559
O O12 0.047895 0.291721 0.244984
O O13 0.250000 0.911551 0.848532
O O14 0.479864 0.873340 0.743966
O O15 0.250000 0.314903 0.691969
O O16 0.464781 0.331176 0.499794
O O17 0.750000 0.649315 0.688869
#
# Coordination Sequence:
#
# PCOD8245481 Si02
#       7
#     4   8   8   4   8   8   8
#     4  12  25  38  56  84 118 152 183 226 288 344
#     4  10  22  39  59  85 115 149 190 235 283 335
#     4  10  21  38  60  84 112 151 196 235 274 330
#     4  10  21  38  60  84 110 146 193 236 274 326
#     4  11  23  37  56  86 121 151 183 230 286 339
#     4  10  21  39  62  85 110 145 193 240 277 326
#     4  10  21  39  63  86 110 147 192 235 280 331
#
# _framework density 19.303146999999999
#
# number of rings (size 3 to 8) (size 9 to 14) (size 15 to 20)
#    0.000    1.667    0.000    4.250    0.000   10.667 
#    0.000    0.833    0.000    0.000    0.000    0.000 
#    0.000    0.000    0.000    0.000    0.000    0.000 
#
# Total GULP energy -595487.079659 kJ/mol
# GULP energy per Si atom -12405.980826 kJ/mol
# Density = 1.925921 g / cm^3
# Si number density = 19.303147 Si / 1000 Ang^3
#
#
#
# Elastic Constant Matrix: (Units=GPa)
#
#
# Indices 1 2 3 4 5 6 
#
# 1 82.1567 68.5148 74.8022 0.0000 0.0000 0.0000
# 2 68.5148 166.3842 85.1453 0.0000 0.0000 0.0000
# 3 74.8022 85.1453 181.7811 0.0000 0.0000 0.0000
# 4 0.0000 0.0000 0.0000 34.2986 0.0000 0.0000
# 5 0.0000 0.0000 0.0000 0.0000 28.7895 0.0000
# 6 0.0000 0.0000 0.0000 0.0000 0.0000 71.0629
#
#
#
# Elastic Compliance Matrix: (Units=1/GPa)
#
#
# Indices 1 2 3 4 5 6 
#
# 1 0.023520 -0.006224 -0.006763 0.000000 0.000000 0.000000
# 2 -0.006224 0.009552 -0.001913 0.000000 0.000000 0.000000
# 3 -0.006763 -0.001913 0.009180 0.000000 0.000000 0.000000
# 4 0.000000 0.000000 0.000000 0.029156 0.000000 0.000000
# 5 0.000000 0.000000 0.000000 0.000000 0.034735 0.000000
# 6 0.000000 0.000000 0.000000 0.000000 0.000000 0.014072
#
#
# Mechanical properties :
#
#
# Convention : Reuss Voigt Hill
#
# Bulk Modulus (GPa) = 80.30882 98.58295 89.44588
# Shear Modulus (GPa) = 32.43243 40.28752 36.35997
#
# Velocity S-wave (km/s) = 4.10343 4.57343 4.34479
# Velocity P-wave (km/s) = 8.00907 8.89214 8.46213
#
# Compressibility (1/GPa) = 0.01245193
#
# Stress axis : x y z
#
# Youngs Moduli (GPa) = 42.51629 104.68761 108.93171
#
# Poissons Ratio (x) = 0.65162 0.73671
# Poissons Ratio (y) = 0.26464 0.20837
# Poissons Ratio (z) = 0.28754 0.20025
#
# Static dielectric constant tensor:
#      x y z
#    x 3.486010 0.000000 0.000000 
#    y 0.000000 3.813790 0.000000 
#    z 0.000000 0.000000 2.834740 
# 
# 
# High freq. dielectric constant tensor:
#      x y z
#    x 1.742340 0.000000 0.000000 
#    y 0.000000 1.772720 0.000000 
#    z 0.000000 0.000000 1.770340 
# 
# From -- ./inp_files/6371.got.cif
#   From: 2010.03.12/outbox.cif.g09.slc.cpg/sg59_4_cif.got.tgz:6371.got - 2010.04.16 16:29:54.
