data_PCOD8245392
_publ_section_title
;
Structure prediction by ZEFSAII (Michael W. Deem and Ramdas Pophale) SiO2 
 PCOD8245392
Probable space group: P M M N
;
_chemical_formula_sum "Si O2"
_cell_formula_units_Z 56
_cell_length_a 15.825405
_cell_length_b 8.701233
_cell_length_c 19.911998
_cell_angle_alpha 90.000000
_cell_angle_beta 90.000000
_cell_angle_gamma 90.000000
_cell_volume 2741.892802
_symmetry_space_group_name_H-M "P M M N"
_symmetry_group_IT_number 59
_space_group.IT_coordinate_system_code '2'
_symmetry_cell_setting 'orthorhombic'
loop_
_space_group_symop_operation_xyz
x,y,z
1/2-x,1/2-y,z
1/2+x,-y,-z
-x,1/2+y,-z
-x,-y,-z
1/2+x,1/2+y,-z
1/2-x,y,z
x,1/2-y,z
loop_
_atom_site_type_symbol
_atom_site_label
_atom_site_fract_x
_atom_site_fract_y
_atom_site_fract_z
Si Si1 0.750000 0.927475 0.994164
Si Si2 0.547406 0.928537 0.794753
Si Si3 0.846252 0.929770 0.667870
Si Si4 0.377689 0.421356 0.778591
Si Si5 0.510628 0.066359 0.573539
Si Si6 0.750000 0.424709 0.131217
Si Si7 0.070269 0.067824 0.050620
Si Si8 0.338892 0.076441 0.629658
O O1 0.750000 0.750000 0.974737
O O2 0.750000 0.952001 0.072866
O O3 0.663208 0.000899 0.965974
O O4 0.523499 0.750000 0.791757
O O5 0.626658 0.963058 0.745516
O O6 0.558583 0.980458 0.871933
O O7 0.473339 0.031184 0.764551
O O8 0.750000 0.990244 0.659296
O O9 0.850947 0.750000 0.652953
O O10 0.906378 0.009904 0.612968
O O11 0.373233 0.250000 0.810101
O O12 0.334903 0.545278 0.827169
O O13 0.328798 0.424245 0.709241
O O14 0.513819 0.250000 0.573081
O O15 0.425968 0.995810 0.608386
O O16 0.500000 0.000000 0.500000
O O17 0.750000 0.250000 0.104968
O O18 0.067369 0.250000 0.041025
O O19 0.000000 0.000000 0.000000
O O20 0.250000 0.001085 0.602138
O O21 0.342976 0.250000 0.602194
#
# Coordination Sequence:
#
# PCOD8245392 Si02
#       8
#     4   8   8   8   8   4   8   8
#     4  10  22  40  60  82 112 159 208 247 296 369
#     4  10  21  37  60  89 121 156 201 259 312 360
#     4  10  22  40  64  93 125 164 209 257 311 370
#     4  11  20  35  59  86 116 154 197 242 299 364
#     4  11  23  41  65  93 126 164 203 248 301 361
#     4  12  24  36  54  86 122 155 194 249 310 365
#     4  10  22  39  59  84 117 157 204 253 306 364
#     4   9  18  35  59  86 115 150 193 238 285 347
#
# _framework density 20.423848
#
# number of rings (size 3 to 8) (size 9 to 14) (size 15 to 20)
#    0.000    1.714    2.143    2.357    1.000    4.286 
#    0.000    1.429    0.000    0.000    0.000    0.000 
#    0.000    0.000    0.000    0.000    0.000    0.000 
#
# Total GULP energy -693881.457691 kJ/mol
# GULP energy per Si atom -12390.740316 kJ/mol
# Density = 2.037736 g / cm^3
# Si number density = 20.423848 Si / 1000 Ang^3
#
#
#
# Elastic Constant Matrix: (Units=GPa)
#
#
# Indices 1 2 3 4 5 6 
#
# 1 200.4282 38.9950 68.3404 0.0000 0.0000 0.0000
# 2 38.9950 47.7858 27.8584 0.0000 0.0000 0.0000
# 3 68.3404 27.8584 122.2040 0.0000 0.0000 0.0000
# 4 0.0000 0.0000 0.0000 27.0850 0.0000 0.0000
# 5 0.0000 0.0000 0.0000 0.0000 28.2407 0.0000
# 6 0.0000 0.0000 0.0000 0.0000 0.0000 28.6090
#
#
#
# Elastic Compliance Matrix: (Units=1/GPa)
#
#
# Indices 1 2 3 4 5 6 
#
# 1 0.006712 -0.003793 -0.002889 0.000000 0.000000 0.000000
# 2 -0.003793 0.026278 -0.003869 0.000000 0.000000 0.000000
# 3 -0.002889 -0.003869 0.010681 0.000000 0.000000 0.000000
# 4 0.000000 0.000000 0.000000 0.036921 0.000000 0.000000
# 5 0.000000 0.000000 0.000000 0.000000 0.035410 0.000000
# 6 0.000000 0.000000 0.000000 0.000000 0.000000 0.034954
#
#
# Mechanical properties :
#
#
# Convention : Reuss Voigt Hill
#
# Bulk Modulus (GPa) = 44.31053 71.20061 57.75557
# Shear Modulus (GPa) = 27.84254 32.46856 30.15555
#
# Velocity S-wave (km/s) = 3.69621 3.99148 3.84668
# Velocity P-wave (km/s) = 6.32128 7.49531 6.93319
#
# Compressibility (1/GPa) = 0.02256800
#
# Stress axis : x y z
#
# Youngs Moduli (GPa) = 148.97747 38.05492 93.62673
#
# Poissons Ratio (x) = 0.14435 0.27049
# Poissons Ratio (y) = 0.56512 0.36225
# Poissons Ratio (z) = 0.43040 0.14724
#
# Static dielectric constant tensor:
#      x y z
#    x 3.875660 0.000000 0.000000 
#    y 0.000000 3.437350 0.000000 
#    z 0.000000 0.000000 3.656770 
# 
# 
# High freq. dielectric constant tensor:
#      x y z
#    x 1.820280 0.000000 0.000000 
#    y 0.000000 1.770870 0.000000 
#    z 0.000000 0.000000 1.796410 
# 
# From -- ./inp_files/30512.got.cif
#   From: 2010.03.12/outbox.cif.g09.slc.cpg/sg59_16_cif.got.tgz:30512.got - 2010.04.16 16:29:54.
