data_PCOD8245401
_publ_section_title
;
Structure prediction by ZEFSAII (Michael W. Deem and Ramdas Pophale) SiO2 
 PCOD8245401
Probable space group: P M M N
;
_chemical_formula_sum "Si O2"
_cell_formula_units_Z 48
_cell_length_a 15.371265
_cell_length_b 17.708814
_cell_length_c 9.065135
_cell_angle_alpha 90.000000
_cell_angle_beta 90.000000
_cell_angle_gamma 90.000000
_cell_volume 2467.592050
_symmetry_space_group_name_H-M "P M M N"
_symmetry_group_IT_number 59
_space_group.IT_coordinate_system_code '2'
_symmetry_cell_setting 'orthorhombic'
loop_
_space_group_symop_operation_xyz
x,y,z
1/2-x,1/2-y,z
1/2+x,-y,-z
-x,1/2+y,-z
-x,-y,-z
1/2+x,1/2+y,-z
1/2-x,y,z
x,1/2-y,z
loop_
_atom_site_type_symbol
_atom_site_label
_atom_site_fract_x
_atom_site_fract_y
_atom_site_fract_z
Si Si1 0.250000 0.335397 0.694299
Si Si2 0.012287 0.662471 0.643580
Si Si3 0.472884 0.559661 0.203074
Si Si4 0.250000 0.334375 0.042201
Si Si5 0.893516 0.563378 0.446189
Si Si6 0.347826 0.595295 0.443425
Si Si7 0.436360 0.401141 0.079597
O O1 0.250000 0.250000 0.631059
O O2 0.333657 0.380028 0.642542
O O3 0.250000 0.334156 0.868155
O O4 0.995253 0.750000 0.612646
O O5 0.106133 0.640602 0.576458
O O6 0.936798 0.612631 0.572725
O O7 0.004367 0.644815 0.817867
O O8 0.535389 0.528902 0.333569
O O9 0.397705 0.607953 0.286773
O O10 0.431977 0.489713 0.116340
O O11 0.526796 0.610983 0.086893
O O12 0.250000 0.250000 0.106411
O O13 0.337558 0.373669 0.100103
O O14 0.843465 0.493906 0.519852
O O15 0.250000 0.626333 0.427896
#
# Coordination Sequence:
#
# PCOD8245401 Si02
#       7
#     4   8   8   4   8   8   8
#     4  11  22  35  57  91 126 163 198 243 303 370
#     4  11  23  39  60  87 121 158 199 252 307 357
#     4  10  21  37  61  85 119 158 202 244 292 360
#     4  11  24  37  55  87 129 163 190 235 304 376
#     4  11  19  40  60  88 120 158 201 244 300 363
#     4  11  22  40  64  88 117 157 208 257 298 352
#     4  11  21  38  59  88 124 158 197 243 300 363
#
# _framework density 19.452162999999999
#
# number of rings (size 3 to 8) (size 9 to 14) (size 15 to 20)
#    0.000    1.167    5.833    2.000    1.167    1.000 
#    0.000    3.333    0.000    0.000    0.000    0.000 
#    0.000    0.000    0.000    0.000    0.000    0.000 
#
# Total GULP energy -595197.042346 kJ/mol
# GULP energy per Si atom -12399.938382 kJ/mol
# Density = 1.940789 g / cm^3
# Si number density = 19.452163 Si / 1000 Ang^3
#
#
#
# Elastic Constant Matrix: (Units=GPa)
#
#
# Indices 1 2 3 4 5 6 
#
# 1 122.4188 16.0565 40.4322 0.0000 0.0000 0.0000
# 2 16.0565 74.2501 17.7567 0.0000 0.0000 0.0000
# 3 40.4322 17.7567 101.8048 0.0000 0.0000 0.0000
# 4 0.0000 0.0000 0.0000 16.0518 0.0000 0.0000
# 5 0.0000 0.0000 0.0000 0.0000 31.9664 0.0000
# 6 0.0000 0.0000 0.0000 0.0000 0.0000 -68.5327
#
#
#
# Elastic Compliance Matrix: (Units=1/GPa)
#
#
# Indices 1 2 3 4 5 6 
#
# 1 0.009504 -0.001203 -0.003565 0.000000 0.000000 0.000000
# 2 -0.001203 0.014206 -0.002000 0.000000 0.000000 0.000000
# 3 -0.003565 -0.002000 0.011587 0.000000 0.000000 0.000000
# 4 0.000000 0.000000 0.000000 0.062298 0.000000 0.000000
# 5 0.000000 0.000000 0.000000 0.000000 0.031283 0.000000
# 6 0.000000 0.000000 0.000000 0.000000 0.000000 -0.014592
#
#
# Mechanical properties :
#
#
# Convention : Reuss Voigt Hill
#
# Bulk Modulus (GPa) = 45.95097 49.66272 47.80684
# Shear Modulus (GPa) = 37.01611 10.84566 23.93088
#
# Velocity S-wave (km/s) = 4.36699 2.36382 3.51129
# Velocity P-wave (km/s) = 7.00723 5.74772 6.40850
#
# Compressibility (1/GPa) = 0.02176232
#
# Stress axis : x y z
#
# Youngs Moduli (GPa) = 105.22146 70.39070 86.30115
#
# Poissons Ratio (x) = 0.08466 0.30764
# Poissons Ratio (y) = 0.12655 0.17262
# Poissons Ratio (z) = 0.37508 0.14080
#
# Static dielectric constant tensor:
#      x y z
#    x 3.437230 0.000000 0.000000 
#    y 0.000000 3.441470 0.000000 
#    z 0.000000 0.000000 3.720580 
# 
# 
# High freq. dielectric constant tensor:
#      x y z
#    x 1.753550 0.000000 0.000000 
#    y 0.000000 1.742880 0.000000 
#    z 0.000000 0.000000 1.765280 
# 
# From -- ./inp_files/9067.got.cif
#   From: 2010.03.12/outbox.cif.g09.slc.cpg/sg59_5_cif.got.tgz:9067.got - 2010.04.16 16:29:54.
