data_PCOD8245601
_publ_section_title
;
Structure prediction by ZEFSAII (Michael W. Deem and Ramdas Pophale) SiO2 
 PCOD8245601
Probable space group: P M M N
;
_chemical_formula_sum "Si O2"
_cell_formula_units_Z 64
_cell_length_a 14.153014
_cell_length_b 18.831230
_cell_length_c 13.337611
_cell_angle_alpha 90.000000
_cell_angle_beta 90.000000
_cell_angle_gamma 90.000000
_cell_volume 3554.722236
_symmetry_space_group_name_H-M "P M M N"
_symmetry_group_IT_number 59
_space_group.IT_coordinate_system_code '2'
_symmetry_cell_setting 'orthorhombic'
loop_
_space_group_symop_operation_xyz
x,y,z
1/2-x,1/2-y,z
1/2+x,-y,-z
-x,1/2+y,-z
-x,-y,-z
1/2+x,1/2+y,-z
1/2-x,y,z
x,1/2-y,z
loop_
_atom_site_type_symbol
_atom_site_label
_atom_site_fract_x
_atom_site_fract_y
_atom_site_fract_z
Si Si1 0.141253 0.668010 0.086284
Si Si2 0.358456 0.565775 0.558296
Si Si3 0.009513 0.368500 0.758794
Si Si4 0.857626 0.668593 0.066546
Si Si5 0.004896 0.921387 0.956090
Si Si6 0.006738 0.964842 0.734177
Si Si7 0.858680 0.572074 0.575534
Si Si8 0.498123 0.169538 0.533100
O O1 0.250000 0.646282 0.099520
O O2 0.130191 0.750000 0.054312
O O3 0.089883 0.654857 0.192399
O O4 0.095728 0.619218 0.000267
O O5 0.250000 0.586722 0.572221
O O6 0.406043 0.560946 0.666744
O O7 0.371793 0.491246 0.503087
O O8 0.407531 0.625930 0.491637
O O9 0.015372 0.452698 0.756189
O O10 0.020939 0.333836 0.650935
O O11 0.095958 0.339662 0.824479
O O12 0.750000 0.642917 0.073743
O O13 0.865007 0.750000 0.031458
O O14 0.909773 0.620031 0.985172
O O15 0.012473 0.921084 0.836619
O O16 0.000000 0.000000 0.000000
O O17 0.907407 0.948848 0.680056
O O18 0.750000 0.589439 0.597512
O O19 0.907781 0.640552 0.527185
O O20 0.513943 0.250000 0.499068
#
# Coordination Sequence:
#
# PCOD8245601 Si02
#       8
#     8   8   8   8   8   8   8   8
#     4  10  22  39  57  81 117 156 189 227 282 342
#     4  10  21  39  60  81 113 154 190 227 276 338
#     4  11  19  36  58  89 118 147 182 229 291 343
#     4  10  22  39  57  81 117 156 189 227 282 342
#     4  11  21  37  57  85 114 147 187 240 281 326
#     4  11  20  37  59  87 115 143 189 235 285 331
#     4  10  21  39  60  81 113 154 190 227 276 338
#     4  11  21  36  59  86 118 148 183 236 287 337
#
# _framework density 18.004218999999999
#
# number of rings (size 3 to 8) (size 9 to 14) (size 15 to 20)
#    0.000    1.500    5.000    3.000    0.000    4.000 
#    0.000    5.000    0.000    0.000    0.000    0.000 
#    0.000    0.000    0.000    0.000    0.000    0.000 
#
# Total GULP energy -793824.596381 kJ/mol
# GULP energy per Si atom -12403.509318 kJ/mol
# Density = 1.796324 g / cm^3
# Si number density = 18.004219 Si / 1000 Ang^3
#
#
#
# Elastic Constant Matrix: (Units=GPa)
#
#
# Indices 1 2 3 4 5 6 
#
# 1 104.9958 18.8859 -1.5049 0.0000 0.0000 0.0000
# 2 18.8859 85.4936 7.2764 0.0000 0.0000 0.0000
# 3 -1.5049 7.2764 67.0028 0.0000 0.0000 0.0000
# 4 0.0000 0.0000 0.0000 -22.0882 0.0000 0.0000
# 5 0.0000 0.0000 0.0000 0.0000 10.0011 0.0000
# 6 0.0000 0.0000 0.0000 0.0000 0.0000 22.5699
#
#
#
# Elastic Compliance Matrix: (Units=1/GPa)
#
#
# Indices 1 2 3 4 5 6 
#
# 1 0.009933 -0.002234 0.000466 0.000000 0.000000 0.000000
# 2 -0.002234 0.012308 -0.001387 0.000000 0.000000 0.000000
# 3 0.000466 -0.001387 0.015086 0.000000 0.000000 0.000000
# 4 0.000000 0.000000 0.000000 -0.045273 0.000000 0.000000
# 5 0.000000 0.000000 0.000000 0.000000 0.099989 0.000000
# 6 0.000000 0.000000 0.000000 0.000000 0.000000 0.044307
#
#
# Mechanical properties :
#
#
# Convention : Reuss Voigt Hill
#
# Bulk Modulus (GPa) = 32.24055 34.08966 33.16511
# Shear Modulus (GPa) = 32.68016 17.61890 25.14953
#
# Velocity S-wave (km/s) = 4.26507 3.13165 3.74153
# Velocity P-wave (km/s) = 6.49619 5.66142 6.09312
#
# Compressibility (1/GPa) = 0.03101684
#
# Stress axis : x y z
#
# Youngs Moduli (GPa) = 100.67789 81.24615 66.28747
#
# Poissons Ratio (x) = 0.18149 -0.03087
# Poissons Ratio (y) = 0.22489 0.09193
# Poissons Ratio (z) = -0.04688 0.11267
#
# Static dielectric constant tensor:
#      x y z
#    x 3.414850 0.000000 0.000000 
#    y 0.000000 3.357740 0.000000 
#    z 0.000000 0.000000 3.431180 
# 
# 
# High freq. dielectric constant tensor:
#      x y z
#    x 1.701880 0.000000 0.000000 
#    y 0.000000 1.702800 0.000000 
#    z 0.000000 0.000000 1.695090 
# 
# From -- ./inp_files/17234.got.cif
#   From: 2010.03.12/outbox.cif.g09.slc.cpg/sg59_9_cif.got.tgz:17234.got - 2010.04.16 16:29:54.
