data_PCOD8245485
_publ_section_title
;
Structure prediction by ZEFSAII (Michael W. Deem and Ramdas Pophale) SiO2 
 PCOD8245485
Probable space group: P M M N
;
_chemical_formula_sum "Si O2"
_cell_formula_units_Z 64
_cell_length_a 8.839070
_cell_length_b 14.104900
_cell_length_c 25.628688
_cell_angle_alpha 90.000000
_cell_angle_beta 90.000000
_cell_angle_gamma 90.000000
_cell_volume 3195.236134
_symmetry_space_group_name_H-M "P M M N"
_symmetry_group_IT_number 59
_space_group.IT_coordinate_system_code '2'
_symmetry_cell_setting 'orthorhombic'
loop_
_space_group_symop_operation_xyz
x,y,z
1/2-x,1/2-y,z
1/2+x,-y,-z
-x,1/2+y,-z
-x,-y,-z
1/2+x,1/2+y,-z
1/2-x,y,z
x,1/2-y,z
loop_
_atom_site_type_symbol
_atom_site_label
_atom_site_fract_x
_atom_site_fract_y
_atom_site_fract_z
Si Si1 0.426663 0.956722 0.870471
Si Si2 0.917144 0.637834 0.467577
Si Si3 0.920500 0.861178 0.964969
Si Si4 0.427281 0.965617 0.676752
Si Si5 0.573385 0.860227 0.582926
Si Si6 0.573237 0.141837 0.636580
Si Si7 0.571775 0.641556 0.772899
Si Si8 0.071132 0.353371 0.919154
O O1 0.250000 0.944654 0.857407
O O2 0.462474 0.906608 0.924857
O O3 0.525530 0.913296 0.824745
O O4 0.473148 0.067698 0.876463
O O5 0.750000 0.599050 0.452448
O O6 0.907686 0.750000 0.473398
O O7 0.966973 0.600442 0.524834
O O8 0.034824 0.608771 0.422600
O O9 0.750000 0.902026 0.957119
O O10 0.916863 0.750000 0.954565
O O11 0.985948 0.882512 0.022947
O O12 0.250000 0.967669 0.684798
O O13 0.469823 0.918238 0.622141
O O14 0.498250 0.906402 0.723159
O O15 0.488400 0.073841 0.677509
O O16 0.750000 0.877445 0.595399
O O17 0.532848 0.750000 0.589029
O O18 0.750000 0.130894 0.645184
O O19 0.519305 0.250000 0.646250
O O20 0.750000 0.636581 0.766344
O O21 0.515755 0.750000 0.776675
O O22 0.250000 0.345386 0.924249
O O23 0.005039 0.250000 0.902355
#
# Coordination Sequence:
#
# PCOD8245485 Si02
#       8
#     8   8   8   8   8   8   8   8
#     4  11  21  33  55  85 113 144 186 237 285 326
#     4   8  15  30  53  81 113 148 185 226 272 323
#     4   9  17  31  52  78 112 155 194 225 268 330
#     4  12  25  39  59  85 111 142 182 232 286 335
#     4   9  18  34  56  82 115 153 188 225 275 335
#     4  10  21  38  60  84 112 147 186 228 273 326
#     4  11  25  45  65  82 107 145 184 225 277 337
#     4   8  16  32  53  79 114 154 191 225 267 324
#
# _framework density 20.029817999999999
#
# number of rings (size 3 to 8) (size 9 to 14) (size 15 to 20)
#    0.000    2.250    0.000    4.875    0.000    6.250 
#    0.000    2.500    0.000    5.250    0.000    0.000 
#    0.000    0.000    0.000    0.000    0.000    0.000 
#
# Total GULP energy -793505.162949 kJ/mol
# GULP energy per Si atom -12398.518171 kJ/mol
# Density = 1.998423 g / cm^3
# Si number density = 20.029818 Si / 1000 Ang^3
#
#
#
# Elastic Constant Matrix: (Units=GPa)
#
#
# Indices 1 2 3 4 5 6 
#
# 1 70.6382 41.6726 39.5542 0.0000 0.0000 0.0000
# 2 41.6726 92.3517 66.1158 0.0000 0.0000 0.0000
# 3 39.5542 66.1158 92.0602 0.0000 0.0000 0.0000
# 4 0.0000 0.0000 0.0000 31.3257 0.0000 0.0000
# 5 0.0000 0.0000 0.0000 0.0000 7.3396 0.0000
# 6 0.0000 0.0000 0.0000 0.0000 0.0000 26.2248
#
#
#
# Elastic Compliance Matrix: (Units=1/GPa)
#
#
# Indices 1 2 3 4 5 6 
#
# 1 0.020112 -0.005946 -0.004371 0.000000 0.000000 0.000000
# 2 -0.005946 0.024045 -0.014714 0.000000 0.000000 0.000000
# 3 -0.004371 -0.014714 0.023308 0.000000 0.000000 0.000000
# 4 0.000000 0.000000 0.000000 0.031923 0.000000 0.000000
# 5 0.000000 0.000000 0.000000 0.000000 0.136247 0.000000
# 6 0.000000 0.000000 0.000000 0.000000 0.000000 0.038132
#
#
# Mechanical properties :
#
#
# Convention : Reuss Voigt Hill
#
# Bulk Modulus (GPa) = 57.46146 61.08170 59.27158
# Shear Modulus (GPa) = 15.16854 20.15854 17.66354
#
# Velocity S-wave (km/s) = 2.75489 3.17586 2.97284
# Velocity P-wave (km/s) = 6.23454 6.63398 6.43736
#
# Compressibility (1/GPa) = 0.01740297
#
# Stress axis : x y z
#
# Youngs Moduli (GPa) = 49.72154 41.58820 42.90427
#
# Poissons Ratio (x) = 0.24729 0.18753
# Poissons Ratio (y) = 0.29565 0.63129
# Poissons Ratio (z) = 0.21732 0.61193
#
# Static dielectric constant tensor:
#      x y z
#    x 3.497440 0.000000 0.000000 
#    y 0.000000 3.987780 0.000000 
#    z 0.000000 0.000000 3.628670 
# 
# 
# High freq. dielectric constant tensor:
#      x y z
#    x 1.768090 0.000000 0.000000 
#    y 0.000000 1.792380 0.000000 
#    z 0.000000 0.000000 1.767850 
# 
# From -- ./inp_files/31557.got.cif
#   From: 2010.03.12/outbox.cif.g09.slc.cpg/sg59_16_cif.got.tgz:31557.got - 2010.04.16 16:29:54.
