data_PCOD8245737
_publ_section_title
;
Structure prediction by ZEFSAII (Michael W. Deem and Ramdas Pophale) SiO2 
 PCOD8245737
Probable space group: P M M N
;
_chemical_formula_sum "Si O2"
_cell_formula_units_Z 32
_cell_length_a 13.301323
_cell_length_b 8.782560
_cell_length_c 13.293153
_cell_angle_alpha 90.000000
_cell_angle_beta 90.000000
_cell_angle_gamma 90.000000
_cell_volume 1552.901711
_symmetry_space_group_name_H-M "P M M N"
_symmetry_group_IT_number 59
_space_group.IT_coordinate_system_code '2'
_symmetry_cell_setting 'orthorhombic'
loop_
_space_group_symop_operation_xyz
x,y,z
1/2-x,1/2-y,z
1/2+x,-y,-z
-x,1/2+y,-z
-x,-y,-z
1/2+x,1/2+y,-z
1/2-x,y,z
x,1/2-y,z
loop_
_atom_site_type_symbol
_atom_site_label
_atom_site_fract_x
_atom_site_fract_y
_atom_site_fract_z
Si Si1 0.250000 0.085974 0.125055
Si Si2 0.031614 0.931530 0.394583
Si Si3 0.593379 0.922017 0.046409
Si Si4 0.250000 0.926467 0.325916
Si Si5 0.863026 0.071942 0.252872
O O1 0.250000 0.250000 0.181926
O O2 0.250000 0.952990 0.206740
O O3 0.157440 0.073399 0.052873
O O4 0.030637 0.750000 0.398755
O O5 0.145082 0.993441 0.370971
O O6 0.000000 0.000000 0.500000
O O7 0.950037 0.983740 0.312346
O O8 0.574848 0.750000 0.084970
O O9 0.638737 0.018047 0.137732
O O10 0.500000 0.000000 0.000000
O O11 0.250000 0.750000 0.348882
O O12 0.750000 0.041251 0.296966
O O13 0.888199 0.250000 0.257909
#
# Coordination Sequence:
#
# PCOD8245737 Si02
#       5
#     4   8   8   4   8
#     4  10  22  38  59  88 125 164 207 252 304 370
#     4  11  25  45  69  97 128 168 214 269 332 390
#     4  11  22  38  60  91 129 170 214 262 315 376
#     4  10  24  44  65  92 129 166 209 264 322 386
#     4  11  24  42  65  96 133 173 218 270 325 384
#
# _framework density 20.606584000000002
#
# number of rings (size 3 to 8) (size 9 to 14) (size 15 to 20)
#    0.000    1.250    1.250    3.750    1.750    9.500 
#    0.000    0.000    0.000    0.000    0.000    0.000 
#    0.000    0.000    0.000    0.000    0.000    0.000 
#
# Total GULP energy -396539.370857 kJ/mol
# GULP energy per Si atom -12391.855339 kJ/mol
# Density = 2.055968 g / cm^3
# Si number density = 20.606584 Si / 1000 Ang^3
#
#
#
# Elastic Constant Matrix: (Units=GPa)
#
#
# Indices 1 2 3 4 5 6 
#
# 1 181.8984 61.3481 55.2778 0.0000 0.0000 0.0000
# 2 61.3481 83.6456 32.9700 0.0000 0.0000 0.0000
# 3 55.2778 32.9700 107.7605 0.0000 0.0000 0.0000
# 4 0.0000 0.0000 0.0000 41.9985 0.0000 0.0000
# 5 0.0000 0.0000 0.0000 0.0000 2433.9332 0.0000
# 6 0.0000 0.0000 0.0000 0.0000 0.0000 24.3482
#
#
#
# Elastic Compliance Matrix: (Units=1/GPa)
#
#
# Indices 1 2 3 4 5 6 
#
# 1 0.007893 -0.004768 -0.002590 0.000000 0.000000 0.000000
# 2 -0.004768 0.016475 -0.002595 0.000000 0.000000 0.000000
# 3 -0.002590 -0.002595 0.011402 0.000000 0.000000 0.000000
# 4 0.000000 0.000000 0.000000 0.023810 0.000000 0.000000
# 5 0.000000 0.000000 0.000000 0.000000 0.000411 0.000000
# 6 0.000000 0.000000 0.000000 0.000000 0.000000 0.041071
#
#
# Mechanical properties :
#
#
# Convention : Reuss Voigt Hill
#
# Bulk Modulus (GPa) = 63.03344 74.72181 68.87763
# Shear Modulus (GPa) = 39.60232 514.96992 277.28612
#
# Velocity S-wave (km/s) = 4.38862 15.82555 11.61267
# Velocity P-wave (km/s) = 7.50569 19.24242 14.60490
#
# Compressibility (1/GPa) = 0.01586459
#
# Stress axis : x y z
#
# Youngs Moduli (GPa) = 126.69977 60.69848 87.70163
#
# Poissons Ratio (x) = 0.28940 0.22714
# Poissons Ratio (y) = 0.60409 0.22757
# Poissons Ratio (z) = 0.32814 0.15750
#
# Static dielectric constant tensor:
#      x y z
#    x 4.255200 0.000000 0.000000 
#    y 0.000000 3.872400 0.000000 
#    z 0.000000 0.000000 2.812300 
# 
# 
# High freq. dielectric constant tensor:
#      x y z
#    x 1.834050 0.000000 0.000000 
#    y 0.000000 1.810630 0.000000 
#    z 0.000000 0.000000 1.805560 
# 
# From -- ./inp_files/16474.got.cif
#   From: 2010.03.12/outbox.cif.g09.slc.cpg/sg59_9_cif.got.tgz:16474.got - 2010.04.16 16:29:54.
