data_PCOD8245640
_publ_section_title
;
Structure prediction by ZEFSAII (Michael W. Deem and Ramdas Pophale) SiO2 
 PCOD8245640
Probable space group: P M M N
;
_chemical_formula_sum "Si O2"
_cell_formula_units_Z 56
_cell_length_a 14.501755
_cell_length_b 8.672329
_cell_length_c 21.984720
_cell_angle_alpha 90.000000
_cell_angle_beta 90.000000
_cell_angle_gamma 90.000000
_cell_volume 2764.886116
_symmetry_space_group_name_H-M "P M M N"
_symmetry_group_IT_number 59
_space_group.IT_coordinate_system_code '2'
_symmetry_cell_setting 'orthorhombic'
loop_
_space_group_symop_operation_xyz
x,y,z
1/2-x,1/2-y,z
1/2+x,-y,-z
-x,1/2+y,-z
-x,-y,-z
1/2+x,1/2+y,-z
1/2-x,y,z
x,1/2-y,z
loop_
_atom_site_type_symbol
_atom_site_label
_atom_site_fract_x
_atom_site_fract_y
_atom_site_fract_z
Si Si1 0.857118 0.930602 0.611693
Si Si2 0.558026 0.569134 0.055182
Si Si3 0.640772 0.579695 0.477215
Si Si4 0.055881 0.071857 0.160188
Si Si5 0.983372 0.428607 0.712379
Si Si6 0.856779 0.427674 0.355299
Si Si7 0.750000 0.069420 0.025765
Si Si8 0.750000 0.573370 0.896531
O O1 0.750000 0.971396 0.619732
O O2 0.874649 0.750000 0.624032
O O3 0.893704 0.974904 0.543829
O O4 0.913325 0.033271 0.658483
O O5 0.563363 0.750000 0.044833
O O6 0.510351 0.531763 0.118959
O O7 0.660510 0.502171 0.057253
O O8 0.500000 0.500000 0.000000
O O9 0.750000 0.589483 0.481718
O O10 0.601834 0.750000 0.461511
O O11 0.610091 0.462392 0.424368
O O12 0.031231 0.250000 0.148997
O O13 0.161679 0.036918 0.144301
O O14 0.042434 0.030532 0.229953
O O15 0.977079 0.250000 0.729530
O O16 0.087203 0.469304 0.692260
O O17 0.750000 0.470372 0.346670
O O18 0.876930 0.250000 0.341836
O O19 0.750000 0.250000 0.037436
O O20 0.750000 0.037985 0.954078
O O21 0.750000 0.750000 0.919841
#
# Coordination Sequence:
#
# PCOD8245640 Si02
#       8
#     8   8   8   8   8   8   4   4
#     4   9  19  37  60  86 120 160 201 247 303 364
#     4  12  24  42  67  99 136 170 211 261 312 368
#     4   8  15  31  57  87 116 149 192 247 309 366
#     4  11  24  44  67  94 128 167 211 255 306 368
#     4  12  26  41  59  87 122 162 206 251 304 364
#     4  10  21  39  63  87 113 151 201 255 310 369
#     4  12  24  40  68 102 134 172 211 258 313 364
#     4  10  22  40  68  98 128 166 207 250 305 366
#
# _framework density 20.254000000000001
#
# number of rings (size 3 to 8) (size 9 to 14) (size 15 to 20)
#    0.000    1.571    1.429    4.929    1.000    2.857 
#    1.286    1.429    0.000    0.000    0.000    0.000 
#    0.000    0.000    0.000    0.000    0.000    0.000 
#
# Total GULP energy -694589.980283 kJ/mol
# GULP energy per Si atom -12403.392505 kJ/mol
# Density = 2.020790 g / cm^3
# Si number density = 20.254000 Si / 1000 Ang^3
#
#
#
# Elastic Constant Matrix: (Units=GPa)
#
#
# Indices 1 2 3 4 5 6 
#
# 1 118.8086 44.7432 43.8683 0.0000 0.0000 0.0000
# 2 44.7432 103.4126 26.6828 0.0000 0.0000 0.0000
# 3 43.8683 26.6828 96.6647 0.0000 0.0000 0.0000
# 4 0.0000 0.0000 0.0000 37.0208 0.0000 0.0000
# 5 0.0000 0.0000 0.0000 0.0000 32.4435 0.0000
# 6 0.0000 0.0000 0.0000 0.0000 0.0000 28.3311
#
#
#
# Elastic Compliance Matrix: (Units=1/GPa)
#
#
# Indices 1 2 3 4 5 6 
#
# 1 0.011388 -0.003869 -0.004100 0.000000 0.000000 0.000000
# 2 -0.003869 0.011726 -0.001481 0.000000 0.000000 0.000000
# 3 -0.004100 -0.001481 0.012614 0.000000 0.000000 0.000000
# 4 0.000000 0.000000 0.000000 0.027012 0.000000 0.000000
# 5 0.000000 0.000000 0.000000 0.000000 0.030823 0.000000
# 6 0.000000 0.000000 0.000000 0.000000 0.000000 0.035297
#
#
# Mechanical properties :
#
#
# Convention : Reuss Voigt Hill
#
# Bulk Modulus (GPa) = 59.42381 61.05271 60.23826
# Shear Modulus (GPa) = 32.60091 33.13185 32.86638
#
# Velocity S-wave (km/s) = 4.01634 4.04891 4.03266
# Velocity P-wave (km/s) = 7.13519 7.21576 7.17559
#
# Compressibility (1/GPa) = 0.01682827
#
# Stress axis : x y z
#
# Youngs Moduli (GPa) = 87.81225 85.27908 79.27407
#
# Poissons Ratio (x) = 0.32997 0.32502
# Poissons Ratio (y) = 0.33977 0.11740
# Poissons Ratio (z) = 0.36003 0.12629
#
# Static dielectric constant tensor:
#      x y z
#    x 3.799650 0.000000 0.000000 
#    y 0.000000 3.674350 0.000000 
#    z 0.000000 0.000000 3.664160 
# 
# 
# High freq. dielectric constant tensor:
#      x y z
#    x 1.797950 0.000000 0.000000 
#    y 0.000000 1.793000 0.000000 
#    z 0.000000 0.000000 1.787980 
# 
# From -- ./inp_files/30481.got.cif
#   From: 2010.03.12/outbox.cif.g09.slc.cpg/sg59_16_cif.got.tgz:30481.got - 2010.04.16 16:29:54.
