data_PCOD8245012
_publ_section_title
;
Structure prediction by ZEFSAII (Michael W. Deem and Ramdas Pophale) SiO2 
 PCOD8245012
Probable space group: P M M N
;
_chemical_formula_sum "Si O2"
_cell_formula_units_Z 48
_cell_length_a 8.606642
_cell_length_b 10.075193
_cell_length_c 29.234577
_cell_angle_alpha 90.000000
_cell_angle_beta 90.000000
_cell_angle_gamma 90.000000
_cell_volume 2535.034809
_symmetry_space_group_name_H-M "P M M N"
_symmetry_group_IT_number 59
_space_group.IT_coordinate_system_code '2'
_symmetry_cell_setting 'orthorhombic'
loop_
_space_group_symop_operation_xyz
x,y,z
1/2-x,1/2-y,z
1/2+x,-y,-z
-x,1/2+y,-z
-x,-y,-z
1/2+x,1/2+y,-z
1/2-x,y,z
x,1/2-y,z
loop_
_atom_site_type_symbol
_atom_site_label
_atom_site_fract_x
_atom_site_fract_y
_atom_site_fract_z
Si Si1 0.566233 0.099124 0.365954
Si Si2 0.066877 0.399560 0.710752
Si Si3 0.570287 0.250000 0.048925
Si Si4 0.066802 0.099575 0.463067
Si Si5 0.567452 0.995896 0.902496
Si Si6 0.569640 0.400456 0.805054
Si Si7 0.566864 0.750000 0.048911
O O1 0.750000 0.086625 0.370599
O O2 0.517507 0.250000 0.353502
O O3 0.491611 0.053714 0.413513
O O4 0.499380 0.000292 0.327158
O O5 0.250000 0.396437 0.706856
O O6 0.999439 0.250000 0.703348
O O7 0.021230 0.454199 0.760788
O O8 0.750000 0.250000 0.033676
O O9 0.535668 0.376431 0.079790
O O10 0.458230 0.250000 0.005324
O O11 0.250000 0.091512 0.464296
O O12 0.009536 0.250000 0.473426
O O13 0.000000 0.000000 0.500000
O O14 0.750000 0.969817 0.910183
O O15 0.528168 0.010932 0.848872
O O16 0.518088 0.124167 0.930314
O O17 0.750000 0.407675 0.793421
O O18 0.518688 0.250000 0.816401
O O19 0.750000 0.750000 0.059798
#
# Coordination Sequence:
#
# PCOD8245012 Si02
#       7
#     8   8   4   8   8   8   4
#     4   9  18  34  53  74 107 147 183 223 277 330
#     4   9  18  32  52  78 106 138 179 227 272 321
#     4  12  26  42  58  86 120 150 188 236 285 338
#     4  10  21  36  55  80 110 145 187 232 278 330
#     4  11  22  41  63  85 116 153 190 234 285 339
#     4   9  18  35  58  82 108 142 183 227 276 329
#     4  12  24  40  64  90 114 150 192 232 281 340
#
# _framework density 18.934650000000001
#
# number of rings (size 3 to 8) (size 9 to 14) (size 15 to 20)
#    0.000    2.000    0.833    3.000    0.000    3.667 
#    1.500    1.667    0.000    0.000    0.000    0.000 
#    0.000    0.000    0.000    0.000    0.000    0.000 
#
# Total GULP energy -595277.048319 kJ/mol
# GULP energy per Si atom -12401.605173 kJ/mol
# Density = 1.889155 g / cm^3
# Si number density = 18.934650 Si / 1000 Ang^3
#
#
#
# Elastic Constant Matrix: (Units=GPa)
#
#
# Indices 1 2 3 4 5 6 
#
# 1 35.9221 16.8256 24.9213 0.0000 0.0000 0.0000
# 2 16.8256 104.3836 70.6967 0.0000 0.0000 0.0000
# 3 24.9213 70.6967 143.0841 0.0000 0.0000 0.0000
# 4 0.0000 0.0000 0.0000 44.9475 0.0000 0.0000
# 5 0.0000 0.0000 0.0000 0.0000 36.4386 0.0000
# 6 0.0000 0.0000 0.0000 0.0000 0.0000 24.6123
#
#
#
# Elastic Compliance Matrix: (Units=1/GPa)
#
#
# Indices 1 2 3 4 5 6 
#
# 1 0.031961 -0.002076 -0.004541 0.000000 0.000000 0.000000
# 2 -0.002076 0.014533 -0.006819 0.000000 0.000000 0.000000
# 3 -0.004541 -0.006819 0.011149 0.000000 0.000000 0.000000
# 4 0.000000 0.000000 0.000000 0.022248 0.000000 0.000000
# 5 0.000000 0.000000 0.000000 0.000000 0.027443 0.000000
# 6 0.000000 0.000000 0.000000 0.000000 0.000000 0.040630
#
#
# Mechanical properties :
#
#
# Convention : Reuss Voigt Hill
#
# Bulk Modulus (GPa) = 32.49865 56.47523 44.48694
# Shear Modulus (GPa) = 27.01331 32.59609 29.80470
#
# Velocity S-wave (km/s) = 3.78121 4.15360 3.97177
# Velocity P-wave (km/s) = 6.02198 7.27285 6.67677
#
# Compressibility (1/GPa) = 0.03077051
#
# Stress axis : x y z
#
# Youngs Moduli (GPa) = 31.28833 68.80822 89.69399
#
# Poissons Ratio (x) = 0.14287 0.40728
# Poissons Ratio (y) = 0.06497 0.61163
# Poissons Ratio (z) = 0.14207 0.46921
#
# Static dielectric constant tensor:
#      x y z
#    x 3.391930 0.000000 0.000000 
#    y 0.000000 3.721780 0.000000 
#    z 0.000000 0.000000 3.600590 
# 
# 
# High freq. dielectric constant tensor:
#      x y z
#    x 1.733570 0.000000 0.000000 
#    y 0.000000 1.731760 0.000000 
#    z 0.000000 0.000000 1.744620 
# 
# From -- ./inp_files/33045.got.cif
#   From: 2010.03.12/outbox.cif.g09.slc.cpg/sg59_17_cif.got.tgz:33045.got - 2010.04.16 16:29:54.
