data_PCOD8245096
_publ_section_title
;
Structure prediction by ZEFSAII (Michael W. Deem and Ramdas Pophale) SiO2 
 PCOD8245096
Probable space group: P M M N
;
_chemical_formula_sum "Si O2"
_cell_formula_units_Z 32
_cell_length_a 7.617102
_cell_length_b 18.695164
_cell_length_c 11.967049
_cell_angle_alpha 90.000000
_cell_angle_beta 90.000000
_cell_angle_gamma 90.000000
_cell_volume 1704.143333
_symmetry_space_group_name_H-M "P M M N"
_symmetry_group_IT_number 59
_space_group.IT_coordinate_system_code '2'
_symmetry_cell_setting 'orthorhombic'
loop_
_space_group_symop_operation_xyz
x,y,z
1/2-x,1/2-y,z
1/2+x,-y,-z
-x,1/2+y,-z
-x,-y,-z
1/2+x,1/2+y,-z
1/2-x,y,z
x,1/2-y,z
loop_
_atom_site_type_symbol
_atom_site_label
_atom_site_fract_x
_atom_site_fract_y
_atom_site_fract_z
Si Si1 0.250000 0.665152 0.248977
Si Si2 0.750000 0.165479 0.001652
Si Si3 0.455071 0.433867 0.369133
Si Si4 0.947466 0.909803 0.381104
Si Si5 0.549001 0.833390 0.833292
O O1 0.250000 0.750000 0.250394
O O2 0.425882 0.638534 0.307714
O O3 0.250000 0.633574 0.122910
O O4 0.750000 0.250000 0.993779
O O5 0.574788 0.139711 0.066180
O O6 0.250000 0.451125 0.369162
O O7 0.551975 0.507846 0.340804
O O8 0.512502 0.404789 0.490461
O O9 0.507118 0.374738 0.278491
O O10 0.750000 0.879706 0.367713
O O11 0.750000 0.849708 0.867278
O O12 0.520304 0.750000 0.807734
#
# Coordination Sequence:
#
# PCOD8245096 Si02
#       5
#     4   4   8   8   8
#     4  11  24  41  57  79 114 149 191 234 267 326
#     4   9  20  37  55  77 109 149 189 230 278 324
#     4   9  18  35  59  84 116 147 178 226 280 338
#     4  10  21  36  58  84 112 151 185 218 282 342
#     4   9  18  33  56  83 109 141 183 233 281 325
#
# _framework density 18.777761999999999
#
# number of rings (size 3 to 8) (size 9 to 14) (size 15 to 20)
#    0.000    2.500    1.250    0.000    3.500    2.500 
#    0.000    7.500    0.000    0.000    0.000    0.000 
#    0.000    0.000    0.000    0.000    0.000    0.000 
#
# Total GULP energy -396819.269943 kJ/mol
# GULP energy per Si atom -12400.602186 kJ/mol
# Density = 1.873502 g / cm^3
# Si number density = 18.777762 Si / 1000 Ang^3
#
#
#
# Elastic Constant Matrix: (Units=GPa)
#
#
# Indices 1 2 3 4 5 6 
#
# 1 104.8428 45.4815 70.0385 0.0000 0.0000 0.0000
# 2 45.4815 66.8682 62.1945 0.0000 0.0000 0.0000
# 3 70.0385 62.1945 142.9783 0.0000 0.0000 0.0000
# 4 0.0000 0.0000 0.0000 7.8216 0.0000 0.0000
# 5 0.0000 0.0000 0.0000 0.0000 62.6091 0.0000
# 6 0.0000 0.0000 0.0000 0.0000 0.0000 25.4210
#
#
#
# Elastic Compliance Matrix: (Units=1/GPa)
#
#
# Indices 1 2 3 4 5 6 
#
# 1 0.015415 -0.005814 -0.005022 0.000000 0.000000 0.000000
# 2 -0.005814 0.027309 -0.009032 0.000000 0.000000 0.000000
# 3 -0.005022 -0.009032 0.013383 0.000000 0.000000 0.000000
# 4 0.000000 0.000000 0.000000 0.127851 0.000000 0.000000
# 5 0.000000 0.000000 0.000000 0.000000 0.015972 0.000000
# 6 0.000000 0.000000 0.000000 0.000000 0.000000 0.039338
#
#
# Mechanical properties :
#
#
# Convention : Reuss Voigt Hill
#
# Bulk Modulus (GPa) = 61.07806 74.45760 67.76783
# Shear Modulus (GPa) = 17.57714 28.30198 22.93956
#
# Velocity S-wave (km/s) = 3.06283 3.88649 3.49898
# Velocity P-wave (km/s) = 6.71605 7.73808 7.24511
#
# Compressibility (1/GPa) = 0.01637249
#
# Stress axis : x y z
#
# Youngs Moduli (GPa) = 64.87136 36.61762 74.72214
#
# Poissons Ratio (x) = 0.21288 0.37528
# Poissons Ratio (y) = 0.37713 0.67485
# Poissons Ratio (z) = 0.32580 0.33071
#
# Static dielectric constant tensor:
#      x y z
#    x 3.568790 0.000000 0.000000 
#    y 0.000000 3.215320 0.000000 
#    z 0.000000 0.000000 3.620410 
# 
# 
# High freq. dielectric constant tensor:
#      x y z
#    x 1.741570 0.000000 0.000000 
#    y 0.000000 1.708500 0.000000 
#    z 0.000000 0.000000 1.724820 
# 
# From -- ./inp_files/13769.got.cif
#   From: 2010.03.12/outbox.cif.g09.slc.cpg/sg59_7_cif.got.tgz:13769.got - 2010.04.16 16:29:54.
