data_PCOD8245575
_publ_section_title
;
Structure prediction by ZEFSAII (Michael W. Deem and Ramdas Pophale) SiO2 
 PCOD8245575
Probable space group: P M M N
;
_chemical_formula_sum "Si O2"
_cell_formula_units_Z 64
_cell_length_a 30.586564
_cell_length_b 8.727113
_cell_length_c 12.059763
_cell_angle_alpha 90.000000
_cell_angle_beta 90.000000
_cell_angle_gamma 90.000000
_cell_volume 3219.141485
_symmetry_space_group_name_H-M "P M M N"
_symmetry_group_IT_number 59
_space_group.IT_coordinate_system_code '2'
_symmetry_cell_setting 'orthorhombic'
loop_
_space_group_symop_operation_xyz
x,y,z
1/2-x,1/2-y,z
1/2+x,-y,-z
-x,1/2+y,-z
-x,-y,-z
1/2+x,1/2+y,-z
1/2-x,y,z
x,1/2-y,z
loop_
_atom_site_type_symbol
_atom_site_label
_atom_site_fract_x
_atom_site_fract_y
_atom_site_fract_z
Si Si1 0.198644 0.924006 0.251789
Si Si2 0.864989 0.571141 0.586319
Si Si3 0.894452 0.074111 0.370555
Si Si4 0.452312 0.570275 0.018905
Si Si5 0.941870 0.930135 0.752512
Si Si6 0.014399 0.070736 0.615047
Si Si7 0.700081 0.571750 0.977240
Si Si8 0.629499 0.425253 0.124770
O O1 0.250000 0.939754 0.265377
O O2 0.182515 0.750000 0.266715
O O3 0.178266 0.030969 0.345857
O O4 0.183948 0.980902 0.130942
O O5 0.866029 0.750000 0.557760
O O6 0.863868 0.474080 0.473100
O O7 0.906829 0.522380 0.659610
O O8 0.910054 0.250000 0.384442
O O9 0.868138 0.053051 0.256757
O O10 0.934805 0.958553 0.367802
O O11 0.459045 0.750000 0.026888
O O12 0.418493 0.525608 0.920717
O O13 0.500000 0.500000 0.000000
O O14 0.430101 0.508654 0.131356
O O15 0.943354 0.750000 0.771177
O O16 0.989174 0.989242 0.715122
O O17 0.004364 0.250000 0.615300
O O18 0.000000 0.000000 0.500000
O O19 0.750000 0.527757 0.008877
O O20 0.696149 0.750000 0.950065
O O21 0.668292 0.529378 0.077716
O O22 0.638606 0.250000 0.090585
#
# Coordination Sequence:
#
# PCOD8245575 Si02
#       8
#     8   8   8   8   8   8   8   8
#     4  10  21  38  62  90 120 153 189 236 295 356
#     4  11  23  38  59  87 118 152 193 240 290 348
#     4  11  23  40  61  85 119 159 201 249 295 351
#     4  11  23  39  59  85 119 157 200 247 300 359
#     4  11  23  38  57  84 117 151 195 244 294 350
#     4  12  23  37  58  84 115 155 200 246 296 347
#     4  10  21  38  63  94 123 153 194 245 301 362
#     4  10  23  41  61  87 119 159 203 248 302 361
#
# _framework density 19.881077000000001
#
# number of rings (size 3 to 8) (size 9 to 14) (size 15 to 20)
#    0.000    1.250    1.250    4.875    0.000    8.000 
#    0.000    0.625    0.000    0.750    0.000    0.000 
#    0.000    0.000    0.000    0.000    0.000    0.000 
#
# Total GULP energy -793979.740267 kJ/mol
# GULP energy per Si atom -12405.933442 kJ/mol
# Density = 1.983583 g / cm^3
# Si number density = 19.881077 Si / 1000 Ang^3
#
#
#
# Elastic Constant Matrix: (Units=GPa)
#
#
# Indices 1 2 3 4 5 6 
#
# 1 78.0277 36.8751 44.0493 0.0000 0.0000 0.0000
# 2 36.8751 77.1584 45.9041 0.0000 0.0000 0.0000
# 3 44.0493 45.9041 129.0387 0.0000 0.0000 0.0000
# 4 0.0000 0.0000 0.0000 33.7612 0.0000 0.0000
# 5 0.0000 0.0000 0.0000 0.0000 32.2833 0.0000
# 6 0.0000 0.0000 0.0000 0.0000 0.0000 33.3308
#
#
#
# Elastic Compliance Matrix: (Units=1/GPa)
#
#
# Indices 1 2 3 4 5 6 
#
# 1 0.017986 -0.006270 -0.003909 0.000000 0.000000 0.000000
# 2 -0.006270 0.018625 -0.004485 0.000000 0.000000 0.000000
# 3 -0.003909 -0.004485 0.010680 0.000000 0.000000 0.000000
# 4 0.000000 0.000000 0.000000 0.029620 0.000000 0.000000
# 5 0.000000 0.000000 0.000000 0.000000 0.030976 0.000000
# 6 0.000000 0.000000 0.000000 0.000000 0.000000 0.030002
#
#
# Mechanical properties :
#
#
# Convention : Reuss Voigt Hill
#
# Bulk Modulus (GPa) = 55.67401 59.76467 57.71934
# Shear Modulus (GPa) = 28.86740 30.36815 29.61778
#
# Velocity S-wave (km/s) = 3.81465 3.91255 3.86391
# Velocity P-wave (km/s) = 6.88959 7.10894 7.00012
#
# Compressibility (1/GPa) = 0.01796170
#
# Stress axis : x y z
#
# Youngs Moduli (GPa) = 55.59869 53.69015 93.63501
#
# Poissons Ratio (x) = 0.33664 0.36605
# Poissons Ratio (y) = 0.34860 0.41999
# Poissons Ratio (z) = 0.21735 0.24082
#
# Static dielectric constant tensor:
#      x y z
#    x 3.331460 0.000000 0.000000 
#    y 0.000000 4.016430 0.000000 
#    z 0.000000 0.000000 3.822070 
# 
# 
# High freq. dielectric constant tensor:
#      x y z
#    x 1.766090 0.000000 0.000000 
#    y 0.000000 1.787090 0.000000 
#    z 0.000000 0.000000 1.780600 
# 
# From -- ./inp_files/19213.got.cif
#   From: 2010.03.12/outbox.cif.g09.slc.cpg/sg59_10_cif.got.tgz:19213.got - 2010.04.16 16:29:54.
