data_PCOD8245923
_publ_section_title
;
Structure prediction by ZEFSAII (Michael W. Deem and Ramdas Pophale) SiO2 
 PCOD8245923
Probable space group: P M M N
;
_chemical_formula_sum "Si O2"
_cell_formula_units_Z 48
_cell_length_a 19.548009
_cell_length_b 16.697146
_cell_length_c 8.767992
_cell_angle_alpha 90.000000
_cell_angle_beta 90.000000
_cell_angle_gamma 90.000000
_cell_volume 2861.837169
_symmetry_space_group_name_H-M "P M M N"
_symmetry_group_IT_number 59
_space_group.IT_coordinate_system_code '2'
_symmetry_cell_setting 'orthorhombic'
loop_
_space_group_symop_operation_xyz
x,y,z
1/2-x,1/2-y,z
1/2+x,-y,-z
-x,1/2+y,-z
-x,-y,-z
1/2+x,1/2+y,-z
1/2-x,y,z
x,1/2-y,z
loop_
_atom_site_type_symbol
_atom_site_label
_atom_site_fract_x
_atom_site_fract_y
_atom_site_fract_z
Si Si1 0.924739 0.011434 0.935449
Si Si2 0.940855 0.577720 0.644489
Si Si3 0.085351 0.922547 0.553547
Si Si4 0.400525 0.340359 0.633903
Si Si5 0.556170 0.340438 0.731062
Si Si6 0.170286 0.012286 0.780140
O O1 0.917996 0.099527 0.861387
O O2 0.910241 0.940927 0.811161
O O3 0.867305 0.003043 0.061617
O O4 0.000000 0.000000 0.000000
O O5 0.935211 0.499708 0.541769
O O6 0.900640 0.647057 0.550958
O O7 0.021196 0.600519 0.662382
O O8 0.098598 0.853041 0.427776
O O9 0.150293 0.942182 0.659865
O O10 0.377015 0.250000 0.669022
O O11 0.476375 0.358133 0.697585
O O12 0.348234 0.400022 0.716198
O O13 0.568024 0.250000 0.788296
O O14 0.250000 0.007312 0.811282
#
# Coordination Sequence:
#
# PCOD8245923 Si02
#       6
#     8   8   8   8   8   8
#     4  11  17  31  52  74 108 142 170 211 257 304
#     4   8  14  27  50  72  92 128 166 209 247 285
#     4   8  14  29  49  70  94 121 168 213 246 288
#     4   9  17  32  52  78 104 129 168 217 259 302
#     4   9  17  31  55  81 100 124 170 223 266 299
#     4  11  21  32  50  76 105 142 176 205 256 320
#
# _framework density 16.772442000000002
#
# number of rings (size 3 to 8) (size 9 to 14) (size 15 to 20)
#    0.000    2.667    3.333    2.000    0.000    0.333 
#    0.000   10.000    0.000    3.000    0.000    0.000 
#    0.000    0.000    0.000    0.000    0.000    0.000 
#
# Total GULP energy -594766.738403 kJ/mol
# GULP energy per Si atom -12390.973717 kJ/mol
# Density = 1.673427 g / cm^3
# Si number density = 16.772442 Si / 1000 Ang^3
#
#
#
# Elastic Constant Matrix: (Units=GPa)
#
#
# Indices 1 2 3 4 5 6 
#
# 1 99.1258 32.6644 58.3856 0.0000 0.0000 0.0000
# 2 32.6644 75.3338 41.8155 0.0000 0.0000 0.0000
# 3 58.3856 41.8155 113.0678 0.0000 0.0000 0.0000
# 4 0.0000 0.0000 0.0000 21.1915 0.0000 0.0000
# 5 0.0000 0.0000 0.0000 0.0000 19.7772 0.0000
# 6 0.0000 0.0000 0.0000 0.0000 0.0000 13.8621
#
#
#
# Elastic Compliance Matrix: (Units=1/GPa)
#
#
# Indices 1 2 3 4 5 6 
#
# 1 0.014941 -0.002763 -0.006693 0.000000 0.000000 0.000000
# 2 -0.002763 0.017214 -0.004939 0.000000 0.000000 0.000000
# 3 -0.006693 -0.004939 0.014127 0.000000 0.000000 0.000000
# 4 0.000000 0.000000 0.000000 0.047189 0.000000 0.000000
# 5 0.000000 0.000000 0.000000 0.000000 0.050563 0.000000
# 6 0.000000 0.000000 0.000000 0.000000 0.000000 0.072139
#
#
# Mechanical properties :
#
#
# Convention : Reuss Voigt Hill
#
# Bulk Modulus (GPa) = 57.17339 61.47317 59.32328
# Shear Modulus (GPa) = 19.93655 21.27695 20.60675
#
# Velocity S-wave (km/s) = 3.45142 3.56556 3.50895
# Velocity P-wave (km/s) = 7.07423 7.32679 7.20162
#
# Compressibility (1/GPa) = 0.01749065
#
# Stress axis : x y z
#
# Youngs Moduli (GPa) = 66.92927 58.09213 70.78501
#
# Poissons Ratio (x) = 0.16052 0.47379
# Poissons Ratio (y) = 0.18493 0.34964
# Poissons Ratio (z) = 0.44798 0.28694
#
# Static dielectric constant tensor:
#      x y z
#    x 2.831450 0.000000 0.000000 
#    y 0.000000 3.378020 0.000000 
#    z 0.000000 0.000000 3.411340 
# 
# 
# High freq. dielectric constant tensor:
#      x y z
#    x 1.601900 0.000000 0.000000 
#    y 0.000000 1.632570 0.000000 
#    z 0.000000 0.000000 1.649820 
# 
# From -- ./inp_files/10419.got.cif
#   From: 2010.03.12/outbox.cif.g09.slc.cpg/sg59_6_cif.got.tgz:10419.got - 2010.04.16 16:29:54.
