data_PCOD8245010
_publ_section_title
;
Structure prediction by ZEFSAII (Michael W. Deem and Ramdas Pophale) SiO2 
 PCOD8245010
Probable space group: P M M N
;
_chemical_formula_sum "Si O2"
_cell_formula_units_Z 48
_cell_length_a 8.723613
_cell_length_b 9.053900
_cell_length_c 30.632405
_cell_angle_alpha 90.000000
_cell_angle_beta 90.000000
_cell_angle_gamma 90.000000
_cell_volume 2419.430659
_symmetry_space_group_name_H-M "P M M N"
_symmetry_group_IT_number 59
_space_group.IT_coordinate_system_code '2'
_symmetry_cell_setting 'orthorhombic'
loop_
_space_group_symop_operation_xyz
x,y,z
1/2-x,1/2-y,z
1/2+x,-y,-z
-x,1/2+y,-z
-x,-y,-z
1/2+x,1/2+y,-z
1/2-x,y,z
x,1/2-y,z
loop_
_atom_site_type_symbol
_atom_site_label
_atom_site_fract_x
_atom_site_fract_y
_atom_site_fract_z
Si Si1 0.426138 0.078819 0.372851
Si Si2 0.569506 0.417319 0.959077
Si Si3 0.931183 0.417567 0.540890
Si Si4 0.071898 0.922221 0.202783
Si Si5 0.072007 0.921414 0.717709
Si Si6 0.071497 0.921469 0.877947
O O1 0.250000 0.038386 0.362454
O O2 0.444082 0.250000 0.384362
O O3 0.528448 0.034369 0.331453
O O4 0.490487 0.989369 0.414167
O O5 0.750000 0.418680 0.964184
O O6 0.506814 0.250000 0.957961
O O7 0.525558 0.497222 0.914633
O O8 0.500000 0.500000 0.000000
O O9 0.750000 0.430956 0.538322
O O10 0.988417 0.250000 0.539862
O O11 0.000000 0.500000 0.500000
O O12 0.250000 0.952466 0.193338
O O13 0.033067 0.750000 0.198897
O O14 0.029811 0.978434 0.250747
O O15 0.968903 0.011232 0.168731
O O16 0.250000 0.954607 0.725715
O O17 0.033111 0.750000 0.726454
O O18 0.250000 0.944629 0.887665
O O19 0.027145 0.750000 0.878006
#
# Coordination Sequence:
#
# PCOD8245010 Si02
#       6
#     8   8   8   8   8   8
#     4   9  18  34  55  78 108 147 187 227 274 329
#     4  11  24  41  62  90 122 156 197 241 286 340
#     4  10  21  36  55  80 110 144 183 228 277 330
#     4  11  24  40  59  85 116 151 192 236 282 335
#     4  10  21  37  58  85 115 147 185 229 278 334
#     4  11  24  41  62  89 119 152 193 239 287 341
#
# _framework density 19.839379000000001
#
# number of rings (size 3 to 8) (size 9 to 14) (size 15 to 20)
#    0.000    1.667    0.000    4.000    0.000   13.333 
#    0.000    3.333    0.000    0.000    0.000    0.000 
#    0.000    0.000    0.000    0.000    0.000    0.000 
#
# Total GULP energy -595489.220570 kJ/mol
# GULP energy per Si atom -12406.025429 kJ/mol
# Density = 1.979422 g / cm^3
# Si number density = 19.839379 Si / 1000 Ang^3
#
#
#
# Elastic Constant Matrix: (Units=GPa)
#
#
# Indices 1 2 3 4 5 6 
#
# 1 48.5457 43.0451 25.3609 0.0000 0.0000 0.0000
# 2 43.0451 134.1652 68.2852 0.0000 0.0000 0.0000
# 3 25.3609 68.2852 126.8053 0.0000 0.0000 0.0000
# 4 0.0000 0.0000 0.0000 44.3185 0.0000 0.0000
# 5 0.0000 0.0000 0.0000 0.0000 41.9238 0.0000
# 6 0.0000 0.0000 0.0000 0.0000 0.0000 29.4376
#
#
#
# Elastic Compliance Matrix: (Units=1/GPa)
#
#
# Indices 1 2 3 4 5 6 
#
# 1 0.028897 -0.008720 -0.001084 0.000000 0.000000 0.000000
# 2 -0.008720 0.012899 -0.005202 0.000000 0.000000 0.000000
# 3 -0.001084 -0.005202 0.010904 0.000000 0.000000 0.000000
# 4 0.000000 0.000000 0.000000 0.022564 0.000000 0.000000
# 5 0.000000 0.000000 0.000000 0.000000 0.023853 0.000000
# 6 0.000000 0.000000 0.000000 0.000000 0.000000 0.033970
#
#
# Mechanical properties :
#
#
# Convention : Reuss Voigt Hill
#
# Bulk Modulus (GPa) = 44.07446 64.76651 54.42048
# Shear Modulus (GPa) = 29.29788 34.65764 31.97776
#
# Velocity S-wave (km/s) = 3.84702 4.18414 4.01912
# Velocity P-wave (km/s) = 6.48048 7.48726 7.00199
#
# Compressibility (1/GPa) = 0.02268888
#
# Stress axis : x y z
#
# Youngs Moduli (GPa) = 34.60578 77.52695 91.70740
#
# Poissons Ratio (x) = 0.67600 0.09940
# Poissons Ratio (y) = 0.30175 0.47707
# Poissons Ratio (z) = 0.03751 0.40331
#
# Static dielectric constant tensor:
#      x y z
#    x 3.610610 0.000000 0.000000 
#    y 0.000000 3.847820 0.000000 
#    z 0.000000 0.000000 3.974430 
# 
# 
# High freq. dielectric constant tensor:
#      x y z
#    x 1.774270 0.000000 0.000000 
#    y 0.000000 1.781890 0.000000 
#    z 0.000000 0.000000 1.789240 
# 
# From -- ./inp_files/32876.got.cif
#   From: 2010.03.12/outbox.cif.g09.slc.cpg/sg59_17_cif.got.tgz:32876.got - 2010.04.16 16:29:54.
