data_PCOD8245387
_publ_section_title
;
Structure prediction by ZEFSAII (Michael W. Deem and Ramdas Pophale) SiO2 
 PCOD8245387
Probable space group: P M M N
;
_chemical_formula_sum "Si O2"
_cell_formula_units_Z 32
_cell_length_a 15.753463
_cell_length_b 8.713732
_cell_length_c 11.187891
_cell_angle_alpha 90.000000
_cell_angle_beta 90.000000
_cell_angle_gamma 90.000000
_cell_volume 1535.778072
_symmetry_space_group_name_H-M "P M M N"
_symmetry_group_IT_number 59
_space_group.IT_coordinate_system_code '2'
_symmetry_cell_setting 'orthorhombic'
loop_
_space_group_symop_operation_xyz
x,y,z
1/2-x,1/2-y,z
1/2+x,-y,-z
-x,1/2+y,-z
-x,-y,-z
1/2+x,1/2+y,-z
1/2-x,y,z
x,1/2-y,z
loop_
_atom_site_type_symbol
_atom_site_label
_atom_site_fract_x
_atom_site_fract_y
_atom_site_fract_z
Si Si1 0.074325 0.068237 0.918035
Si Si2 0.118624 0.080069 0.444608
Si Si3 0.250000 0.930121 0.278462
Si Si4 0.064547 0.921122 0.666545
Si Si5 0.250000 0.932972 0.008146
O O1 0.075989 0.250000 0.936085
O O2 0.053520 0.027955 0.781491
O O3 0.165955 0.998238 0.946554
O O4 0.000000 0.000000 0.000000
O O5 0.157824 0.250000 0.456614
O O6 0.022482 0.090808 0.404263
O O7 0.166165 0.986634 0.343140
O O8 0.130381 0.997291 0.573106
O O9 0.250000 0.750000 0.277064
O O10 0.250000 0.992744 0.143843
O O11 0.095838 0.750000 0.703110
O O12 0.250000 0.750000 0.997696
#
# Coordination Sequence:
#
# PCOD8245387 Si02
#       5
#     8   8   4   8   4
#     4  12  25  42  65  93 127 167 210 256 310 370
#     4  10  21  37  60  88 118 153 194 243 298 359
#     4  11  23  38  59  86 117 153 195 245 298 355
#     4  10  21  39  62  88 119 155 198 247 301 360
#     4  11  25  44  65  92 125 163 211 261 310 369
#
# _framework density 20.836342999999999
#
# number of rings (size 3 to 8) (size 9 to 14) (size 15 to 20)
#    0.000    1.250    0.000    6.000    0.000   10.000 
#    0.000    5.000    0.000    0.000    0.000    0.000 
#    0.000    0.000    0.000    0.000    0.000    0.000 
#
# Total GULP energy -396848.279001 kJ/mol
# GULP energy per Si atom -12401.508719 kJ/mol
# Density = 2.078892 g / cm^3
# Si number density = 20.836343 Si / 1000 Ang^3
#
#
#
# Elastic Constant Matrix: (Units=GPa)
#
#
# Indices 1 2 3 4 5 6 
#
# 1 77.7792 29.9226 21.9197 0.0000 0.0000 0.0000
# 2 29.9226 116.8853 47.6228 0.0000 0.0000 0.0000
# 3 21.9197 47.6228 125.9725 0.0000 0.0000 0.0000
# 4 0.0000 0.0000 0.0000 39.3343 0.0000 0.0000
# 5 0.0000 0.0000 0.0000 0.0000 8.7905 0.0000
# 6 0.0000 0.0000 0.0000 0.0000 0.0000 29.6507
#
#
#
# Elastic Compliance Matrix: (Units=1/GPa)
#
#
# Indices 1 2 3 4 5 6 
#
# 1 0.014444 -0.003161 -0.001319 0.000000 0.000000 0.000000
# 2 -0.003161 0.010805 -0.003535 0.000000 0.000000 0.000000
# 3 -0.001319 -0.003535 0.009504 0.000000 0.000000 0.000000
# 4 0.000000 0.000000 0.000000 0.025423 0.000000 0.000000
# 5 0.000000 0.000000 0.000000 0.000000 0.113760 0.000000
# 6 0.000000 0.000000 0.000000 0.000000 0.000000 0.033726
#
#
# Mechanical properties :
#
#
# Convention : Reuss Voigt Hill
#
# Bulk Modulus (GPa) = 53.40331 57.72970 55.56651
# Shear Modulus (GPa) = 21.74563 30.29987 26.02275
#
# Velocity S-wave (km/s) = 3.23405 3.81751 3.53783
# Velocity P-wave (km/s) = 6.29531 6.87005 6.58895
#
# Compressibility (1/GPa) = 0.01872543
#
# Stress axis : x y z
#
# Youngs Moduli (GPa) = 69.23098 92.55299 105.21973
#
# Poissons Ratio (x) = 0.29252 0.13874
# Poissons Ratio (y) = 0.21881 0.37191
# Poissons Ratio (z) = 0.09129 0.32714
#
# Static dielectric constant tensor:
#      x y z
#    x 3.624650 0.000000 0.000000 
#    y 0.000000 4.175020 0.000000 
#    z 0.000000 0.000000 3.938350 
# 
# 
# High freq. dielectric constant tensor:
#      x y z
#    x 1.811040 0.000000 0.000000 
#    y 0.000000 1.835210 0.000000 
#    z 0.000000 0.000000 1.829320 
# 
# From -- ./inp_files/13765.got.cif
#   From: 2010.03.12/outbox.cif.g09.slc.cpg/sg59_7_cif.got.tgz:13765.got - 2010.04.16 16:29:54.
