data_PCOD8245199
_publ_section_title
;
Structure prediction by ZEFSAII (Michael W. Deem and Ramdas Pophale) SiO2 
 PCOD8245199
Probable space group: P M M N
;
_chemical_formula_sum "Si O2"
_cell_formula_units_Z 48
_cell_length_a 23.596955
_cell_length_b 8.671963
_cell_length_c 12.712687
_cell_angle_alpha 90.000000
_cell_angle_beta 90.000000
_cell_angle_gamma 90.000000
_cell_volume 2601.421558
_symmetry_space_group_name_H-M "P M M N"
_symmetry_group_IT_number 59
_space_group.IT_coordinate_system_code '2'
_symmetry_cell_setting 'orthorhombic'
loop_
_space_group_symop_operation_xyz
x,y,z
1/2-x,1/2-y,z
1/2+x,-y,-z
-x,1/2+y,-z
-x,-y,-z
1/2+x,1/2+y,-z
1/2-x,y,z
x,1/2-y,z
loop_
_atom_site_type_symbol
_atom_site_label
_atom_site_fract_x
_atom_site_fract_y
_atom_site_fract_z
Si Si1 0.815112 0.928601 0.099513
Si Si2 0.814874 0.070135 0.877873
Si Si3 0.186794 0.433825 0.498134
Si Si4 0.380274 0.432790 0.697496
Si Si5 0.113371 0.431546 0.303381
Si Si6 0.999490 0.067944 0.616674
O O1 0.750000 0.949784 0.135158
O O2 0.827658 0.750000 0.073883
O O3 0.855487 0.993500 0.192052
O O4 0.829258 0.029676 0.997816
O O5 0.750000 0.022404 0.852126
O O6 0.824739 0.250000 0.858835
O O7 0.857488 0.973965 0.806081
O O8 0.250000 0.501313 0.491677
O O9 0.187644 0.250000 0.499265
O O10 0.157227 0.500724 0.602333
O O11 0.152691 0.494219 0.397263
O O12 0.375020 0.250000 0.695813
O O13 0.444808 0.486548 0.680489
O O14 0.104312 0.250000 0.310488
O O15 0.052681 0.511669 0.313304
O O16 0.998407 0.250000 0.604485
O O17 0.000000 0.000000 0.500000
#
# Coordination Sequence:
#
# PCOD8245199 Si02
#       6
#     8   8   8   8   8   8
#     4   9  17  32  57  84 107 136 177 223 270 324
#     4  10  21  37  56  80 113 147 177 218 275 331
#     4   9  16  27  48  79 109 134 167 218 273 321
#     4   9  17  31  52  80 109 137 177 225 272 322
#     4  11  21  35  55  81 109 143 189 230 269 321
#     4  11  21  36  55  78 110 149 187 226 276 329
#
# _framework density 18.451450999999999
#
# number of rings (size 3 to 8) (size 9 to 14) (size 15 to 20)
#    0.000    2.167    1.667    2.500    0.000    3.667 
#    0.000    2.500    0.000    0.000    0.000    0.000 
#    0.000    0.000    0.000    0.000    0.000    0.000 
#
# Total GULP energy -595264.134788 kJ/mol
# GULP energy per Si atom -12401.336141 kJ/mol
# Density = 1.840945 g / cm^3
# Si number density = 18.451451 Si / 1000 Ang^3
#
#
#
# Elastic Constant Matrix: (Units=GPa)
#
#
# Indices 1 2 3 4 5 6 
#
# 1 150.3440 24.6856 70.2787 0.0000 0.0000 0.0000
# 2 24.6856 37.3096 16.4155 0.0000 0.0000 0.0000
# 3 70.2787 16.4155 113.5711 0.0000 0.0000 0.0000
# 4 0.0000 0.0000 0.0000 20.8249 0.0000 0.0000
# 5 0.0000 0.0000 0.0000 0.0000 31.1424 0.0000
# 6 0.0000 0.0000 0.0000 0.0000 0.0000 24.6967
#
#
#
# Elastic Compliance Matrix: (Units=1/GPa)
#
#
# Indices 1 2 3 4 5 6 
#
# 1 0.009919 -0.004125 -0.005542 0.000000 0.000000 0.000000
# 2 -0.004125 0.030338 -0.001833 0.000000 0.000000 0.000000
# 3 -0.005542 -0.001833 0.012499 0.000000 0.000000 0.000000
# 4 0.000000 0.000000 0.000000 0.048019 0.000000 0.000000
# 5 0.000000 0.000000 0.000000 0.000000 0.032111 0.000000
# 6 0.000000 0.000000 0.000000 0.000000 0.000000 0.040491
#
#
# Mechanical properties :
#
#
# Convention : Reuss Voigt Hill
#
# Bulk Modulus (GPa) = 33.60421 58.22048 45.91234
# Shear Modulus (GPa) = 24.23703 27.98913 26.11308
#
# Velocity S-wave (km/s) = 3.62823 3.89897 3.76604
# Velocity P-wave (km/s) = 5.98363 7.20355 6.62175
#
# Compressibility (1/GPa) = 0.02975818
#
# Stress axis : x y z
#
# Youngs Moduli (GPa) = 100.81411 32.96182 80.00415
#
# Poissons Ratio (x) = 0.13596 0.44338
# Poissons Ratio (y) = 0.41582 0.14662
# Poissons Ratio (z) = 0.55871 0.06041
#
# Static dielectric constant tensor:
#      x y z
#    x 3.597800 0.000000 0.000000 
#    y 0.000000 3.107920 0.000000 
#    z 0.000000 0.000000 3.424320 
# 
# 
# High freq. dielectric constant tensor:
#      x y z
#    x 1.720460 0.000000 0.000000 
#    y 0.000000 1.688980 0.000000 
#    z 0.000000 0.000000 1.717940 
# 
# From -- ./inp_files/14339.got.cif
#   From: 2010.03.12/outbox.cif.g09.slc.cpg/sg59_8_cif.got.tgz:14339.got - 2010.04.16 16:29:54.
