data_PCOD8245044
_publ_section_title
;
Structure prediction by ZEFSAII (Michael W. Deem and Ramdas Pophale) SiO2 
 PCOD8245044
Probable space group: P M M N
;
_chemical_formula_sum "Si O2"
_cell_formula_units_Z 56
_cell_length_a 9.232317
_cell_length_b 22.278058
_cell_length_c 14.158566
_cell_angle_alpha 90.000000
_cell_angle_beta 90.000000
_cell_angle_gamma 90.000000
_cell_volume 2912.106863
_symmetry_space_group_name_H-M "P M M N"
_symmetry_group_IT_number 59
_space_group.IT_coordinate_system_code '2'
_symmetry_cell_setting 'orthorhombic'
loop_
_space_group_symop_operation_xyz
x,y,z
1/2-x,1/2-y,z
1/2+x,-y,-z
-x,1/2+y,-z
-x,-y,-z
1/2+x,1/2+y,-z
1/2-x,y,z
x,1/2-y,z
loop_
_atom_site_type_symbol
_atom_site_label
_atom_site_fract_x
_atom_site_fract_y
_atom_site_fract_z
Si Si1 0.416870 0.094796 0.352649
Si Si2 0.914331 0.024448 0.086544
Si Si3 0.421843 0.750000 0.169409
Si Si4 0.581436 0.522551 0.289666
Si Si5 0.915047 0.750000 0.972083
Si Si6 0.914425 0.182681 0.482724
Si Si7 0.584597 0.144776 0.692924
Si Si8 0.413237 0.133822 0.146737
O O1 0.250000 0.079773 0.374820
O O2 0.481434 0.132988 0.438151
O O3 0.432240 0.136290 0.259714
O O4 0.500176 0.031544 0.343175
O O5 0.750000 0.027559 0.055524
O O6 0.967070 0.090826 0.105243
O O7 0.938978 0.983031 0.177459
O O8 0.000000 0.000000 0.000000
O O9 0.250000 0.750000 0.161877
O O10 0.472186 0.689877 0.225102
O O11 0.486792 0.750000 0.064713
O O12 0.750000 0.520242 0.318728
O O13 0.514813 0.586272 0.316548
O O14 0.750000 0.750000 0.007774
O O15 0.948999 0.804168 0.902410
O O16 0.750000 0.169375 0.449949
O O17 0.960263 0.250000 0.451376
O O18 0.925948 0.180359 0.595355
O O19 0.750000 0.124845 0.713668
O O20 0.250000 0.111820 0.122470
#
# Coordination Sequence:
#
# PCOD8245044 Si02
#       8
#     8   8   4   8   4   8   8   8
#     4  10  21  38  62  89 118 152 193 239 289 345
#     4  10  21  36  56  81 112 148 191 237 284 337
#     4  10  22  40  59  84 116 152 197 242 283 344
#     4  10  22  39  59  85 117 151 192 241 291 342
#     4  10  22  38  57  82 116 154 189 232 287 338
#     4  10  21  39  62  87 117 155 192 234 290 346
#     4  10  21  40  63  85 116 154 194 238 290 345
#     4   9  20  38  57  81 116 152 188 230 282 339
#
# _framework density 19.230063000000001
#
# number of rings (size 3 to 8) (size 9 to 14) (size 15 to 20)
#    0.000    2.143    0.714    1.286    3.000    4.857 
#    0.000    0.000    0.000    0.000    0.000    0.000 
#    0.000    0.000    0.000    0.000    0.000    0.000 
#
# Total GULP energy -694378.947701 kJ/mol
# GULP energy per Si atom -12399.624066 kJ/mol
# Density = 1.918629 g / cm^3
# Si number density = 19.230063 Si / 1000 Ang^3
#
#
#
# Elastic Constant Matrix: (Units=GPa)
#
#
# Indices 1 2 3 4 5 6 
#
# 1 96.1049 54.7339 28.2476 0.0000 0.0000 0.0000
# 2 54.7339 113.1508 36.3032 0.0000 0.0000 0.0000
# 3 28.2476 36.3032 57.7705 0.0000 0.0000 0.0000
# 4 0.0000 0.0000 0.0000 15.9557 0.0000 0.0000
# 5 0.0000 0.0000 0.0000 0.0000 33.3461 0.0000
# 6 0.0000 0.0000 0.0000 0.0000 0.0000 32.5737
#
#
#
# Elastic Compliance Matrix: (Units=1/GPa)
#
#
# Indices 1 2 3 4 5 6 
#
# 1 0.014891 -0.006096 -0.003450 0.000000 0.000000 0.000000
# 2 -0.006096 0.013565 -0.005544 0.000000 0.000000 0.000000
# 3 -0.003450 -0.005544 0.022481 0.000000 0.000000 0.000000
# 4 0.000000 0.000000 0.000000 0.062674 0.000000 0.000000
# 5 0.000000 0.000000 0.000000 0.000000 0.029988 0.000000
# 6 0.000000 0.000000 0.000000 0.000000 0.000000 0.030700
#
#
# Mechanical properties :
#
#
# Convention : Reuss Voigt Hill
#
# Bulk Modulus (GPa) = 48.17725 56.17727 52.17726
# Shear Modulus (GPa) = 23.65200 26.22455 24.93827
#
# Velocity S-wave (km/s) = 3.51087 3.69687 3.60507
# Velocity P-wave (km/s) = 6.44534 6.89196 6.67239
#
# Compressibility (1/GPa) = 0.02075669
#
# Stress axis : x y z
#
# Youngs Moduli (GPa) = 67.15265 73.71736 44.48277
#
# Poissons Ratio (x) = 0.44941 0.15348
# Poissons Ratio (y) = 0.40939 0.24660
# Poissons Ratio (z) = 0.23170 0.40866
#
# Static dielectric constant tensor:
#      x y z
#    x 3.601470 0.000000 0.000000 
#    y 0.000000 -19.636440 0.000000 
#    z 0.000000 0.000000 3.404860 
# 
# 
# High freq. dielectric constant tensor:
#      x y z
#    x 1.751280 0.000000 0.000000 
#    y 0.000000 1.752560 0.000000 
#    z 0.000000 0.000000 1.749040 
# 
# From -- ./inp_files/21239.got.cif
#   From: 2010.03.12/outbox.cif.g09.slc.cpg/sg59_11_cif.got.tgz:21239.got - 2010.04.16 16:29:54.
