data_PCOD8245334
_publ_section_title
;
Structure prediction by ZEFSAII (Michael W. Deem and Ramdas Pophale) SiO2 
 PCOD8245334
Probable space group: P M M N
;
_chemical_formula_sum "Si O2"
_cell_formula_units_Z 48
_cell_length_a 13.547261
_cell_length_b 8.878864
_cell_length_c 20.287123
_cell_angle_alpha 90.000000
_cell_angle_beta 90.000000
_cell_angle_gamma 90.000000
_cell_volume 2440.222145
_symmetry_space_group_name_H-M "P M M N"
_symmetry_group_IT_number 59
_space_group.IT_coordinate_system_code '2'
_symmetry_cell_setting 'orthorhombic'
loop_
_space_group_symop_operation_xyz
x,y,z
1/2-x,1/2-y,z
1/2+x,-y,-z
-x,1/2+y,-z
-x,-y,-z
1/2+x,1/2+y,-z
1/2-x,y,z
x,1/2-y,z
loop_
_atom_site_type_symbol
_atom_site_label
_atom_site_fract_x
_atom_site_fract_y
_atom_site_fract_z
Si Si1 0.023701 0.424934 0.606085
Si Si2 0.545171 0.428450 0.255527
Si Si3 0.750000 0.087419 0.077290
Si Si4 0.250000 0.426374 0.792216
Si Si5 0.139510 0.426932 0.166484
Si Si6 0.138442 0.578334 0.498474
Si Si7 0.910399 0.418925 0.968224
O O1 0.032220 0.250000 0.625396
O O2 0.925294 0.463849 0.565346
O O3 0.019832 0.526545 0.670434
O O4 0.116152 0.471131 0.560518
O O5 0.556807 0.250000 0.249498
O O6 0.649483 0.502872 0.236496
O O7 0.451787 0.486464 0.211432
O O8 0.750000 0.250000 0.114911
O O9 0.750000 0.952788 0.129603
O O10 0.658379 0.077174 0.030586
O O11 0.250000 0.250000 0.776154
O O12 0.250000 0.466295 0.195338
O O13 0.128278 0.250000 0.158549
O O14 0.133853 0.497039 0.094300
O O15 0.250000 0.552965 0.476542
O O16 0.117281 0.750000 0.520301
O O17 0.935727 0.250000 0.945506
O O18 0.000000 0.500000 0.000000
#
# Coordination Sequence:
#
# PCOD8245334 Si02
#       7
#     8   8   4   4   8   8   8
#     4  10  21  37  58  89 122 155 202 254 297 352
#     4  11  24  42  63  87 123 168 204 248 313 374
#     4  10  22  40  58  82 118 153 190 237 300 364
#     4  12  26  42  62  90 120 157 210 263 304 360
#     4  10  22  41  63  89 121 158 204 253 304 368
#     4   9  19  37  61  87 120 160 201 246 301 357
#     4  11  22  37  59  87 117 153 194 242 300 360
#
# _framework density 19.670342000000002
#
# number of rings (size 3 to 8) (size 9 to 14) (size 15 to 20)
#    0.000    1.667    0.833    3.250    1.167    8.333 
#    0.000    0.000    0.000    0.000    0.000    0.000 
#    0.000    0.000    0.000    0.000    0.000    0.000 
#
# Total GULP energy -594994.145045 kJ/mol
# GULP energy per Si atom -12395.711355 kJ/mol
# Density = 1.962557 g / cm^3
# Si number density = 19.670342 Si / 1000 Ang^3
#
#
#
# Elastic Constant Matrix: (Units=GPa)
#
#
# Indices 1 2 3 4 5 6 
#
# 1 150.4165 53.2581 50.6277 0.0000 0.0000 0.0000
# 2 53.2581 61.7851 35.8520 0.0000 0.0000 0.0000
# 3 50.6277 35.8520 107.1266 0.0000 0.0000 0.0000
# 4 0.0000 0.0000 0.0000 35.9767 0.0000 0.0000
# 5 0.0000 0.0000 0.0000 0.0000 30.6777 0.0000
# 6 0.0000 0.0000 0.0000 0.0000 0.0000 23.0581
#
#
#
# Elastic Compliance Matrix: (Units=1/GPa)
#
#
# Indices 1 2 3 4 5 6 
#
# 1 0.010000 -0.007294 -0.002285 0.000000 0.000000 0.000000
# 2 -0.007294 0.025406 -0.005056 0.000000 0.000000 0.000000
# 3 -0.002285 -0.005056 0.012106 0.000000 0.000000 0.000000
# 4 0.000000 0.000000 0.000000 0.027796 0.000000 0.000000
# 5 0.000000 0.000000 0.000000 0.000000 0.032597 0.000000
# 6 0.000000 0.000000 0.000000 0.000000 0.000000 0.043369
#
#
# Mechanical properties :
#
#
# Convention : Reuss Voigt Hill
#
# Bulk Modulus (GPa) = 54.81335 66.53377 60.67356
# Shear Modulus (GPa) = 26.79191 29.91519 28.35355
#
# Velocity S-wave (km/s) = 3.69459 3.90401 3.80074
# Velocity P-wave (km/s) = 6.79165 7.36339 7.08329
#
# Compressibility (1/GPa) = 0.01824373
#
# Stress axis : x y z
#
# Youngs Moduli (GPa) = 100.00200 39.36082 82.60034
#
# Poissons Ratio (x) = 0.28709 0.18873
# Poissons Ratio (y) = 0.72941 0.41759
# Poissons Ratio (z) = 0.22849 0.19899
#
# Static dielectric constant tensor:
#      x y z
#    x 3.879890 0.000000 0.000000 
#    y 0.000000 3.772540 0.000000 
#    z 0.000000 0.000000 3.242950 
# 
# 
# High freq. dielectric constant tensor:
#      x y z
#    x 1.784790 0.000000 0.000000 
#    y 0.000000 1.770470 0.000000 
#    z 0.000000 0.000000 1.764680 
# 
# From -- ./inp_files/27407.got.cif
#   From: 2010.03.12/outbox.cif.g09.slc.cpg/sg59_14_cif.got.tgz:27407.got - 2010.04.16 16:29:54.
