data_PCOD8245791
_publ_section_title
;
Structure prediction by ZEFSAII (Michael W. Deem and Ramdas Pophale) SiO2 
 PCOD8245791
Probable space group: P M M N
;
_chemical_formula_sum "Si O2"
_cell_formula_units_Z 48
_cell_length_a 8.780221
_cell_length_b 30.860178
_cell_length_c 8.913046
_cell_angle_alpha 90.000000
_cell_angle_beta 90.000000
_cell_angle_gamma 90.000000
_cell_volume 2415.071662
_symmetry_space_group_name_H-M "P M M N"
_symmetry_group_IT_number 59
_space_group.IT_coordinate_system_code '2'
_symmetry_cell_setting 'orthorhombic'
loop_
_space_group_symop_operation_xyz
x,y,z
1/2-x,1/2-y,z
1/2+x,-y,-z
-x,1/2+y,-z
-x,-y,-z
1/2+x,1/2+y,-z
1/2-x,y,z
x,1/2-y,z
loop_
_atom_site_type_symbol
_atom_site_label
_atom_site_fract_x
_atom_site_fract_y
_atom_site_fract_z
Si Si1 0.574290 0.080477 0.822112
Si Si2 0.930343 0.750000 0.180425
Si Si3 0.071831 0.499563 0.662338
Si Si4 0.570610 0.665674 0.664978
Si Si5 0.430261 0.250000 0.157085
Si Si6 0.572917 0.413413 0.172203
Si Si7 0.928723 0.331604 0.658338
O O1 0.750000 0.070173 0.788546
O O2 0.474543 0.042488 0.754208
O O3 0.524180 0.125255 0.746468
O O4 0.540259 0.083417 0.997009
O O5 0.750000 0.750000 0.177991
O O6 0.984566 0.792074 0.267281
O O7 0.998066 0.750000 0.011456
O O8 0.250000 0.499239 0.640612
O O9 0.019445 0.541922 0.752771
O O10 0.000000 0.500000 0.500000
O O11 0.750000 0.668012 0.631358
O O12 0.512126 0.707709 0.755090
O O13 0.533492 0.623967 0.763601
O O14 0.477978 0.662933 0.512260
O O15 0.250000 0.250000 0.147348
O O16 0.750000 0.403189 0.205449
O O17 0.750000 0.322724 0.667549
#
# Coordination Sequence:
#
# PCOD8245791 Si02
#       7
#     8   4   8   8   4   8   8
#     4  10  22  40  61  84 115 152 193 240 290 344
#     4  11  22  39  62  86 114 149 190 237 282 334
#     4  11  23  38  59  85 116 152 192 238 291 347
#     4  11  22  38  61  87 116 154 195 237 285 342
#     4   9  21  39  58  84 116 147 186 235 284 330
#     4  10  22  40  59  84 117 152 190 239 293 345
#     4  11  23  39  59  86 118 152 189 234 287 341
#
# _framework density 19.875185999999999
#
# number of rings (size 3 to 8) (size 9 to 14) (size 15 to 20)
#    0.000    1.500    0.000    4.750    0.000    8.000 
#    0.000    3.750    0.000    0.000    0.000    0.000 
#    0.000    0.000    0.000    0.000    0.000    0.000 
#
# Total GULP energy -595493.306959 kJ/mol
# GULP energy per Si atom -12406.110562 kJ/mol
# Density = 1.982995 g / cm^3
# Si number density = 19.875186 Si / 1000 Ang^3
#
#
#
# Elastic Constant Matrix: (Units=GPa)
#
#
# Indices 1 2 3 4 5 6 
#
# 1 50.6212 48.0070 26.1268 0.0000 0.0000 0.0000
# 2 48.0070 168.1902 69.6423 0.0000 0.0000 0.0000
# 3 26.1268 69.6423 132.4530 0.0000 0.0000 0.0000
# 4 0.0000 0.0000 0.0000 35.2088 0.0000 0.0000
# 5 0.0000 0.0000 0.0000 0.0000 33.6755 0.0000
# 6 0.0000 0.0000 0.0000 0.0000 0.0000 10.5432
#
#
#
# Elastic Compliance Matrix: (Units=1/GPa)
#
#
# Indices 1 2 3 4 5 6 
#
# 1 0.027366 -0.007128 -0.001650 0.000000 0.000000 0.000000
# 2 -0.007128 0.009457 -0.003566 0.000000 0.000000 0.000000
# 3 -0.001650 -0.003566 0.009751 0.000000 0.000000 0.000000
# 4 0.000000 0.000000 0.000000 0.028402 0.000000 0.000000
# 5 0.000000 0.000000 0.000000 0.000000 0.029695 0.000000
# 6 0.000000 0.000000 0.000000 0.000000 0.000000 0.094848
#
#
# Mechanical properties :
#
#
# Convention : Reuss Voigt Hill
#
# Bulk Modulus (GPa) = 45.69442 70.97960 58.33701
# Shear Modulus (GPa) = 21.59804 29.71806 25.65805
#
# Velocity S-wave (km/s) = 3.30006 3.87102 3.59689
# Velocity P-wave (km/s) = 6.12872 7.46793 6.83122
#
# Compressibility (1/GPa) = 0.02188451
#
# Stress axis : x y z
#
# Youngs Moduli (GPa) = 36.54163 105.74321 102.55868
#
# Poissons Ratio (x) = 0.75372 0.16925
# Poissons Ratio (y) = 0.26046 0.36576
# Poissons Ratio (z) = 0.06030 0.37712
#
# Static dielectric constant tensor:
#      x y z
#    x 3.535360 0.000000 0.000000 
#    y 0.000000 3.791810 0.000000 
#    z 0.000000 0.000000 3.739600 
# 
# 
# High freq. dielectric constant tensor:
#      x y z
#    x 1.771050 0.000000 0.000000 
#    y 0.000000 1.793790 0.000000 
#    z 0.000000 0.000000 1.796820 
# 
# From -- ./inp_files/6384.got.cif
#   From: 2010.03.12/outbox.cif.g09.slc.cpg/sg59_4_cif.got.tgz:6384.got - 2010.04.16 16:29:54.
