data_PCOD8245617
_publ_section_title
;
Structure prediction by ZEFSAII (Michael W. Deem and Ramdas Pophale) SiO2 
 PCOD8245617
Probable space group: P M M N
;
_chemical_formula_sum "Si O2"
_cell_formula_units_Z 64
_cell_length_a 8.931479
_cell_length_b 30.975255
_cell_length_c 11.918523
_cell_angle_alpha 90.000000
_cell_angle_beta 90.000000
_cell_angle_gamma 90.000000
_cell_volume 3297.317068
_symmetry_space_group_name_H-M "P M M N"
_symmetry_group_IT_number 59
_space_group.IT_coordinate_system_code '2'
_symmetry_cell_setting 'orthorhombic'
loop_
_space_group_symop_operation_xyz
x,y,z
1/2-x,1/2-y,z
1/2+x,-y,-z
-x,1/2+y,-z
-x,-y,-z
1/2+x,1/2+y,-z
1/2-x,y,z
x,1/2-y,z
loop_
_atom_site_type_symbol
_atom_site_label
_atom_site_fract_x
_atom_site_fract_y
_atom_site_fract_z
Si Si1 0.921030 0.702058 0.035755
Si Si2 0.920090 0.543919 0.026989
Si Si3 0.427266 0.376031 0.118006
Si Si4 0.073774 0.954123 0.480945
Si Si5 0.427726 0.623424 0.640090
Si Si6 0.078603 0.418161 0.734582
Si Si7 0.427405 0.797748 0.490715
Si Si8 0.073390 0.671098 0.246975
O O1 0.750000 0.691017 0.070950
O O2 0.931753 0.750000 0.983023
O O3 0.977668 0.668096 0.943010
O O4 0.027066 0.701925 0.144916
O O5 0.750000 0.538709 0.989862
O O6 0.935056 0.550778 0.159244
O O7 0.987724 0.583981 0.956475
O O8 0.000000 0.500000 0.000000
O O9 0.250000 0.377466 0.133836
O O10 0.503887 0.377985 0.237743
O O11 0.250000 0.960284 0.483968
O O12 0.021727 0.919827 0.574897
O O13 0.027577 0.936473 0.360769
O O14 0.000000 0.000000 0.500000
O O15 0.250000 0.625791 0.648399
O O16 0.491378 0.665498 0.573965
O O17 0.250000 0.415352 0.692584
O O18 0.020142 0.372008 0.772671
O O19 0.250000 0.798270 0.497046
O O20 0.488143 0.750000 0.524710
O O21 0.477403 0.807517 0.363703
O O22 0.250000 0.661607 0.245803
#
# Coordination Sequence:
#
# PCOD8245617 Si02
#       8
#     8   8   8   8   8   8   8   8
#     4  10  21  39  61  85 119 159 196 242 300 356
#     4  10  23  41  61  86 118 153 193 241 293 349
#     4  10  22  41  59  83 117 156 197 241 294 351
#     4  11  24  42  62  90 122 156 199 245 299 354
#     4  10  22  40  59  84 117 154 196 243 291 346
#     4  11  22  40  64  90 121 157 195 243 299 355
#     4   9  18  35  58  84 117 153 187 234 295 346
#     4  11  20  35  60  91 123 155 195 245 294 353
#
# _framework density 19.40972
#
# number of rings (size 3 to 8) (size 9 to 14) (size 15 to 20)
#    0.000    1.750    2.500    1.500    1.750    4.250 
#    0.000    0.000    0.000    1.500    0.000    0.000 
#    0.000    0.000    0.000    0.000    0.000    0.000 
#
# Total GULP energy -793680.735973 kJ/mol
# GULP energy per Si atom -12401.261500 kJ/mol
# Density = 1.936554 g / cm^3
# Si number density = 19.409720 Si / 1000 Ang^3
#
#
#
# Elastic Constant Matrix: (Units=GPa)
#
#
# Indices 1 2 3 4 5 6 
#
# 1 35.2204 36.0170 33.6700 0.0000 0.0000 0.0000
# 2 36.0170 159.7838 63.4455 0.0000 0.0000 0.0000
# 3 33.6700 63.4455 133.8551 0.0000 0.0000 0.0000
# 4 0.0000 0.0000 0.0000 25.1502 0.0000 0.0000
# 5 0.0000 0.0000 0.0000 0.0000 35.8646 0.0000
# 6 0.0000 0.0000 0.0000 0.0000 0.0000 21.2988
#
#
#
# Elastic Compliance Matrix: (Units=1/GPa)
#
#
# Indices 1 2 3 4 5 6 
#
# 1 0.042284 -0.006539 -0.007537 0.000000 0.000000 0.000000
# 2 -0.006539 0.008721 -0.002489 0.000000 0.000000 0.000000
# 3 -0.007537 -0.002489 0.010546 0.000000 0.000000 0.000000
# 4 0.000000 0.000000 0.000000 0.039761 0.000000 0.000000
# 5 0.000000 0.000000 0.000000 0.000000 0.027883 0.000000
# 6 0.000000 0.000000 0.000000 0.000000 0.000000 0.046951
#
#
# Mechanical properties :
#
#
# Convention : Reuss Voigt Hill
#
# Bulk Modulus (GPa) = 35.18336 66.12491 50.65414
# Shear Modulus (GPa) = 22.85726 29.51116 26.18421
#
# Velocity S-wave (km/s) = 3.43537 3.90350 3.67689
# Velocity P-wave (km/s) = 5.82252 7.37959 6.64680
#
# Compressibility (1/GPa) = 0.02842252
#
# Stress axis : x y z
#
# Youngs Moduli (GPa) = 23.64934 114.67206 94.82060
#
# Poissons Ratio (x) = 0.74980 0.71467
# Poissons Ratio (y) = 0.15463 0.23598
# Poissons Ratio (z) = 0.17825 0.28538
#
# Static dielectric constant tensor:
#      x y z
#    x 3.435430 0.000000 0.000000 
#    y 0.000000 3.784420 0.000000 
#    z 0.000000 0.000000 3.418940 
# 
# 
# High freq. dielectric constant tensor:
#      x y z
#    x 1.739960 0.000000 0.000000 
#    y 0.000000 1.772730 0.000000 
#    z 0.000000 0.000000 1.757540 
# 
# From -- ./inp_files/14899.got.cif
#   From: 2010.03.12/outbox.cif.g09.slc.cpg/sg59_8_cif.got.tgz:14899.got - 2010.04.16 16:29:54.
