data_PCOD8245649
_publ_section_title
;
Structure prediction by ZEFSAII (Michael W. Deem and Ramdas Pophale) SiO2 
 PCOD8245649
Probable space group: P M M N
;
_chemical_formula_sum "Si O2"
_cell_formula_units_Z 40
_cell_length_a 28.368180
_cell_length_b 9.417701
_cell_length_c 7.571525
_cell_angle_alpha 90.000000
_cell_angle_beta 90.000000
_cell_angle_gamma 90.000000
_cell_volume 2022.831615
_symmetry_space_group_name_H-M "P M M N"
_symmetry_group_IT_number 59
_space_group.IT_coordinate_system_code '2'
_symmetry_cell_setting 'orthorhombic'
loop_
_space_group_symop_operation_xyz
x,y,z
1/2-x,1/2-y,z
1/2+x,-y,-z
-x,1/2+y,-z
-x,-y,-z
1/2+x,1/2+y,-z
1/2-x,y,z
x,1/2-y,z
loop_
_atom_site_type_symbol
_atom_site_label
_atom_site_fract_x
_atom_site_fract_y
_atom_site_fract_z
Si Si1 0.952341 0.586586 0.803667
Si Si2 0.650491 0.585368 0.700964
Si Si3 0.304783 0.585905 0.993877
Si Si4 0.960386 0.911596 0.213876
Si Si5 0.642825 0.912943 0.304676
O O1 0.960639 0.750000 0.759568
O O2 0.903257 0.533199 0.722641
O O3 0.996150 0.504753 0.714861
O O4 0.949583 0.554075 0.010624
O O5 0.654987 0.750000 0.758414
O O6 0.684470 0.491313 0.821538
O O7 0.665788 0.564292 0.497351
O O8 0.250000 0.569208 0.951726
O O9 0.319661 0.750000 0.009647
O O10 0.333012 0.516449 0.833548
O O11 0.975715 0.750000 0.240705
O O12 0.912879 0.947058 0.321048
O O13 0.649429 0.750000 0.240373
#
# Coordination Sequence:
#
# PCOD8245649 Si02
#       5
#     8   8   8   8   8
#     4   9  17  31  52  81 117 154 191 232 278 332
#     4  10  21  39  63  89 117 152 196 241 285 340
#     4  11  25  43  62  85 116 151 188 239 300 355
#     4   9  17  31  52  81 117 154 191 232 278 332
#     4  10  21  39  63  89 117 152 196 241 285 340
#
# _framework density 19.774260999999999
#
# number of rings (size 3 to 8) (size 9 to 14) (size 15 to 20)
#    0.000    2.200    2.000    0.600    0.000    5.600 
#    0.000    4.000    0.000    0.000    0.000    0.000 
#    0.000    0.000    0.000    0.000    0.000    0.000 
#
# Total GULP energy -496062.580931 kJ/mol
# GULP energy per Si atom -12401.564523 kJ/mol
# Density = 1.972925 g / cm^3
# Si number density = 19.774261 Si / 1000 Ang^3
#
#
#
# Elastic Constant Matrix: (Units=GPa)
#
#
# Indices 1 2 3 4 5 6 
#
# 1 60.1534 40.1498 9.8296 0.0000 0.0000 0.0000
# 2 40.1498 87.0873 26.9341 0.0000 0.0000 0.0000
# 3 9.8296 26.9341 53.9016 0.0000 0.0000 0.0000
# 4 0.0000 0.0000 0.0000 18.7791 0.0000 0.0000
# 5 0.0000 0.0000 0.0000 0.0000 8.6744 0.0000
# 6 0.0000 0.0000 0.0000 0.0000 0.0000 37.5138
#
#
#
# Elastic Compliance Matrix: (Units=1/GPa)
#
#
# Indices 1 2 3 4 5 6 
#
# 1 0.024099 -0.011533 0.001368 0.000000 0.000000 0.000000
# 2 -0.011533 0.019101 -0.007442 0.000000 0.000000 0.000000
# 3 0.001368 -0.007442 0.022021 0.000000 0.000000 0.000000
# 4 0.000000 0.000000 0.000000 0.053251 0.000000 0.000000
# 5 0.000000 0.000000 0.000000 0.000000 0.115282 0.000000
# 6 0.000000 0.000000 0.000000 0.000000 0.000000 0.026657
#
#
# Mechanical properties :
#
#
# Convention : Reuss Voigt Hill
#
# Bulk Modulus (GPa) = 33.32411 39.44102 36.38257
# Shear Modulus (GPa) = 16.35984 21.27537 18.81760
#
# Velocity S-wave (km/s) = 2.87945 3.28367 3.08818
# Velocity P-wave (km/s) = 5.28620 5.86222 5.58164
#
# Compressibility (1/GPa) = 0.03000830
#
# Stress axis : x y z
#
# Youngs Moduli (GPa) = 41.49622 52.35200 45.41064
#
# Poissons Ratio (x) = 0.60380 -0.06214
# Poissons Ratio (y) = 0.47859 0.33793
# Poissons Ratio (z) = -0.05678 0.38958
#
# Static dielectric constant tensor:
#      x y z
#    x 3.626570 0.000000 0.000000 
#    y 0.000000 3.592310 0.000000 
#    z 0.000000 0.000000 3.547210 
# 
# 
# High freq. dielectric constant tensor:
#      x y z
#    x 1.767340 0.000000 0.000000 
#    y 0.000000 1.760500 0.000000 
#    z 0.000000 0.000000 1.771600 
# 
# From -- ./inp_files/6047.got.cif
#   From: 2010.03.12/outbox.cif.g09.slc.cpg/sg59_4_cif.got.tgz:6047.got - 2010.04.16 16:29:54.
