data_PCOD8245699
_publ_section_title
;
Structure prediction by ZEFSAII (Michael W. Deem and Ramdas Pophale) SiO2 
 PCOD8245699
Probable space group: P M M N
;
_chemical_formula_sum "Si O2"
_cell_formula_units_Z 56
_cell_length_a 26.871543
_cell_length_b 16.135029
_cell_length_c 5.511313
_cell_angle_alpha 90.000000
_cell_angle_beta 90.000000
_cell_angle_gamma 90.000000
_cell_volume 2389.557203
_symmetry_space_group_name_H-M "P M M N"
_symmetry_group_IT_number 59
_space_group.IT_coordinate_system_code '2'
_symmetry_cell_setting 'orthorhombic'
loop_
_space_group_symop_operation_xyz
x,y,z
1/2-x,1/2-y,z
1/2+x,-y,-z
-x,1/2+y,-z
-x,-y,-z
1/2+x,1/2+y,-z
1/2-x,y,z
x,1/2-y,z
loop_
_atom_site_type_symbol
_atom_site_label
_atom_site_fract_x
_atom_site_fract_y
_atom_site_fract_z
Si Si1 0.095728 0.898953 0.114028
Si Si2 0.954552 0.346067 0.380832
Si Si3 0.556836 0.842014 0.414476
Si Si4 0.838908 0.841362 0.685902
Si Si5 0.804509 0.503353 0.416400
Si Si6 0.804903 0.342922 0.740561
Si Si7 0.114723 0.062577 0.935936
O O1 0.071967 0.865994 0.362621
O O2 0.149615 0.854970 0.070974
O O3 0.065052 0.889534 0.863259
O O4 0.100520 0.998733 0.151782
O O5 0.948533 0.250000 0.328037
O O6 0.012337 0.372984 0.412160
O O7 0.543004 0.750000 0.317365
O O8 0.608840 0.840498 0.550026
O O9 0.564183 0.904308 0.188903
O O10 0.813353 0.750000 0.668564
O O11 0.804105 0.915192 0.590488
O O12 0.852649 0.860251 0.966144
O O13 0.750000 0.503429 0.289768
O O14 0.812194 0.415152 0.544740
O O15 0.850017 0.507873 0.234736
O O16 0.750000 0.352969 0.864879
O O17 0.808552 0.250000 0.625420
#
# Coordination Sequence:
#
# PCOD8245699 Si02
#       7
#     8   8   8   8   8   8   8
#     4  12  25  42  68 100 137 175 228 287 344 406
#     4  11  25  44  67  98 138 182 228 287 347 405
#     4   9  22  42  65  93 129 180 231 276 339 413
#     4  10  21  41  67  95 133 178 227 283 341 412
#     4  10  22  42  67  98 135 175 226 283 344 409
#     4  10  21  42  71  98 130 176 225 275 338 414
#     4  11  23  39  65  94 134 177 227 285 340 410
#
# _framework density 23.435306000000001
#
# number of rings (size 3 to 8) (size 9 to 14) (size 15 to 20)
#    0.000    1.571    1.429    2.571    4.000    3.143 
#    0.000    2.143    0.000    7.714    0.000    0.000 
#    0.000    0.000    0.000    0.000    0.000    0.000 
#
# Total GULP energy -693761.611746 kJ/mol
# GULP energy per Si atom -12388.600210 kJ/mol
# Density = 2.338197 g / cm^3
# Si number density = 23.435306 Si / 1000 Ang^3
#
#
#
# Elastic Constant Matrix: (Units=GPa)
#
#
# Indices 1 2 3 4 5 6 
#
# 1 69.6119 10.6879 -0.9683 0.0000 0.0000 0.0000
# 2 10.6879 144.8009 13.7396 0.0000 0.0000 0.0000
# 3 -0.9683 13.7396 65.2532 0.0000 0.0000 0.0000
# 4 0.0000 0.0000 0.0000 32.4726 0.0000 0.0000
# 5 0.0000 0.0000 0.0000 0.0000 8.8229 0.0000
# 6 0.0000 0.0000 0.0000 0.0000 0.0000 21.7955
#
#
#
# Elastic Compliance Matrix: (Units=1/GPa)
#
#
# Indices 1 2 3 4 5 6 
#
# 1 0.014543 -0.001116 0.000451 0.000000 0.000000 0.000000
# 2 -0.001116 0.007132 -0.001518 0.000000 0.000000 0.000000
# 3 0.000451 -0.001518 0.015651 0.000000 0.000000 0.000000
# 4 0.000000 0.000000 0.000000 0.030795 0.000000 0.000000
# 5 0.000000 0.000000 0.000000 0.000000 0.113341 0.000000
# 6 0.000000 0.000000 0.000000 0.000000 0.000000 0.045881
#
#
# Mechanical properties :
#
#
# Convention : Reuss Voigt Hill
#
# Bulk Modulus (GPa) = 30.34045 36.28717 33.31381
# Shear Modulus (GPa) = 20.60170 29.69866 25.15018
#
# Velocity S-wave (km/s) = 2.96816 3.56372 3.27949
# Velocity P-wave (km/s) = 4.97204 5.69659 5.34660
#
# Compressibility (1/GPa) = 0.03295930
#
# Stress axis : x y z
#
# Youngs Moduli (GPa) = 68.76156 140.20343 63.89244
#
# Poissons Ratio (x) = 0.15650 -0.02880
# Poissons Ratio (y) = 0.07675 0.09701
# Poissons Ratio (z) = -0.03100 0.21288
#
# Static dielectric constant tensor:
#      x y z
#    x 4.471600 0.000000 0.000000 
#    y 0.000000 4.612080 0.000000 
#    z 0.000000 0.000000 3.972530 
# 
# 
# High freq. dielectric constant tensor:
#      x y z
#    x 1.931810 0.000000 0.000000 
#    y 0.000000 1.950140 0.000000 
#    z 0.000000 0.000000 1.899060 
# 
# From -- ./inp_files/4572.got.cif
#   From: 2010.03.12/outbox.cif.g09.slc.cpg/sg59_3_cif.got.tgz:4572.got - 2010.04.16 16:29:54.
