data_PCOD8245482
_publ_section_title
;
Structure prediction by ZEFSAII (Michael W. Deem and Ramdas Pophale) SiO2 
 PCOD8245482
Probable space group: P M M N
;
_chemical_formula_sum "Si O2"
_cell_formula_units_Z 56
_cell_length_a 8.906083
_cell_length_b 14.813746
_cell_length_c 21.483756
_cell_angle_alpha 90.000000
_cell_angle_beta 90.000000
_cell_angle_gamma 90.000000
_cell_volume 2834.404595
_symmetry_space_group_name_H-M "P M M N"
_symmetry_group_IT_number 59
_space_group.IT_coordinate_system_code '2'
_symmetry_cell_setting 'orthorhombic'
loop_
_space_group_symop_operation_xyz
x,y,z
1/2-x,1/2-y,z
1/2+x,-y,-z
-x,1/2+y,-z
-x,-y,-z
1/2+x,1/2+y,-z
1/2-x,y,z
x,1/2-y,z
loop_
_atom_site_type_symbol
_atom_site_label
_atom_site_fract_x
_atom_site_fract_y
_atom_site_fract_z
Si Si1 0.584416 0.356902 0.519935
Si Si2 0.072868 0.517323 0.844091
Si Si3 0.927208 0.989588 0.713019
Si Si4 0.579442 0.855672 0.938628
Si Si5 0.424726 0.354580 0.642698
Si Si6 0.571671 0.849199 0.078064
Si Si7 0.073550 0.645532 0.618067
O O1 0.750000 0.395936 0.535732
O O2 0.594903 0.250000 0.516912
O O3 0.469394 0.388043 0.573371
O O4 0.530937 0.389181 0.451620
O O5 0.250000 0.515785 0.832305
O O6 0.013821 0.422372 0.872437
O O7 0.989181 0.536577 0.780145
O O8 0.033435 0.596562 0.891577
O O9 0.750000 0.992839 0.715166
O O10 0.978485 0.913091 0.665404
O O11 0.987921 0.088006 0.693967
O O12 0.750000 0.891361 0.929638
O O13 0.573570 0.750000 0.924823
O O14 0.519807 0.875922 0.008443
O O15 0.250000 0.372151 0.651588
O O16 0.467343 0.250000 0.652712
O O17 0.750000 0.845487 0.077502
O O18 0.508182 0.750000 0.096545
O O19 0.250000 0.631090 0.629907
O O20 0.029553 0.750000 0.627456
#
# Coordination Sequence:
#
# PCOD8245482 Si02
#       7
#     8   8   8   8   8   8   8
#     4   8  15  31  57  86 112 139 174 222 282 338
#     4  11  22  36  56  81 111 146 185 229 273 321
#     4  12  26  40  55  78 111 152 194 232 275 331
#     4   9  18  35  59  85 113 144 178 218 268 326
#     4  10  21  38  60  84 111 144 184 231 279 330
#     4   8  16  33  58  86 112 140 176 219 270 326
#     4   9  19  38  62  85 111 143 182 232 284 333
#
# _framework density 19.757237
#
# number of rings (size 3 to 8) (size 9 to 14) (size 15 to 20)
#    0.000    2.429    0.000    4.286    0.000    3.714 
#    0.000    3.571    0.000    3.000    0.000    0.000 
#    0.000    0.000    0.000    0.000    0.000    0.000 
#
# Total GULP energy -694363.979722 kJ/mol
# GULP energy per Si atom -12399.356781 kJ/mol
# Density = 1.971227 g / cm^3
# Si number density = 19.757237 Si / 1000 Ang^3
#
#
#
# Elastic Constant Matrix: (Units=GPa)
#
#
# Indices 1 2 3 4 5 6 
#
# 1 78.5878 21.1092 20.0752 0.0000 0.0000 0.0000
# 2 21.1092 47.8497 5.8096 0.0000 0.0000 0.0000
# 3 20.0752 5.8096 57.6957 0.0000 0.0000 0.0000
# 4 0.0000 0.0000 0.0000 14.2129 0.0000 0.0000
# 5 0.0000 0.0000 0.0000 0.0000 21.3778 0.0000
# 6 0.0000 0.0000 0.0000 0.0000 0.0000 27.7420
#
#
#
# Elastic Compliance Matrix: (Units=1/GPa)
#
#
# Indices 1 2 3 4 5 6 
#
# 1 0.015651 -0.006321 -0.004809 0.000000 0.000000 0.000000
# 2 -0.006321 0.023710 -0.000188 0.000000 0.000000 0.000000
# 3 -0.004809 -0.000188 0.019025 0.000000 0.000000 0.000000
# 4 0.000000 0.000000 0.000000 0.070359 0.000000 0.000000
# 5 0.000000 0.000000 0.000000 0.000000 0.046778 0.000000
# 6 0.000000 0.000000 0.000000 0.000000 0.000000 0.036046
#
#
# Mechanical properties :
#
#
# Convention : Reuss Voigt Hill
#
# Bulk Modulus (GPa) = 27.97249 30.90236 29.43742
# Shear Modulus (GPa) = 20.31522 21.80914 21.06218
#
# Velocity S-wave (km/s) = 3.21010 3.32604 3.26858
# Velocity P-wave (km/s) = 5.28474 5.51589 5.40155
#
# Compressibility (1/GPa) = 0.03574942
#
# Stress axis : x y z
#
# Youngs Moduli (GPa) = 63.89409 42.17635 52.56335
#
# Poissons Ratio (x) = 0.26658 0.25279
# Poissons Ratio (y) = 0.40385 0.00989
# Poissons Ratio (z) = 0.30729 0.00794
#
# Static dielectric constant tensor:
#      x y z
#    x 3.469810 0.000000 0.000000 
#    y 0.000000 3.670440 0.000000 
#    z 0.000000 0.000000 3.703980 
# 
# 
# High freq. dielectric constant tensor:
#      x y z
#    x 1.753720 0.000000 0.000000 
#    y 0.000000 1.770980 0.000000 
#    z 0.000000 0.000000 1.772310 
# 
# From -- ./inp_files/29091.got.cif
#   From: 2010.03.12/outbox.cif.g09.slc.cpg/sg59_15_cif.got.tgz:29091.got - 2010.04.16 16:29:54.
