data_PCOD8245462
_publ_section_title
;
Structure prediction by ZEFSAII (Michael W. Deem and Ramdas Pophale) SiO2 
 PCOD8245462
Probable space group: P M M N
;
_chemical_formula_sum "Si O2"
_cell_formula_units_Z 48
_cell_length_a 8.984317
_cell_length_b 17.683437
_cell_length_c 15.326274
_cell_angle_alpha 90.000000
_cell_angle_beta 90.000000
_cell_angle_gamma 90.000000
_cell_volume 2434.940381
_symmetry_space_group_name_H-M "P M M N"
_symmetry_group_IT_number 59
_space_group.IT_coordinate_system_code '2'
_symmetry_cell_setting 'orthorhombic'
loop_
_space_group_symop_operation_xyz
x,y,z
1/2-x,1/2-y,z
1/2+x,-y,-z
-x,1/2+y,-z
-x,-y,-z
1/2+x,1/2+y,-z
1/2-x,y,z
x,1/2-y,z
loop_
_atom_site_type_symbol
_atom_site_label
_atom_site_fract_x
_atom_site_fract_y
_atom_site_fract_z
Si Si1 0.579807 0.900820 0.324365
Si Si2 0.921838 0.578735 0.515184
Si Si3 0.576852 0.077498 0.316596
Si Si4 0.579118 0.162698 0.833491
Si Si5 0.573795 0.919281 0.012235
Si Si6 0.577983 0.338043 0.143734
O O1 0.750000 0.887124 0.295512
O O2 0.557447 0.874172 0.425228
O O3 0.470874 0.850412 0.266053
O O4 0.538414 0.988928 0.311788
O O5 0.750000 0.563990 0.534294
O O6 0.000000 0.500000 0.500000
O O7 0.994502 0.617199 0.600774
O O8 0.750000 0.092179 0.330534
O O9 0.520632 0.116630 0.228166
O O10 0.750000 0.137676 0.845145
O O11 0.559410 0.250000 0.858337
O O12 0.474186 0.112675 0.894369
O O13 0.750000 0.928069 0.009841
O O14 0.521005 0.861749 0.938010
O O15 0.500000 0.000000 0.000000
O O16 0.750000 0.357317 0.123102
O O17 0.555450 0.250000 0.162004
#
# Coordination Sequence:
#
# PCOD8245462 Si02
#       6
#     8   8   8   8   8   8
#     4   9  18  33  54  80 110 147 191 234 277 327
#     4   9  17  30  51  79 109 142 182 231 281 326
#     4   9  18  33  54  81 112 146 185 229 276 326
#     4  11  24  40  58  83 115 149 185 227 276 331
#     4  12  25  41  63  87 111 143 184 230 278 330
#     4  10  21  38  59  84 117 153 186 225 275 330
#
# _framework density 19.713009
#
# number of rings (size 3 to 8) (size 9 to 14) (size 15 to 20)
#    0.000    2.000    0.000    5.000    0.000    9.000 
#    0.000    0.833    0.000    3.000    0.000    0.000 
#    0.000    0.000    0.000    0.000    0.000    0.000 
#
# Total GULP energy -595226.346736 kJ/mol
# GULP energy per Si atom -12400.548890 kJ/mol
# Density = 1.966814 g / cm^3
# Si number density = 19.713009 Si / 1000 Ang^3
#
#
#
# Elastic Constant Matrix: (Units=GPa)
#
#
# Indices 1 2 3 4 5 6 
#
# 1 107.8509 28.9867 49.8925 0.0000 0.0000 0.0000
# 2 28.9867 48.2142 16.1460 0.0000 0.0000 0.0000
# 3 49.8925 16.1460 112.0843 0.0000 0.0000 0.0000
# 4 0.0000 0.0000 0.0000 15.0833 0.0000 0.0000
# 5 0.0000 0.0000 0.0000 0.0000 41.3610 0.0000
# 6 0.0000 0.0000 0.0000 0.0000 0.0000 24.9664
#
#
#
# Elastic Compliance Matrix: (Units=1/GPa)
#
#
# Indices 1 2 3 4 5 6 
#
# 1 0.013283 -0.006310 -0.005004 0.000000 0.000000 0.000000
# 2 -0.006310 0.024790 -0.000762 0.000000 0.000000 0.000000
# 3 -0.005004 -0.000762 0.011259 0.000000 0.000000 0.000000
# 4 0.000000 0.000000 0.000000 0.066298 0.000000 0.000000
# 5 0.000000 0.000000 0.000000 0.000000 0.024177 0.000000
# 6 0.000000 0.000000 0.000000 0.000000 0.000000 0.040054
#
#
# Mechanical properties :
#
#
# Convention : Reuss Voigt Hill
#
# Bulk Modulus (GPa) = 39.71471 50.91112 45.31292
# Shear Modulus (GPa) = 23.53985 27.82375 25.68180
#
# Velocity S-wave (km/s) = 3.45936 3.76099 3.61333
# Velocity P-wave (km/s) = 6.01219 6.68897 6.35959
#
# Compressibility (1/GPa) = 0.02517959
#
# Stress axis : x y z
#
# Youngs Moduli (GPa) = 75.28601 40.33942 88.81845
#
# Poissons Ratio (x) = 0.25454 0.44441
# Poissons Ratio (y) = 0.47506 0.06770
# Poissons Ratio (z) = 0.37670 0.03075
#
# Static dielectric constant tensor:
#      x y z
#    x 3.750280 0.000000 0.000000 
#    y 0.000000 2.785510 0.000000 
#    z 0.000000 0.000000 4.056450 
# 
# 
# High freq. dielectric constant tensor:
#      x y z
#    x 1.769050 0.000000 0.000000 
#    y 0.000000 1.741420 0.000000 
#    z 0.000000 0.000000 1.788740 
# 
# From -- ./inp_files/20427.got.cif
#   From: 2010.03.12/outbox.cif.g09.slc.cpg/sg59_11_cif.got.tgz:20427.got - 2010.04.16 16:29:54.
