data_PCOD8245115
_publ_section_title
;
Structure prediction by ZEFSAII (Michael W. Deem and Ramdas Pophale) SiO2 
 PCOD8245115
Probable space group: P M M N
;
_chemical_formula_sum "Si O2"
_cell_formula_units_Z 56
_cell_length_a 20.277938
_cell_length_b 13.764185
_cell_length_c 9.180121
_cell_angle_alpha 90.000000
_cell_angle_beta 90.000000
_cell_angle_gamma 90.000000
_cell_volume 2562.257055
_symmetry_space_group_name_H-M "P M M N"
_symmetry_group_IT_number 59
_space_group.IT_coordinate_system_code '2'
_symmetry_cell_setting 'orthorhombic'
loop_
_space_group_symop_operation_xyz
x,y,z
1/2-x,1/2-y,z
1/2+x,-y,-z
-x,1/2+y,-z
-x,-y,-z
1/2+x,1/2+y,-z
1/2-x,y,z
x,1/2-y,z
loop_
_atom_site_type_symbol
_atom_site_label
_atom_site_fract_x
_atom_site_fract_y
_atom_site_fract_z
Si Si1 0.093190 0.989444 0.250954
Si Si2 0.078900 0.355426 0.049101
Si Si3 0.130419 0.641226 0.485353
Si Si4 0.976851 0.640378 0.547577
Si Si5 0.616358 0.642037 0.276098
Si Si6 0.568539 0.138375 0.011278
Si Si7 0.323257 0.553753 0.774045
O O1 0.124671 0.066608 0.135034
O O2 0.041401 0.055592 0.340255
O O3 0.146739 0.937239 0.356889
O O4 0.060501 0.906002 0.150867
O O5 0.104810 0.250000 0.096747
O O6 0.001729 0.370441 0.093000
O O7 0.079672 0.366908 0.876991
O O8 0.148297 0.750000 0.433121
O O9 0.169987 0.620946 0.631882
O O10 0.053009 0.629135 0.511395
O O11 0.962655 0.750000 0.608843
O O12 0.937114 0.622455 0.399765
O O13 0.648335 0.750000 0.294171
O O14 0.671252 0.558132 0.279444
O O15 0.590468 0.250000 0.996735
O O16 0.623052 0.081383 0.105112
O O17 0.250000 0.569599 0.838599
#
# Coordination Sequence:
#
# PCOD8245115 Si02
#       7
#     8   8   8   8   8   8   8
#     4  12  20  33  61  90 125 158 194 247 322 375
#     4  10  21  36  61  97 131 159 196 253 329 386
#     4  11  24  39  59  92 128 166 209 257 307 367
#     4  10  21  36  61  97 131 159 196 253 329 386
#     4  10  21  41  67  98 129 159 202 259 315 377
#     4  11  24  39  59  92 128 166 209 257 307 367
#     4  12  26  45  66  86 118 176 226 250 292 361
#
# _framework density 21.855729
#
# number of rings (size 3 to 8) (size 9 to 14) (size 15 to 20)
#    0.000    1.143    2.857    3.857    4.000    6.000 
#    0.000    0.714    0.000    1.714    0.000    4.000 
#    0.000    0.000    0.000    0.000    0.000    0.000 
#
# Total GULP energy -693897.755628 kJ/mol
# GULP energy per Si atom -12391.031350 kJ/mol
# Density = 2.180598 g / cm^3
# Si number density = 21.855729 Si / 1000 Ang^3
#
#
#
# Elastic Constant Matrix: (Units=GPa)
#
#
# Indices 1 2 3 4 5 6 
#
# 1 52.9024 26.3271 16.9508 0.0000 0.0000 0.0000
# 2 26.3271 168.1768 52.7011 0.0000 0.0000 0.0000
# 3 16.9508 52.7011 112.2089 0.0000 0.0000 0.0000
# 4 0.0000 0.0000 0.0000 44.6613 0.0000 0.0000
# 5 0.0000 0.0000 0.0000 0.0000 14.3442 0.0000
# 6 0.0000 0.0000 0.0000 0.0000 0.0000 3.0150
#
#
#
# Elastic Compliance Matrix: (Units=1/GPa)
#
#
# Indices 1 2 3 4 5 6 
#
# 1 0.020838 -0.002668 -0.001895 0.000000 0.000000 0.000000
# 2 -0.002668 0.007314 -0.003032 0.000000 0.000000 0.000000
# 3 -0.001895 -0.003032 0.010622 0.000000 0.000000 0.000000
# 4 0.000000 0.000000 0.000000 0.022391 0.000000 0.000000
# 5 0.000000 0.000000 0.000000 0.000000 0.069714 0.000000
# 6 0.000000 0.000000 0.000000 0.000000 0.000000 0.331671
#
#
# Mechanical properties :
#
#
# Convention : Reuss Voigt Hill
#
# Bulk Modulus (GPa) = 42.40179 58.36068 50.38123
# Shear Modulus (GPa) = 10.29651 28.22473 19.26062
#
# Velocity S-wave (km/s) = 2.17287 3.59752 2.97183
# Velocity P-wave (km/s) = 5.07327 6.63452 5.90571
#
# Compressibility (1/GPa) = 0.02358391
#
# Stress axis : x y z
#
# Youngs Moduli (GPa) = 47.98999 136.72448 94.14223
#
# Poissons Ratio (x) = 0.36482 0.17836
# Poissons Ratio (y) = 0.12805 0.28545
# Poissons Ratio (z) = 0.09092 0.41456
#
# Static dielectric constant tensor:
#      x y z
#    x 3.296600 0.000000 0.000000 
#    y 0.000000 4.758800 0.000000 
#    z 0.000000 0.000000 4.242920 
# 
# 
# High freq. dielectric constant tensor:
#      x y z
#    x 1.779420 0.000000 0.000000 
#    y 0.000000 1.896590 0.000000 
#    z 0.000000 0.000000 1.875790 
# 
# From -- ./inp_files/11409.got.cif
#   From: 2010.03.12/outbox.cif.g09.slc.cpg/sg59_6_cif.got.tgz:11409.got - 2010.04.16 16:29:54.
