data_PCOD8245637
_publ_section_title
;
Structure prediction by ZEFSAII (Michael W. Deem and Ramdas Pophale) SiO2 
 PCOD8245637
Probable space group: P M M N
;
_chemical_formula_sum "Si O2"
_cell_formula_units_Z 48
_cell_length_a 16.454140
_cell_length_b 8.783851
_cell_length_c 16.912347
_cell_angle_alpha 90.000000
_cell_angle_beta 90.000000
_cell_angle_gamma 90.000000
_cell_volume 2444.353589
_symmetry_space_group_name_H-M "P M M N"
_symmetry_group_IT_number 59
_space_group.IT_coordinate_system_code '2'
_symmetry_cell_setting 'orthorhombic'
loop_
_space_group_symop_operation_xyz
x,y,z
1/2-x,1/2-y,z
1/2+x,-y,-z
-x,1/2+y,-z
-x,-y,-z
1/2+x,1/2+y,-z
1/2-x,y,z
x,1/2-y,z
loop_
_atom_site_type_symbol
_atom_site_label
_atom_site_fract_x
_atom_site_fract_y
_atom_site_fract_z
Si Si1 0.107608 0.927709 0.068342
Si Si2 0.250000 0.429145 0.166851
Si Si3 0.577435 0.572833 0.092144
Si Si4 0.654792 0.425234 0.241724
Si Si5 0.925467 0.074529 0.405080
Si Si6 0.750000 0.072337 0.662872
Si Si7 0.610860 0.575019 0.564723
O O1 0.125427 0.750000 0.073095
O O2 0.017384 0.970930 0.097420
O O3 0.169189 0.011625 0.125445
O O4 0.120757 0.981020 0.978286
O O5 0.250000 0.250000 0.162112
O O6 0.250000 0.478501 0.257049
O O7 0.588534 0.750000 0.074174
O O8 0.620387 0.531240 0.173369
O O9 0.750000 0.451837 0.250251
O O10 0.633886 0.250000 0.222595
O O11 0.612957 0.477866 0.322723
O O12 0.904926 0.250000 0.423956
O O13 0.021668 0.048150 0.399804
O O14 0.886056 0.971288 0.472923
O O15 0.750000 0.250000 0.682798
O O16 0.829690 0.032069 0.613403
O O17 0.638272 0.750000 0.572412
#
# Coordination Sequence:
#
# PCOD8245637 Si02
#       7
#     8   4   8   8   8   4   8
#     4  10  22  42  65  90 121 160 202 247 303 364
#     4  12  26  42  64  93 124 157 200 254 306 363
#     4  10  22  40  63  91 121 159 205 251 300 355
#     4  10  22  38  59  88 122 162 205 248 300 359
#     4   9  20  39  62  89 121 162 203 246 303 363
#     4  12  26  42  62  89 124 161 202 252 306 365
#     4  10  21  39  62  91 122 157 203 252 302 360
#
# _framework density 19.637094999999999
#
# number of rings (size 3 to 8) (size 9 to 14) (size 15 to 20)
#    0.000    1.833    0.000    3.000    4.667    3.667 
#    0.000    0.000    0.000    0.000    0.000    0.000 
#    0.000    0.000    0.000    0.000    0.000    0.000 
#
# Total GULP energy -595508.013852 kJ/mol
# GULP energy per Si atom -12406.416955 kJ/mol
# Density = 1.959240 g / cm^3
# Si number density = 19.637095 Si / 1000 Ang^3
#
#
#
# Elastic Constant Matrix: (Units=GPa)
#
#
# Indices 1 2 3 4 5 6 
#
# 1 78.4659 27.3221 52.6503 0.0000 0.0000 0.0000
# 2 27.3221 69.0511 22.5495 0.0000 0.0000 0.0000
# 3 52.6503 22.5495 112.6306 0.0000 0.0000 0.0000
# 4 0.0000 0.0000 0.0000 35.8662 0.0000 0.0000
# 5 0.0000 0.0000 0.0000 0.0000 24.6646 0.0000
# 6 0.0000 0.0000 0.0000 0.0000 0.0000 13.8508
#
#
#
# Elastic Compliance Matrix: (Units=1/GPa)
#
#
# Indices 1 2 3 4 5 6 
#
# 1 0.020206 -0.005254 -0.008394 0.000000 0.000000 0.000000
# 2 -0.005254 0.016861 -0.000920 0.000000 0.000000 0.000000
# 3 -0.008394 -0.000920 0.012986 0.000000 0.000000 0.000000
# 4 0.000000 0.000000 0.000000 0.027881 0.000000 0.000000
# 5 0.000000 0.000000 0.000000 0.000000 0.040544 0.000000
# 6 0.000000 0.000000 0.000000 0.000000 0.000000 0.072198
#
#
# Mechanical properties :
#
#
# Convention : Reuss Voigt Hill
#
# Bulk Modulus (GPa) = 47.80352 51.68792 49.74572
# Shear Modulus (GPa) = 22.04737 25.38472 23.71604
#
# Velocity S-wave (km/s) = 3.35437 3.59930 3.47899
# Velocity P-wave (km/s) = 6.27684 6.60697 6.44402
#
# Compressibility (1/GPa) = 0.02091896
#
# Stress axis : x y z
#
# Youngs Moduli (GPa) = 49.49052 59.30747 77.00393
#
# Poissons Ratio (x) = 0.31160 0.64634
# Poissons Ratio (y) = 0.26003 0.07082
# Poissons Ratio (z) = 0.41540 0.05454
#
# Static dielectric constant tensor:
#      x y z
#    x 3.666460 0.000000 0.000000 
#    y 0.000000 3.666330 0.000000 
#    z 0.000000 0.000000 3.623580 
# 
# 
# High freq. dielectric constant tensor:
#      x y z
#    x 1.772760 0.000000 0.000000 
#    y 0.000000 1.771480 0.000000 
#    z 0.000000 0.000000 1.772850 
# 
# From -- ./inp_files/27430.got.cif
#   From: 2010.03.12/outbox.cif.g09.slc.cpg/sg59_14_cif.got.tgz:27430.got - 2010.04.16 16:29:54.
