data_PCOD8245178
_publ_section_title
;
Structure prediction by ZEFSAII (Michael W. Deem and Ramdas Pophale) SiO2 
 PCOD8245178
Probable space group: P M M N
;
_chemical_formula_sum "Si O2"
_cell_formula_units_Z 56
_cell_length_a 14.594007
_cell_length_b 8.807408
_cell_length_c 22.300051
_cell_angle_alpha 90.000000
_cell_angle_beta 90.000000
_cell_angle_gamma 90.000000
_cell_volume 2866.345396
_symmetry_space_group_name_H-M "P M M N"
_symmetry_group_IT_number 59
_space_group.IT_coordinate_system_code '2'
_symmetry_cell_setting 'orthorhombic'
loop_
_space_group_symop_operation_xyz
x,y,z
1/2-x,1/2-y,z
1/2+x,-y,-z
-x,1/2+y,-z
-x,-y,-z
1/2+x,1/2+y,-z
1/2-x,y,z
x,1/2-y,z
loop_
_atom_site_type_symbol
_atom_site_label
_atom_site_fract_x
_atom_site_fract_y
_atom_site_fract_z
Si Si1 0.978681 0.929385 0.715943
Si Si2 0.646832 0.571408 0.606973
Si Si3 0.750000 0.571292 0.888130
Si Si4 0.435586 0.570647 0.158635
Si Si5 0.359163 0.918417 0.511421
Si Si6 0.149223 0.569879 0.641335
Si Si7 0.949722 0.072987 0.056469
Si Si8 0.750000 0.423168 0.013750
O O1 0.969016 0.750000 0.729766
O O2 0.909840 0.984601 0.664201
O O3 0.080655 0.973907 0.694506
O O4 0.958433 0.028178 0.773759
O O5 0.750000 0.508871 0.614793
O O6 0.644924 0.750000 0.604119
O O7 0.601885 0.514547 0.544557
O O8 0.750000 0.750000 0.877067
O O9 0.838668 0.500468 0.857858
O O10 0.750000 0.538172 0.958589
O O11 0.430377 0.750000 0.150224
O O12 0.515689 0.505584 0.116765
O O13 0.250000 0.915609 0.508873
O O14 0.400082 0.750000 0.504767
O O15 0.386379 0.990947 0.576272
O O16 0.250000 0.504306 0.657448
O O17 0.154645 0.750000 0.633983
O O18 0.974924 0.250000 0.058139
O O19 0.840314 0.047205 0.053431
O O20 0.000000 0.000000 0.000000
O O21 0.750000 0.250000 0.989129
#
# Coordination Sequence:
#
# PCOD8245178 Si02
#       8
#     8   8   4   8   8   8   8   4
#     4  10  21  37  56  78 107 149 199 241 287 348
#     4   9  18  31  47  73 108 142 178 229 288 348
#     4  12  24  40  68  96 122 158 199 238 291 352
#     4  12  26  43  61  88 126 162 199 245 294 355
#     4   8  14  27  49  75 102 136 179 229 288 350
#     4   8  15  31  55  79 103 137 187 245 296 347
#     4  11  22  40  66  96 128 163 201 248 296 345
#     4  10  22  40  66  98 130 158 197 246 295 346
#
# _framework density 19.537072999999999
#
# number of rings (size 3 to 8) (size 9 to 14) (size 15 to 20)
#    0.000    2.143    1.429    3.214    1.000    1.714 
#    1.286    0.714    0.000    0.857    0.000    0.000 
#    0.000    0.000    0.000    0.000    0.000    0.000 
#
# Total GULP energy -694282.452202 kJ/mol
# GULP energy per Si atom -12397.900932 kJ/mol
# Density = 1.949261 g / cm^3
# Si number density = 19.537073 Si / 1000 Ang^3
#
#
#
# Elastic Constant Matrix: (Units=GPa)
#
#
# Indices 1 2 3 4 5 6 
#
# 1 122.7947 47.7495 62.6842 0.0000 0.0000 0.0000
# 2 47.7495 91.8969 51.9098 0.0000 0.0000 0.0000
# 3 62.6842 51.9098 129.9864 0.0000 0.0000 0.0000
# 4 0.0000 0.0000 0.0000 32.1625 0.0000 0.0000
# 5 0.0000 0.0000 0.0000 0.0000 35.1020 0.0000
# 6 0.0000 0.0000 0.0000 0.0000 0.0000 20.3446
#
#
#
# Elastic Compliance Matrix: (Units=1/GPa)
#
#
# Indices 1 2 3 4 5 6 
#
# 1 0.011721 -0.003741 -0.004158 0.000000 0.000000 0.000000
# 2 -0.003741 0.015246 -0.004284 0.000000 0.000000 0.000000
# 3 -0.004158 -0.004284 0.011409 0.000000 0.000000 0.000000
# 4 0.000000 0.000000 0.000000 0.031092 0.000000 0.000000
# 5 0.000000 0.000000 0.000000 0.000000 0.028488 0.000000
# 6 0.000000 0.000000 0.000000 0.000000 0.000000 0.049153
#
#
# Mechanical properties :
#
#
# Convention : Reuss Voigt Hill
#
# Bulk Modulus (GPa) = 71.38477 74.37391 72.87934
# Shear Modulus (GPa) = 28.38534 29.67744 29.03139
#
# Velocity S-wave (km/s) = 3.81582 3.90170 3.85900
# Velocity P-wave (km/s) = 7.48541 7.64516 7.56571
#
# Compressibility (1/GPa) = 0.01400859
#
# Stress axis : x y z
#
# Youngs Moduli (GPa) = 85.31483 65.59189 87.64829
#
# Poissons Ratio (x) = 0.24541 0.36447
# Poissons Ratio (y) = 0.31920 0.37549
# Poissons Ratio (z) = 0.35476 0.28100
#
# Static dielectric constant tensor:
#      x y z
#    x 3.685030 0.000000 0.000000 
#    y 0.000000 3.491210 0.000000 
#    z 0.000000 0.000000 3.669270 
# 
# 
# High freq. dielectric constant tensor:
#      x y z
#    x 1.768080 0.000000 0.000000 
#    y 0.000000 1.741150 0.000000 
#    z 0.000000 0.000000 1.761540 
# 
# From -- ./inp_files/30439.got.cif
#   From: 2010.03.12/outbox.cif.g09.slc.cpg/sg59_16_cif.got.tgz:30439.got - 2010.04.16 16:29:54.
