data_PCOD8245712
_publ_section_title
;
Structure prediction by ZEFSAII (Michael W. Deem and Ramdas Pophale) SiO2 
 PCOD8245712
Probable space group: P M M N
;
_chemical_formula_sum "Si O2"
_cell_formula_units_Z 48
_cell_length_a 31.674410
_cell_length_b 8.721496
_cell_length_c 9.230545
_cell_angle_alpha 90.000000
_cell_angle_beta 90.000000
_cell_angle_gamma 90.000000
_cell_volume 2549.921812
_symmetry_space_group_name_H-M "P M M N"
_symmetry_group_IT_number 59
_space_group.IT_coordinate_system_code '2'
_symmetry_cell_setting 'orthorhombic'
loop_
_space_group_symop_operation_xyz
x,y,z
1/2-x,1/2-y,z
1/2+x,-y,-z
-x,1/2+y,-z
-x,-y,-z
1/2+x,1/2+y,-z
1/2-x,y,z
x,1/2-y,z
loop_
_atom_site_type_symbol
_atom_site_label
_atom_site_fract_x
_atom_site_fract_y
_atom_site_fract_z
Si Si1 0.705787 0.578580 0.079574
Si Si2 0.038086 0.069374 0.087563
Si Si3 0.616244 0.933626 0.099559
Si Si4 0.296291 0.078100 0.576449
Si Si5 0.617418 0.069358 0.414785
Si Si6 0.460072 0.432042 0.417959
O O1 0.750000 0.493546 0.030909
O O2 0.708073 0.750000 0.016858
O O3 0.661140 0.504047 0.031921
O O4 0.704115 0.583378 0.251772
O O5 0.034675 0.250000 0.078373
O O6 0.036853 0.012529 0.252146
O O7 0.081154 0.011982 0.013099
O O8 0.000000 0.000000 0.000000
O O9 0.617936 0.750000 0.120149
O O10 0.607446 0.007832 0.254754
O O11 0.250000 0.016691 0.521973
O O12 0.303522 0.250000 0.515713
O O13 0.335482 0.972321 0.527010
O O14 0.611836 0.250000 0.415359
O O15 0.583665 0.994903 0.521357
O O16 0.500000 0.500000 0.500000
O O17 0.460690 0.250000 0.432275
#
# Coordination Sequence:
#
# PCOD8245712 Si02
#       6
#     8   8   8   8   8   8
#     4   7  10  19  40  69  96 122 155 194 237 286
#     4  10  22  37  55  76  99 128 165 210 258 309
#     4   9  17  32  52  74 101 133 167 208 256 301
#     4   8  14  27  48  73 102 138 177 216 257 298
#     4  11  21  32  50  79 110 141 175 211 255 306
#     4  11  23  39  56  76 102 134 173 215 260 312
#
# _framework density 18.824104999999999
#
# number of rings (size 3 to 8) (size 9 to 14) (size 15 to 20)
#    0.000    2.667    0.000    5.000    0.000    5.000 
#    0.000    0.000    0.000    1.000    0.000    4.667 
#    0.000    2.667    0.000    0.000    0.000    0.000 
#
# Total GULP energy -594626.356894 kJ/mol
# GULP energy per Si atom -12388.049102 kJ/mol
# Density = 1.878126 g / cm^3
# Si number density = 18.824105 Si / 1000 Ang^3
#
#
#
# Elastic Constant Matrix: (Units=GPa)
#
#
# Indices 1 2 3 4 5 6 
#
# 1 211.9311 42.7755 84.2242 0.0000 0.0000 0.0000
# 2 42.7755 59.4467 34.1886 0.0000 0.0000 0.0000
# 3 84.2242 34.1886 100.7882 0.0000 0.0000 0.0000
# 4 0.0000 0.0000 0.0000 17.9725 0.0000 0.0000
# 5 0.0000 0.0000 0.0000 0.0000 24.5486 0.0000
# 6 0.0000 0.0000 0.0000 0.0000 0.0000 29.9002
#
#
#
# Elastic Compliance Matrix: (Units=1/GPa)
#
#
# Indices 1 2 3 4 5 6 
#
# 1 0.007282 -0.002162 -0.005352 0.000000 0.000000 0.000000
# 2 -0.002162 0.021541 -0.005500 0.000000 0.000000 0.000000
# 3 -0.005352 -0.005500 0.016260 0.000000 0.000000 0.000000
# 4 0.000000 0.000000 0.000000 0.055641 0.000000 0.000000
# 5 0.000000 0.000000 0.000000 0.000000 0.040735 0.000000
# 6 0.000000 0.000000 0.000000 0.000000 0.000000 0.033445
#
#
# Mechanical properties :
#
#
# Convention : Reuss Voigt Hill
#
# Bulk Modulus (GPa) = 52.48119 77.17141 64.82630
# Shear Modulus (GPa) = 24.12175 28.54943 26.33559
#
# Velocity S-wave (km/s) = 3.58359 3.89863 3.74443
# Velocity P-wave (km/s) = 6.71291 7.83268 7.29431
#
# Compressibility (1/GPa) = 0.01905445
#
# Stress axis : x y z
#
# Youngs Moduli (GPa) = 137.33126 46.42387 61.50166
#
# Poissons Ratio (x) = 0.10036 0.32914
# Poissons Ratio (y) = 0.29688 0.33828
# Poissons Ratio (z) = 0.73495 0.25535
#
# Static dielectric constant tensor:
#      x y z
#    x 4.349220 0.000000 0.000000 
#    y 0.000000 3.252780 0.000000 
#    z 0.000000 0.000000 3.073770 
# 
# 
# High freq. dielectric constant tensor:
#      x y z
#    x 1.767530 0.000000 0.000000 
#    y 0.000000 1.702640 0.000000 
#    z 0.000000 0.000000 1.687930 
# 
# From -- ./inp_files/12968.got.cif
#   From: 2010.03.12/outbox.cif.g09.slc.cpg/sg59_7_cif.got.tgz:12968.got - 2010.04.16 16:29:54.
