data_PCOD8245429
_publ_section_title
;
Structure prediction by ZEFSAII (Michael W. Deem and Ramdas Pophale) SiO2 
 PCOD8245429
Probable space group: P M M N
;
_chemical_formula_sum "Si O2"
_cell_formula_units_Z 56
_cell_length_a 14.674857
_cell_length_b 15.103488
_cell_length_c 13.893724
_cell_angle_alpha 90.000000
_cell_angle_beta 90.000000
_cell_angle_gamma 90.000000
_cell_volume 3079.426198
_symmetry_space_group_name_H-M "P M M N"
_symmetry_group_IT_number 59
_space_group.IT_coordinate_system_code '2'
_symmetry_cell_setting 'orthorhombic'
loop_
_space_group_symop_operation_xyz
x,y,z
1/2-x,1/2-y,z
1/2+x,-y,-z
-x,1/2+y,-z
-x,-y,-z
1/2+x,1/2+y,-z
1/2-x,y,z
x,1/2-y,z
loop_
_atom_site_type_symbol
_atom_site_label
_atom_site_fract_x
_atom_site_fract_y
_atom_site_fract_z
Si Si1 0.450046 0.512576 0.598713
Si Si2 0.144316 0.148398 0.082848
Si Si3 0.852767 0.931980 0.123718
Si Si4 0.356362 0.846189 0.487087
Si Si5 0.647412 0.654273 0.322001
Si Si6 0.143197 0.853727 0.271391
Si Si7 0.028847 0.488634 0.202183
O O1 0.500000 0.500000 0.500000
O O2 0.377027 0.589025 0.575836
O O3 0.404795 0.419529 0.620393
O O4 0.511623 0.543066 0.688247
O O5 0.250000 0.138291 0.109470
O O6 0.112701 0.250000 0.093664
O O7 0.087593 0.088063 0.155026
O O8 0.125131 0.117281 0.974780
O O9 0.750000 0.975198 0.121185
O O10 0.856615 0.859647 0.207679
O O11 0.932116 0.003879 0.145381
O O12 0.250000 0.835599 0.476464
O O13 0.399542 0.750000 0.510536
O O14 0.389824 0.877443 0.380490
O O15 0.750000 0.652901 0.359694
O O16 0.602783 0.750000 0.343826
O O17 0.250000 0.874934 0.255542
O O18 0.124077 0.750000 0.248315
O O19 0.083317 0.917129 0.201526
#
# Coordination Sequence:
#
# PCOD8245429 Si02
#       7
#     8   8   8   8   8   8   8
#     4  11  21  32  47  75 106 139 172 218 269 316
#     4  10  21  38  58  81 112 149 185 222 272 337
#     4   9  19  36  58  83 109 140 181 229 281 332
#     4   9  18  34  53  69  93 136 184 222 261 313
#     4   9  18  33  53  76 101 132 173 223 272 319
#     4   9  18  33  53  77 104 136 177 225 271 317
#     4  11  21  34  57  82 112 141 185 226 275 323
#
# _framework density 18.185205
#
# number of rings (size 3 to 8) (size 9 to 14) (size 15 to 20)
#    0.000    2.286    1.429    2.571    0.000    6.286 
#    0.000    0.000    0.000    2.143    0.000    0.000 
#    0.000    0.000    0.000    0.000    0.000    0.000 
#
# Total GULP energy -694022.515353 kJ/mol
# GULP energy per Si atom -12393.259203 kJ/mol
# Density = 1.814381 g / cm^3
# Si number density = 18.185205 Si / 1000 Ang^3
#
#
#
# Elastic Constant Matrix: (Units=GPa)
#
#
# Indices 1 2 3 4 5 6 
#
# 1 83.0096 50.7003 54.3654 0.0000 0.0000 0.0000
# 2 50.7003 110.5390 76.5672 0.0000 0.0000 0.0000
# 3 54.3654 76.5672 105.9894 0.0000 0.0000 0.0000
# 4 0.0000 0.0000 0.0000 24.1371 0.0000 0.0000
# 5 0.0000 0.0000 0.0000 0.0000 24.7128 0.0000
# 6 0.0000 0.0000 0.0000 0.0000 0.0000 3.0688
#
#
#
# Elastic Compliance Matrix: (Units=1/GPa)
#
#
# Indices 1 2 3 4 5 6 
#
# 1 0.018954 -0.003922 -0.006889 0.000000 0.000000 0.000000
# 2 -0.003922 0.018919 -0.011655 0.000000 0.000000 0.000000
# 3 -0.006889 -0.011655 0.021388 0.000000 0.000000 0.000000
# 4 0.000000 0.000000 0.000000 0.041430 0.000000 0.000000
# 5 0.000000 0.000000 0.000000 0.000000 0.040465 0.000000
# 6 0.000000 0.000000 0.000000 0.000000 0.000000 0.325865
#
#
# Mechanical properties :
#
#
# Convention : Reuss Voigt Hill
#
# Bulk Modulus (GPa) = 69.78943 73.64489 71.71716
# Shear Modulus (GPa) = 9.67625 18.24408 13.96017
#
# Velocity S-wave (km/s) = 2.30922 3.17083 2.77368
# Velocity P-wave (km/s) = 6.75058 7.34783 7.05553
#
# Compressibility (1/GPa) = 0.01432882
#
# Stress axis : x y z
#
# Youngs Moduli (GPa) = 52.75968 52.85795 46.75425
#
# Poissons Ratio (x) = 0.20729 0.32209
# Poissons Ratio (y) = 0.20690 0.54494
# Poissons Ratio (z) = 0.36346 0.61608
#
# Static dielectric constant tensor:
#      x y z
#    x 3.553770 0.000000 0.000000 
#    y 0.000000 3.222000 0.000000 
#    z 0.000000 0.000000 -1.863740 
# 
# 
# High freq. dielectric constant tensor:
#      x y z
#    x 1.714680 0.000000 0.000000 
#    y 0.000000 1.695420 0.000000 
#    z 0.000000 0.000000 1.691600 
# 
# From -- ./inp_files/16969.got.cif
#   From: 2010.03.12/outbox.cif.g09.slc.cpg/sg59_9_cif.got.tgz:16969.got - 2010.04.16 16:29:54.
