data_PCOD8245488
_publ_section_title
;
Structure prediction by ZEFSAII (Michael W. Deem and Ramdas Pophale) SiO2 
 PCOD8245488
Probable space group: P M M N
;
_chemical_formula_sum "Si O2"
_cell_formula_units_Z 48
_cell_length_a 15.448313
_cell_length_b 13.513047
_cell_length_c 11.694841
_cell_angle_alpha 90.000000
_cell_angle_beta 90.000000
_cell_angle_gamma 90.000000
_cell_volume 2441.342261
_symmetry_space_group_name_H-M "P M M N"
_symmetry_group_IT_number 59
_space_group.IT_coordinate_system_code '2'
_symmetry_cell_setting 'orthorhombic'
loop_
_space_group_symop_operation_xyz
x,y,z
1/2-x,1/2-y,z
1/2+x,-y,-z
-x,1/2+y,-z
-x,-y,-z
1/2+x,1/2+y,-z
1/2-x,y,z
x,1/2-y,z
loop_
_atom_site_type_symbol
_atom_site_label
_atom_site_fract_x
_atom_site_fract_y
_atom_site_fract_z
Si Si1 0.516546 0.864133 0.786748
Si Si2 0.649725 0.360087 0.730695
Si Si3 0.849199 0.482976 0.185138
Si Si4 0.581433 0.970163 0.571567
Si Si5 0.847617 0.985779 0.917570
Si Si6 0.151452 0.359050 0.635068
O O1 0.519384 0.750000 0.809314
O O2 0.415818 0.894703 0.791814
O O3 0.557470 0.888929 0.664923
O O4 0.577460 0.910075 0.884178
O O5 0.750000 0.347220 0.708912
O O6 0.606432 0.250000 0.727689
O O7 0.615773 0.429394 0.628754
O O8 0.631907 0.409814 0.854603
O O9 0.750000 0.454490 0.221390
O O10 0.886144 0.575384 0.259963
O O11 0.852041 0.506639 0.052469
O O12 0.647589 0.917788 0.484861
O O13 0.500000 0.000000 0.500000
O O14 0.750000 0.950729 0.881016
O O15 0.250000 0.340648 0.664863
O O16 0.105433 0.250000 0.629728
#
# Coordination Sequence:
#
# PCOD8245488 Si02
#       6
#     8   8   8   8   8   8
#     4  11  23  38  58  88 120 155 200 243 295 352
#     4   9  19  36  59  85 110 145 192 237 287 348
#     4  10  21  40  61  86 121 159 198 242 294 351
#     4  11  21  38  56  80 117 151 190 242 291 344
#     4   9  20  39  62  87 120 154 193 247 299 349
#     4  10  21  38  60  84 113 154 200 243 294 355
#
# _framework density 19.661315999999999
#
# number of rings (size 3 to 8) (size 9 to 14) (size 15 to 20)
#    0.000    2.000    1.667    1.500    0.000    4.000 
#    0.000    3.333    0.000    0.000    0.000    0.000 
#    0.000    0.000    0.000    0.000    0.000    0.000 
#
# Total GULP energy -594893.395794 kJ/mol
# GULP energy per Si atom -12393.612412 kJ/mol
# Density = 1.961657 g / cm^3
# Si number density = 19.661316 Si / 1000 Ang^3
#
#
#
# Elastic Constant Matrix: (Units=GPa)
#
#
# Indices 1 2 3 4 5 6 
#
# 1 67.0741 57.7792 23.2941 0.0000 0.0000 0.0000
# 2 57.7792 165.3634 58.3958 0.0000 0.0000 0.0000
# 3 23.2941 58.3958 121.9488 0.0000 0.0000 0.0000
# 4 0.0000 0.0000 0.0000 11.0638 0.0000 0.0000
# 5 0.0000 0.0000 0.0000 0.0000 28.4070 0.0000
# 6 0.0000 0.0000 0.0000 0.0000 0.0000 26.4413
#
#
#
# Elastic Compliance Matrix: (Units=1/GPa)
#
#
# Indices 1 2 3 4 5 6 
#
# 1 0.021366 -0.007250 -0.000609 0.000000 0.000000 0.000000
# 2 -0.007250 0.009738 -0.003278 0.000000 0.000000 0.000000
# 3 -0.000609 -0.003278 0.009886 0.000000 0.000000 0.000000
# 4 0.000000 0.000000 0.000000 0.090385 0.000000 0.000000
# 5 0.000000 0.000000 0.000000 0.000000 0.035203 0.000000
# 6 0.000000 0.000000 0.000000 0.000000 0.000000 0.037820
#
#
# Mechanical properties :
#
#
# Convention : Reuss Voigt Hill
#
# Bulk Modulus (GPa) = 53.43376 70.36937 61.90157
# Shear Modulus (GPa) = 21.46732 27.51023 24.48878
#
# Velocity S-wave (km/s) = 3.30791 3.74465 3.53304
# Velocity P-wave (km/s) = 6.46729 7.38682 6.94229
#
# Compressibility (1/GPa) = 0.01871476
#
# Stress axis : x y z
#
# Youngs Moduli (GPa) = 46.80323 102.68768 101.14897
#
# Poissons Ratio (x) = 0.74451 0.06164
# Poissons Ratio (y) = 0.33933 0.33160
# Poissons Ratio (z) = 0.02852 0.33664
#
# Static dielectric constant tensor:
#      x y z
#    x 3.777960 0.000000 0.000000 
#    y 0.000000 3.353040 0.000000 
#    z 0.000000 0.000000 4.058020 
# 
# 
# High freq. dielectric constant tensor:
#      x y z
#    x 1.771300 0.000000 0.000000 
#    y 0.000000 1.758550 0.000000 
#    z 0.000000 0.000000 1.773990 
# 
# From -- ./inp_files/16845.got.cif
#   From: 2010.03.12/outbox.cif.g09.slc.cpg/sg59_9_cif.got.tgz:16845.got - 2010.04.16 16:29:54.
