data_PCOD8245308
_publ_section_title
;
Structure prediction by ZEFSAII (Michael W. Deem and Ramdas Pophale) SiO2 
 PCOD8245308
Probable space group: P M M N
;
_chemical_formula_sum "Si O2"
_cell_formula_units_Z 64
_cell_length_a 31.232455
_cell_length_b 8.900972
_cell_length_c 11.962601
_cell_angle_alpha 90.000000
_cell_angle_beta 90.000000
_cell_angle_gamma 90.000000
_cell_volume 3325.593597
_symmetry_space_group_name_H-M "P M M N"
_symmetry_group_IT_number 59
_space_group.IT_coordinate_system_code '2'
_symmetry_cell_setting 'orthorhombic'
loop_
_space_group_symop_operation_xyz
x,y,z
1/2-x,1/2-y,z
1/2+x,-y,-z
-x,1/2+y,-z
-x,-y,-z
1/2+x,1/2+y,-z
1/2-x,y,z
x,1/2-y,z
loop_
_atom_site_type_symbol
_atom_site_label
_atom_site_fract_x
_atom_site_fract_y
_atom_site_fract_z
Si Si1 0.365631 0.074422 0.584991
Si Si2 0.377635 0.576897 0.120294
Si Si3 0.702755 0.071436 0.016041
Si Si4 0.395840 0.577324 0.368951
Si Si5 0.984921 0.926216 0.613590
Si Si6 0.055991 0.077504 0.742310
Si Si7 0.546289 0.576052 0.005304
Si Si8 0.299617 0.919302 0.731614
O O1 0.366792 0.250000 0.558184
O O2 0.404637 0.025783 0.665400
O O3 0.366793 0.983172 0.469558
O O4 0.322077 0.032709 0.646909
O O5 0.383407 0.750000 0.085239
O O6 0.334974 0.507151 0.062846
O O7 0.370266 0.560562 0.252901
O O8 0.420796 0.492956 0.083433
O O9 0.750000 0.009421 0.979964
O O10 0.704297 0.250000 0.009510
O O11 0.692627 0.021558 0.142642
O O12 0.408389 0.750000 0.391828
O O13 0.437617 0.476894 0.357739
O O14 0.985930 0.750000 0.597788
O O15 0.000000 0.000000 0.500000
O O16 0.015289 0.974881 0.714968
O O17 0.043898 0.250000 0.717676
O O18 0.067164 0.053563 0.872139
O O19 0.540023 0.750000 0.976097
O O20 0.500000 0.500000 0.000000
O O21 0.250000 0.921107 0.701593
O O22 0.317877 0.750000 0.717904
#
# Coordination Sequence:
#
# PCOD8245308 Si02
#       8
#     8   8   8   8   8   8   8   8
#     4  11  22  36  56  80 108 144 184 227 277 329
#     4  10  21  37  58  84 115 151 191 238 289 340
#     4   8  15  32  60  90 115 143 183 230 281 338
#     4  11  23  38  55  79 113 151 191 236 281 332
#     4  12  23  36  56  80 107 145 189 234 282 333
#     4  10  22  38  55  79 110 143 183 231 280 329
#     4  11  23  38  56  80 113 150 189 235 284 340
#     4   9  18  34  58  86 114 142 175 222 278 335
#
# _framework density 19.244686000000002
#
# number of rings (size 3 to 8) (size 9 to 14) (size 15 to 20)
#    0.000    1.750    1.250    4.500    0.000    5.750 
#    0.000    0.625    0.000    3.375    0.000    0.000 
#    0.000    0.000    0.000    0.000    0.000    0.000 
#
# Total GULP energy -793743.792833 kJ/mol
# GULP energy per Si atom -12402.246763 kJ/mol
# Density = 1.920088 g / cm^3
# Si number density = 19.244686 Si / 1000 Ang^3
#
#
#
# Elastic Constant Matrix: (Units=GPa)
#
#
# Indices 1 2 3 4 5 6 
#
# 1 105.8984 34.5910 52.7191 0.0000 0.0000 0.0000
# 2 34.5910 88.8797 42.3149 0.0000 0.0000 0.0000
# 3 52.7191 42.3149 111.7896 0.0000 0.0000 0.0000
# 4 0.0000 0.0000 0.0000 24.6286 0.0000 0.0000
# 5 0.0000 0.0000 0.0000 0.0000 32.7573 0.0000
# 6 0.0000 0.0000 0.0000 0.0000 0.0000 27.1135
#
#
#
# Elastic Compliance Matrix: (Units=1/GPa)
#
#
# Indices 1 2 3 4 5 6 
#
# 1 0.012805 -0.002572 -0.005065 0.000000 0.000000 0.000000
# 2 -0.002572 0.014241 -0.004178 0.000000 0.000000 0.000000
# 3 -0.005065 -0.004178 0.012915 0.000000 0.000000 0.000000
# 4 0.000000 0.000000 0.000000 0.040603 0.000000 0.000000
# 5 0.000000 0.000000 0.000000 0.000000 0.030528 0.000000
# 6 0.000000 0.000000 0.000000 0.000000 0.000000 0.036882
#
#
# Mechanical properties :
#
#
# Convention : Reuss Voigt Hill
#
# Bulk Modulus (GPa) = 61.23043 62.86863 62.04953
# Shear Modulus (GPa) = 28.24108 28.69606 28.46857
#
# Velocity S-wave (km/s) = 3.83492 3.86569 3.85033
# Velocity P-wave (km/s) = 7.17598 7.25697 7.21659
#
# Compressibility (1/GPa) = 0.01633175
#
# Stress axis : x y z
#
# Youngs Moduli (GPa) = 78.09670 70.21928 77.42742
#
# Poissons Ratio (x) = 0.18061 0.39217
# Poissons Ratio (y) = 0.20087 0.32346
# Poissons Ratio (z) = 0.39556 0.29335
#
# Static dielectric constant tensor:
#      x y z
#    x 3.572860 0.000000 0.000000 
#    y 0.000000 3.487910 0.000000 
#    z 0.000000 0.000000 3.158560 
# 
# 
# High freq. dielectric constant tensor:
#      x y z
#    x 1.741880 0.000000 0.000000 
#    y 0.000000 1.739060 0.000000 
#    z 0.000000 0.000000 1.754730 
# 
# From -- ./inp_files/19307.got.cif
#   From: 2010.03.12/outbox.cif.g09.slc.cpg/sg59_10_cif.got.tgz:19307.got - 2010.04.16 16:29:54.
