data_PCOD8245413
_publ_section_title
;
Structure prediction by ZEFSAII (Michael W. Deem and Ramdas Pophale) SiO2 
 PCOD8245413
Probable space group: P M M N
;
_chemical_formula_sum "Si O2"
_cell_formula_units_Z 64
_cell_length_a 17.497860
_cell_length_b 8.948998
_cell_length_c 22.958480
_cell_angle_alpha 90.000000
_cell_angle_beta 90.000000
_cell_angle_gamma 90.000000
_cell_volume 3595.029679
_symmetry_space_group_name_H-M "P M M N"
_symmetry_group_IT_number 59
_space_group.IT_coordinate_system_code '2'
_symmetry_cell_setting 'orthorhombic'
loop_
_space_group_symop_operation_xyz
x,y,z
1/2-x,1/2-y,z
1/2+x,-y,-z
-x,1/2+y,-z
-x,-y,-z
1/2+x,1/2+y,-z
1/2-x,y,z
x,1/2-y,z
loop_
_atom_site_type_symbol
_atom_site_label
_atom_site_fract_x
_atom_site_fract_y
_atom_site_fract_z
Si Si1 0.477247 0.422724 0.742911
Si Si2 0.660516 0.575815 0.543688
Si Si3 0.070737 0.422622 0.029720
Si Si4 0.336500 0.925811 0.940841
Si Si5 0.476898 0.921559 0.862978
Si Si6 0.335218 0.421563 0.670626
Si Si7 0.054047 0.573463 0.375498
Si Si8 0.908978 0.072845 0.432148
O O1 0.480139 0.250000 0.757722
O O2 0.496778 0.505662 0.801861
O O3 0.392733 0.470842 0.721541
O O4 0.537708 0.463991 0.692238
O O5 0.750000 0.547490 0.539240
O O6 0.640384 0.750000 0.537186
O O7 0.631401 0.511873 0.605831
O O8 0.617476 0.479963 0.495164
O O9 0.073558 0.250000 0.012626
O O10 0.054263 0.443710 0.098632
O O11 0.147307 0.500340 0.004552
O O12 0.000000 0.500000 0.000000
O O13 0.250000 0.967502 0.921117
O O14 0.346157 0.750000 0.948957
O O15 0.399401 0.986689 0.894042
O O16 0.460056 0.750000 0.851139
O O17 0.250000 0.439298 0.695379
O O18 0.352812 0.250000 0.651814
O O19 0.344272 0.526079 0.614338
O O20 0.061322 0.750000 0.385291
O O21 0.986768 0.510915 0.416119
O O22 0.921346 0.250000 0.431785
#
# Coordination Sequence:
#
# PCOD8245413 Si02
#       8
#     8   8   8   8   8   8   8   8
#     4   9  19  33  50  72  96 128 169 208 245 287
#     4  11  23  37  54  77 103 129 159 201 255 308
#     4   9  17  30  48  71  98 129 165 201 239 282
#     4   9  18  32  49  73 106 137 163 198 246 292
#     4   9  18  31  48  71  99 131 165 203 244 288
#     4   9  18  33  49  67  98 135 167 204 249 293
#     4  10  21  38  56  74 100 132 167 208 251 294
#     4  11  21  33  52  77 103 131 166 204 245 299
#
# _framework density 17.802357000000001
#
# number of rings (size 3 to 8) (size 9 to 14) (size 15 to 20)
#    0.000    2.375    0.000    4.500    0.000    8.500 
#    0.000    0.000    0.000    0.750    0.000    0.000 
#    0.000    0.000    0.000    0.000    0.000    0.000 
#
# Total GULP energy -793306.899376 kJ/mol
# GULP energy per Si atom -12395.420303 kJ/mol
# Density = 1.776184 g / cm^3
# Si number density = 17.802357 Si / 1000 Ang^3
#
#
#
# Elastic Constant Matrix: (Units=GPa)
#
#
# Indices 1 2 3 4 5 6 
#
# 1 42.3916 26.2990 33.2878 0.0000 0.0000 0.0000
# 2 26.2990 65.0833 41.9043 0.0000 0.0000 0.0000
# 3 33.2878 41.9043 111.2717 0.0000 0.0000 0.0000
# 4 0.0000 0.0000 0.0000 33.1873 0.0000 0.0000
# 5 0.0000 0.0000 0.0000 0.0000 14.5322 0.0000
# 6 0.0000 0.0000 0.0000 0.0000 0.0000 25.9258
#
#
#
# Elastic Compliance Matrix: (Units=1/GPa)
#
#
# Indices 1 2 3 4 5 6 
#
# 1 0.034976 -0.009764 -0.006786 0.000000 0.000000 0.000000
# 2 -0.009764 0.023009 -0.005744 0.000000 0.000000 0.000000
# 3 -0.006786 -0.005744 0.013180 0.000000 0.000000 0.000000
# 4 0.000000 0.000000 0.000000 0.030132 0.000000 0.000000
# 5 0.000000 0.000000 0.000000 0.000000 0.068813 0.000000
# 6 0.000000 0.000000 0.000000 0.000000 0.000000 0.038572
#
#
# Mechanical properties :
#
#
# Convention : Reuss Voigt Hill
#
# Bulk Modulus (GPa) = 37.62701 46.85875 42.24288
# Shear Modulus (GPa) = 19.07466 22.54610 20.81038
#
# Velocity S-wave (km/s) = 3.27688 3.56261 3.42273
# Velocity P-wave (km/s) = 5.95811 6.58040 6.27697
#
# Compressibility (1/GPa) = 0.02657665
#
# Stress axis : x y z
#
# Youngs Moduli (GPa) = 28.59130 43.46212 75.87041
#
# Poissons Ratio (x) = 0.42435 0.51488
# Poissons Ratio (y) = 0.27915 0.43580
# Poissons Ratio (z) = 0.19403 0.24965
#
# Static dielectric constant tensor:
#      x y z
#    x 3.395820 0.000000 0.000000 
#    y 0.000000 3.499800 0.000000 
#    z 0.000000 0.000000 3.404110 
# 
# 
# High freq. dielectric constant tensor:
#      x y z
#    x 1.673420 0.000000 0.000000 
#    y 0.000000 1.693710 0.000000 
#    z 0.000000 0.000000 1.676440 
# 
# From -- ./inp_files/32302.got.cif
#   From: 2010.03.12/outbox.cif.g09.slc.cpg/sg59_17_cif.got.tgz:32302.got - 2010.04.16 16:29:54.
