data_PCOD8245926
_publ_section_title
;
Structure prediction by ZEFSAII (Michael W. Deem and Ramdas Pophale) SiO2 
 PCOD8245926
Probable space group: P M M N
;
_chemical_formula_sum "Si O2"
_cell_formula_units_Z 48
_cell_length_a 10.380413
_cell_length_b 26.817419
_cell_length_c 9.532405
_cell_angle_alpha 90.000000
_cell_angle_beta 90.000000
_cell_angle_gamma 90.000000
_cell_volume 2653.591676
_symmetry_space_group_name_H-M "P M M N"
_symmetry_group_IT_number 59
_space_group.IT_coordinate_system_code '2'
_symmetry_cell_setting 'orthorhombic'
loop_
_space_group_symop_operation_xyz
x,y,z
1/2-x,1/2-y,z
1/2+x,-y,-z
-x,1/2+y,-z
-x,-y,-z
1/2+x,1/2+y,-z
1/2-x,y,z
x,1/2-y,z
loop_
_atom_site_type_symbol
_atom_site_label
_atom_site_fract_x
_atom_site_fract_y
_atom_site_fract_z
Si Si1 0.994627 0.093350 0.038644
Si Si2 0.250000 0.966740 0.857546
Si Si3 0.894496 0.304657 0.700153
Si Si4 0.750000 0.958354 0.910351
Si Si5 0.250000 0.035159 0.610319
Si Si6 0.750000 0.028463 0.655975
Si Si7 0.893889 0.196135 0.032520
Si Si8 0.503169 0.408818 0.703620
O O1 0.876530 0.063665 0.104433
O O2 0.984213 0.151266 0.083831
O O3 0.124143 0.074999 0.112336
O O4 0.996018 0.085841 0.871721
O O5 0.250000 0.982776 0.695075
O O6 0.250000 0.020292 0.932962
O O7 0.750000 0.312856 0.640204
O O8 0.947311 0.250000 0.649202
O O9 0.986071 0.350681 0.654801
O O10 0.886035 0.304754 0.866378
O O11 0.750000 0.005924 0.810897
O O12 0.373837 0.068963 0.640140
O O13 0.250000 0.018233 0.449311
O O14 0.876422 0.062049 0.637485
O O15 0.750000 0.188259 0.093056
O O16 0.948630 0.250000 0.083694
#
# Coordination Sequence:
#
# PCOD8245926 Si02
#       8
#     8   4   8   4   4   4   8   8
#     4  11  19  32  55  81 102 137 176 216 261 304
#     4  12  20  36  53  75 101 141 178 212 246 305
#     4   8  14  26  49  78 103 130 168 209 255 311
#     4  12  22  34  53  77 105 135 178 216 252 307
#     4  12  26  36  49  77 111 141 176 220 260 304
#     4  12  24  38  53  73 103 151 180 208 258 316
#     4   8  14  26  46  76 108 132 160 206 263 314
#     4  11  19  35  54  77 108 139 171 215 265 305
#
# _framework density 18.08869
#
# number of rings (size 3 to 8) (size 9 to 14) (size 15 to 20)
#    0.000    1.667    5.000    3.000    0.000    0.000 
#    0.000    0.833    0.000    4.000    0.000    7.000 
#    0.000    0.000    0.000    0.000    0.000    0.000 
#
# Total GULP energy -594939.523149 kJ/mol
# GULP energy per Si atom -12394.573399 kJ/mol
# Density = 1.804752 g / cm^3
# Si number density = 18.088690 Si / 1000 Ang^3
#
#
#
# Elastic Constant Matrix: (Units=GPa)
#
#
# Indices 1 2 3 4 5 6 
#
# 1 140.0559 75.2438 11.7870 0.0000 0.0000 0.0000
# 2 75.2438 154.7389 14.2759 0.0000 0.0000 0.0000
# 3 11.7870 14.2759 23.4899 0.0000 0.0000 0.0000
# 4 0.0000 0.0000 0.0000 15.5850 0.0000 0.0000
# 5 0.0000 0.0000 0.0000 0.0000 7.9716 0.0000
# 6 0.0000 0.0000 0.0000 0.0000 0.0000 9.1398
#
#
#
# Elastic Compliance Matrix: (Units=1/GPa)
#
#
# Indices 1 2 3 4 5 6 
#
# 1 0.009765 -0.004551 -0.002134 0.000000 0.000000 0.000000
# 2 -0.004551 0.008968 -0.003166 0.000000 0.000000 0.000000
# 3 -0.002134 -0.003166 0.045567 0.000000 0.000000 0.000000
# 4 0.000000 0.000000 0.000000 0.064164 0.000000 0.000000
# 5 0.000000 0.000000 0.000000 0.000000 0.125446 0.000000
# 6 0.000000 0.000000 0.000000 0.000000 0.000000 0.109411
#
#
# Mechanical properties :
#
#
# Convention : Reuss Voigt Hill
#
# Bulk Modulus (GPa) = 22.42343 57.87755 40.15049
# Shear Modulus (GPa) = 12.56633 21.00448 16.78540
#
# Velocity S-wave (km/s) = 2.63859 3.41133 3.04953
# Velocity P-wave (km/s) = 4.65899 6.89799 5.88593
#
# Compressibility (1/GPa) = 0.04459622
#
# Stress axis : x y z
#
# Youngs Moduli (GPa) = 102.40892 111.51020 21.94591
#
# Poissons Ratio (x) = 0.50753 0.04683
# Poissons Ratio (y) = 0.46610 0.06949
# Poissons Ratio (z) = 0.21852 0.35307
#
# Static dielectric constant tensor:
#      x y z
#    x 3.260470 0.000000 0.000000 
#    y 0.000000 3.902690 0.000000 
#    z 0.000000 0.000000 2.874070 
# 
# 
# High freq. dielectric constant tensor:
#      x y z
#    x 1.691500 0.000000 0.000000 
#    y 0.000000 1.719480 0.000000 
#    z 0.000000 0.000000 1.645890 
# 
# From -- ./inp_files/6473.got.cif
#   From: 2010.03.12/outbox.cif.g09.slc.cpg/sg59_4_cif.got.tgz:6473.got - 2010.04.16 16:29:54.
