data_PCOD8245133
_publ_section_title
;
Structure prediction by ZEFSAII (Michael W. Deem and Ramdas Pophale) SiO2 
 PCOD8245133
Probable space group: P M M N
;
_chemical_formula_sum "Si O2"
_cell_formula_units_Z 48
_cell_length_a 8.998911
_cell_length_b 19.221320
_cell_length_c 15.417764
_cell_angle_alpha 90.000000
_cell_angle_beta 90.000000
_cell_angle_gamma 90.000000
_cell_volume 2666.825255
_symmetry_space_group_name_H-M "P M M N"
_symmetry_group_IT_number 59
_space_group.IT_coordinate_system_code '2'
_symmetry_cell_setting 'orthorhombic'
loop_
_space_group_symop_operation_xyz
x,y,z
1/2-x,1/2-y,z
1/2+x,-y,-z
-x,1/2+y,-z
-x,-y,-z
1/2+x,1/2+y,-z
1/2-x,y,z
x,1/2-y,z
loop_
_atom_site_type_symbol
_atom_site_label
_atom_site_fract_x
_atom_site_fract_y
_atom_site_fract_z
Si Si1 0.585954 0.583644 0.920321
Si Si2 0.421813 0.330030 0.424578
Si Si3 0.414673 0.581415 0.084362
Si Si4 0.926098 0.923862 0.259544
Si Si5 0.420457 0.831911 0.400205
Si Si6 0.574551 0.569971 0.730815
O O1 0.750000 0.615121 0.935026
O O2 0.593001 0.500788 0.926115
O O3 0.526661 0.602806 0.823948
O O4 0.480535 0.614287 0.995544
O O5 0.250000 0.342616 0.448461
O O6 0.451455 0.250000 0.400465
O O7 0.521336 0.354190 0.505202
O O8 0.470943 0.375324 0.342347
O O9 0.250000 0.612401 0.098807
O O10 0.516653 0.601392 0.165762
O O11 0.750000 0.927961 0.257023
O O12 0.977922 0.867684 0.328899
O O13 0.989833 0.998462 0.287311
O O14 0.250000 0.856122 0.390907
O O15 0.437704 0.750000 0.387410
O O16 0.750000 0.553534 0.732227
#
# Coordination Sequence:
#
# PCOD8245133 Si02
#       6
#     8   8   8   8   8   8
#     4   8  14  25  42  66  96 130 164 197 238 287
#     4   9  18  34  55  76  98 128 166 204 243 290
#     4   9  16  27  44  67  97 130 162 199 244 291
#     4  11  21  32  50  75 101 129 164 206 247 289
#     4  10  21  37  55  73  96 128 163 200 246 299
#     4   9  18  32  50  74 104 133 163 203 248 291
#
# _framework density 17.998929
#
# number of rings (size 3 to 8) (size 9 to 14) (size 15 to 20)
#    0.000    2.667    0.000    3.500    0.000    6.333 
#    0.000    0.000    0.000    1.000    0.000    2.333 
#    0.000    0.000    0.000    0.000    0.000    0.000 
#
# Total GULP energy -595122.667403 kJ/mol
# GULP energy per Si atom -12398.388904 kJ/mol
# Density = 1.795796 g / cm^3
# Si number density = 17.998929 Si / 1000 Ang^3
#
#
#
# Elastic Constant Matrix: (Units=GPa)
#
#
# Indices 1 2 3 4 5 6 
#
# 1 107.7538 33.4532 66.0027 0.0000 0.0000 0.0000
# 2 33.4532 37.0509 51.0724 0.0000 0.0000 0.0000
# 3 66.0027 51.0724 152.1976 0.0000 0.0000 0.0000
# 4 0.0000 0.0000 0.0000 -2.5165 0.0000 0.0000
# 5 0.0000 0.0000 0.0000 0.0000 34.0167 0.0000
# 6 0.0000 0.0000 0.0000 0.0000 0.0000 16.8964
#
#
#
# Elastic Compliance Matrix: (Units=1/GPa)
#
#
# Indices 1 2 3 4 5 6 
#
# 1 0.013753 -0.007808 -0.003344 0.000000 0.000000 0.000000
# 2 -0.007808 0.054652 -0.014953 0.000000 0.000000 0.000000
# 3 -0.003344 -0.014953 0.013038 0.000000 0.000000 0.000000
# 4 0.000000 0.000000 0.000000 -0.397371 0.000000 0.000000
# 5 0.000000 0.000000 0.000000 0.000000 0.029397 0.000000
# 6 0.000000 0.000000 0.000000 0.000000 0.000000 0.059184
#
#
# Mechanical properties :
#
#
# Convention : Reuss Voigt Hill
#
# Bulk Modulus (GPa) = 34.20828 66.45100 50.32964
# Shear Modulus (GPa) = -30.23138 19.44423 -5.39358
#
# Velocity S-wave (km/s) = -4.10276 3.29036 -1.73295
# Velocity P-wave (km/s) = 1.84298 7.17181 4.90093
#
# Compressibility (1/GPa) = 0.02923269
#
# Stress axis : x y z
#
# Youngs Moduli (GPa) = 72.71268 18.29760 76.69613
#
# Poissons Ratio (x) = 0.14286 0.25648
# Poissons Ratio (y) = 0.56773 1.14687
# Poissons Ratio (z) = 0.24315 0.27361
#
# Static dielectric constant tensor:
#      x y z
#    x 3.472640 0.000000 0.000000 
#    y 0.000000 2.909390 0.000000 
#    z 0.000000 0.000000 3.643620 
# 
# 
# High freq. dielectric constant tensor:
#      x y z
#    x 1.701560 0.000000 0.000000 
#    y 0.000000 1.648280 0.000000 
#    z 0.000000 0.000000 1.713650 
# 
# From -- ./inp_files/20772.got.cif
#   From: 2010.03.12/outbox.cif.g09.slc.cpg/sg59_11_cif.got.tgz:20772.got - 2010.04.16 16:29:54.
