data_PCOD8245053
_publ_section_title
;
Structure prediction by ZEFSAII (Michael W. Deem and Ramdas Pophale) SiO2 
 PCOD8245053
Probable space group: P M M N
;
_chemical_formula_sum "Si O2"
_cell_formula_units_Z 56
_cell_length_a 20.146951
_cell_length_b 9.522748
_cell_length_c 14.454814
_cell_angle_alpha 90.000000
_cell_angle_beta 90.000000
_cell_angle_gamma 90.000000
_cell_volume 2773.218761
_symmetry_space_group_name_H-M "P M M N"
_symmetry_group_IT_number 59
_space_group.IT_coordinate_system_code '2'
_symmetry_cell_setting 'orthorhombic'
loop_
_space_group_symop_operation_xyz
x,y,z
1/2-x,1/2-y,z
1/2+x,-y,-z
-x,1/2+y,-z
-x,-y,-z
1/2+x,1/2+y,-z
1/2-x,y,z
x,1/2-y,z
loop_
_atom_site_type_symbol
_atom_site_label
_atom_site_fract_x
_atom_site_fract_y
_atom_site_fract_z
Si Si1 0.415061 0.588071 0.850465
Si Si2 0.940511 0.599243 0.495018
Si Si3 0.250000 0.586101 0.366033
Si Si4 0.866528 0.908849 0.671359
Si Si5 0.750000 0.082564 0.416647
Si Si6 0.672031 0.088394 0.969073
Si Si7 0.861656 0.591983 0.316584
Si Si8 0.066103 0.409765 0.143720
O O1 0.416554 0.750000 0.814753
O O2 0.391480 0.479543 0.773602
O O3 0.490353 0.544704 0.882126
O O4 0.360769 0.571117 0.930411
O O5 0.964666 0.750000 0.531904
O O6 0.885755 0.546894 0.567116
O O7 0.919502 0.610710 0.389762
O O8 0.000000 0.500000 0.500000
O O9 0.250000 0.750000 0.351953
O O10 0.189754 0.521613 0.307500
O O11 0.250000 0.543972 0.474716
O O12 0.838037 0.750000 0.673620
O O13 0.926145 0.924649 0.745126
O O14 0.750000 0.250000 0.401717
O O15 0.688740 0.013927 0.364403
O O16 0.750000 0.037644 0.970316
O O17 0.669431 0.250000 0.937602
O O18 0.624886 0.000524 0.901147
O O19 0.833114 0.750000 0.294026
O O20 0.077640 0.250000 0.110937
#
# Coordination Sequence:
#
# PCOD8245053 Si02
#       8
#     8   8   4   8   4   8   8   8
#     4  10  22  42  66  91 124 164 206 252 310 378
#     4  10  21  36  56  82 118 159 199 245 296 353
#     4  11  23  37  57  86 115 156 209 253 298 356
#     4  10  21  38  58  82 119 160 197 245 305 358
#     4  11  23  39  59  84 119 166 211 255 308 366
#     4  10  23  42  64  92 126 161 198 251 315 373
#     4  11  23  38  60  91 123 159 205 256 307 360
#     4  10  22  40  65  93 120 161 210 254 306 370
#
# _framework density 20.193141000000001
#
# number of rings (size 3 to 8) (size 9 to 14) (size 15 to 20)
#    0.000    1.714    1.429    2.143    2.000    5.429 
#    0.000    0.000    0.000    0.000    0.000    0.000 
#    0.000    0.000    0.000    0.000    0.000    0.000 
#
# Total GULP energy -693858.177257 kJ/mol
# GULP energy per Si atom -12390.324594 kJ/mol
# Density = 2.014718 g / cm^3
# Si number density = 20.193141 Si / 1000 Ang^3
#
#
#
# Elastic Constant Matrix: (Units=GPa)
#
#
# Indices 1 2 3 4 5 6 
#
# 1 115.2685 57.4107 20.7147 0.0000 0.0000 0.0000
# 2 57.4107 90.6957 31.9329 0.0000 0.0000 0.0000
# 3 20.7147 31.9329 70.0269 0.0000 0.0000 0.0000
# 4 0.0000 0.0000 0.0000 34.4857 0.0000 0.0000
# 5 0.0000 0.0000 0.0000 0.0000 36.7263 0.0000
# 6 0.0000 0.0000 0.0000 0.0000 0.0000 50.6685
#
#
#
# Elastic Compliance Matrix: (Units=1/GPa)
#
#
# Indices 1 2 3 4 5 6 
#
# 1 0.012671 -0.007982 -0.000108 0.000000 0.000000 0.000000
# 2 -0.007982 0.018164 -0.005922 0.000000 0.000000 0.000000
# 3 -0.000108 -0.005922 0.017012 0.000000 0.000000 0.000000
# 4 0.000000 0.000000 0.000000 0.028997 0.000000 0.000000
# 5 0.000000 0.000000 0.000000 0.000000 0.027228 0.000000
# 6 0.000000 0.000000 0.000000 0.000000 0.000000 0.019736
#
#
# Mechanical properties :
#
#
# Convention : Reuss Voigt Hill
#
# Bulk Modulus (GPa) = 50.44720 55.12310 52.78515
# Shear Modulus (GPa) = 31.55762 35.43830 33.49796
#
# Velocity S-wave (km/s) = 3.95750 4.19378 4.07735
# Velocity P-wave (km/s) = 6.77636 7.12794 6.95437
#
# Compressibility (1/GPa) = 0.01982271
#
# Stress axis : x y z
#
# Youngs Moduli (GPa) = 78.92304 55.05481 58.78053
#
# Poissons Ratio (x) = 0.43947 0.00635
# Poissons Ratio (y) = 0.63000 0.34807
# Poissons Ratio (z) = 0.00852 0.32601
#
# Static dielectric constant tensor:
#      x y z
#    x 3.806770 0.000000 0.000000 
#    y 0.000000 3.720320 0.000000 
#    z 0.000000 0.000000 3.460550 
# 
# 
# High freq. dielectric constant tensor:
#      x y z
#    x 1.790570 0.000000 0.000000 
#    y 0.000000 1.793860 0.000000 
#    z 0.000000 0.000000 1.787300 
# 
# From -- ./inp_files/24359.got.cif
#   From: 2010.03.12/outbox.cif.g09.slc.cpg/sg59_13_cif.got.tgz:24359.got - 2010.04.16 16:29:54.
