data_PCOD8245361
_publ_section_title
;
Structure prediction by ZEFSAII (Michael W. Deem and Ramdas Pophale) SiO2 
 PCOD8245361
Probable space group: P M M N
;
_chemical_formula_sum "Si O2"
_cell_formula_units_Z 48
_cell_length_a 9.602448
_cell_length_b 9.245848
_cell_length_c 27.672802
_cell_angle_alpha 90.000000
_cell_angle_beta 90.000000
_cell_angle_gamma 90.000000
_cell_volume 2456.868144
_symmetry_space_group_name_H-M "P M M N"
_symmetry_group_IT_number 59
_space_group.IT_coordinate_system_code '2'
_symmetry_cell_setting 'orthorhombic'
loop_
_space_group_symop_operation_xyz
x,y,z
1/2-x,1/2-y,z
1/2+x,-y,-z
-x,1/2+y,-z
-x,-y,-z
1/2+x,1/2+y,-z
1/2-x,y,z
x,1/2-y,z
loop_
_atom_site_type_symbol
_atom_site_label
_atom_site_fract_x
_atom_site_fract_y
_atom_site_fract_z
Si Si1 0.093039 0.587815 0.299413
Si Si2 0.593033 0.915380 0.791988
Si Si3 0.581866 0.750000 0.574367
Si Si4 0.497841 0.578028 0.897122
Si Si5 0.411154 0.250000 0.533708
Si Si6 0.250000 0.926936 0.050795
Si Si7 0.082956 0.485669 0.610638
Si Si8 0.750000 0.925001 0.052669
O O1 0.250000 0.533088 0.315071
O O2 0.106934 0.750000 0.281182
O O3 0.032393 0.499252 0.254099
O O4 0.976463 0.585848 0.341086
O O5 0.750000 0.967383 0.803619
O O6 0.591448 0.750000 0.776565
O O7 0.500673 0.940559 0.839381
O O8 0.750000 0.750000 0.577866
O O9 0.520729 0.750000 0.519500
O O10 0.513968 0.878359 0.603684
O O11 0.489533 0.750000 0.910901
O O12 0.624129 0.499046 0.921934
O O13 0.375764 0.479170 0.915606
O O14 0.250000 0.250000 0.523437
O O15 0.453493 0.389427 0.564127
O O16 0.250000 0.750000 0.051902
O O17 0.250000 0.985354 0.996598
O O18 0.250000 0.514260 0.614998
O O19 0.750000 0.750000 0.044767
#
# Coordination Sequence:
#
# PCOD8245361 Si02
#       8
#     8   8   4   8   4   4   8   4
#     4  10  21  37  59  88 118 155 202 254 306 367
#     4   9  19  38  64  91 118 156 204 256 309 364
#     4  11  23  39  61  91 121 161 209 257 300 363
#     4  11  22  42  66  91 125 166 210 264 319 378
#     4   9  20  39  63  87 123 161 203 249 310 369
#     4  12  24  40  66  96 126 168 214 258 315 376
#     4  11  22  40  61  88 124 163 201 253 312 371
#     4  12  26  42  60  92 132 170 210 262 315 382
#
# _framework density 19.537068999999999
#
# number of rings (size 3 to 8) (size 9 to 14) (size 15 to 20)
#    0.000    1.500    1.667    3.750    1.167    1.333 
#    1.500    2.500    0.000    0.000    0.000    0.000 
#    0.000    0.000    0.000    0.000    0.000    0.000 
#
# Total GULP energy -594700.567822 kJ/mol
# GULP energy per Si atom -12389.595163 kJ/mol
# Density = 1.949260 g / cm^3
# Si number density = 19.537069 Si / 1000 Ang^3
#
#
#
# Elastic Constant Matrix: (Units=GPa)
#
#
# Indices 1 2 3 4 5 6 
#
# 1 101.9608 29.0965 27.7741 0.0000 0.0000 0.0000
# 2 29.0965 99.7171 27.1172 0.0000 0.0000 0.0000
# 3 27.7741 27.1172 96.1196 0.0000 0.0000 0.0000
# 4 0.0000 0.0000 0.0000 43.6377 0.0000 0.0000
# 5 0.0000 0.0000 0.0000 0.0000 34.3296 0.0000
# 6 0.0000 0.0000 0.0000 0.0000 0.0000 4.7809
#
#
#
# Elastic Compliance Matrix: (Units=1/GPa)
#
#
# Indices 1 2 3 4 5 6 
#
# 1 0.011233 -0.002594 -0.002514 0.000000 0.000000 0.000000
# 2 -0.002594 0.011461 -0.002484 0.000000 0.000000 0.000000
# 3 -0.002514 -0.002484 0.011831 0.000000 0.000000 0.000000
# 4 0.000000 0.000000 0.000000 0.022916 0.000000 0.000000
# 5 0.000000 0.000000 0.000000 0.000000 0.029129 0.000000
# 6 0.000000 0.000000 0.000000 0.000000 0.000000 0.209167
#
#
# Mechanical properties :
#
#
# Convention : Reuss Voigt Hill
#
# Bulk Modulus (GPa) = 51.70372 51.75257 51.72815
# Shear Modulus (GPa) = 15.75465 30.80361 23.27913
#
# Velocity S-wave (km/s) = 2.84280 3.97504 3.45561
# Velocity P-wave (km/s) = 6.10714 6.90036 6.51583
#
# Compressibility (1/GPa) = 0.01934097
#
# Stress axis : x y z
#
# Youngs Moduli (GPa) = 89.02567 87.25467 84.52489
#
# Poissons Ratio (x) = 0.22633 0.21249
# Poissons Ratio (y) = 0.23093 0.20994
# Poissons Ratio (z) = 0.22380 0.21672
#
# Static dielectric constant tensor:
#      x y z
#    x 3.424440 0.000000 0.000000 
#    y 0.000000 3.878060 0.000000 
#    z 0.000000 0.000000 3.751760 
# 
# 
# High freq. dielectric constant tensor:
#      x y z
#    x 1.753020 0.000000 0.000000 
#    y 0.000000 1.772490 0.000000 
#    z 0.000000 0.000000 1.771740 
# 
# From -- ./inp_files/33114.got.cif
#   From: 2010.03.12/outbox.cif.g09.slc.cpg/sg59_17_cif.got.tgz:33114.got - 2010.04.16 16:29:54.
