data_PCOD8245622
_publ_section_title
;
Structure prediction by ZEFSAII (Michael W. Deem and Ramdas Pophale) SiO2 
 PCOD8245622
Probable space group: P M M N
;
_chemical_formula_sum "Si O2"
_cell_formula_units_Z 64
_cell_length_a 18.091711
_cell_length_b 19.427935
_cell_length_c 9.239299
_cell_angle_alpha 90.000000
_cell_angle_beta 90.000000
_cell_angle_gamma 90.000000
_cell_volume 3247.471178
_symmetry_space_group_name_H-M "P M M N"
_symmetry_group_IT_number 59
_space_group.IT_coordinate_system_code '2'
_symmetry_cell_setting 'orthorhombic'
loop_
_space_group_symop_operation_xyz
x,y,z
1/2-x,1/2-y,z
1/2+x,-y,-z
-x,1/2+y,-z
-x,-y,-z
1/2+x,1/2+y,-z
1/2-x,y,z
x,1/2-y,z
loop_
_atom_site_type_symbol
_atom_site_label
_atom_site_fract_x
_atom_site_fract_y
_atom_site_fract_z
Si Si1 0.580218 0.568107 0.404660
Si Si2 0.041541 0.567607 0.943706
Si Si3 0.928015 0.081312 0.749328
Si Si4 0.415408 0.070463 0.264943
Si Si5 0.836536 0.440855 0.289721
Si Si6 0.167100 0.330730 0.780435
Si Si7 0.835540 0.330027 0.527808
Si Si8 0.835878 0.675299 0.903762
O O1 0.503560 0.555169 0.324066
O O2 0.561976 0.581773 0.570448
O O3 0.633974 0.502579 0.390367
O O4 0.616857 0.636062 0.341517
O O5 0.119651 0.556629 0.861976
O O6 0.984335 0.600164 0.829729
O O7 0.058491 0.612570 0.088919
O O8 0.000000 0.500000 0.000000
O O9 0.884122 0.137228 0.656470
O O10 0.886759 0.007472 0.766215
O O11 0.348331 0.120269 0.222359
O O12 0.750000 0.451346 0.255654
O O13 0.849824 0.369553 0.376707
O O14 0.250000 0.359836 0.763333
O O15 0.165320 0.250000 0.754844
O O16 0.133440 0.349591 0.938986
O O17 0.750000 0.337164 0.573409
O O18 0.857740 0.250000 0.507531
O O19 0.750000 0.685417 0.928792
O O20 0.870128 0.750000 0.861849
#
# Coordination Sequence:
#
# PCOD8245622 Si02
#       8
#     8   8   8   8   8   8   8   8
#     4  12  21  36  61  90 125 157 202 256 304 367
#     4  10  21  39  61  91 126 162 200 260 309 367
#     4  11  22  39  65  87 122 158 203 254 311 369
#     4  11  21  35  59  86 122 161 198 254 313 362
#     4  11  22  39  64  95 127 165 209 258 319 381
#     4   9  20  38  57  82 121 165 203 241 291 357
#     4  10  23  44  66  91 127 167 210 265 325 378
#     4   9  20  38  57  82 122 165 203 246 299 363
#
# _framework density 19.707642
#
# number of rings (size 3 to 8) (size 9 to 14) (size 15 to 20)
#    0.000    1.625    3.750    3.000    1.750    3.000 
#    0.000    4.375    0.000    1.500    0.000    0.000 
#    0.000    0.000    0.000    0.000    0.000    0.000 
#
# Total GULP energy -793309.989966 kJ/mol
# GULP energy per Si atom -12395.468593 kJ/mol
# Density = 1.966279 g / cm^3
# Si number density = 19.707642 Si / 1000 Ang^3
#
#
#
# Elastic Constant Matrix: (Units=GPa)
#
#
# Indices 1 2 3 4 5 6 
#
# 1 80.2045 41.8244 47.9872 0.0000 0.0000 0.0000
# 2 41.8244 102.9955 49.7105 0.0000 0.0000 0.0000
# 3 47.9872 49.7105 154.4951 0.0000 0.0000 0.0000
# 4 0.0000 0.0000 0.0000 30.1967 0.0000 0.0000
# 5 0.0000 0.0000 0.0000 0.0000 38.3434 0.0000
# 6 0.0000 0.0000 0.0000 0.0000 0.0000 21.8618
#
#
#
# Elastic Compliance Matrix: (Units=1/GPa)
#
#
# Indices 1 2 3 4 5 6 
#
# 1 0.017453 -0.005293 -0.003718 0.000000 0.000000 0.000000
# 2 -0.005293 0.013099 -0.002571 0.000000 0.000000 0.000000
# 3 -0.003718 -0.002571 0.008455 0.000000 0.000000 0.000000
# 4 0.000000 0.000000 0.000000 0.033116 0.000000 0.000000
# 5 0.000000 0.000000 0.000000 0.000000 0.026080 0.000000
# 6 0.000000 0.000000 0.000000 0.000000 0.000000 0.045742
#
#
# Mechanical properties :
#
#
# Convention : Reuss Voigt Hill
#
# Bulk Modulus (GPa) = 63.11709 68.52659 65.82184
# Shear Modulus (GPa) = 29.00420 31.29193 30.14807
#
# Velocity S-wave (km/s) = 3.84047 3.98905 3.91546
# Velocity P-wave (km/s) = 7.19457 7.48758 7.34253
#
# Compressibility (1/GPa) = 0.01584357
#
# Stress axis : x y z
#
# Youngs Moduli (GPa) = 57.29813 76.34025 118.27731
#
# Poissons Ratio (x) = 0.40405 0.43974
# Poissons Ratio (y) = 0.30326 0.30408
# Poissons Ratio (z) = 0.21303 0.19626
#
# Static dielectric constant tensor:
#      x y z
#    x 3.652910 0.000000 0.000000 
#    y 0.000000 3.432620 0.000000 
#    z 0.000000 0.000000 3.890610 
# 
# 
# High freq. dielectric constant tensor:
#      x y z
#    x 1.762010 0.000000 0.000000 
#    y 0.000000 1.751630 0.000000 
#    z 0.000000 0.000000 1.777450 
# 
# From -- ./inp_files/10669.got.cif
#   From: 2010.03.12/outbox.cif.g09.slc.cpg/sg59_6_cif.got.tgz:10669.got - 2010.04.16 16:29:54.
