data_PCOD8245709
_publ_section_title
;
Structure prediction by ZEFSAII (Michael W. Deem and Ramdas Pophale) SiO2 
 PCOD8245709
Probable space group: P M M N
;
_chemical_formula_sum "Si O2"
_cell_formula_units_Z 64
_cell_length_a 9.409743
_cell_length_b 24.440942
_cell_length_c 14.908151
_cell_angle_alpha 90.000000
_cell_angle_beta 90.000000
_cell_angle_gamma 90.000000
_cell_volume 3428.621036
_symmetry_space_group_name_H-M "P M M N"
_symmetry_group_IT_number 59
_space_group.IT_coordinate_system_code '2'
_symmetry_cell_setting 'orthorhombic'
loop_
_space_group_symop_operation_xyz
x,y,z
1/2-x,1/2-y,z
1/2+x,-y,-z
-x,1/2+y,-z
-x,-y,-z
1/2+x,1/2+y,-z
1/2-x,y,z
x,1/2-y,z
loop_
_atom_site_type_symbol
_atom_site_label
_atom_site_fract_x
_atom_site_fract_y
_atom_site_fract_z
Si Si1 0.590358 0.996047 0.332324
Si Si2 0.415778 0.103383 0.867770
Si Si3 0.083025 0.687122 0.477780
Si Si4 0.413545 0.997568 0.158875
Si Si5 0.914632 0.881318 0.822932
Si Si6 0.581140 0.689079 0.988223
Si Si7 0.087097 0.615085 0.641054
Si Si8 0.090078 0.377582 0.659765
O O1 0.750000 0.995511 0.287465
O O2 0.575132 0.051296 0.391346
O O3 0.465330 0.997705 0.260913
O O4 0.573732 0.938451 0.385391
O O5 0.250000 0.093564 0.884933
O O6 0.494765 0.046924 0.896240
O O7 0.475634 0.152229 0.929614
O O8 0.448970 0.118600 0.764882
O O9 0.250000 0.678781 0.467202
O O10 0.041303 0.750000 0.492194
O O11 0.023413 0.653035 0.562606
O O12 0.013195 0.665356 0.386764
O O13 0.250000 0.979759 0.154466
O O14 0.436208 0.060146 0.126427
O O15 0.750000 0.873940 0.796611
O O16 0.004316 0.874400 0.732838
O O17 0.967491 0.835762 0.893017
O O18 0.750000 0.691025 0.992211
O O19 0.516766 0.750000 0.997598
O O20 0.250000 0.631315 0.659010
O O21 0.250000 0.355693 0.647752
#
# Coordination Sequence:
#
# PCOD8245709 Si02
#       8
#     8   8   8   8   8   8   8   8
#     4   8  15  30  51  74  98 124 159 200 243 295
#     4   9  18  33  53  75  99 129 165 203 243 292
#     4  10  22  37  50  69  99 134 170 202 238 292
#     4   9  16  27  46  74 105 130 155 194 246 298
#     4   9  18  32  51  77 104 128 160 203 247 291
#     4   9  18  33  52  73  98 131 171 209 244 286
#     4   9  18  34  54  73  98 133 165 196 242 296
#     4   9  18  32  51  75  99 123 159 208 251 286
#
# _framework density 18.666397
#
# number of rings (size 3 to 8) (size 9 to 14) (size 15 to 20)
#    0.000    3.000    0.000    1.125    0.000    5.250 
#    0.000    1.875    0.000    1.125    0.000    0.000 
#    0.000    0.000    0.000    0.000    0.000    0.000 
#
# Total GULP energy -793095.892865 kJ/mol
# GULP energy per Si atom -12392.123326 kJ/mol
# Density = 1.862391 g / cm^3
# Si number density = 18.666397 Si / 1000 Ang^3
#
#
#
# Elastic Constant Matrix: (Units=GPa)
#
#
# Indices 1 2 3 4 5 6 
#
# 1 46.8086 33.4496 22.5052 0.0000 0.0000 0.0000
# 2 33.4496 113.4473 35.4543 0.0000 0.0000 0.0000
# 3 22.5052 35.4543 57.4121 0.0000 0.0000 0.0000
# 4 0.0000 0.0000 0.0000 34.2832 0.0000 0.0000
# 5 0.0000 0.0000 0.0000 0.0000 19.9383 0.0000
# 6 0.0000 0.0000 0.0000 0.0000 0.0000 23.5883
#
#
#
# Elastic Compliance Matrix: (Units=1/GPa)
#
#
# Indices 1 2 3 4 5 6 
#
# 1 0.029576 -0.006316 -0.007693 0.000000 0.000000 0.000000
# 2 -0.006316 0.012272 -0.005102 0.000000 0.000000 0.000000
# 3 -0.007693 -0.005102 0.023584 0.000000 0.000000 0.000000
# 4 0.000000 0.000000 0.000000 0.029169 0.000000 0.000000
# 5 0.000000 0.000000 0.000000 0.000000 0.050155 0.000000
# 6 0.000000 0.000000 0.000000 0.000000 0.000000 0.042394
#
#
# Mechanical properties :
#
#
# Convention : Reuss Voigt Hill
#
# Bulk Modulus (GPa) = 36.75276 44.49846 40.62561
# Shear Modulus (GPa) = 21.32724 23.97922 22.65323
#
# Velocity S-wave (km/s) = 3.38383 3.58805 3.48743
# Velocity P-wave (km/s) = 5.91600 6.40750 6.16665
#
# Compressibility (1/GPa) = 0.02720884
#
# Stress axis : x y z
#
# Youngs Moduli (GPa) = 33.81123 81.48956 42.40074
#
# Poissons Ratio (x) = 0.51470 0.32620
# Poissons Ratio (y) = 0.21356 0.21634
# Poissons Ratio (z) = 0.26012 0.41578
#
# Static dielectric constant tensor:
#      x y z
#    x 3.259330 0.000000 0.000000 
#    y 0.000000 3.831680 0.000000 
#    z 0.000000 0.000000 3.125740 
# 
# 
# High freq. dielectric constant tensor:
#      x y z
#    x 1.706410 0.000000 0.000000 
#    y 0.000000 1.735190 0.000000 
#    z 0.000000 0.000000 1.697890 
# 
# From -- ./inp_files/21541.got.cif
#   From: 2010.03.12/outbox.cif.g09.slc.cpg/sg59_11_cif.got.tgz:21541.got - 2010.04.16 16:29:54.
