data_PCOD8245326
_publ_section_title
;
Structure prediction by ZEFSAII (Michael W. Deem and Ramdas Pophale) SiO2 
 PCOD8245326
Probable space group: P M M N
;
_chemical_formula_sum "Si O2"
_cell_formula_units_Z 64
_cell_length_a 13.496437
_cell_length_b 27.258970
_cell_length_c 8.746564
_cell_angle_alpha 90.000000
_cell_angle_beta 90.000000
_cell_angle_gamma 90.000000
_cell_volume 3217.851898
_symmetry_space_group_name_H-M "P M M N"
_symmetry_group_IT_number 59
_space_group.IT_coordinate_system_code '2'
_symmetry_cell_setting 'orthorhombic'
loop_
_space_group_symop_operation_xyz
x,y,z
1/2-x,1/2-y,z
1/2+x,-y,-z
-x,1/2+y,-z
-x,-y,-z
1/2+x,1/2+y,-z
1/2-x,y,z
x,1/2-y,z
loop_
_atom_site_type_symbol
_atom_site_label
_atom_site_fract_x
_atom_site_fract_y
_atom_site_fract_z
Si Si1 0.046012 0.807769 0.096338
Si Si2 0.359136 0.192068 0.709281
Si Si3 0.453823 0.926076 0.556043
Si Si4 0.980493 0.629595 0.839731
Si Si5 0.134232 0.030624 0.612777
Si Si6 0.634104 0.804044 0.624533
Si Si7 0.137377 0.891396 0.258529
Si Si8 0.025246 0.449430 0.918373
O O1 0.067203 0.750000 0.097574
O O2 0.127249 0.835272 0.199481
O O3 0.937391 0.823071 0.161867
O O4 0.048692 0.830022 0.926019
O O5 0.250000 0.169595 0.747798
O O6 0.349484 0.250000 0.700699
O O7 0.398393 0.174397 0.542088
O O8 0.451663 0.896795 0.714351
O O9 0.566805 0.938039 0.504564
O O10 0.399554 0.892488 0.432076
O O11 0.388037 0.974137 0.580674
O O12 0.892241 0.658437 0.757778
O O13 0.935489 0.589264 0.955757
O O14 0.250000 0.042217 0.582676
O O15 0.108149 0.044037 0.788071
O O16 0.750000 0.797460 0.621463
O O17 0.586032 0.750000 0.654352
O O18 0.250000 0.908395 0.246976
O O19 0.075914 0.929399 0.155528
O O20 0.000000 0.500000 0.000000
#
# Coordination Sequence:
#
# PCOD8245326 Si02
#       8
#     8   8   8   8   8   8   8   8
#     4  10  21  37  58  86 119 157 198 242 291 347
#     4   8  15  31  55  79 108 151 195 232 282 345
#     4  10  21  39  60  87 119 147 201 255 293 359
#     4  11  21  35  56  82 120 153 189 242 298 344
#     4  10  21  39  63  84 114 160 198 243 306 363
#     4   9  18  32  51  79 115 155 195 235 285 345
#     4  10  22  40  63  86 111 153 198 241 295 352
#     4  10  21  40  58  86 120 150 190 244 295 360
#
# _framework density 19.889044999999999
#
# number of rings (size 3 to 8) (size 9 to 14) (size 15 to 20)
#    0.000    2.250    1.250    2.250    0.000    2.250 
#    0.000   10.000    0.000    0.000    0.000    0.000 
#    0.000    0.000    0.000    0.000    0.000    0.000 
#
# Total GULP energy -793420.037879 kJ/mol
# GULP energy per Si atom -12397.188092 kJ/mol
# Density = 1.984378 g / cm^3
# Si number density = 19.889045 Si / 1000 Ang^3
#
#
#
# Elastic Constant Matrix: (Units=GPa)
#
#
# Indices 1 2 3 4 5 6 
#
# 1 104.5182 26.7299 36.0133 0.0000 0.0000 0.0000
# 2 26.7299 104.0198 49.6680 0.0000 0.0000 0.0000
# 3 36.0133 49.6680 122.9689 0.0000 0.0000 0.0000
# 4 0.0000 0.0000 0.0000 35.0068 0.0000 0.0000
# 5 0.0000 0.0000 0.0000 0.0000 17.5929 0.0000
# 6 0.0000 0.0000 0.0000 0.0000 0.0000 21.7105
#
#
#
# Elastic Compliance Matrix: (Units=1/GPa)
#
#
# Indices 1 2 3 4 5 6 
#
# 1 0.010846 -0.001574 -0.002541 0.000000 0.000000 0.000000
# 2 -0.001574 0.012139 -0.004442 0.000000 0.000000 0.000000
# 3 -0.002541 -0.004442 0.010670 0.000000 0.000000 0.000000
# 4 0.000000 0.000000 0.000000 0.028566 0.000000 0.000000
# 5 0.000000 0.000000 0.000000 0.000000 0.056841 0.000000
# 6 0.000000 0.000000 0.000000 0.000000 0.000000 0.046061
#
#
# Mechanical properties :
#
#
# Convention : Reuss Voigt Hill
#
# Bulk Modulus (GPa) = 60.45270 61.81437 61.13353
# Shear Modulus (GPa) = 26.63117 29.46842 28.04979
#
# Velocity S-wave (km/s) = 3.66319 3.85338 3.75949
# Velocity P-wave (km/s) = 6.95362 7.13759 7.04621
#
# Compressibility (1/GPa) = 0.01654186
#
# Stress axis : x y z
#
# Youngs Moduli (GPa) = 92.20302 82.37880 93.71726
#
# Poissons Ratio (x) = 0.12966 0.23810
# Poissons Ratio (y) = 0.14512 0.41630
# Poissons Ratio (z) = 0.23425 0.36594
#
# Static dielectric constant tensor:
#      x y z
#    x 3.374780 0.000000 0.000000 
#    y 0.000000 3.758320 0.000000 
#    z 0.000000 0.000000 3.983460 
# 
# 
# High freq. dielectric constant tensor:
#      x y z
#    x 1.740760 0.000000 0.000000 
#    y 0.000000 1.786430 0.000000 
#    z 0.000000 0.000000 1.786630 
# 
# From -- ./inp_files/8029.got.cif
#   From: 2010.03.12/outbox.cif.g09.slc.cpg/sg59_5_cif.got.tgz:8029.got - 2010.04.16 16:29:54.
