data_PCOD8245893
_publ_section_title
;
Structure prediction by ZEFSAII (Michael W. Deem and Ramdas Pophale) SiO2 
 PCOD8245893
Probable space group: P M M N
;
_chemical_formula_sum "Si O2"
_cell_formula_units_Z 56
_cell_length_a 20.661124
_cell_length_b 8.328226
_cell_length_c 15.107426
_cell_angle_alpha 90.000000
_cell_angle_beta 90.000000
_cell_angle_gamma 90.000000
_cell_volume 2599.542498
_symmetry_space_group_name_H-M "P M M N"
_symmetry_group_IT_number 59
_space_group.IT_coordinate_system_code '2'
_symmetry_cell_setting 'orthorhombic'
loop_
_space_group_symop_operation_xyz
x,y,z
1/2-x,1/2-y,z
1/2+x,-y,-z
-x,1/2+y,-z
-x,-y,-z
1/2+x,1/2+y,-z
1/2-x,y,z
x,1/2-y,z
loop_
_atom_site_type_symbol
_atom_site_label
_atom_site_fract_x
_atom_site_fract_y
_atom_site_fract_z
Si Si1 0.674911 0.438909 0.351226
Si Si2 0.455780 0.438111 0.177519
Si Si3 0.071964 0.066158 0.505700
Si Si4 0.095194 0.440409 0.811858
Si Si5 0.250000 0.566297 0.078417
Si Si6 0.123984 0.936441 0.332342
Si Si7 0.382573 0.062761 0.007181
Si Si8 0.250000 0.435567 0.266510
O O1 0.750000 0.496910 0.369591
O O2 0.674738 0.250000 0.340096
O O3 0.624178 0.481987 0.429186
O O4 0.650402 0.513778 0.258526
O O5 0.440328 0.250000 0.189640
O O6 0.527502 0.476078 0.211356
O O7 0.409410 0.544675 0.237694
O O8 0.438979 0.493468 0.076267
O O9 0.069992 0.250000 0.535823
O O10 0.090670 0.044812 0.405013
O O11 0.000000 0.000000 0.500000
O O12 0.086372 0.250000 0.811422
O O13 0.110904 0.512403 0.909324
O O14 0.250000 0.750000 0.048341
O O15 0.187456 0.478631 0.042459
O O16 0.250000 0.554116 0.183476
O O17 0.126803 0.750000 0.359869
O O18 0.192462 0.019593 0.330035
O O19 0.388424 0.250000 0.995419
O O20 0.250000 0.250000 0.235869
#
# Coordination Sequence:
#
# PCOD8245893 Si02
#       8
#     8   8   8   8   4   8   8   4
#     4  11  26  48  71  98 135 176 225 284 339 401
#     4  11  22  40  65  95 133 176 218 270 330 390
#     4  12  26  47  74 103 136 175 221 274 335 402
#     4  11  24  42  66  95 129 173 224 276 330 392
#     4  12  24  38  62  93 128 171 218 272 326 388
#     4  12  25  42  67  99 133 171 215 263 322 393
#     4  10  23  41  63  91 130 176 221 272 328 391
#     4  12  24  42  64  93 132 173 216 264 324 388
#
# _framework density 21.542249999999999
#
# number of rings (size 3 to 8) (size 9 to 14) (size 15 to 20)
#    0.000    0.714    1.429    6.429    2.000    2.857 
#    0.000    0.000    0.000    0.000    0.000    0.000 
#    0.000    0.000    0.000    0.000    0.000    0.000 
#
# Total GULP energy -694161.916675 kJ/mol
# GULP energy per Si atom -12395.748512 kJ/mol
# Density = 2.149322 g / cm^3
# Si number density = 21.542250 Si / 1000 Ang^3
#
#
#
# Elastic Constant Matrix: (Units=GPa)
#
#
# Indices 1 2 3 4 5 6 
#
# 1 160.6465 24.0541 50.1613 0.0000 0.0000 0.0000
# 2 24.0541 53.4779 30.5526 0.0000 0.0000 0.0000
# 3 50.1613 30.5526 112.3731 0.0000 0.0000 0.0000
# 4 0.0000 0.0000 0.0000 28.4007 0.0000 0.0000
# 5 0.0000 0.0000 0.0000 0.0000 44.6661 0.0000
# 6 0.0000 0.0000 0.0000 0.0000 0.0000 35.6424
#
#
#
# Elastic Compliance Matrix: (Units=1/GPa)
#
#
# Indices 1 2 3 4 5 6 
#
# 1 0.007361 -0.001697 -0.002824 0.000000 0.000000 0.000000
# 2 -0.001697 0.022529 -0.005368 0.000000 0.000000 0.000000
# 3 -0.002824 -0.005368 0.011619 0.000000 0.000000 0.000000
# 4 0.000000 0.000000 0.000000 0.035210 0.000000 0.000000
# 5 0.000000 0.000000 0.000000 0.000000 0.022388 0.000000
# 6 0.000000 0.000000 0.000000 0.000000 0.000000 0.028056
#
#
# Mechanical properties :
#
#
# Convention : Reuss Voigt Hill
#
# Bulk Modulus (GPa) = 46.01809 59.55929 52.78869
# Shear Modulus (GPa) = 32.42821 36.52382 34.47602
#
# Velocity S-wave (km/s) = 3.88407 4.12205 4.00483
# Velocity P-wave (km/s) = 6.44382 7.09667 6.77811
#
# Compressibility (1/GPa) = 0.02173059
#
# Stress axis : x y z
#
# Youngs Moduli (GPa) = 135.85353 44.38641 86.06555
#
# Poissons Ratio (x) = 0.07534 0.24307
# Poissons Ratio (y) = 0.23059 0.46198
# Poissons Ratio (z) = 0.38369 0.23826
#
# Static dielectric constant tensor:
#      x y z
#    x 4.289810 0.000000 0.000000 
#    y 0.000000 3.769060 0.000000 
#    z 0.000000 0.000000 4.044460 
# 
# 
# High freq. dielectric constant tensor:
#      x y z
#    x 1.862460 0.000000 0.000000 
#    y 0.000000 1.847600 0.000000 
#    z 0.000000 0.000000 1.856400 
# 
# From -- ./inp_files/24383.got.cif
#   From: 2010.03.12/outbox.cif.g09.slc.cpg/sg59_13_cif.got.tgz:24383.got - 2010.04.16 16:29:54.
