data_PCOD8245081
_publ_section_title
;
Structure prediction by ZEFSAII (Michael W. Deem and Ramdas Pophale) SiO2 
 PCOD8245081
Probable space group: P M M N
;
_chemical_formula_sum "Si O2"
_cell_formula_units_Z 56
_cell_length_a 14.100780
_cell_length_b 9.147982
_cell_length_c 21.875842
_cell_angle_alpha 90.000000
_cell_angle_beta 90.000000
_cell_angle_gamma 90.000000
_cell_volume 2821.845398
_symmetry_space_group_name_H-M "P M M N"
_symmetry_group_IT_number 59
_space_group.IT_coordinate_system_code '2'
_symmetry_cell_setting 'orthorhombic'
loop_
_space_group_symop_operation_xyz
x,y,z
1/2-x,1/2-y,z
1/2+x,-y,-z
-x,1/2+y,-z
-x,-y,-z
1/2+x,1/2+y,-z
1/2-x,y,z
x,1/2-y,z
loop_
_atom_site_type_symbol
_atom_site_label
_atom_site_fract_x
_atom_site_fract_y
_atom_site_fract_z
Si Si1 0.491882 0.420299 0.063947
Si Si2 0.854666 0.586689 0.270335
Si Si3 0.643284 0.576139 0.829988
Si Si4 0.037372 0.077747 0.291660
Si Si5 0.358491 0.081817 0.522115
Si Si6 0.354774 0.409571 0.873804
Si Si7 0.951429 0.080150 0.588214
O O1 0.482817 0.250000 0.051340
O O2 0.405123 0.477117 0.106636
O O3 0.586690 0.454608 0.101035
O O4 0.500000 0.500000 0.000000
O O5 0.750000 0.552707 0.297192
O O6 0.886817 0.750000 0.291775
O O7 0.849889 0.580494 0.198122
O O8 0.926891 0.464666 0.293087
O O9 0.750000 0.514014 0.828413
O O10 0.642355 0.750000 0.828094
O O11 0.586867 0.517666 0.770390
O O12 0.049276 0.250000 0.297671
O O13 0.083590 0.001393 0.350522
O O14 0.250000 0.047508 0.543847
O O15 0.367032 0.250000 0.500887
O O16 0.435564 0.051947 0.575917
O O17 0.385653 0.979420 0.465756
O O18 0.250000 0.423870 0.901904
O O19 0.397221 0.250000 0.893134
O O20 0.929810 0.250000 0.595696
#
# Coordination Sequence:
#
# PCOD8245081 Si02
#       7
#     8   8   8   8   8   8   8
#     4  11  22  37  58  84 111 145 189 239 290 343
#     4   9  18  33  54  79 109 145 181 223 282 345
#     4   9  20  39  59  79 108 149 193 234 279 335
#     4  11  21  35  57  85 115 150 194 240 285 337
#     4   9  19  38  61  82 110 152 197 239 284 336
#     4   9  18  34  56  80 107 141 178 220 279 344
#     4  10  21  36  56  86 119 152 191 237 289 344
#
# _framework density 19.845168000000001
#
# number of rings (size 3 to 8) (size 9 to 14) (size 15 to 20)
#    0.000    2.286    1.429    2.143    0.000    3.143 
#    0.000    5.714    0.000    6.000    0.000    0.000 
#    0.000    0.000    0.000    0.000    0.000    0.000 
#
# Total GULP energy -694125.861885 kJ/mol
# GULP energy per Si atom -12395.104677 kJ/mol
# Density = 1.980000 g / cm^3
# Si number density = 19.845168 Si / 1000 Ang^3
#
#
#
# Elastic Constant Matrix: (Units=GPa)
#
#
# Indices 1 2 3 4 5 6 
#
# 1 88.3423 28.1486 29.9700 0.0000 0.0000 0.0000
# 2 28.1486 73.4850 44.8413 0.0000 0.0000 0.0000
# 3 29.9700 44.8413 103.2568 0.0000 0.0000 0.0000
# 4 0.0000 0.0000 0.0000 34.0913 0.0000 0.0000
# 5 0.0000 0.0000 0.0000 0.0000 13.2690 0.0000
# 6 0.0000 0.0000 0.0000 0.0000 0.0000 29.2421
#
#
#
# Elastic Compliance Matrix: (Units=1/GPa)
#
#
# Indices 1 2 3 4 5 6 
#
# 1 0.013262 -0.003716 -0.002236 0.000000 0.000000 0.000000
# 2 -0.003716 0.019556 -0.007414 0.000000 0.000000 0.000000
# 3 -0.002236 -0.007414 0.013553 0.000000 0.000000 0.000000
# 4 0.000000 0.000000 0.000000 0.029333 0.000000 0.000000
# 5 0.000000 0.000000 0.000000 0.000000 0.075364 0.000000
# 6 0.000000 0.000000 0.000000 0.000000 0.000000 0.034197
#
#
# Mechanical properties :
#
#
# Convention : Reuss Voigt Hill
#
# Bulk Modulus (GPa) = 50.91637 52.33377 51.62507
# Shear Modulus (GPa) = 22.87890 26.12876 24.50383
#
# Velocity S-wave (km/s) = 3.39908 3.63248 3.51771
# Velocity P-wave (km/s) = 6.41229 6.63487 6.52453
#
# Compressibility (1/GPa) = 0.01964005
#
# Stress axis : x y z
#
# Youngs Moduli (GPa) = 75.40339 51.13622 73.78392
#
# Poissons Ratio (x) = 0.19002 0.16495
# Poissons Ratio (y) = 0.28019 0.54703
# Poissons Ratio (z) = 0.16857 0.37912
#
# Static dielectric constant tensor:
#      x y z
#    x 3.012450 0.000000 0.000000 
#    y 0.000000 3.339430 0.000000 
#    z 0.000000 0.000000 4.157360 
# 
# 
# High freq. dielectric constant tensor:
#      x y z
#    x 1.770200 0.000000 0.000000 
#    y 0.000000 1.757650 0.000000 
#    z 0.000000 0.000000 1.774970 
# 
# From -- ./inp_files/30321.got.cif
#   From: 2010.03.12/outbox.cif.g09.slc.cpg/sg59_16_cif.got.tgz:30321.got - 2010.04.16 16:29:54.
