data_PCOD8245633
_publ_section_title
;
Structure prediction by ZEFSAII (Michael W. Deem and Ramdas Pophale) SiO2 
 PCOD8245633
Probable space group: P M M N
;
_chemical_formula_sum "Si O2"
_cell_formula_units_Z 40
_cell_length_a 7.972059
_cell_length_b 20.253309
_cell_length_c 12.203522
_cell_angle_alpha 90.000000
_cell_angle_beta 90.000000
_cell_angle_gamma 90.000000
_cell_volume 1970.387671
_symmetry_space_group_name_H-M "P M M N"
_symmetry_group_IT_number 59
_space_group.IT_coordinate_system_code '2'
_symmetry_cell_setting 'orthorhombic'
loop_
_space_group_symop_operation_xyz
x,y,z
1/2-x,1/2-y,z
1/2+x,-y,-z
-x,1/2+y,-z
-x,-y,-z
1/2+x,1/2+y,-z
1/2-x,y,z
x,1/2-y,z
loop_
_atom_site_type_symbol
_atom_site_label
_atom_site_fract_x
_atom_site_fract_y
_atom_site_fract_z
Si Si1 0.440657 0.043527 0.398273
Si Si2 0.750000 0.327681 0.668404
Si Si3 0.750000 0.174046 0.908378
Si Si4 0.938114 0.019288 0.161570
Si Si5 0.935286 0.604587 0.020350
Si Si6 0.059547 0.325966 0.519689
O O1 0.250000 0.025060 0.373648
O O2 0.545482 0.023976 0.291854
O O3 0.460847 0.122344 0.419872
O O4 0.500000 0.000000 0.500000
O O5 0.750000 0.250000 0.675915
O O6 0.750000 0.360837 0.788474
O O7 0.577976 0.349299 0.608276
O O8 0.750000 0.250000 0.885384
O O9 0.581579 0.158455 0.975968
O O10 0.750000 0.039434 0.127814
O O11 0.972938 0.945314 0.120246
O O12 0.062332 0.068327 0.097485
O O13 0.750000 0.636817 0.033366
O O14 0.250000 0.331858 0.568142
O O15 0.027160 0.250000 0.480011
#
# Coordination Sequence:
#
# PCOD8245633 Si02
#       6
#     8   4   4   8   8   8
#     4  11  24  36  57  91 125 158 200 260 309 352
#     4   9  20  36  59  83 115 163 198 240 300 356
#     4  11  24  40  61  93 125 157 206 256 302 364
#     4  10  21  39  62  89 120 158 204 252 307 369
#     4  10  22  40  64  88 118 162 203 248 307 367
#     4   9  20  39  58  81 117 161 205 240 295 371
#
# _framework density 20.300574000000001
#
# number of rings (size 3 to 8) (size 9 to 14) (size 15 to 20)
#    0.000    2.000    1.000    1.200    8.400    1.200 
#    0.000    3.000    0.000    2.400    0.000    0.000 
#    0.000    0.000    0.000    0.000    0.000    0.000 
#
# Total GULP energy -495819.308709 kJ/mol
# GULP energy per Si atom -12395.482718 kJ/mol
# Density = 2.025437 g / cm^3
# Si number density = 20.300574 Si / 1000 Ang^3
#
#
#
# Elastic Constant Matrix: (Units=GPa)
#
#
# Indices 1 2 3 4 5 6 
#
# 1 128.0634 26.8784 27.0464 0.0000 0.0000 0.0000
# 2 26.8784 57.9746 27.4237 0.0000 0.0000 0.0000
# 3 27.0464 27.4237 103.8337 0.0000 0.0000 0.0000
# 4 0.0000 0.0000 0.0000 19.9079 0.0000 0.0000
# 5 0.0000 0.0000 0.0000 0.0000 28.5293 0.0000
# 6 0.0000 0.0000 0.0000 0.0000 0.0000 21.2984
#
#
#
# Elastic Compliance Matrix: (Units=1/GPa)
#
#
# Indices 1 2 3 4 5 6 
#
# 1 0.008823 -0.003432 -0.001392 0.000000 0.000000 0.000000
# 2 -0.003432 0.021047 -0.004665 0.000000 0.000000 0.000000
# 3 -0.001392 -0.004665 0.011225 0.000000 0.000000 0.000000
# 4 0.000000 0.000000 0.000000 0.050231 0.000000 0.000000
# 5 0.000000 0.000000 0.000000 0.000000 0.035052 0.000000
# 6 0.000000 0.000000 0.000000 0.000000 0.000000 0.046952
#
#
# Mechanical properties :
#
#
# Convention : Reuss Voigt Hill
#
# Bulk Modulus (GPa) = 45.21250 50.28541 47.74895
# Shear Modulus (GPa) = 25.04013 27.84867 26.44440
#
# Velocity S-wave (km/s) = 3.51589 3.70782 3.61313
# Velocity P-wave (km/s) = 6.22911 6.56923 6.40143
#
# Compressibility (1/GPa) = 0.02211778
#
# Stress axis : x y z
#
# Youngs Moduli (GPa) = 113.34121 47.51341 89.08467
#
# Poissons Ratio (x) = 0.16308 0.12398
# Poissons Ratio (y) = 0.38901 0.41555
# Poissons Ratio (z) = 0.15774 0.22163
#
# Static dielectric constant tensor:
#      x y z
#    x 4.031230 0.000000 0.000000 
#    y 0.000000 3.538100 0.000000 
#    z 0.000000 0.000000 3.523440 
# 
# 
# High freq. dielectric constant tensor:
#      x y z
#    x 1.814920 0.000000 0.000000 
#    y 0.000000 1.776530 0.000000 
#    z 0.000000 0.000000 1.773770 
# 
# From -- ./inp_files/14116.got.cif
#   From: 2010.03.12/outbox.cif.g09.slc.cpg/sg59_8_cif.got.tgz:14116.got - 2010.04.16 16:29:54.
