data_PCOD8245925
_publ_section_title
;
Structure prediction by ZEFSAII (Michael W. Deem and Ramdas Pophale) SiO2 
 PCOD8245925
Probable space group: P M M N
;
_chemical_formula_sum "Si O2"
_cell_formula_units_Z 56
_cell_length_a 9.343330
_cell_length_b 27.776793
_cell_length_c 13.545141
_cell_angle_alpha 90.000000
_cell_angle_beta 90.000000
_cell_angle_gamma 90.000000
_cell_volume 3515.339877
_symmetry_space_group_name_H-M "P M M N"
_symmetry_group_IT_number 59
_space_group.IT_coordinate_system_code '2'
_symmetry_cell_setting 'orthorhombic'
loop_
_space_group_symop_operation_xyz
x,y,z
1/2-x,1/2-y,z
1/2+x,-y,-z
-x,1/2+y,-z
-x,-y,-z
1/2+x,1/2+y,-z
1/2-x,y,z
x,1/2-y,z
loop_
_atom_site_type_symbol
_atom_site_label
_atom_site_fract_x
_atom_site_fract_y
_atom_site_fract_z
Si Si1 0.581896 0.459822 0.794158
Si Si2 0.420044 0.388921 0.913883
Si Si3 0.916115 0.515102 0.595920
Si Si4 0.417809 0.109542 0.293872
Si Si5 0.918664 0.554535 0.894567
Si Si6 0.083339 0.804289 0.764778
Si Si7 0.085169 0.694709 0.991880
O O1 0.750000 0.448193 0.802720
O O2 0.490679 0.411375 0.815037
O O3 0.542919 0.479798 0.686017
O O4 0.532002 0.499680 0.875371
O O5 0.250000 0.384731 0.901733
O O6 0.468815 0.425273 0.000786
O O7 0.484491 0.336541 0.936386
O O8 0.750000 0.510168 0.572706
O O9 0.953844 0.570641 0.621286
O O10 0.000000 0.500000 0.500000
O O11 0.250000 0.120086 0.290142
O O12 0.479847 0.088740 0.191141
O O13 0.498829 0.160142 0.309259
O O14 0.750000 0.555855 0.882609
O O15 0.250000 0.814593 0.753291
O O16 0.046495 0.750000 0.732019
O O17 0.036206 0.811903 0.878559
O O18 0.250000 0.678720 0.004641
O O19 0.066052 0.750000 0.024055
#
# Coordination Sequence:
#
# PCOD8245925 Si02
#       7
#     8   8   8   8   8   8   8
#     4   9  18  32  46  62  89 123 152 182 224 275
#     4  11  19  27  43  67  92 120 155 193 225 258
#     4   9  19  34  52  70  92 119 151 192 236 282
#     4   9  16  29  46  66  92 123 154 187 228 272
#     4   8  15  27  41  60  90 122 152 182 215 257
#     4   9  17  28  42  64  93 123 157 193 224 261
#     4   9  18  31  44  60  88 127 164 192 223 266
#
# _framework density 15.930182
#
# number of rings (size 3 to 8) (size 9 to 14) (size 15 to 20)
#    0.000    2.857    1.429    3.429    0.000    1.714 
#    0.000    4.286    0.000    0.000    0.000    1.000 
#    0.000    5.714    0.000    0.000    0.000    0.000 
#
# Total GULP energy -694091.279448 kJ/mol
# GULP energy per Si atom -12394.487133 kJ/mol
# Density = 1.589392 g / cm^3
# Si number density = 15.930182 Si / 1000 Ang^3
#
#
#
# Elastic Constant Matrix: (Units=GPa)
#
#
# Indices 1 2 3 4 5 6 
#
# 1 64.5038 59.6213 40.8426 0.0000 0.0000 0.0000
# 2 59.6213 113.1498 48.5917 0.0000 0.0000 0.0000
# 3 40.8426 48.5917 63.2953 0.0000 0.0000 0.0000
# 4 0.0000 0.0000 0.0000 17.8841 0.0000 0.0000
# 5 0.0000 0.0000 0.0000 0.0000 23.5440 0.0000
# 6 0.0000 0.0000 0.0000 0.0000 0.0000 31.1239
#
#
#
# Elastic Compliance Matrix: (Units=1/GPa)
#
#
# Indices 1 2 3 4 5 6 
#
# 1 0.036212 -0.013496 -0.013006 0.000000 0.000000 0.000000
# 2 -0.013496 0.018214 -0.005275 0.000000 0.000000 0.000000
# 3 -0.013006 -0.005275 0.028241 0.000000 0.000000 0.000000
# 4 0.000000 0.000000 0.000000 0.055916 0.000000 0.000000
# 5 0.000000 0.000000 0.000000 0.000000 0.042474 0.000000
# 6 0.000000 0.000000 0.000000 0.000000 0.000000 0.032130
#
#
# Mechanical properties :
#
#
# Convention : Reuss Voigt Hill
#
# Bulk Modulus (GPa) = 52.31666 59.89558 56.10612
# Shear Modulus (GPa) = 17.66092 20.63661 19.14876
#
# Velocity S-wave (km/s) = 3.33324 3.60313 3.47081
# Velocity P-wave (km/s) = 6.90844 7.41556 7.16648
#
# Compressibility (1/GPa) = 0.01911437
#
# Stress axis : x y z
#
# Youngs Moduli (GPa) = 27.61486 54.90211 35.40980
#
# Poissons Ratio (x) = 0.74094 0.46054
# Poissons Ratio (y) = 0.37268 0.18677
# Poissons Ratio (z) = 0.35916 0.28959
#
# Static dielectric constant tensor:
#      x y z
#    x 2.817840 0.000000 0.000000 
#    y 0.000000 3.064300 0.000000 
#    z 0.000000 0.000000 2.718280 
# 
# 
# High freq. dielectric constant tensor:
#      x y z
#    x 1.604260 0.000000 0.000000 
#    y 0.000000 1.614250 0.000000 
#    z 0.000000 0.000000 1.568500 
# 
# From -- ./inp_files/21742.got.cif
#   From: 2010.03.12/outbox.cif.g09.slc.cpg/sg59_11_cif.got.tgz:21742.got - 2010.04.16 16:29:54.
