data_PCOD8245277
_publ_section_title
;
Structure prediction by ZEFSAII (Michael W. Deem and Ramdas Pophale) SiO2 
 PCOD8245277
Probable space group: P M M N
;
_chemical_formula_sum "Si O2"
_cell_formula_units_Z 40
_cell_length_a 13.910259
_cell_length_b 10.152971
_cell_length_c 14.246132
_cell_angle_alpha 90.000000
_cell_angle_beta 90.000000
_cell_angle_gamma 90.000000
_cell_volume 2011.987722
_symmetry_space_group_name_H-M "P M M N"
_symmetry_group_IT_number 59
_space_group.IT_coordinate_system_code '2'
_symmetry_cell_setting 'orthorhombic'
loop_
_space_group_symop_operation_xyz
x,y,z
1/2-x,1/2-y,z
1/2+x,-y,-z
-x,1/2+y,-z
-x,-y,-z
1/2+x,1/2+y,-z
1/2-x,y,z
x,1/2-y,z
loop_
_atom_site_type_symbol
_atom_site_label
_atom_site_fract_x
_atom_site_fract_y
_atom_site_fract_z
Si Si1 0.006568 0.902763 0.086854
Si Si2 0.356153 0.396179 0.765842
Si Si3 0.438496 0.393330 0.397567
Si Si4 0.356137 0.530208 0.566844
Si Si5 0.360231 0.598186 0.252312
O O1 0.989794 0.750000 0.055764
O O2 0.106760 0.916097 0.143830
O O3 0.924830 0.958877 0.156424
O O4 0.000000 0.000000 0.000000
O O5 0.250000 0.395229 0.809736
O O6 0.395222 0.250000 0.745558
O O7 0.356238 0.470266 0.669075
O O8 0.409998 0.250000 0.356316
O O9 0.368861 0.421747 0.485484
O O10 0.549092 0.378606 0.435076
O O11 0.425567 0.506562 0.319190
O O12 0.250000 0.598941 0.551288
O O13 0.250000 0.552699 0.259226
O O14 0.372454 0.750000 0.285347
#
# Coordination Sequence:
#
# PCOD8245277 Si02
#       5
#     8   8   8   8   8
#     4  10  21  38  59  84 113 147 193 243 296 352
#     4   9  17  33  58  83 109 146 192 236 281 341
#     4  11  23  37  59  92 125 155 196 246 289 336
#     4  10  21  37  57  84 121 161 195 233 288 348
#     4  10  22  41  62  84 118 163 201 235 288 357
#
# _framework density 19.880837
#
# number of rings (size 3 to 8) (size 9 to 14) (size 15 to 20)
#    0.000    2.000    2.000    1.200    0.000    7.600 
#    0.000    0.000    0.000    0.000    0.000    0.000 
#    0.000    0.000    0.000    0.000    0.000    0.000 
#
# Total GULP energy -495549.497067 kJ/mol
# GULP energy per Si atom -12388.737427 kJ/mol
# Density = 1.983559 g / cm^3
# Si number density = 19.880837 Si / 1000 Ang^3
#
#
#
# Elastic Constant Matrix: (Units=GPa)
#
#
# Indices 1 2 3 4 5 6 
#
# 1 117.5948 21.4126 32.3003 0.0000 0.0000 0.0000
# 2 21.4126 100.1202 51.4398 0.0000 0.0000 0.0000
# 3 32.3003 51.4398 106.3940 0.0000 0.0000 0.0000
# 4 0.0000 0.0000 0.0000 14.5306 0.0000 0.0000
# 5 0.0000 0.0000 0.0000 0.0000 19.0565 0.0000
# 6 0.0000 0.0000 0.0000 0.0000 0.0000 11.2051
#
#
#
# Elastic Compliance Matrix: (Units=1/GPa)
#
#
# Indices 1 2 3 4 5 6 
#
# 1 0.009316 -0.000718 -0.002481 0.000000 0.000000 0.000000
# 2 -0.000718 0.013344 -0.006234 0.000000 0.000000 0.000000
# 3 -0.002481 -0.006234 0.013166 0.000000 0.000000 0.000000
# 4 0.000000 0.000000 0.000000 0.068820 0.000000 0.000000
# 5 0.000000 0.000000 0.000000 0.000000 0.052475 0.000000
# 6 0.000000 0.000000 0.000000 0.000000 0.000000 0.089245
#
#
# Mechanical properties :
#
#
# Convention : Reuss Voigt Hill
#
# Bulk Modulus (GPa) = 58.95862 59.37939 59.16900
# Shear Modulus (GPa) = 18.45786 23.55552 21.00669
#
# Velocity S-wave (km/s) = 3.05031 3.44588 3.25411
# Velocity P-wave (km/s) = 6.49047 6.76495 6.62913
#
# Compressibility (1/GPa) = 0.01696105
#
# Stress axis : x y z
#
# Youngs Moduli (GPa) = 107.34223 74.93829 75.95128
#
# Poissons Ratio (x) = 0.05377 0.18846
# Poissons Ratio (y) = 0.07702 0.47347
# Poissons Ratio (z) = 0.26635 0.46716
#
# Static dielectric constant tensor:
#      x y z
#    x 4.443190 0.000000 0.000000 
#    y 0.000000 3.358590 0.000000 
#    z 0.000000 0.000000 3.452440 
# 
# 
# High freq. dielectric constant tensor:
#      x y z
#    x 1.798150 0.000000 0.000000 
#    y 0.000000 1.749900 0.000000 
#    z 0.000000 0.000000 1.761330 
# 
# From -- ./inp_files/19878.got.cif
#   From: 2010.03.12/outbox.cif.g09.slc.cpg/sg59_10_cif.got.tgz:19878.got - 2010.04.16 16:29:54.
