data_PCOD8245523
_publ_section_title
;
Structure prediction by ZEFSAII (Michael W. Deem and Ramdas Pophale) SiO2 
 PCOD8245523
Probable space group: P M M N
;
_chemical_formula_sum "Si O2"
_cell_formula_units_Z 56
_cell_length_a 14.886072
_cell_length_b 8.751648
_cell_length_c 21.999214
_cell_angle_alpha 90.000000
_cell_angle_beta 90.000000
_cell_angle_gamma 90.000000
_cell_volume 2866.006171
_symmetry_space_group_name_H-M "P M M N"
_symmetry_group_IT_number 59
_space_group.IT_coordinate_system_code '2'
_symmetry_cell_setting 'orthorhombic'
loop_
_space_group_symop_operation_xyz
x,y,z
1/2-x,1/2-y,z
1/2+x,-y,-z
-x,1/2+y,-z
-x,-y,-z
1/2+x,1/2+y,-z
1/2-x,y,z
x,1/2-y,z
loop_
_atom_site_type_symbol
_atom_site_label
_atom_site_fract_x
_atom_site_fract_y
_atom_site_fract_z
Si Si1 0.647950 0.432119 0.877386
Si Si2 0.353075 0.572224 0.566137
Si Si3 0.996373 0.069767 0.783698
Si Si4 0.354321 0.427309 0.438769
Si Si5 0.644588 0.071690 0.139490
Si Si6 0.998132 0.430236 0.646045
Si Si7 0.849989 0.069066 0.008485
O O1 0.750000 0.493230 0.868106
O O2 0.649476 0.250000 0.874207
O O3 0.583812 0.501081 0.825076
O O4 0.606546 0.483333 0.943919
O O5 0.250000 0.539746 0.583859
O O6 0.370061 0.750000 0.553506
O O7 0.381280 0.480069 0.506108
O O8 0.414043 0.515133 0.621126
O O9 0.991603 0.250000 0.786405
O O10 0.984142 0.012751 0.714928
O O11 0.092885 0.018300 0.808249
O O12 0.250000 0.459602 0.426241
O O13 0.379010 0.250000 0.432172
O O14 0.409186 0.524831 0.390349
O O15 0.750000 0.035566 0.145708
O O16 0.625887 0.250000 0.148434
O O17 0.607227 0.013827 0.072742
O O18 0.013842 0.250000 0.641977
O O19 0.750000 0.002935 0.006377
O O20 0.846152 0.250000 0.011687
#
# Coordination Sequence:
#
# PCOD8245523 Si02
#       7
#     8   8   8   8   8   8   8
#     4   8  14  28  50  73  99 131 169 214 260 310
#     4  10  21  38  61  86 109 136 174 219 265 312
#     4  10  22  35  49  75 105 137 177 215 256 303
#     4  10  21  38  61  87 112 138 171 213 261 311
#     4   9  18  33  52  73  99 133 172 214 262 316
#     4  11  23  37  53  76 111 149 181 217 259 307
#     4   7  11  23  46  73  96 123 164 212 261 311
#
# _framework density 19.539386
#
# number of rings (size 3 to 8) (size 9 to 14) (size 15 to 20)
#    0.000    2.714    0.000    3.429    0.000    4.857 
#    0.000    4.286    0.000    0.429    0.000    2.000 
#    0.000    0.000    0.000    0.000    0.000    0.000 
#
# Total GULP energy -693974.298541 kJ/mol
# GULP energy per Si atom -12392.398188 kJ/mol
# Density = 1.949491 g / cm^3
# Si number density = 19.539386 Si / 1000 Ang^3
#
#
#
# Elastic Constant Matrix: (Units=GPa)
#
#
# Indices 1 2 3 4 5 6 
#
# 1 76.5550 17.0407 47.6755 0.0000 0.0000 0.0000
# 2 17.0407 19.7791 23.0838 0.0000 0.0000 0.0000
# 3 47.6755 23.0838 122.4176 0.0000 0.0000 0.0000
# 4 0.0000 0.0000 0.0000 13.6825 0.0000 0.0000
# 5 0.0000 0.0000 0.0000 0.0000 26.9747 0.0000
# 6 0.0000 0.0000 0.0000 0.0000 0.0000 26.1371
#
#
#
# Elastic Compliance Matrix: (Units=1/GPa)
#
#
# Indices 1 2 3 4 5 6 
#
# 1 0.018592 -0.009703 -0.005411 0.000000 0.000000 0.000000
# 2 -0.009703 0.069888 -0.009400 0.000000 0.000000 0.000000
# 3 -0.005411 -0.009400 0.012049 0.000000 0.000000 0.000000
# 4 0.000000 0.000000 0.000000 0.073086 0.000000 0.000000
# 5 0.000000 0.000000 0.000000 0.000000 0.037072 0.000000
# 6 0.000000 0.000000 0.000000 0.000000 0.000000 0.038260
#
#
# Mechanical properties :
#
#
# Convention : Reuss Voigt Hill
#
# Bulk Modulus (GPa) = 19.41686 43.81684 31.61685
# Shear Modulus (GPa) = 15.86589 22.08897 18.97743
#
# Velocity S-wave (km/s) = 2.85264 3.36592 3.11985
# Velocity P-wave (km/s) = 4.56169 6.13021 5.40317
#
# Compressibility (1/GPa) = 0.05150162
#
# Stress axis : x y z
#
# Youngs Moduli (GPa) = 53.78628 14.30853 82.99739
#
# Poissons Ratio (x) = 0.13883 0.44910
# Poissons Ratio (y) = 0.52188 0.78016
# Poissons Ratio (z) = 0.29104 0.13450
#
# Static dielectric constant tensor:
#      x y z
#    x 3.526000 0.000000 0.000000 
#    y 0.000000 3.219760 0.000000 
#    z 0.000000 0.000000 3.883150 
# 
# 
# High freq. dielectric constant tensor:
#      x y z
#    x 1.757610 0.000000 0.000000 
#    y 0.000000 1.730920 0.000000 
#    z 0.000000 0.000000 1.770120 
# 
# From -- ./inp_files/30292.got.cif
#   From: 2010.03.12/outbox.cif.g09.slc.cpg/sg59_16_cif.got.tgz:30292.got - 2010.04.16 16:29:54.
