data_PCOD8245555
_publ_section_title
;
Structure prediction by ZEFSAII (Michael W. Deem and Ramdas Pophale) SiO2 
 PCOD8245555
Probable space group: P M M N
;
_chemical_formula_sum "Si O2"
_cell_formula_units_Z 48
_cell_length_a 14.673566
_cell_length_b 8.869205
_cell_length_c 18.575995
_cell_angle_alpha 90.000000
_cell_angle_beta 90.000000
_cell_angle_gamma 90.000000
_cell_volume 2417.533208
_symmetry_space_group_name_H-M "P M M N"
_symmetry_group_IT_number 59
_space_group.IT_coordinate_system_code '2'
_symmetry_cell_setting 'orthorhombic'
loop_
_space_group_symop_operation_xyz
x,y,z
1/2-x,1/2-y,z
1/2+x,-y,-z
-x,1/2+y,-z
-x,-y,-z
1/2+x,1/2+y,-z
1/2-x,y,z
x,1/2-y,z
loop_
_atom_site_type_symbol
_atom_site_label
_atom_site_fract_x
_atom_site_fract_y
_atom_site_fract_z
Si Si1 0.095763 0.076250 0.512145
Si Si2 0.852458 0.079931 0.345110
Si Si3 0.355234 0.072498 0.984134
Si Si4 0.494574 0.072717 0.107906
Si Si5 0.351171 0.080093 0.353707
Si Si6 0.005047 0.926264 0.258693
O O1 0.082562 0.250000 0.533982
O O2 0.153367 0.058040 0.439486
O O3 0.147576 0.992991 0.576139
O O4 0.000000 0.000000 0.500000
O O5 0.750000 0.081419 0.315796
O O6 0.891877 0.250000 0.350031
O O7 0.908866 0.984151 0.287818
O O8 0.250000 0.015209 0.988453
O O9 0.357242 0.250000 0.971009
O O10 0.408977 0.995383 0.918345
O O11 0.409515 0.028557 0.056775
O O12 0.507363 0.250000 0.112761
O O13 0.468578 0.008101 0.185172
O O14 0.250000 0.052723 0.323054
O O15 0.384441 0.250000 0.335508
O O16 0.418353 0.960614 0.318023
O O17 0.999332 0.750000 0.244597
#
# Coordination Sequence:
#
# PCOD8245555 Si02
#       6
#     8   8   8   8   8   8
#     4  11  21  36  61  88 116 153 197 246 301 356
#     4  11  24  41  61  85 115 154 201 252 304 358
#     4   9  19  38  64  92 120 153 193 234 280 339
#     4  10  21  38  61  89 122 157 193 236 287 344
#     4  10  22  40  61  84 115 156 199 244 297 356
#     4  12  25  40  60  86 120 159 198 246 297 351
#
# _framework density 19.854949000000001
#
# number of rings (size 3 to 8) (size 9 to 14) (size 15 to 20)
#    0.000    1.500    1.667    3.500    0.000    5.333 
#    0.000    1.667    0.000    0.000    0.000    0.000 
#    0.000    0.000    0.000    0.000    0.000    0.000 
#
# Total GULP energy -595348.095399 kJ/mol
# GULP energy per Si atom -12403.085321 kJ/mol
# Density = 1.980976 g / cm^3
# Si number density = 19.854949 Si / 1000 Ang^3
#
#
#
# Elastic Constant Matrix: (Units=GPa)
#
#
# Indices 1 2 3 4 5 6 
#
# 1 112.1386 32.2408 12.3285 0.0000 0.0000 0.0000
# 2 32.2408 39.0476 20.7952 0.0000 0.0000 0.0000
# 3 12.3285 20.7952 71.4856 0.0000 0.0000 0.0000
# 4 0.0000 0.0000 0.0000 37.8565 0.0000 0.0000
# 5 0.0000 0.0000 0.0000 0.0000 10.5228 0.0000
# 6 0.0000 0.0000 0.0000 0.0000 0.0000 22.5570
#
#
#
# Elastic Compliance Matrix: (Units=1/GPa)
#
#
# Indices 1 2 3 4 5 6 
#
# 1 0.011747 -0.010200 0.000941 0.000000 0.000000 0.000000
# 2 -0.010200 0.039162 -0.009633 0.000000 0.000000 0.000000
# 3 0.000941 -0.009633 0.016629 0.000000 0.000000 0.000000
# 4 0.000000 0.000000 0.000000 0.026416 0.000000 0.000000
# 5 0.000000 0.000000 0.000000 0.000000 0.095032 0.000000
# 6 0.000000 0.000000 0.000000 0.000000 0.000000 0.044332
#
#
# Mechanical properties :
#
#
# Convention : Reuss Voigt Hill
#
# Bulk Modulus (GPa) = 33.60947 39.26676 36.43811
# Shear Modulus (GPa) = 17.79239 24.67442 21.23340
#
# Velocity S-wave (km/s) = 2.99677 3.52907 3.27376
# Velocity P-wave (km/s) = 5.37945 6.03535 5.71681
#
# Compressibility (1/GPa) = 0.02975352
#
# Stress axis : x y z
#
# Youngs Moduli (GPa) = 85.13001 25.53480 60.13678
#
# Poissons Ratio (x) = 0.26047 -0.05662
# Poissons Ratio (y) = 0.86836 0.57931
# Poissons Ratio (z) = -0.08015 0.24598
#
# Static dielectric constant tensor:
#      x y z
#    x 3.629350 0.000000 0.000000 
#    y 0.000000 3.768760 0.000000 
#    z 0.000000 0.000000 3.651650 
# 
# 
# High freq. dielectric constant tensor:
#      x y z
#    x 1.781150 0.000000 0.000000 
#    y 0.000000 1.780020 0.000000 
#    z 0.000000 0.000000 1.769470 
# 
# From -- ./inp_files/25412.got.cif
#   From: 2010.03.12/outbox.cif.g09.slc.cpg/sg59_13_cif.got.tgz:25412.got - 2010.04.16 16:29:54.
