data_PCOD8245646
_publ_section_title
;
Structure prediction by ZEFSAII (Michael W. Deem and Ramdas Pophale) SiO2 
 PCOD8245646
Probable space group: P M M N
;
_chemical_formula_sum "Si O2"
_cell_formula_units_Z 40
_cell_length_a 18.455429
_cell_length_b 11.068612
_cell_length_c 10.070800
_cell_angle_alpha 90.000000
_cell_angle_beta 90.000000
_cell_angle_gamma 90.000000
_cell_volume 2057.222569
_symmetry_space_group_name_H-M "P M M N"
_symmetry_group_IT_number 59
_space_group.IT_coordinate_system_code '2'
_symmetry_cell_setting 'orthorhombic'
loop_
_space_group_symop_operation_xyz
x,y,z
1/2-x,1/2-y,z
1/2+x,-y,-z
-x,1/2+y,-z
-x,-y,-z
1/2+x,1/2+y,-z
1/2-x,y,z
x,1/2-y,z
loop_
_atom_site_type_symbol
_atom_site_label
_atom_site_fract_x
_atom_site_fract_y
_atom_site_fract_z
Si Si1 0.410372 0.488941 0.141892
Si Si2 0.067043 0.889253 0.872449
Si Si3 0.832897 0.110630 0.620902
Si Si4 0.164360 0.250000 0.768906
Si Si5 0.835873 0.750000 0.931055
Si Si6 0.665046 0.495873 0.340742
O O1 0.494915 0.463135 0.162024
O O2 0.385497 0.574775 0.260422
O O3 0.363992 0.366811 0.146245
O O4 0.395681 0.558393 0.004546
O O5 0.046912 0.750000 0.894654
O O6 0.123589 0.901677 0.752782
O O7 0.750000 0.086760 0.663639
O O8 0.845194 0.250000 0.584311
O O9 0.853570 0.031093 0.492995
O O10 0.250000 0.250000 0.777329
O O11 0.137405 0.368532 0.691117
O O12 0.132622 0.250000 0.918486
O O13 0.750000 0.750000 0.928831
O O14 0.750000 0.479842 0.312087
#
# Coordination Sequence:
#
# PCOD8245646 Si02
#       6
#     8   8   8   4   4   8
#     4  11  23  39  60  88 122 162 198 246 309 353
#     4  11  23  39  60  87 122 158 205 249 293 362
#     4  10  22  41  62  89 123 156 198 249 301 359
#     4   9  18  35  59  89 119 150 199 247 294 352
#     4  11  20  37  63  91 122 156 201 255 299 352
#     4  10  21  39  63  88 118 159 200 248 301 356
#
# _framework density 19.443691000000001
#
# number of rings (size 3 to 8) (size 9 to 14) (size 15 to 20)
#    0.000    1.600    3.000    1.800    0.000    3.600 
#    1.800    2.000    0.000    0.000    0.000    0.000 
#    0.000    0.000    0.000    0.000    0.000    0.000 
#
# Total GULP energy -496248.614886 kJ/mol
# GULP energy per Si atom -12406.215372 kJ/mol
# Density = 1.939944 g / cm^3
# Si number density = 19.443691 Si / 1000 Ang^3
#
#
#
# Elastic Constant Matrix: (Units=GPa)
#
#
# Indices 1 2 3 4 5 6 
#
# 1 64.7007 15.6938 46.9652 0.0000 0.0000 0.0000
# 2 15.6938 81.4316 23.7291 0.0000 0.0000 0.0000
# 3 46.9652 23.7291 95.2775 0.0000 0.0000 0.0000
# 4 0.0000 0.0000 0.0000 36.7118 0.0000 0.0000
# 5 0.0000 0.0000 0.0000 0.0000 31.1472 0.0000
# 6 0.0000 0.0000 0.0000 0.0000 0.0000 28.8696
#
#
#
# Elastic Compliance Matrix: (Units=1/GPa)
#
#
# Indices 1 2 3 4 5 6 
#
# 1 0.024190 -0.001280 -0.011605 0.000000 0.000000 0.000000
# 2 -0.001280 0.013309 -0.002684 0.000000 0.000000 0.000000
# 3 -0.011605 -0.002684 0.016885 0.000000 0.000000 0.000000
# 4 0.000000 0.000000 0.000000 0.027239 0.000000 0.000000
# 5 0.000000 0.000000 0.000000 0.000000 0.032106 0.000000
# 6 0.000000 0.000000 0.000000 0.000000 0.000000 0.034638
#
#
# Mechanical properties :
#
#
# Convention : Reuss Voigt Hill
#
# Bulk Modulus (GPa) = 43.01871 46.02067 44.51969
# Shear Modulus (GPa) = 26.70166 29.68051 28.19109
#
# Velocity S-wave (km/s) = 3.70980 3.91127 3.81186
# Velocity P-wave (km/s) = 6.36576 6.64209 6.50540
#
# Compressibility (1/GPa) = 0.02324570
#
# Stress axis : x y z
#
# Youngs Moduli (GPa) = 41.33856 75.13724 59.22545
#
# Poissons Ratio (x) = 0.09620 0.68733
# Poissons Ratio (y) = 0.05293 0.15893
# Poissons Ratio (z) = 0.47975 0.20163
#
# Static dielectric constant tensor:
#      x y z
#    x 3.377500 0.000000 0.000000 
#    y 0.000000 3.654450 0.000000 
#    z 0.000000 0.000000 3.456810 
# 
# 
# High freq. dielectric constant tensor:
#      x y z
#    x 1.748460 0.000000 0.000000 
#    y 0.000000 1.769280 0.000000 
#    z 0.000000 0.000000 1.754630 
# 
# From -- ./inp_files/11153.got.cif
#   From: 2010.03.12/outbox.cif.g09.slc.cpg/sg59_6_cif.got.tgz:11153.got - 2010.04.16 16:29:54.
