data_PCOD8245585
_publ_section_title
;
Structure prediction by ZEFSAII (Michael W. Deem and Ramdas Pophale) SiO2 
 PCOD8245585
Probable space group: P M M N
;
_chemical_formula_sum "Si O2"
_cell_formula_units_Z 40
_cell_length_a 16.648492
_cell_length_b 8.888591
_cell_length_c 12.682200
_cell_angle_alpha 90.000000
_cell_angle_beta 90.000000
_cell_angle_gamma 90.000000
_cell_volume 1876.732706
_symmetry_space_group_name_H-M "P M M N"
_symmetry_group_IT_number 59
_space_group.IT_coordinate_system_code '2'
_symmetry_cell_setting 'orthorhombic'
loop_
_space_group_symop_operation_xyz
x,y,z
1/2-x,1/2-y,z
1/2+x,-y,-z
-x,1/2+y,-z
-x,-y,-z
1/2+x,1/2+y,-z
1/2-x,y,z
x,1/2-y,z
loop_
_atom_site_type_symbol
_atom_site_label
_atom_site_fract_x
_atom_site_fract_y
_atom_site_fract_z
Si Si1 0.157302 0.084432 0.354535
Si Si2 0.917576 0.428287 0.460062
Si Si3 0.416072 0.073174 0.969051
Si Si4 0.843662 0.926774 0.256536
Si Si5 0.657256 0.415274 0.844016
O O1 0.250000 0.107541 0.329753
O O2 0.117087 0.250000 0.369695
O O3 0.149881 0.983094 0.458348
O O4 0.115691 0.001834 0.254467
O O5 0.924180 0.250000 0.460028
O O6 0.892465 0.483532 0.344799
O O7 0.000000 0.500000 0.500000
O O8 0.422562 0.250000 0.982128
O O9 0.386371 0.028957 0.852842
O O10 0.500000 0.000000 0.000000
O O11 0.350450 0.010598 0.049907
O O12 0.750000 0.975598 0.253882
O O13 0.850552 0.750000 0.279578
O O14 0.750000 0.392915 0.818718
O O15 0.616182 0.250000 0.855208
#
# Coordination Sequence:
#
# PCOD8245585 Si02
#       5
#     8   8   8   8   8
#     4  10  21  39  64  92 124 163 207 256 314 380
#     4  12  26  42  64  93 129 168 212 265 323 384
#     4  11  24  41  64  93 130 171 215 267 324 383
#     4  10  23  45  70  95 128 173 222 270 326 394
#     4  10  21  38  62  92 126 164 208 258 313 378
#
# _framework density 21.313638000000001
#
# number of rings (size 3 to 8) (size 9 to 14) (size 15 to 20)
#    0.000    1.400    0.000    4.800    2.800    7.600 
#    0.000    0.000    0.000    0.000    0.000    0.000 
#    0.000    0.000    0.000    0.000    0.000    0.000 
#
# Total GULP energy -496017.339298 kJ/mol
# GULP energy per Si atom -12400.433482 kJ/mol
# Density = 2.126513 g / cm^3
# Si number density = 21.313638 Si / 1000 Ang^3
#
#
#
# Elastic Constant Matrix: (Units=GPa)
#
#
# Indices 1 2 3 4 5 6 
#
# 1 80.0257 48.7609 43.1085 0.0000 0.0000 0.0000
# 2 48.7609 157.8004 105.3732 0.0000 0.0000 0.0000
# 3 43.1085 105.3732 192.4071 0.0000 0.0000 0.0000
# 4 0.0000 0.0000 0.0000 42.3381 0.0000 0.0000
# 5 0.0000 0.0000 0.0000 0.0000 35.6191 0.0000
# 6 0.0000 0.0000 0.0000 0.0000 0.0000 27.9597
#
#
#
# Elastic Compliance Matrix: (Units=1/GPa)
#
#
# Indices 1 2 3 4 5 6 
#
# 1 0.015614 -0.003924 -0.001349 0.000000 0.000000 0.000000
# 2 -0.003924 0.010977 -0.005132 0.000000 0.000000 0.000000
# 3 -0.001349 -0.005132 0.008310 0.000000 0.000000 0.000000
# 4 0.000000 0.000000 0.000000 0.023619 0.000000 0.000000
# 5 0.000000 0.000000 0.000000 0.000000 0.028075 0.000000
# 6 0.000000 0.000000 0.000000 0.000000 0.000000 0.035766
#
#
# Mechanical properties :
#
#
# Convention : Reuss Voigt Hill
#
# Bulk Modulus (GPa) = 70.97247 91.63534 81.30391
# Shear Modulus (GPa) = 33.81386 36.71608 35.26497
#
# Velocity S-wave (km/s) = 3.98740 4.15499 4.07206
# Velocity P-wave (km/s) = 7.38718 8.13054 7.76776
#
# Compressibility (1/GPa) = 0.01408997
#
# Stress axis : x y z
#
# Youngs Moduli (GPa) = 64.04676 91.10156 120.33009
#
# Poissons Ratio (x) = 0.35744 0.16238
# Poissons Ratio (y) = 0.25129 0.61759
# Poissons Ratio (z) = 0.08643 0.46757
#
# Static dielectric constant tensor:
#      x y z
#    x 3.741230 0.000000 0.000000 
#    y 0.000000 4.272100 0.000000 
#    z 0.000000 0.000000 4.158290 
# 
# 
# High freq. dielectric constant tensor:
#      x y z
#    x 1.827300 0.000000 0.000000 
#    y 0.000000 1.849560 0.000000 
#    z 0.000000 0.000000 1.850740 
# 
# From -- ./inp_files/13860.got.cif
#   From: 2010.03.12/outbox.cif.g09.slc.cpg/sg59_7_cif.got.tgz:13860.got - 2010.04.16 16:29:54.
