data_PCOD8245930
_publ_section_title
;
Structure prediction by ZEFSAII (Michael W. Deem and Ramdas Pophale) SiO2 
 PCOD8245930
Probable space group: P M M N
;
_chemical_formula_sum "Si O2"
_cell_formula_units_Z 64
_cell_length_a 18.745422
_cell_length_b 14.527551
_cell_length_c 11.458891
_cell_angle_alpha 90.000000
_cell_angle_beta 90.000000
_cell_angle_gamma 90.000000
_cell_volume 3120.543341
_symmetry_space_group_name_H-M "P M M N"
_symmetry_group_IT_number 59
_space_group.IT_coordinate_system_code '2'
_symmetry_cell_setting 'orthorhombic'
loop_
_space_group_symop_operation_xyz
x,y,z
1/2-x,1/2-y,z
1/2+x,-y,-z
-x,1/2+y,-z
-x,-y,-z
1/2+x,1/2+y,-z
1/2-x,y,z
x,1/2-y,z
loop_
_atom_site_type_symbol
_atom_site_label
_atom_site_fract_x
_atom_site_fract_y
_atom_site_fract_z
Si Si1 0.923896 0.648892 0.599630
Si Si2 0.447935 0.411386 0.155682
Si Si3 0.530784 0.390564 0.766777
Si Si4 0.918063 0.148914 0.014106
Si Si5 0.926853 0.144295 0.511584
Si Si6 0.130884 0.353701 0.758258
Si Si7 0.668029 0.520416 0.459251
Si Si8 0.332210 0.028626 0.978947
O O1 0.902501 0.750000 0.552289
O O2 0.933193 0.658179 0.738870
O O3 0.862939 0.575523 0.570160
O O4 0.995752 0.615812 0.536097
O O5 0.482179 0.501523 0.214171
O O6 0.503083 0.369703 0.063750
O O7 0.374230 0.434001 0.091061
O O8 0.576052 0.370515 0.650667
O O9 0.454139 0.343569 0.756667
O O10 0.575742 0.349782 0.874149
O O11 0.891510 0.250000 0.055383
O O12 0.863177 0.071401 0.058831
O O13 0.908682 0.250000 0.479426
O O14 0.870190 0.078514 0.447214
O O15 0.162132 0.250000 0.746778
O O16 0.158161 0.417602 0.654445
O O17 0.159786 0.398112 0.876443
O O18 0.750000 0.500076 0.483131
O O19 0.250000 0.016874 0.013683
#
# Coordination Sequence:
#
# PCOD8245930 Si02
#       8
#     8   8   8   8   8   8   8   8
#     4  11  23  39  64  93 123 161 205 256 312 371
#     4  11  21  40  64  93 127 163 206 257 313 365
#     4  11  19  39  68  97 121 154 211 270 308 349
#     4  11  22  39  66  95 126 165 210 260 309 367
#     4  11  23  42  69  94 120 162 214 262 307 364
#     4  12  23  41  68  94 121 159 209 261 312 369
#     4  12  26  42  61  90 131 166 200 253 312 374
#     4  11  25  42  61  91 129 167 207 255 311 371
#
# _framework density 20.509247999999999
#
# number of rings (size 3 to 8) (size 9 to 14) (size 15 to 20)
#    0.000    0.750    5.000    4.125    0.000    3.250 
#    0.000    0.000    0.000    3.000    0.000    0.000 
#    0.000    0.000    0.000    0.000    0.000    0.000 
#
# Total GULP energy -793823.069448 kJ/mol
# GULP energy per Si atom -12403.485460 kJ/mol
# Density = 2.046257 g / cm^3
# Si number density = 20.509248 Si / 1000 Ang^3
#
#
#
# Elastic Constant Matrix: (Units=GPa)
#
#
# Indices 1 2 3 4 5 6 
#
# 1 104.1271 45.8859 27.8611 0.0000 0.0000 0.0000
# 2 45.8859 141.9862 34.5754 0.0000 0.0000 0.0000
# 3 27.8611 34.5754 99.8023 0.0000 0.0000 0.0000
# 4 0.0000 0.0000 0.0000 24.9126 0.0000 0.0000
# 5 0.0000 0.0000 0.0000 0.0000 -8.6034 0.0000
# 6 0.0000 0.0000 0.0000 0.0000 0.0000 5.4592
#
#
#
# Elastic Compliance Matrix: (Units=1/GPa)
#
#
# Indices 1 2 3 4 5 6 
#
# 1 0.011594 -0.003231 -0.002117 0.000000 0.000000 0.000000
# 2 -0.003231 0.008592 -0.002075 0.000000 0.000000 0.000000
# 3 -0.002117 -0.002075 0.011330 0.000000 0.000000 0.000000
# 4 0.000000 0.000000 0.000000 0.040140 0.000000 0.000000
# 5 0.000000 0.000000 0.000000 0.000000 -0.116233 0.000000
# 6 0.000000 0.000000 0.000000 0.000000 0.000000 0.183178
#
#
# Mechanical properties :
#
#
# Convention : Reuss Voigt Hill
#
# Bulk Modulus (GPa) = 59.98897 62.50672 61.24784
# Shear Modulus (GPa) = 31.44574 20.19323 25.81948
#
# Velocity S-wave (km/s) = 3.91992 3.14122 3.55197
# Velocity P-wave (km/s) = 7.05697 6.61059 6.83743
#
# Compressibility (1/GPa) = 0.01666973
#
# Stress axis : x y z
#
# Youngs Moduli (GPa) = 86.25078 116.38165 88.26440
#
# Poissons Ratio (x) = 0.37607 0.18687
# Poissons Ratio (y) = 0.27870 0.18312
# Poissons Ratio (z) = 0.18261 0.24145
#
# Static dielectric constant tensor:
#      x y z
#    x 3.469540 0.000000 0.000000 
#    y 0.000000 3.981650 0.000000 
#    z 0.000000 0.000000 3.766360 
# 
# 
# High freq. dielectric constant tensor:
#      x y z
#    x 1.771640 0.000000 0.000000 
#    y 0.000000 1.820030 0.000000 
#    z 0.000000 0.000000 1.807200 
# 
# From -- ./inp_files/17815.got.cif
#   From: 2010.03.12/outbox.cif.g09.slc.cpg/sg59_9_cif.got.tgz:17815.got - 2010.04.16 16:29:54.
