data_PCOD8245155
_publ_section_title
;
Structure prediction by ZEFSAII (Michael W. Deem and Ramdas Pophale) SiO2 
 PCOD8245155
Probable space group: P M M N
;
_chemical_formula_sum "Si O2"
_cell_formula_units_Z 48
_cell_length_a 8.844947
_cell_length_b 14.701603
_cell_length_c 20.239228
_cell_angle_alpha 90.000000
_cell_angle_beta 90.000000
_cell_angle_gamma 90.000000
_cell_volume 2631.805976
_symmetry_space_group_name_H-M "P M M N"
_symmetry_group_IT_number 59
_space_group.IT_coordinate_system_code '2'
_symmetry_cell_setting 'orthorhombic'
loop_
_space_group_symop_operation_xyz
x,y,z
1/2-x,1/2-y,z
1/2+x,-y,-z
-x,1/2+y,-z
-x,-y,-z
1/2+x,1/2+y,-z
1/2-x,y,z
x,1/2-y,z
loop_
_atom_site_type_symbol
_atom_site_label
_atom_site_fract_x
_atom_site_fract_y
_atom_site_fract_z
Si Si1 0.586519 0.750000 0.559893
Si Si2 0.069584 0.250000 0.024128
Si Si3 0.569618 0.942539 0.557372
Si Si4 0.069815 0.053272 0.293905
Si Si5 0.573630 0.940861 0.182403
Si Si6 0.427563 0.561840 0.943856
Si Si7 0.086709 0.250000 0.285150
Si Si8 0.070445 0.250000 0.873295
O O1 0.750000 0.750000 0.524314
O O2 0.500692 0.842393 0.540975
O O3 0.616042 0.750000 0.637516
O O4 0.250000 0.250000 0.029626
O O5 0.004396 0.339307 0.059782
O O6 0.012306 0.250000 0.948559
O O7 0.750000 0.943158 0.553573
O O8 0.518048 0.971336 0.631222
O O9 0.500000 0.000000 0.500000
O O10 0.250000 0.058945 0.290299
O O11 0.003175 0.152974 0.269528
O O12 0.009986 0.972690 0.248293
O O13 0.750000 0.934587 0.197625
O O14 0.510234 0.840899 0.162876
O O15 0.539475 0.012698 0.125060
O O16 0.250000 0.571655 0.957745
O O17 0.500000 0.500000 0.000000
O O18 0.250000 0.250000 0.248552
O O19 0.250000 0.250000 0.874970
#
# Coordination Sequence:
#
# PCOD8245155 Si02
#       8
#     4   4   8   8   8   8   4   4
#     4   7  12  26  47  69  93 129 170 202 243 302
#     4  11  21  38  60  82 111 145 183 229 275 324
#     4   9  17  31  52  76 103 135 173 218 261 310
#     4   9  18  33  53  78 105 134 174 218 261 314
#     4  10  21  37  56  76 105 140 176 220 267 316
#     4  11  22  37  57  83 110 140 181 229 277 327
#     4   7  12  27  50  70  95 130 164 203 251 303
#     4   9  18  37  57  73  99 142 183 214 257 315
#
# _framework density 18.238426
#
# number of rings (size 3 to 8) (size 9 to 14) (size 15 to 20)
#    0.000    2.667    1.667    2.750    0.000    2.667 
#    0.000    3.750    0.000    8.000    0.000    0.000 
#    0.000    0.000    0.000    0.000    0.000    0.000 
#
# Total GULP energy -594649.142451 kJ/mol
# GULP energy per Si atom -12388.523801 kJ/mol
# Density = 1.819691 g / cm^3
# Si number density = 18.238426 Si / 1000 Ang^3
#
#
#
# Elastic Constant Matrix: (Units=GPa)
#
#
# Indices 1 2 3 4 5 6 
#
# 1 45.6241 41.2373 36.6838 0.0000 0.0000 0.0000
# 2 41.2373 170.3621 73.4825 0.0000 0.0000 0.0000
# 3 36.6838 73.4825 105.7043 0.0000 0.0000 0.0000
# 4 0.0000 0.0000 0.0000 32.5023 0.0000 0.0000
# 5 0.0000 0.0000 0.0000 0.0000 29.1538 0.0000
# 6 0.0000 0.0000 0.0000 0.0000 0.0000 21.7949
#
#
#
# Elastic Compliance Matrix: (Units=1/GPa)
#
#
# Indices 1 2 3 4 5 6 
#
# 1 0.032449 -0.004281 -0.008285 0.000000 0.000000 0.000000
# 2 -0.004281 0.008948 -0.004735 0.000000 0.000000 0.000000
# 3 -0.008285 -0.004735 0.015627 0.000000 0.000000 0.000000
# 4 0.000000 0.000000 0.000000 0.030767 0.000000 0.000000
# 5 0.000000 0.000000 0.000000 0.000000 0.034301 0.000000
# 6 0.000000 0.000000 0.000000 0.000000 0.000000 0.045882
#
#
# Mechanical properties :
#
#
# Convention : Reuss Voigt Hill
#
# Bulk Modulus (GPa) = 44.59784 69.38864 56.99324
# Shear Modulus (GPa) = 23.80363 28.04264 25.92314
#
# Velocity S-wave (km/s) = 3.61659 3.92542 3.77417
# Velocity P-wave (km/s) = 6.47652 7.65984 7.09290
#
# Compressibility (1/GPa) = 0.02242261
#
# Stress axis : x y z
#
# Youngs Moduli (GPa) = 30.81739 111.75137 63.99035
#
# Poissons Ratio (x) = 0.47839 0.53018
# Poissons Ratio (y) = 0.13192 0.30300
# Poissons Ratio (z) = 0.25533 0.52915
#
# Static dielectric constant tensor:
#      x y z
#    x 3.041290 0.000000 0.000000 
#    y 0.000000 6.334030 0.000000 
#    z 0.000000 0.000000 3.312270 
# 
# 
# High freq. dielectric constant tensor:
#      x y z
#    x 1.676170 0.000000 0.000000 
#    y 0.000000 1.724030 0.000000 
#    z 0.000000 0.000000 1.691170 
# 
# From -- ./inp_files/25642.got.cif
#   From: 2010.03.12/outbox.cif.g09.slc.cpg/sg59_13_cif.got.tgz:25642.got - 2010.04.16 16:29:54.
