data_PCOD8245095
_publ_section_title
;
Structure prediction by ZEFSAII (Michael W. Deem and Ramdas Pophale) SiO2 
 PCOD8245095
Probable space group: P M M N
;
_chemical_formula_sum "Si O2"
_cell_formula_units_Z 64
_cell_length_a 8.930254
_cell_length_b 28.896765
_cell_length_c 12.720811
_cell_angle_alpha 90.000000
_cell_angle_beta 90.000000
_cell_angle_gamma 90.000000
_cell_volume 3282.674623
_symmetry_space_group_name_H-M "P M M N"
_symmetry_group_IT_number 59
_space_group.IT_coordinate_system_code '2'
_symmetry_cell_setting 'orthorhombic'
loop_
_space_group_symop_operation_xyz
x,y,z
1/2-x,1/2-y,z
1/2+x,-y,-z
-x,1/2+y,-z
-x,-y,-z
1/2+x,1/2+y,-z
1/2-x,y,z
x,1/2-y,z
loop_
_atom_site_type_symbol
_atom_site_label
_atom_site_fract_x
_atom_site_fract_y
_atom_site_fract_z
Si Si1 0.074507 0.303144 0.453296
Si Si2 0.573315 0.060079 0.171682
Si Si3 0.071278 0.453788 0.546163
Si Si4 0.427291 0.458174 0.784668
Si Si5 0.427007 0.611624 0.618078
Si Si6 0.922909 0.697921 0.127948
Si Si7 0.415791 0.804559 0.336310
Si Si8 0.423625 0.105362 0.973207
O O1 0.250000 0.311426 0.441067
O O2 0.031179 0.250000 0.430167
O O3 0.983241 0.335255 0.371864
O O4 0.024987 0.319055 0.569621
O O5 0.750000 0.060370 0.161984
O O6 0.521249 0.085733 0.277102
O O7 0.509756 0.007899 0.176658
O O8 0.510859 0.087028 0.072579
O O9 0.250000 0.457314 0.538241
O O10 0.016502 0.447032 0.666776
O O11 0.000000 0.500000 0.500000
O O12 0.010833 0.410349 0.481477
O O13 0.250000 0.460577 0.781856
O O14 0.483372 0.419490 0.866899
O O15 0.250000 0.609038 0.601368
O O16 0.750000 0.698023 0.162013
O O17 0.971524 0.750000 0.092311
O O18 0.950988 0.660860 0.035109
O O19 0.014870 0.678648 0.226908
O O20 0.250000 0.826292 0.352382
O O21 0.403359 0.750000 0.332025
O O22 0.250000 0.093835 0.989229
#
# Coordination Sequence:
#
# PCOD8245095 Si02
#       8
#     8   8   8   8   8   8   8   8
#     4  10  21  37  57  83 115 153 197 242 290 346
#     4  10  21  40  59  78 112 151 187 238 297 347
#     4  11  21  37  60  87 121 157 193 234 291 356
#     4   9  19  37  58  82 116 149 181 233 293 344
#     4  11  23  39  59  85 119 157 196 240 294 352
#     4   9  18  33  52  77 112 150 187 232 287 342
#     4   9  17  30  50  77 110 146 183 228 281 337
#     4  10  21  36  58  84 109 145 195 241 287 344
#
# _framework density 19.496297999999999
#
# number of rings (size 3 to 8) (size 9 to 14) (size 15 to 20)
#    0.000    2.125    1.250    1.875    1.750    3.750 
#    0.000    1.875    0.000    2.250    0.000    0.000 
#    0.000    0.000    0.000    0.000    0.000    0.000 
#
# Total GULP energy -793507.591248 kJ/mol
# GULP energy per Si atom -12398.556113 kJ/mol
# Density = 1.945192 g / cm^3
# Si number density = 19.496298 Si / 1000 Ang^3
#
#
#
# Elastic Constant Matrix: (Units=GPa)
#
#
# Indices 1 2 3 4 5 6 
#
# 1 50.0598 28.2139 29.3079 0.0000 0.0000 0.0000
# 2 28.2139 119.2569 60.9213 0.0000 0.0000 0.0000
# 3 29.3079 60.9213 112.0606 0.0000 0.0000 0.0000
# 4 0.0000 0.0000 0.0000 22.0763 0.0000 0.0000
# 5 0.0000 0.0000 0.0000 0.0000 32.9861 0.0000
# 6 0.0000 0.0000 0.0000 0.0000 0.0000 29.4862
#
#
#
# Elastic Compliance Matrix: (Units=1/GPa)
#
#
# Indices 1 2 3 4 5 6 
#
# 1 0.024604 -0.003508 -0.004528 0.000000 0.000000 0.000000
# 2 -0.003508 0.012109 -0.005666 0.000000 0.000000 0.000000
# 3 -0.004528 -0.005666 0.013188 0.000000 0.000000 0.000000
# 4 0.000000 0.000000 0.000000 0.045298 0.000000 0.000000
# 5 0.000000 0.000000 0.000000 0.000000 0.030316 0.000000
# 6 0.000000 0.000000 0.000000 0.000000 0.000000 0.033914
#
#
# Mechanical properties :
#
#
# Convention : Reuss Voigt Hill
#
# Bulk Modulus (GPa) = 44.44717 57.58485 51.01601
# Shear Modulus (GPa) = 25.72920 27.77199 26.75059
#
# Velocity S-wave (km/s) = 3.63670 3.77832 3.70819
# Velocity P-wave (km/s) = 6.36250 6.97385 6.67518
#
# Compressibility (1/GPa) = 0.02249862
#
# Stress axis : x y z
#
# Youngs Moduli (GPa) = 40.64381 82.57980 75.82567
#
# Poissons Ratio (x) = 0.28968 0.34332
# Poissons Ratio (y) = 0.14257 0.42962
# Poissons Ratio (z) = 0.18403 0.46789
#
# Static dielectric constant tensor:
#      x y z
#    x 3.513660 0.000000 0.000000 
#    y 0.000000 3.825190 0.000000 
#    z 0.000000 0.000000 3.533040 
# 
# 
# High freq. dielectric constant tensor:
#      x y z
#    x 1.747840 0.000000 0.000000 
#    y 0.000000 1.770240 0.000000 
#    z 0.000000 0.000000 1.744440 
# 
# From -- ./inp_files/14960.got.cif
#   From: 2010.03.12/outbox.cif.g09.slc.cpg/sg59_8_cif.got.tgz:14960.got - 2010.04.16 16:29:54.
