data_PCOD8245516
_publ_section_title
;
Structure prediction by ZEFSAII (Michael W. Deem and Ramdas Pophale) SiO2 
 PCOD8245516
Probable space group: P M M N
;
_chemical_formula_sum "Si O2"
_cell_formula_units_Z 56
_cell_length_a 8.625490
_cell_length_b 18.895470
_cell_length_c 16.415298
_cell_angle_alpha 90.000000
_cell_angle_beta 90.000000
_cell_angle_gamma 90.000000
_cell_volume 2675.409385
_symmetry_space_group_name_H-M "P M M N"
_symmetry_group_IT_number 59
_space_group.IT_coordinate_system_code '2'
_symmetry_cell_setting 'orthorhombic'
loop_
_space_group_symop_operation_xyz
x,y,z
1/2-x,1/2-y,z
1/2+x,-y,-z
-x,1/2+y,-z
-x,-y,-z
1/2+x,1/2+y,-z
1/2-x,y,z
x,1/2-y,z
loop_
_atom_site_type_symbol
_atom_site_label
_atom_site_fract_x
_atom_site_fract_y
_atom_site_fract_z
Si Si1 0.568388 0.420531 0.172095
Si Si2 0.573998 0.833619 0.687779
Si Si3 0.066461 0.331235 0.850879
Si Si4 0.432763 0.552322 0.254239
Si Si5 0.433740 0.421528 0.006025
Si Si6 0.430245 0.832105 0.517857
Si Si7 0.067384 0.047414 0.572155
O O1 0.750000 0.433823 0.163753
O O2 0.534251 0.365372 0.243170
O O3 0.487019 0.496023 0.186857
O O4 0.499796 0.387491 0.089129
O O5 0.750000 0.861760 0.696477
O O6 0.566522 0.750000 0.695440
O O7 0.506897 0.858556 0.601551
O O8 0.250000 0.334550 0.842365
O O9 0.008252 0.250000 0.853077
O O10 0.993207 0.370288 0.772367
O O11 0.009671 0.371220 0.932550
O O12 0.250000 0.554027 0.261376
O O13 0.501786 0.525830 0.340052
O O14 0.250000 0.424782 0.008733
O O15 0.500000 0.500000 0.000000
O O16 0.250000 0.851754 0.520336
O O17 0.458767 0.750000 0.502763
O O18 0.515014 0.871911 0.444145
O O19 0.250000 0.039410 0.573997
O O20 0.000000 0.000000 0.500000
#
# Coordination Sequence:
#
# PCOD8245516 Si02
#       7
#     8   8   8   8   8   8   8
#     4  12  24  39  62  91 126 165 208 256 310 372
#     4  10  21  38  60  88 123 162 206 256 312 372
#     4  10  23  44  68  95 129 168 211 260 318 380
#     4  12  25  42  65  92 124 164 211 261 315 375
#     4  11  22  39  65  94 126 165 207 256 312 372
#     4  10  21  39  62  88 121 160 203 252 309 372
#     4  12  25  42  64  91 126 163 209 262 315 374
#
# _framework density 20.931377999999999
#
# number of rings (size 3 to 8) (size 9 to 14) (size 15 to 20)
#    0.000    1.000    1.429    6.000    0.000    3.714 
#    0.000    1.429    0.000    0.000    0.000    0.000 
#    0.000    0.000    0.000    0.000    0.000    0.000 
#
# Total GULP energy -694716.882437 kJ/mol
# GULP energy per Si atom -12405.658615 kJ/mol
# Density = 2.088374 g / cm^3
# Si number density = 20.931378 Si / 1000 Ang^3
#
#
#
# Elastic Constant Matrix: (Units=GPa)
#
#
# Indices 1 2 3 4 5 6 
#
# 1 117.0217 34.4277 39.9772 0.0000 0.0000 0.0000
# 2 34.4277 55.5386 37.2136 0.0000 0.0000 0.0000
# 3 39.9772 37.2136 103.3342 0.0000 0.0000 0.0000
# 4 0.0000 0.0000 0.0000 33.5120 0.0000 0.0000
# 5 0.0000 0.0000 0.0000 0.0000 39.9179 0.0000
# 6 0.0000 0.0000 0.0000 0.0000 0.0000 34.8994
#
#
#
# Elastic Compliance Matrix: (Units=1/GPa)
#
#
# Indices 1 2 3 4 5 6 
#
# 1 0.010866 -0.005165 -0.002343 0.000000 0.000000 0.000000
# 2 -0.005165 0.026188 -0.007433 0.000000 0.000000 0.000000
# 3 -0.002343 -0.007433 0.013261 0.000000 0.000000 0.000000
# 4 0.000000 0.000000 0.000000 0.029840 0.000000 0.000000
# 5 0.000000 0.000000 0.000000 0.000000 0.025051 0.000000
# 6 0.000000 0.000000 0.000000 0.000000 0.000000 0.028654
#
#
# Mechanical properties :
#
#
# Convention : Reuss Voigt Hill
#
# Bulk Modulus (GPa) = 48.94465 55.45904 52.20185
# Shear Modulus (GPa) = 29.31657 32.61760 30.96708
#
# Velocity S-wave (km/s) = 3.74652 3.95183 3.85054
# Velocity P-wave (km/s) = 6.49226 6.88300 6.69048
#
# Compressibility (1/GPa) = 0.02043124
#
# Stress axis : x y z
#
# Youngs Moduli (GPa) = 92.03346 38.18609 75.41108
#
# Poissons Ratio (x) = 0.19724 0.17672
# Poissons Ratio (y) = 0.47537 0.56050
# Poissons Ratio (z) = 0.21568 0.28382
#
# Static dielectric constant tensor:
#      x y z
#    x 3.853270 0.000000 0.000000 
#    y 0.000000 3.862660 0.000000 
#    z 0.000000 0.000000 0.192620 
# 
# 
# High freq. dielectric constant tensor:
#      x y z
#    x 1.829370 0.000000 0.000000 
#    y 0.000000 1.821360 0.000000 
#    z 0.000000 0.000000 1.829220 
# 
# From -- ./inp_files/20990.got.cif
#   From: 2010.03.12/outbox.cif.g09.slc.cpg/sg59_11_cif.got.tgz:20990.got - 2010.04.16 16:29:54.
