data_PCOD8245864
_publ_section_title
;
Structure prediction by ZEFSAII (Michael W. Deem and Ramdas Pophale) SiO2 
 PCOD8245864
Probable space group: P M M N
;
_chemical_formula_sum "Si O2"
_cell_formula_units_Z 56
_cell_length_a 14.365262
_cell_length_b 21.881396
_cell_length_c 8.786377
_cell_angle_alpha 90.000000
_cell_angle_beta 90.000000
_cell_angle_gamma 90.000000
_cell_volume 2761.839336
_symmetry_space_group_name_H-M "P M M N"
_symmetry_group_IT_number 59
_space_group.IT_coordinate_system_code '2'
_symmetry_cell_setting 'orthorhombic'
loop_
_space_group_symop_operation_xyz
x,y,z
1/2-x,1/2-y,z
1/2+x,-y,-z
-x,1/2+y,-z
-x,-y,-z
1/2+x,1/2+y,-z
1/2-x,y,z
x,1/2-y,z
loop_
_atom_site_type_symbol
_atom_site_label
_atom_site_fract_x
_atom_site_fract_y
_atom_site_fract_z
Si Si1 0.354654 0.911925 0.630438
Si Si2 0.143905 0.386664 0.142039
Si Si3 0.148731 0.820067 0.873229
Si Si4 0.496208 0.514173 0.821789
Si Si5 0.496592 0.891368 0.368586
Si Si6 0.015644 0.321867 0.922640
Si Si7 0.856245 0.680275 0.555411
O O1 0.250000 0.937074 0.600781
O O2 0.352344 0.844572 0.701817
O O3 0.403611 0.952285 0.761589
O O4 0.406919 0.904913 0.471258
O O5 0.250000 0.407705 0.114895
O O6 0.137010 0.332007 0.264318
O O7 0.087227 0.444517 0.209480
O O8 0.105084 0.359960 0.981850
O O9 0.250000 0.832170 0.949305
O O10 0.125573 0.750000 0.857636
O O11 0.069155 0.849074 0.977720
O O12 0.491589 0.452688 0.725771
O O13 0.500000 0.500000 0.000000
O O14 0.487034 0.835538 0.250711
O O15 0.584334 0.872118 0.471522
O O16 0.033999 0.250000 0.939107
O O17 0.750000 0.673307 0.498743
O O18 0.891162 0.750000 0.525135
#
# Coordination Sequence:
#
# PCOD8245864 Si02
#       7
#     8   8   8   8   8   8   8
#     4  11  24  41  64  95 126 167 217 263 320 389
#     4  11  23  42  68  98 129 174 226 276 329 394
#     4   9  18  36  62  89 121 163 210 259 311 374
#     4  12  24  46  67  91 128 173 222 273 327 389
#     4  12  24  41  64  92 135 172 211 267 330 395
#     4  11  22  39  65  95 130 170 216 273 331 390
#     4  10  22  41  67  98 133 172 214 267 336 406
#
# _framework density 20.276342
#
# number of rings (size 3 to 8) (size 9 to 14) (size 15 to 20)
#    0.000    1.143    4.286    1.286    0.000    6.000 
#    0.000    0.000    0.000    0.000    0.000    0.000 
#    0.000    0.000    0.000    0.000    0.000    0.000 
#
# Total GULP energy -694027.835417 kJ/mol
# GULP energy per Si atom -12393.354204 kJ/mol
# Density = 2.023019 g / cm^3
# Si number density = 20.276342 Si / 1000 Ang^3
#
#
#
# Elastic Constant Matrix: (Units=GPa)
#
#
# Indices 1 2 3 4 5 6 
#
# 1 147.9676 62.5627 61.2303 0.0000 0.0000 0.0000
# 2 62.5627 61.4073 31.4608 0.0000 0.0000 0.0000
# 3 61.2303 31.4608 120.9681 0.0000 0.0000 0.0000
# 4 0.0000 0.0000 0.0000 39.7480 0.0000 0.0000
# 5 0.0000 0.0000 0.0000 0.0000 13.3563 0.0000
# 6 0.0000 0.0000 0.0000 0.0000 0.0000 22.3557
#
#
#
# Elastic Compliance Matrix: (Units=1/GPa)
#
#
# Indices 1 2 3 4 5 6 
#
# 1 0.013139 -0.011513 -0.003656 0.000000 0.000000 0.000000
# 2 -0.011513 0.028877 -0.001682 0.000000 0.000000 0.000000
# 3 -0.003656 -0.001682 0.010555 0.000000 0.000000 0.000000
# 4 0.000000 0.000000 0.000000 0.025159 0.000000 0.000000
# 5 0.000000 0.000000 0.000000 0.000000 0.074871 0.000000
# 6 0.000000 0.000000 0.000000 0.000000 0.000000 0.044731
#
#
# Mechanical properties :
#
#
# Convention : Reuss Voigt Hill
#
# Bulk Modulus (GPa) = 53.00352 71.20563 62.10457
# Shear Modulus (GPa) = 21.06822 26.76461 23.91641
#
# Velocity S-wave (km/s) = 3.22693 3.63711 3.43814
# Velocity P-wave (km/s) = 6.33099 7.26856 6.81591
#
# Compressibility (1/GPa) = 0.01886667
#
# Stress axis : x y z
#
# Youngs Moduli (GPa) = 76.10811 34.63022 94.74230
#
# Poissons Ratio (x) = 0.39870 0.34641
# Poissons Ratio (y) = 0.87625 0.15940
# Poissons Ratio (z) = 0.27828 0.05826
#
# Static dielectric constant tensor:
#      x y z
#    x 3.917040 0.000000 0.000000 
#    y 0.000000 3.820810 0.000000 
#    z 0.000000 0.000000 3.481890 
# 
# 
# High freq. dielectric constant tensor:
#      x y z
#    x 1.793990 0.000000 0.000000 
#    y 0.000000 1.799370 0.000000 
#    z 0.000000 0.000000 1.789800 
# 
# From -- ./inp_files/9386.got.cif
#   From: 2010.03.12/outbox.cif.g09.slc.cpg/sg59_5_cif.got.tgz:9386.got - 2010.04.16 16:29:54.
