data_PCOD8245192
_publ_section_title
;
Structure prediction by ZEFSAII (Michael W. Deem and Ramdas Pophale) SiO2 
 PCOD8245192
Probable space group: P M M N
;
_chemical_formula_sum "Si O2"
_cell_formula_units_Z 64
_cell_length_a 8.919742
_cell_length_b 23.457112
_cell_length_c 15.277651
_cell_angle_alpha 90.000000
_cell_angle_beta 90.000000
_cell_angle_gamma 90.000000
_cell_volume 3196.564110
_symmetry_space_group_name_H-M "P M M N"
_symmetry_group_IT_number 59
_space_group.IT_coordinate_system_code '2'
_symmetry_cell_setting 'orthorhombic'
loop_
_space_group_symop_operation_xyz
x,y,z
1/2-x,1/2-y,z
1/2+x,-y,-z
-x,1/2+y,-z
-x,-y,-z
1/2+x,1/2+y,-z
1/2-x,y,z
x,1/2-y,z
loop_
_atom_site_type_symbol
_atom_site_label
_atom_site_fract_x
_atom_site_fract_y
_atom_site_fract_z
Si Si1 0.072359 0.861024 0.144511
Si Si2 0.926933 0.882234 0.318955
Si Si3 0.918316 0.182135 0.176192
Si Si4 0.572055 0.814774 0.489935
Si Si5 0.585529 0.814291 0.990768
Si Si6 0.923502 0.489272 0.278935
Si Si7 0.074006 0.477215 0.912383
Si Si8 0.927498 0.623183 0.664040
O O1 0.250000 0.863393 0.145433
O O2 0.011710 0.849054 0.241529
O O3 0.011916 0.812562 0.079540
O O4 0.002336 0.917381 0.104023
O O5 0.750000 0.875754 0.303865
O O6 0.982413 0.852242 0.407553
O O7 0.972584 0.948966 0.316726
O O8 0.750000 0.157238 0.182269
O O9 0.914404 0.250000 0.175990
O O10 0.014016 0.161141 0.257268
O O11 0.992946 0.156196 0.088118
O O12 0.750000 0.812059 0.491366
O O13 0.507637 0.750000 0.485459
O O14 0.511483 0.847208 0.575650
O O15 0.750000 0.843740 0.002661
O O16 0.612302 0.750000 0.961667
O O17 0.750000 0.478694 0.298725
O O18 0.955587 0.484375 0.174330
O O19 0.016801 0.441801 0.330407
O O20 0.250000 0.469319 0.927196
O O21 0.000000 0.500000 0.000000
O O22 0.750000 0.622697 0.665818
#
# Coordination Sequence:
#
# PCOD8245192 Si02
#       8
#     8   8   8   8   8   8   8   8
#     4  11  22  36  56  83 117 151 185 235 294 350
#     4   9  19  39  62  83 113 152 197 246 294 350
#     4  10  21  37  56  79 112 152 191 238 296 352
#     4   9  19  37  62  90 116 147 192 245 300 355
#     4  10  21  37  57  81 110 149 197 241 285 345
#     4   9  20  37  55  80 116 155 195 240 294 348
#     4  10  21  37  57  81 113 153 199 244 287 340
#     4  11  22  35  57  87 118 153 195 241 289 354
#
# _framework density 20.021498000000001
#
# number of rings (size 3 to 8) (size 9 to 14) (size 15 to 20)
#    0.000    2.125    0.000    3.750    1.750    5.500 
#    0.000    2.500    0.000    1.500    0.000    0.000 
#    0.000    0.000    0.000    0.000    0.000    0.000 
#
# Total GULP energy -793461.775021 kJ/mol
# GULP energy per Si atom -12397.840235 kJ/mol
# Density = 1.997593 g / cm^3
# Si number density = 20.021498 Si / 1000 Ang^3
#
#
#
# Elastic Constant Matrix: (Units=GPa)
#
#
# Indices 1 2 3 4 5 6 
#
# 1 98.8352 36.7214 60.3012 0.0000 0.0000 0.0000
# 2 36.7214 77.0888 68.7127 0.0000 0.0000 0.0000
# 3 60.3012 68.7127 177.6330 0.0000 0.0000 0.0000
# 4 0.0000 0.0000 0.0000 30.0776 0.0000 0.0000
# 5 0.0000 0.0000 0.0000 0.0000 24.8986 0.0000
# 6 0.0000 0.0000 0.0000 0.0000 0.0000 28.5494
#
#
#
# Elastic Compliance Matrix: (Units=1/GPa)
#
#
# Indices 1 2 3 4 5 6 
#
# 1 0.013367 -0.003545 -0.003166 0.000000 0.000000 0.000000
# 2 -0.003545 0.020739 -0.006819 0.000000 0.000000 0.000000
# 3 -0.003166 -0.006819 0.009342 0.000000 0.000000 0.000000
# 4 0.000000 0.000000 0.000000 0.033247 0.000000 0.000000
# 5 0.000000 0.000000 0.000000 0.000000 0.040163 0.000000
# 6 0.000000 0.000000 0.000000 0.000000 0.000000 0.035027
#
#
# Mechanical properties :
#
#
# Convention : Reuss Voigt Hill
#
# Bulk Modulus (GPa) = 61.02282 76.11419 68.56850
# Shear Modulus (GPa) = 27.11386 29.22656 28.17021
#
# Velocity S-wave (km/s) = 3.68399 3.82482 3.75507
# Velocity P-wave (km/s) = 6.97428 7.58976 7.28852
#
# Compressibility (1/GPa) = 0.01638731
#
# Stress axis : x y z
#
# Youngs Moduli (GPa) = 74.81209 48.21925 107.04201
#
# Poissons Ratio (x) = 0.17094 0.33893
# Poissons Ratio (y) = 0.26521 0.72989
# Poissons Ratio (z) = 0.23688 0.32880
#
# Static dielectric constant tensor:
#      x y z
#    x 3.666110 0.000000 0.000000 
#    y 0.000000 3.621620 0.000000 
#    z 0.000000 0.000000 3.892820 
# 
# 
# High freq. dielectric constant tensor:
#      x y z
#    x 1.774690 0.000000 0.000000 
#    y 0.000000 1.777250 0.000000 
#    z 0.000000 0.000000 1.787420 
# 
# From -- ./inp_files/21500.got.cif
#   From: 2010.03.12/outbox.cif.g09.slc.cpg/sg59_11_cif.got.tgz:21500.got - 2010.04.16 16:29:54.
