data_PCOD8245162
_publ_section_title
;
Structure prediction by ZEFSAII (Michael W. Deem and Ramdas Pophale) SiO2 
 PCOD8245162
Probable space group: P M M N
;
_chemical_formula_sum "Si O2"
_cell_formula_units_Z 64
_cell_length_a 28.472685
_cell_length_b 9.298282
_cell_length_c 12.384105
_cell_angle_alpha 90.000000
_cell_angle_beta 90.000000
_cell_angle_gamma 90.000000
_cell_volume 3278.655320
_symmetry_space_group_name_H-M "P M M N"
_symmetry_group_IT_number 59
_space_group.IT_coordinate_system_code '2'
_symmetry_cell_setting 'orthorhombic'
loop_
_space_group_symop_operation_xyz
x,y,z
1/2-x,1/2-y,z
1/2+x,-y,-z
-x,1/2+y,-z
-x,-y,-z
1/2+x,1/2+y,-z
1/2-x,y,z
x,1/2-y,z
loop_
_atom_site_type_symbol
_atom_site_label
_atom_site_fract_x
_atom_site_fract_y
_atom_site_fract_z
Si Si1 0.673321 0.585014 0.008429
Si Si2 0.803004 0.407420 0.210192
Si Si3 0.805537 0.583904 0.410207
Si Si4 0.470802 0.581367 0.408997
Si Si5 0.861067 0.415365 0.587682
Si Si6 0.987772 0.081716 0.831787
Si Si7 0.934910 0.912851 0.000769
Si Si8 0.803204 0.087747 0.799493
O O1 0.689939 0.750000 0.016870
O O2 0.687399 0.527340 0.892009
O O3 0.698707 0.490288 0.097564
O O4 0.618590 0.569440 0.032413
O O5 0.750000 0.381331 0.246212
O O6 0.827989 0.250000 0.200521
O O7 0.826158 0.503966 0.304080
O O8 0.750000 0.563329 0.426530
O O9 0.818773 0.750000 0.397446
O O10 0.832349 0.520353 0.511669
O O11 0.500000 0.500000 0.500000
O O12 0.479407 0.750000 0.424647
O O13 0.415803 0.543387 0.416550
O O14 0.489747 0.528697 0.291952
O O15 0.853059 0.250000 0.552455
O O16 0.841188 0.441667 0.707052
O O17 0.977297 0.250000 0.833380
O O18 0.035734 0.038469 0.893458
O O19 0.944991 0.008423 0.895734
O O20 0.948011 0.750000 0.970095
O O21 0.750000 0.067372 0.755145
O O22 0.809505 0.250000 0.844746
#
# Coordination Sequence:
#
# PCOD8245162 Si02
#       8
#     8   8   8   8   8   8   8   8
#     4  11  22  34  51  80 117 149 180 223 273 326
#     4  10  21  37  56  77 105 143 183 222 266 318
#     4  10  21  37  58  84 112 143 183 231 284 341
#     4  10  22  38  57  82 111 145 185 231 284 338
#     4  10  21  38  59  83 111 145 189 236 283 340
#     4   9  18  36  58  77 102 137 178 222 267 318
#     4   9  19  34  54  81 108 137 175 220 271 322
#     4  10  21  37  58  83 112 149 191 233 277 328
#
# _framework density 19.520199000000002
#
# number of rings (size 3 to 8) (size 9 to 14) (size 15 to 20)
#    0.000    2.125    0.000    2.625    0.000    8.250 
#    0.000    1.250    0.000    0.000    0.000    0.000 
#    0.000    0.000    0.000    0.000    0.000    0.000 
#
# Total GULP energy -793613.779135 kJ/mol
# GULP energy per Si atom -12400.215299 kJ/mol
# Density = 1.947577 g / cm^3
# Si number density = 19.520199 Si / 1000 Ang^3
#
#
#
# Elastic Constant Matrix: (Units=GPa)
#
#
# Indices 1 2 3 4 5 6 
#
# 1 74.9342 41.8104 38.1477 0.0000 0.0000 0.0000
# 2 41.8104 120.5046 74.9941 0.0000 0.0000 0.0000
# 3 38.1477 74.9941 133.6342 0.0000 0.0000 0.0000
# 4 0.0000 0.0000 0.0000 36.2613 0.0000 0.0000
# 5 0.0000 0.0000 0.0000 0.0000 21.0589 0.0000
# 6 0.0000 0.0000 0.0000 0.0000 0.0000 23.6441
#
#
#
# Elastic Compliance Matrix: (Units=1/GPa)
#
#
# Indices 1 2 3 4 5 6 
#
# 1 0.017025 -0.004429 -0.002374 0.000000 0.000000 0.000000
# 2 -0.004429 0.013904 -0.006539 0.000000 0.000000 0.000000
# 3 -0.002374 -0.006539 0.011830 0.000000 0.000000 0.000000
# 4 0.000000 0.000000 0.000000 0.027578 0.000000 0.000000
# 5 0.000000 0.000000 0.000000 0.000000 0.047486 0.000000
# 6 0.000000 0.000000 0.000000 0.000000 0.000000 0.042294
#
#
# Mechanical properties :
#
#
# Convention : Reuss Voigt Hill
#
# Bulk Modulus (GPa) = 62.20746 70.99747 66.60247
# Shear Modulus (GPa) = 26.01992 27.80092 26.91042
#
# Velocity S-wave (km/s) = 3.65495 3.77797 3.71697
# Velocity P-wave (km/s) = 7.05330 7.44856 7.25362
#
# Compressibility (1/GPa) = 0.01607524
#
# Stress axis : x y z
#
# Youngs Moduli (GPa) = 58.73632 71.91926 84.52879
#
# Poissons Ratio (x) = 0.31856 0.20070
# Poissons Ratio (y) = 0.26017 0.55270
# Poissons Ratio (z) = 0.13946 0.47025
#
# Static dielectric constant tensor:
#      x y z
#    x 4.312320 0.000000 0.000000 
#    y 0.000000 3.771090 0.000000 
#    z 0.000000 0.000000 3.523630 
# 
# 
# High freq. dielectric constant tensor:
#      x y z
#    x 1.754720 0.000000 0.000000 
#    y 0.000000 1.764140 0.000000 
#    z 0.000000 0.000000 1.762940 
# 
# From -- ./inp_files/19335.got.cif
#   From: 2010.03.12/outbox.cif.g09.slc.cpg/sg59_10_cif.got.tgz:19335.got - 2010.04.16 16:29:54.
