data_PCOD8245776
_publ_section_title
;
Structure prediction by ZEFSAII (Michael W. Deem and Ramdas Pophale) SiO2 
 PCOD8245776
Probable space group: P M M N
;
_chemical_formula_sum "Si O2"
_cell_formula_units_Z 56
_cell_length_a 23.224742
_cell_length_b 8.485086
_cell_length_c 13.582718
_cell_angle_alpha 90.000000
_cell_angle_beta 90.000000
_cell_angle_gamma 90.000000
_cell_volume 2676.663833
_symmetry_space_group_name_H-M "P M M N"
_symmetry_group_IT_number 59
_space_group.IT_coordinate_system_code '2'
_symmetry_cell_setting 'orthorhombic'
loop_
_space_group_symop_operation_xyz
x,y,z
1/2-x,1/2-y,z
1/2+x,-y,-z
-x,1/2+y,-z
-x,-y,-z
1/2+x,1/2+y,-z
1/2-x,y,z
x,1/2-y,z
loop_
_atom_site_type_symbol
_atom_site_label
_atom_site_fract_x
_atom_site_fract_y
_atom_site_fract_z
Si Si1 0.153638 0.065764 0.356368
Si Si2 0.538879 0.068334 0.715137
Si Si3 0.685679 0.563034 0.429076
Si Si4 0.909436 0.935745 0.277234
Si Si5 0.370681 0.933975 0.927391
Si Si6 0.250000 0.564012 0.216395
Si Si7 0.452939 0.433257 0.072739
Si Si8 0.250000 0.566537 0.995604
O O1 0.165330 0.250000 0.351901
O O2 0.172796 0.996590 0.462070
O O3 0.085608 0.033609 0.343923
O O4 0.191759 0.988874 0.271049
O O5 0.552176 0.250000 0.694186
O O6 0.473500 0.025490 0.681675
O O7 0.545163 0.035841 0.829906
O O8 0.750000 0.509272 0.396738
O O9 0.680864 0.750000 0.431007
O O10 0.638107 0.496691 0.353132
O O11 0.902344 0.750000 0.259386
O O12 0.901293 0.022638 0.174072
O O13 0.381676 0.750000 0.948308
O O14 0.303626 0.980061 0.926735
O O15 0.392885 0.037961 0.018468
O O16 0.250000 0.750000 0.213825
O O17 0.250000 0.490186 0.105591
O O18 0.462514 0.250000 0.097328
O O19 0.500000 0.500000 0.000000
O O20 0.250000 0.750000 0.017190
#
# Coordination Sequence:
#
# PCOD8245776 Si02
#       8
#     8   8   8   8   8   4   8   4
#     4  11  22  39  65  93 121 157 207 258 312 374
#     4  11  23  39  59  90 129 163 204 255 310 367
#     4   9  19  39  65  90 119 159 204 256 312 366
#     4  10  22  39  61  88 121 163 211 254 302 367
#     4  11  22  39  61  87 125 165 204 252 305 359
#     4  11  21  39  64  89 122 160 201 251 318 377
#     4  12  23  38  61  89 122 163 208 250 299 363
#     4   9  22  39  56  83 120 160 195 243 304 357
#
# _framework density 20.921565999999999
#
# number of rings (size 3 to 8) (size 9 to 14) (size 15 to 20)
#    0.000    1.429    2.143    3.643    1.000    2.286 
#    0.000    4.643    0.000    0.000    0.000    0.000 
#    0.000    0.000    0.000    0.000    0.000    0.000 
#
# Total GULP energy -694387.619259 kJ/mol
# GULP energy per Si atom -12399.778915 kJ/mol
# Density = 2.087395 g / cm^3
# Si number density = 20.921566 Si / 1000 Ang^3
#
#
#
# Elastic Constant Matrix: (Units=GPa)
#
#
# Indices 1 2 3 4 5 6 
#
# 1 145.1180 16.6480 28.4384 0.0000 0.0000 0.0000
# 2 16.6480 45.3097 5.2397 0.0000 0.0000 0.0000
# 3 28.4384 5.2397 64.6756 0.0000 0.0000 0.0000
# 4 0.0000 0.0000 0.0000 21.8836 0.0000 0.0000
# 5 0.0000 0.0000 0.0000 0.0000 44.1858 0.0000
# 6 0.0000 0.0000 0.0000 0.0000 0.0000 28.6213
#
#
#
# Elastic Compliance Matrix: (Units=1/GPa)
#
#
# Indices 1 2 3 4 5 6 
#
# 1 0.007811 -0.002496 -0.003232 0.000000 0.000000 0.000000
# 2 -0.002496 0.023077 -0.000772 0.000000 0.000000 0.000000
# 3 -0.003232 -0.000772 0.016946 0.000000 0.000000 0.000000
# 4 0.000000 0.000000 0.000000 0.045696 0.000000 0.000000
# 5 0.000000 0.000000 0.000000 0.000000 0.022632 0.000000
# 6 0.000000 0.000000 0.000000 0.000000 0.000000 0.034939
#
#
# Mechanical properties :
#
#
# Convention : Reuss Voigt Hill
#
# Bulk Modulus (GPa) = 28.70894 39.52839 34.11867
# Shear Modulus (GPa) = 28.45574 32.58995 30.52284
#
# Velocity S-wave (km/s) = 3.69197 3.95108 3.82372
# Velocity P-wave (km/s) = 5.65033 6.30471 5.98646
#
# Compressibility (1/GPa) = 0.03483236
#
# Stress axis : x y z
#
# Youngs Moduli (GPa) = 128.02944 43.33373 59.01249
#
# Poissons Ratio (x) = 0.10816 0.19074
# Poissons Ratio (y) = 0.31957 0.04556
# Poissons Ratio (z) = 0.41382 0.03345
#
# Static dielectric constant tensor:
#      x y z
#    x 4.002110 0.000000 0.000000 
#    y 0.000000 3.331530 0.000000 
#    z 0.000000 0.000000 4.154380 
# 
# 
# High freq. dielectric constant tensor:
#      x y z
#    x 1.841480 0.000000 0.000000 
#    y 0.000000 1.799360 0.000000 
#    z 0.000000 0.000000 1.813000 
# 
# From -- ./inp_files/24390.got.cif
#   From: 2010.03.12/outbox.cif.g09.slc.cpg/sg59_13_cif.got.tgz:24390.got - 2010.04.16 16:29:54.
