data_PCOD8245467
_publ_section_title
;
Structure prediction by ZEFSAII (Michael W. Deem and Ramdas Pophale) SiO2 
 PCOD8245467
Probable space group: P M M N
;
_chemical_formula_sum "Si O2"
_cell_formula_units_Z 64
_cell_length_a 8.947592
_cell_length_b 15.211572
_cell_length_c 23.966067
_cell_angle_alpha 90.000000
_cell_angle_beta 90.000000
_cell_angle_gamma 90.000000
_cell_volume 3261.948042
_symmetry_space_group_name_H-M "P M M N"
_symmetry_group_IT_number 59
_space_group.IT_coordinate_system_code '2'
_symmetry_cell_setting 'orthorhombic'
loop_
_space_group_symop_operation_xyz
x,y,z
1/2-x,1/2-y,z
1/2+x,-y,-z
-x,1/2+y,-z
-x,-y,-z
1/2+x,1/2+y,-z
1/2-x,y,z
x,1/2-y,z
loop_
_atom_site_type_symbol
_atom_site_label
_atom_site_fract_x
_atom_site_fract_y
_atom_site_fract_z
Si Si1 0.426290 0.502987 0.310249
Si Si2 0.427119 0.653947 0.876521
Si Si3 0.073609 0.648169 0.623140
Si Si4 0.575115 0.149378 0.600914
Si Si5 0.582623 0.854211 0.510659
Si Si6 0.081186 0.152233 0.896607
Si Si7 0.572788 0.510104 0.193192
Si Si8 0.573167 0.093835 0.003622
O O1 0.250000 0.488100 0.309905
O O2 0.503417 0.412155 0.328890
O O3 0.471814 0.585512 0.348875
O O4 0.484504 0.527959 0.249526
O O5 0.250000 0.649302 0.877730
O O6 0.483272 0.750000 0.856666
O O7 0.485417 0.581683 0.832928
O O8 0.485401 0.637627 0.939229
O O9 0.250000 0.636319 0.623013
O O10 0.029490 0.750000 0.634387
O O11 0.010501 0.613769 0.564086
O O12 0.750000 0.145701 0.588682
O O13 0.526359 0.250000 0.615070
O O14 0.493739 0.111849 0.545901
O O15 0.750000 0.892766 0.514958
O O16 0.584544 0.750000 0.509383
O O17 0.250000 0.125738 0.913887
O O18 0.075158 0.250000 0.871166
O O19 0.023355 0.086119 0.849448
O O20 0.978248 0.151142 0.951173
O O21 0.750000 0.510470 0.204517
O O22 0.750000 0.085199 0.003166
O O23 0.500000 0.000000 0.000000
#
# Coordination Sequence:
#
# PCOD8245467 Si02
#       8
#     8   8   8   8   8   8   8   8
#     4  11  24  39  57  83 112 146 191 243 288 329
#     4   9  18  34  57  82 108 142 184 227 275 334
#     4  10  21  38  60  84 112 150 190 227 277 343
#     4   9  19  37  58  80 111 150 187 226 278 340
#     4   9  17  31  55  87 118 145 179 229 282 331
#     4  10  21  38  59  85 117 152 190 234 284 337
#     4  10  21  39  57  77 109 149 191 234 281 336
#     4  11  20  34  58  87 119 151 186 230 283 340
#
# _framework density 19.620176000000001
#
# number of rings (size 3 to 8) (size 9 to 14) (size 15 to 20)
#    0.000    2.125    1.250    1.875    0.000    6.000 
#    0.000    1.250    0.000    1.500    0.000    0.000 
#    0.000    0.000    0.000    0.000    0.000    0.000 
#
# Total GULP energy -793660.961815 kJ/mol
# GULP energy per Si atom -12400.952528 kJ/mol
# Density = 1.957552 g / cm^3
# Si number density = 19.620176 Si / 1000 Ang^3
#
#
#
# Elastic Constant Matrix: (Units=GPa)
#
#
# Indices 1 2 3 4 5 6 
#
# 1 60.6092 19.6247 28.0526 0.0000 0.0000 0.0000
# 2 19.6247 91.7638 27.8268 0.0000 0.0000 0.0000
# 3 28.0526 27.8268 103.2103 0.0000 0.0000 0.0000
# 4 0.0000 0.0000 0.0000 20.4902 0.0000 0.0000
# 5 0.0000 0.0000 0.0000 0.0000 36.8492 0.0000
# 6 0.0000 0.0000 0.0000 0.0000 0.0000 20.3231
#
#
#
# Elastic Compliance Matrix: (Units=1/GPa)
#
#
# Indices 1 2 3 4 5 6 
#
# 1 0.019509 -0.002793 -0.004550 0.000000 0.000000 0.000000
# 2 -0.002793 0.012268 -0.002548 0.000000 0.000000 0.000000
# 3 -0.004550 -0.002548 0.011613 0.000000 0.000000 0.000000
# 4 0.000000 0.000000 0.000000 0.048804 0.000000 0.000000
# 5 0.000000 0.000000 0.000000 0.000000 0.027138 0.000000
# 6 0.000000 0.000000 0.000000 0.000000 0.000000 0.049205
#
#
# Mechanical properties :
#
#
# Convention : Reuss Voigt Hill
#
# Bulk Modulus (GPa) = 42.35867 45.17684 43.76776
# Shear Modulus (GPa) = 25.48593 27.53778 26.51186
#
# Velocity S-wave (km/s) = 3.60803 3.75045 3.67993
# Velocity P-wave (km/s) = 6.24447 6.46763 6.35703
#
# Compressibility (1/GPa) = 0.02360792
#
# Stress axis : x y z
#
# Youngs Moduli (GPa) = 51.25805 81.51569 86.11296
#
# Poissons Ratio (x) = 0.22764 0.39178
# Poissons Ratio (y) = 0.14314 0.21946
# Poissons Ratio (z) = 0.23321 0.20774
#
# Static dielectric constant tensor:
#      x y z
#    x 3.543630 0.000000 0.000000 
#    y 0.000000 3.725380 0.000000 
#    z 0.000000 0.000000 3.604250 
# 
# 
# High freq. dielectric constant tensor:
#      x y z
#    x 1.751230 0.000000 0.000000 
#    y 0.000000 1.771830 0.000000 
#    z 0.000000 0.000000 1.761530 
# 
# From -- ./inp_files/31464.got.cif
#   From: 2010.03.12/outbox.cif.g09.slc.cpg/sg59_16_cif.got.tgz:31464.got - 2010.04.16 16:29:54.
