data_PCOD8245512
_publ_section_title
;
Structure prediction by ZEFSAII (Michael W. Deem and Ramdas Pophale) SiO2 
 PCOD8245512
Probable space group: P M M N
;
_chemical_formula_sum "Si O2"
_cell_formula_units_Z 40
_cell_length_a 14.054261
_cell_length_b 22.555079
_cell_length_c 6.435954
_cell_angle_alpha 90.000000
_cell_angle_beta 90.000000
_cell_angle_gamma 90.000000
_cell_volume 2040.165027
_symmetry_space_group_name_H-M "P M M N"
_symmetry_group_IT_number 59
_space_group.IT_coordinate_system_code '2'
_symmetry_cell_setting 'orthorhombic'
loop_
_space_group_symop_operation_xyz
x,y,z
1/2-x,1/2-y,z
1/2+x,-y,-z
-x,1/2+y,-z
-x,-y,-z
1/2+x,1/2+y,-z
1/2-x,y,z
x,1/2-y,z
loop_
_atom_site_type_symbol
_atom_site_label
_atom_site_fract_x
_atom_site_fract_y
_atom_site_fract_z
Si Si1 0.144657 0.903075 0.271943
Si Si2 0.026567 0.683273 0.561632
Si Si3 0.591828 0.974201 0.604867
Si Si4 0.517798 0.888834 0.947510
Si Si5 0.357419 0.365557 0.668757
O O1 0.250000 0.878717 0.214621
O O2 0.099234 0.861333 0.448908
O O3 0.160030 0.970206 0.352105
O O4 0.076794 0.906388 0.072720
O O5 0.066468 0.750000 0.547987
O O6 0.013685 0.665583 0.801388
O O7 0.922916 0.680693 0.455170
O O8 0.558599 0.943457 0.817399
O O9 0.642290 0.928865 0.448118
O O10 0.500000 0.000000 0.500000
O O11 0.603303 0.869973 0.098062
O O12 0.250000 0.341311 0.677531
#
# Coordination Sequence:
#
# PCOD8245512 Si02
#       5
#     8   8   8   8   8
#     4  11  23  38  61  89 118 154 198 239 287 345
#     4  10  23  43  61  79 116 158 197 246 294 339
#     4  11  19  39  60  87 124 156 184 229 291 354
#     4  10  21  38  60  88 121 152 193 238 292 344
#     4  10  22  38  62  91 118 149 191 240 293 351
#
# _framework density 19.606256999999999
#
# number of rings (size 3 to 8) (size 9 to 14) (size 15 to 20)
#    0.000    1.600    6.000    1.200    0.000    8.800 
#    0.000    0.000    0.000    0.000    0.000    0.000 
#    0.000    0.000    0.000    0.000    0.000    0.000 
#
# Total GULP energy -495894.250014 kJ/mol
# GULP energy per Si atom -12397.356250 kJ/mol
# Density = 1.956163 g / cm^3
# Si number density = 19.606257 Si / 1000 Ang^3
#
#
#
# Elastic Constant Matrix: (Units=GPa)
#
#
# Indices 1 2 3 4 5 6 
#
# 1 118.4652 6.3792 24.3206 0.0000 0.0000 0.0000
# 2 6.3792 119.4744 35.2325 0.0000 0.0000 0.0000
# 3 24.3206 35.2325 113.7879 0.0000 0.0000 0.0000
# 4 0.0000 0.0000 0.0000 10.0277 0.0000 0.0000
# 5 0.0000 0.0000 0.0000 0.0000 7.2309 0.0000
# 6 0.0000 0.0000 0.0000 0.0000 0.0000 13.4697
#
#
#
# Elastic Compliance Matrix: (Units=1/GPa)
#
#
# Indices 1 2 3 4 5 6 
#
# 1 0.008830 0.000094 -0.001916 0.000000 0.000000 0.000000
# 2 0.000094 0.009212 -0.002872 0.000000 0.000000 0.000000
# 3 -0.001916 -0.002872 0.010087 0.000000 0.000000 0.000000
# 4 0.000000 0.000000 0.000000 0.099724 0.000000 0.000000
# 5 0.000000 0.000000 0.000000 0.000000 0.138296 0.000000
# 6 0.000000 0.000000 0.000000 0.000000 0.000000 0.074241
#
#
# Mechanical properties :
#
#
# Convention : Reuss Voigt Hill
#
# Bulk Modulus (GPa) = 53.36454 53.73245 53.54849
# Shear Modulus (GPa) = 14.04392 25.19866 19.62129
#
# Velocity S-wave (km/s) = 2.67928 3.58891 3.16692
# Velocity P-wave (km/s) = 6.07030 6.68124 6.38308
#
# Compressibility (1/GPa) = 0.01873904
#
# Stress axis : x y z
#
# Youngs Moduli (GPa) = 113.25474 108.55353 99.13535
#
# Poissons Ratio (x) = -0.01016 0.18996
# Poissons Ratio (y) = -0.01060 0.28475
# Poissons Ratio (z) = 0.21702 0.31181
#
# Static dielectric constant tensor:
#      x y z
#    x 3.806040 0.000000 0.000000 
#    y 0.000000 5.988070 0.000000 
#    z 0.000000 0.000000 3.505930 
# 
# 
# High freq. dielectric constant tensor:
#      x y z
#    x 1.761030 0.000000 0.000000 
#    y 0.000000 1.753510 0.000000 
#    z 0.000000 0.000000 1.771370 
# 
# From -- ./inp_files/2006.got.cif
#   From: 2010.03.12/outbox.cif.g09.slc.cpg/sg59_2_cif.got.tgz:2006.got - 2010.04.16 16:29:54.
