data_PCOD8245107
_publ_section_title
;
Structure prediction by ZEFSAII (Michael W. Deem and Ramdas Pophale) SiO2 
 PCOD8245107
Probable space group: P M M N
;
_chemical_formula_sum "Si O2"
_cell_formula_units_Z 48
_cell_length_a 9.736967
_cell_length_b 8.494062
_cell_length_c 28.780952
_cell_angle_alpha 90.000000
_cell_angle_beta 90.000000
_cell_angle_gamma 90.000000
_cell_volume 2380.368968
_symmetry_space_group_name_H-M "P M M N"
_symmetry_group_IT_number 59
_space_group.IT_coordinate_system_code '2'
_symmetry_cell_setting 'orthorhombic'
loop_
_space_group_symop_operation_xyz
x,y,z
1/2-x,1/2-y,z
1/2+x,-y,-z
-x,1/2+y,-z
-x,-y,-z
1/2+x,1/2+y,-z
1/2-x,y,z
x,1/2-y,z
loop_
_atom_site_type_symbol
_atom_site_label
_atom_site_fract_x
_atom_site_fract_y
_atom_site_fract_z
Si Si1 0.750000 0.568283 0.969937
Si Si2 0.403377 0.935749 0.460610
Si Si3 0.595917 0.437099 0.642338
Si Si4 0.403322 0.431247 0.195142
Si Si5 0.533429 0.067030 0.902227
Si Si6 0.750000 0.434281 0.070344
Si Si7 0.091774 0.436969 0.725376
O O1 0.750000 0.750000 0.985120
O O2 0.885100 0.533155 0.940300
O O3 0.750000 0.461266 0.015406
O O4 0.250000 0.996589 0.470925
O O5 0.408442 0.750000 0.461709
O O6 0.448640 0.995117 0.409208
O O7 0.500000 0.000000 0.500000
O O8 0.750000 0.498851 0.654066
O O9 0.597316 0.250000 0.643531
O O10 0.486112 0.501841 0.679503
O O11 0.250000 0.453457 0.216554
O O12 0.430814 0.250000 0.182376
O O13 0.409800 0.533954 0.148801
O O14 0.519172 0.488318 0.230321
O O15 0.552470 0.250000 0.913788
O O16 0.376779 0.016474 0.904605
O O17 0.750000 0.250000 0.081026
O O18 0.250000 0.492109 0.723329
O O19 0.081042 0.250000 0.729067
#
# Coordination Sequence:
#
# PCOD8245107 Si02
#       7
#     4   8   8   8   8   4   8
#     4  12  24  44  68  96 130 164 206 250 297 358
#     4   9  18  32  51  78 111 148 193 242 293 349
#     4   8  15  31  54  78 108 149 195 242 290 346
#     4  11  24  42  63  86 116 155 198 241 293 354
#     4  12  25  43  67  95 124 161 207 252 299 355
#     4  12  26  44  66  94 130 168 202 248 305 354
#     4  10  21  36  58  88 117 145 186 239 295 354
#
# _framework density 20.164940000000001
#
# number of rings (size 3 to 8) (size 9 to 14) (size 15 to 20)
#    0.000    1.667    0.833    5.500    1.167    3.000 
#    0.000    2.500    0.000    1.000    0.000    0.000 
#    0.000    0.000    0.000    0.000    0.000    0.000 
#
# Total GULP energy -595261.329190 kJ/mol
# GULP energy per Si atom -12401.277691 kJ/mol
# Density = 2.011904 g / cm^3
# Si number density = 20.164940 Si / 1000 Ang^3
#
#
#
# Elastic Constant Matrix: (Units=GPa)
#
#
# Indices 1 2 3 4 5 6 
#
# 1 137.4707 23.4011 54.5123 0.0000 0.0000 0.0000
# 2 23.4011 55.5710 16.5698 0.0000 0.0000 0.0000
# 3 54.5123 16.5698 112.8037 0.0000 0.0000 0.0000
# 4 0.0000 0.0000 0.0000 29.0974 0.0000 0.0000
# 5 0.0000 0.0000 0.0000 0.0000 40.8899 0.0000
# 6 0.0000 0.0000 0.0000 0.0000 0.0000 31.6367
#
#
#
# Elastic Compliance Matrix: (Units=1/GPa)
#
#
# Indices 1 2 3 4 5 6 
#
# 1 0.009375 -0.002716 -0.004131 0.000000 0.000000 0.000000
# 2 -0.002716 0.019606 -0.001567 0.000000 0.000000 0.000000
# 3 -0.004131 -0.001567 0.011092 0.000000 0.000000 0.000000
# 4 0.000000 0.000000 0.000000 0.034367 0.000000 0.000000
# 5 0.000000 0.000000 0.000000 0.000000 0.024456 0.000000
# 6 0.000000 0.000000 0.000000 0.000000 0.000000 0.031609
#
#
# Mechanical properties :
#
#
# Convention : Reuss Voigt Hill
#
# Bulk Modulus (GPa) = 43.02375 54.97909 49.00142
# Shear Modulus (GPa) = 32.24097 34.41560 33.32829
#
# Velocity S-wave (km/s) = 4.00292 4.13571 4.06985
# Velocity P-wave (km/s) = 6.53809 7.08021 6.81454
#
# Compressibility (1/GPa) = 0.02324298
#
# Stress axis : x y z
#
# Youngs Moduli (GPa) = 106.66804 51.00463 90.15722
#
# Poissons Ratio (x) = 0.13852 0.37248
# Poissons Ratio (y) = 0.28970 0.14132
# Poissons Ratio (z) = 0.44070 0.07995
#
# Static dielectric constant tensor:
#      x y z
#    x 3.644920 0.000000 0.000000 
#    y 0.000000 3.475660 0.000000 
#    z 0.000000 0.000000 3.540490 
# 
# 
# High freq. dielectric constant tensor:
#      x y z
#    x 1.798360 0.000000 0.000000 
#    y 0.000000 1.771150 0.000000 
#    z 0.000000 0.000000 1.794030 
# 
# From -- ./inp_files/33091.got.cif
#   From: 2010.03.12/outbox.cif.g09.slc.cpg/sg59_17_cif.got.tgz:33091.got - 2010.04.16 16:29:54.
