data_PCOD8245881
_publ_section_title
;
Structure prediction by ZEFSAII (Michael W. Deem and Ramdas Pophale) SiO2 
 PCOD8245881
Probable space group: P M M N
;
_chemical_formula_sum "Si O2"
_cell_formula_units_Z 56
_cell_length_a 14.391388
_cell_length_b 19.718857
_cell_length_c 10.360129
_cell_angle_alpha 90.000000
_cell_angle_beta 90.000000
_cell_angle_gamma 90.000000
_cell_volume 2940.015248
_symmetry_space_group_name_H-M "P M M N"
_symmetry_group_IT_number 59
_space_group.IT_coordinate_system_code '2'
_symmetry_cell_setting 'orthorhombic'
loop_
_space_group_symop_operation_xyz
x,y,z
1/2-x,1/2-y,z
1/2+x,-y,-z
-x,1/2+y,-z
-x,-y,-z
1/2+x,1/2+y,-z
1/2-x,y,z
x,1/2-y,z
loop_
_atom_site_type_symbol
_atom_site_label
_atom_site_fract_x
_atom_site_fract_y
_atom_site_fract_z
Si Si1 0.145058 0.673232 0.595406
Si Si2 0.854627 0.600643 0.952805
Si Si3 0.541398 0.918633 0.207171
Si Si4 0.644067 0.829683 0.698538
Si Si5 0.852836 0.058069 0.911562
Si Si6 0.857447 0.058954 0.199671
Si Si7 0.966809 0.828030 0.448478
O O1 0.250000 0.660697 0.546582
O O2 0.133040 0.750000 0.649946
O O3 0.117721 0.621149 0.707691
O O4 0.076927 0.662762 0.473888
O O5 0.750000 0.626798 0.977618
O O6 0.898767 0.638716 0.829418
O O7 0.856302 0.522213 0.920409
O O8 0.913149 0.615506 0.081212
O O9 0.429853 0.917207 0.189420
O O10 0.566662 0.872940 0.329344
O O11 0.578357 0.994485 0.232725
O O12 0.750000 0.854296 0.680567
O O13 0.636307 0.750000 0.712333
O O14 0.586693 0.854939 0.575112
O O15 0.750000 0.082369 0.866189
O O16 0.876204 0.085820 0.054819
O O17 0.750000 0.035759 0.213141
O O18 0.941395 0.750000 0.418763
#
# Coordination Sequence:
#
# PCOD8245881 Si02
#       7
#     8   8   8   8   8   8   8
#     4   9  19  37  58  77 105 146 187 227 270 319
#     4   9  18  34  56  80 105 139 179 218 268 328
#     4  11  21  33  56  81 114 144 176 222 282 323
#     4   9  19  36  56  77 105 143 184 224 264 316
#     4   9  19  34  52  78 111 143 175 220 277 330
#     4   9  18  34  57  84 109 137 183 231 273 320
#     4  10  23  38  53  78 112 148 184 223 275 328
#
# _framework density 19.047519000000001
#
# number of rings (size 3 to 8) (size 9 to 14) (size 15 to 20)
#    0.000    2.571    0.000    3.000    4.000    2.857 
#    0.000    0.714    0.000    0.857    0.000    0.000 
#    0.000    0.000    0.000    0.000    0.000    0.000 
#
# Total GULP energy -694306.662549 kJ/mol
# GULP energy per Si atom -12398.333260 kJ/mol
# Density = 1.900417 g / cm^3
# Si number density = 19.047519 Si / 1000 Ang^3
#
#
#
# Elastic Constant Matrix: (Units=GPa)
#
#
# Indices 1 2 3 4 5 6 
#
# 1 84.8498 29.3124 51.1497 0.0000 0.0000 0.0000
# 2 29.3124 52.9501 54.7765 0.0000 0.0000 0.0000
# 3 51.1497 54.7765 128.3088 0.0000 0.0000 0.0000
# 4 0.0000 0.0000 0.0000 32.6487 0.0000 0.0000
# 5 0.0000 0.0000 0.0000 0.0000 23.5322 0.0000
# 6 0.0000 0.0000 0.0000 0.0000 0.0000 18.4752
#
#
#
# Elastic Compliance Matrix: (Units=1/GPa)
#
#
# Indices 1 2 3 4 5 6 
#
# 1 0.015982 -0.004041 -0.004646 0.000000 0.000000 0.000000
# 2 -0.004041 0.034845 -0.013265 0.000000 0.000000 0.000000
# 3 -0.004646 -0.013265 0.015309 0.000000 0.000000 0.000000
# 4 0.000000 0.000000 0.000000 0.030629 0.000000 0.000000
# 5 0.000000 0.000000 0.000000 0.000000 0.042495 0.000000
# 6 0.000000 0.000000 0.000000 0.000000 0.000000 0.054127
#
#
# Mechanical properties :
#
#
# Convention : Reuss Voigt Hill
#
# Bulk Modulus (GPa) = 44.98004 59.62064 52.30034
# Shear Modulus (GPa) = 20.43302 23.65591 22.04447
#
# Velocity S-wave (km/s) = 3.27882 3.52794 3.40566
# Velocity P-wave (km/s) = 6.16443 6.92561 6.55608
#
# Compressibility (1/GPa) = 0.02223208
#
# Stress axis : x y z
#
# Youngs Moduli (GPa) = 62.56884 28.69831 65.32237
#
# Poissons Ratio (x) = 0.11598 0.30349
# Poissons Ratio (y) = 0.25286 0.86649
# Poissons Ratio (z) = 0.29069 0.38068
#
# Static dielectric constant tensor:
#      x y z
#    x 3.804090 0.000000 0.000000 
#    y 0.000000 3.274880 0.000000 
#    z 0.000000 0.000000 3.407650 
# 
# 
# High freq. dielectric constant tensor:
#      x y z
#    x 1.755380 0.000000 0.000000 
#    y 0.000000 1.717960 0.000000 
#    z 0.000000 0.000000 1.727180 
# 
# From -- ./inp_files/9372.got.cif
#   From: 2010.03.12/outbox.cif.g09.slc.cpg/sg59_5_cif.got.tgz:9372.got - 2010.04.16 16:29:54.
