data_PCOD8245858
_publ_section_title
;
Structure prediction by ZEFSAII (Michael W. Deem and Ramdas Pophale) SiO2 
 PCOD8245858
Probable space group: P M M N
;
_chemical_formula_sum "Si O2"
_cell_formula_units_Z 32
_cell_length_a 14.745669
_cell_length_b 7.604564
_cell_length_c 13.635870
_cell_angle_alpha 90.000000
_cell_angle_beta 90.000000
_cell_angle_gamma 90.000000
_cell_volume 1529.049878
_symmetry_space_group_name_H-M "P M M N"
_symmetry_group_IT_number 59
_space_group.IT_coordinate_system_code '2'
_symmetry_cell_setting 'orthorhombic'
loop_
_space_group_symop_operation_xyz
x,y,z
1/2-x,1/2-y,z
1/2+x,-y,-z
-x,1/2+y,-z
-x,-y,-z
1/2+x,1/2+y,-z
1/2-x,y,z
x,1/2-y,z
loop_
_atom_site_type_symbol
_atom_site_label
_atom_site_fract_x
_atom_site_fract_y
_atom_site_fract_z
Si Si1 0.853059 0.455510 0.254845
Si Si2 0.344241 0.750000 0.402490
Si Si3 0.859208 0.250000 0.806928
Si Si4 0.984539 0.955958 0.887854
Si Si5 0.599722 0.553966 0.469873
O O1 0.750000 0.512260 0.225834
O O2 0.857346 0.250000 0.275763
O O3 0.883120 0.550433 0.354377
O O4 0.922913 0.509318 0.169354
O O5 0.250000 0.750000 0.344776
O O6 0.404983 0.750000 0.304597
O O7 0.339507 0.580058 0.470801
O O8 0.750000 0.250000 0.823074
O O9 0.899075 0.427888 0.854111
O O10 0.961813 0.750000 0.871613
O O11 0.000000 0.000000 0.000000
O O12 0.500000 0.500000 0.500000
O O13 0.619508 0.750000 0.507673
#
# Coordination Sequence:
#
# PCOD8245858 Si02
#       5
#     8   4   4   8   8
#     4  10  22  41  66 100 140 177 225 286 343 405
#     4  11  24  42  61  92 136 173 217 270 321 392
#     4  11  26  46  70  98 136 181 228 282 340 410
#     4  11  24  45  72 100 135 176 225 285 352 417
#     4  12  23  38  63  94 131 181 226 272 330 395
#
# _framework density 20.928028000000001
#
# number of rings (size 3 to 8) (size 9 to 14) (size 15 to 20)
#    0.000    1.000    3.750    2.250    1.750    6.500 
#    0.000    2.500    0.000    0.000    0.000    0.000 
#    0.000    0.000    0.000    0.000    0.000    0.000 
#
# Total GULP energy -396461.171172 kJ/mol
# GULP energy per Si atom -12389.411599 kJ/mol
# Density = 2.088040 g / cm^3
# Si number density = 20.928028 Si / 1000 Ang^3
#
#
#
# Elastic Constant Matrix: (Units=GPa)
#
#
# Indices 1 2 3 4 5 6 
#
# 1 150.4308 54.9205 53.2403 0.0000 0.0000 0.0000
# 2 54.9205 163.4985 63.9634 0.0000 0.0000 0.0000
# 3 53.2403 63.9634 158.1886 0.0000 0.0000 0.0000
# 4 0.0000 0.0000 0.0000 27.2620 0.0000 0.0000
# 5 0.0000 0.0000 0.0000 0.0000 22.5514 0.0000
# 6 0.0000 0.0000 0.0000 0.0000 0.0000 17.5643
#
#
#
# Elastic Compliance Matrix: (Units=1/GPa)
#
#
# Indices 1 2 3 4 5 6 
#
# 1 0.008038 -0.001950 -0.001917 0.000000 0.000000 0.000000
# 2 -0.001950 0.007739 -0.002473 0.000000 0.000000 0.000000
# 3 -0.001917 -0.002473 0.007967 0.000000 0.000000 0.000000
# 4 0.000000 0.000000 0.000000 0.036681 0.000000 0.000000
# 5 0.000000 0.000000 0.000000 0.000000 0.044343 0.000000
# 6 0.000000 0.000000 0.000000 0.000000 0.000000 0.056934
#
#
# Mechanical properties :
#
#
# Convention : Reuss Voigt Hill
#
# Bulk Modulus (GPa) = 90.38446 90.70737 90.54592
# Shear Modulus (GPa) = 28.07907 33.47511 30.77709
#
# Velocity S-wave (km/s) = 3.66689 4.00376 3.83902
# Velocity P-wave (km/s) = 7.82369 8.05047 7.93789
#
# Compressibility (1/GPa) = 0.01106385
#
# Stress axis : x y z
#
# Youngs Moduli (GPa) = 124.41043 129.22004 125.52501
#
# Poissons Ratio (x) = 0.25200 0.24060
# Poissons Ratio (y) = 0.24262 0.31040
# Poissons Ratio (z) = 0.23846 0.31954
#
# Static dielectric constant tensor:
#      x y z
#    x 3.925300 0.000000 0.000000 
#    y 0.000000 3.720080 0.000000 
#    z 0.000000 0.000000 4.185840 
# 
# 
# High freq. dielectric constant tensor:
#      x y z
#    x 1.827310 0.000000 0.000000 
#    y 0.000000 1.829700 0.000000 
#    z 0.000000 0.000000 1.826290 
# 
# From -- ./inp_files/13680.got.cif
#   From: 2010.03.12/outbox.cif.g09.slc.cpg/sg59_7_cif.got.tgz:13680.got - 2010.04.16 16:29:54.
