data_PCOD8245724
_publ_section_title
;
Structure prediction by ZEFSAII (Michael W. Deem and Ramdas Pophale) SiO2 
 PCOD8245724
Probable space group: P M M N
;
_chemical_formula_sum "Si O2"
_cell_formula_units_Z 48
_cell_length_a 14.916985
_cell_length_b 9.583664
_cell_length_c 17.196099
_cell_angle_alpha 90.000000
_cell_angle_beta 90.000000
_cell_angle_gamma 90.000000
_cell_volume 2458.343516
_symmetry_space_group_name_H-M "P M M N"
_symmetry_group_IT_number 59
_space_group.IT_coordinate_system_code '2'
_symmetry_cell_setting 'orthorhombic'
loop_
_space_group_symop_operation_xyz
x,y,z
1/2-x,1/2-y,z
1/2+x,-y,-z
-x,1/2+y,-z
-x,-y,-z
1/2+x,1/2+y,-z
1/2-x,y,z
x,1/2-y,z
loop_
_atom_site_type_symbol
_atom_site_label
_atom_site_fract_x
_atom_site_fract_y
_atom_site_fract_z
Si Si1 0.356836 0.092992 0.985112
Si Si2 0.856292 0.905976 0.842931
Si Si3 0.146980 0.912187 0.298714
Si Si4 0.643489 0.092888 0.153994
Si Si5 0.146921 0.410364 0.700726
Si Si6 0.501493 0.411299 0.577205
O O1 0.250000 0.090651 0.981768
O O2 0.390092 0.250000 0.966258
O O3 0.390027 0.047166 0.071340
O O4 0.396355 0.984728 0.922053
O O5 0.750000 0.909625 0.842398
O O6 0.890766 0.750000 0.824676
O O7 0.892928 0.008737 0.776564
O O8 0.250000 0.952836 0.316242
O O9 0.136282 0.750000 0.279867
O O10 0.088686 0.955113 0.373178
O O11 0.750000 0.095661 0.150015
O O12 0.604559 0.250000 0.156942
O O13 0.612294 0.008784 0.229986
O O14 0.250000 0.441661 0.679379
O O15 0.134166 0.250000 0.727396
O O16 0.088660 0.443720 0.624956
O O17 0.500000 0.500000 0.500000
O O18 0.506678 0.250000 0.553703
#
# Coordination Sequence:
#
# PCOD8245724 Si02
#       6
#     8   8   8   8   8   8
#     4   8  13  22  38  63  97 134 169 204 241 283
#     4   8  14  25  43  69  99 132 171 208 240 281
#     4   9  18  33  52  74 102 133 161 195 245 298
#     4   9  16  25  41  69 101 131 166 206 246 288
#     4   9  18  34  54  73  97 131 167 202 242 288
#     4  10  22  38  55  77 101 126 160 200 245 299
#
# _framework density 19.525342999999999
#
# number of rings (size 3 to 8) (size 9 to 14) (size 15 to 20)
#    0.000    3.167    0.000    1.500    0.000    4.667 
#    0.000    3.333    0.000    1.000    0.000    0.000 
#    0.000    0.000    0.000    0.000    0.000    0.000 
#
# Total GULP energy -595032.317343 kJ/mol
# GULP energy per Si atom -12396.506611 kJ/mol
# Density = 1.948090 g / cm^3
# Si number density = 19.525343 Si / 1000 Ang^3
#
#
#
# Elastic Constant Matrix: (Units=GPa)
#
#
# Indices 1 2 3 4 5 6 
#
# 1 60.6822 33.1305 48.2161 0.0000 0.0000 0.0000
# 2 33.1305 122.2942 110.4868 0.0000 0.0000 0.0000
# 3 48.2161 110.4868 192.0827 0.0000 0.0000 0.0000
# 4 0.0000 0.0000 0.0000 45.5066 0.0000 0.0000
# 5 0.0000 0.0000 0.0000 0.0000 -24.3039 0.0000
# 6 0.0000 0.0000 0.0000 0.0000 0.0000 9.0364
#
#
#
# Elastic Compliance Matrix: (Units=1/GPa)
#
#
# Indices 1 2 3 4 5 6 
#
# 1 0.020797 -0.001911 -0.004121 0.000000 0.000000 0.000000
# 2 -0.001911 0.017199 -0.009413 0.000000 0.000000 0.000000
# 3 -0.004121 -0.009413 0.011655 0.000000 0.000000 0.000000
# 4 0.000000 0.000000 0.000000 0.021975 0.000000 0.000000
# 5 0.000000 0.000000 0.000000 0.000000 -0.041146 0.000000
# 6 0.000000 0.000000 0.000000 0.000000 0.000000 0.110664
#
#
# Mechanical properties :
#
#
# Convention : Reuss Voigt Hill
#
# Bulk Modulus (GPa) = 53.30303 84.30290 68.80297
# Shear Modulus (GPa) = 28.04426 18.26285 23.15355
#
# Velocity S-wave (km/s) = 3.79397 3.06165 3.44731
# Velocity P-wave (km/s) = 6.82282 7.46781 7.15259
#
# Compressibility (1/GPa) = 0.01876066
#
# Stress axis : x y z
#
# Youngs Moduli (GPa) = 48.08340 58.14221 85.79767
#
# Poissons Ratio (x) = 0.11109 0.35361
# Poissons Ratio (y) = 0.09187 0.80765
# Poissons Ratio (z) = 0.19818 0.54732
#
# Static dielectric constant tensor:
#      x y z
#    x 3.353200 0.000000 0.000000 
#    y 0.000000 3.734440 0.000000 
#    z 0.000000 0.000000 3.609720 
# 
# 
# High freq. dielectric constant tensor:
#      x y z
#    x 1.741780 0.000000 0.000000 
#    y 0.000000 1.756840 0.000000 
#    z 0.000000 0.000000 1.755360 
# 
# From -- ./inp_files/27388.got.cif
#   From: 2010.03.12/outbox.cif.g09.slc.cpg/sg59_14_cif.got.tgz:27388.got - 2010.04.16 16:29:54.
