data_PCOD8245366
_publ_section_title
;
Structure prediction by ZEFSAII (Michael W. Deem and Ramdas Pophale) SiO2 
 PCOD8245366
Probable space group: P M M N
;
_chemical_formula_sum "Si O2"
_cell_formula_units_Z 48
_cell_length_a 14.510392
_cell_length_b 8.703968
_cell_length_c 19.500090
_cell_angle_alpha 90.000000
_cell_angle_beta 90.000000
_cell_angle_gamma 90.000000
_cell_volume 2462.822126
_symmetry_space_group_name_H-M "P M M N"
_symmetry_group_IT_number 59
_space_group.IT_coordinate_system_code '2'
_symmetry_cell_setting 'orthorhombic'
loop_
_space_group_symop_operation_xyz
x,y,z
1/2-x,1/2-y,z
1/2+x,-y,-z
-x,1/2+y,-z
-x,-y,-z
1/2+x,1/2+y,-z
1/2-x,y,z
x,1/2-y,z
loop_
_atom_site_type_symbol
_atom_site_label
_atom_site_fract_x
_atom_site_fract_y
_atom_site_fract_z
Si Si1 0.250000 0.431125 0.973773
Si Si2 0.940056 0.071033 0.060271
Si Si3 0.750000 0.071508 0.877412
Si Si4 0.144111 0.927769 0.449502
Si Si5 0.518303 0.928673 0.663344
Si Si6 0.573179 0.572685 0.816539
Si Si7 0.644111 0.929379 0.408627
O O1 0.250000 0.250000 0.967199
O O2 0.160320 0.495966 0.935875
O O3 0.250000 0.473728 0.053472
O O4 0.928833 0.250000 0.045078
O O5 0.989663 0.037777 0.132007
O O6 0.000000 0.000000 0.000000
O O7 0.750000 0.250000 0.896717
O O8 0.839753 0.032885 0.833175
O O9 0.250000 0.963573 0.432347
O O10 0.127841 0.750000 0.466721
O O11 0.111036 0.025481 0.515054
O O12 0.086500 0.973652 0.383445
O O13 0.533768 0.750000 0.648737
O O14 0.537901 0.971298 0.741594
O O15 0.413514 0.976253 0.647307
O O16 0.603927 0.750000 0.821601
O O17 0.750000 0.976390 0.397932
O O18 0.627260 0.750000 0.397977
#
# Coordination Sequence:
#
# PCOD8245366 Si02
#       7
#     4   8   4   8   8   8   8
#     4  12  24  40  64  92 124 159 200 253 304 358
#     4  11  22  40  65  92 122 159 205 252 300 357
#     4  12  24  38  64  94 122 157 198 245 300 358
#     4  10  21  37  59  88 120 154 196 246 293 348
#     4  11  23  39  60  86 118 160 197 238 296 358
#     4  10  24  43  62  87 124 162 198 242 299 361
#     4  10  21  39  62  86 115 153 198 249 297 349
#
# _framework density 19.489836
#
# number of rings (size 3 to 8) (size 9 to 14) (size 15 to 20)
#    0.000    1.333    1.667    4.000    1.167    4.000 
#    1.500    0.000    0.000    0.000    0.000    0.000 
#    0.000    0.000    0.000    0.000    0.000    0.000 
#
# Total GULP energy -595526.800175 kJ/mol
# GULP energy per Si atom -12406.808337 kJ/mol
# Density = 1.944548 g / cm^3
# Si number density = 19.489836 Si / 1000 Ang^3
#
#
#
# Elastic Constant Matrix: (Units=GPa)
#
#
# Indices 1 2 3 4 5 6 
#
# 1 133.5368 50.5886 55.8367 0.0000 0.0000 0.0000
# 2 50.5886 86.8623 32.6470 0.0000 0.0000 0.0000
# 3 55.8367 32.6470 105.2323 0.0000 0.0000 0.0000
# 4 0.0000 0.0000 0.0000 30.5171 0.0000 0.0000
# 5 0.0000 0.0000 0.0000 0.0000 18.8595 0.0000
# 6 0.0000 0.0000 0.0000 0.0000 0.0000 36.7083
#
#
#
# Elastic Compliance Matrix: (Units=1/GPa)
#
#
# Indices 1 2 3 4 5 6 
#
# 1 0.011175 -0.004844 -0.004426 0.000000 0.000000 0.000000
# 2 -0.004844 0.015132 -0.002124 0.000000 0.000000 0.000000
# 3 -0.004426 -0.002124 0.012510 0.000000 0.000000 0.000000
# 4 0.000000 0.000000 0.000000 0.032769 0.000000 0.000000
# 5 0.000000 0.000000 0.000000 0.000000 0.053024 0.000000
# 6 0.000000 0.000000 0.000000 0.000000 0.000000 0.027242
#
#
# Mechanical properties :
#
#
# Convention : Reuss Voigt Hill
#
# Bulk Modulus (GPa) = 62.39310 67.08623 64.73966
# Shear Modulus (GPa) = 27.78031 29.65426 28.71729
#
# Velocity S-wave (km/s) = 3.77951 3.90490 3.84272
# Velocity P-wave (km/s) = 7.15045 7.40452 7.27859
#
# Compressibility (1/GPa) = 0.01602741
#
# Stress axis : x y z
#
# Youngs Moduli (GPa) = 89.48800 66.08414 79.93333
#
# Poissons Ratio (x) = 0.32014 0.35382
# Poissons Ratio (y) = 0.43352 0.16978
# Poissons Ratio (z) = 0.39611 0.14037
#
# Static dielectric constant tensor:
#      x y z
#    x 3.798840 0.000000 0.000000 
#    y 0.000000 3.643700 0.000000 
#    z 0.000000 0.000000 3.519970 
# 
# 
# High freq. dielectric constant tensor:
#      x y z
#    x 1.773290 0.000000 0.000000 
#    y 0.000000 1.770760 0.000000 
#    z 0.000000 0.000000 1.752410 
# 
# From -- ./inp_files/27399.got.cif
#   From: 2010.03.12/outbox.cif.g09.slc.cpg/sg59_14_cif.got.tgz:27399.got - 2010.04.16 16:29:54.
