data_PCOD8245015
_publ_section_title
;
Structure prediction by ZEFSAII (Michael W. Deem and Ramdas Pophale) SiO2 
 PCOD8245015
Probable space group: P M M N
;
_chemical_formula_sum "Si O2"
_cell_formula_units_Z 48
_cell_length_a 14.547005
_cell_length_b 8.749029
_cell_length_c 19.557574
_cell_angle_alpha 90.000000
_cell_angle_beta 90.000000
_cell_angle_gamma 90.000000
_cell_volume 2489.134856
_symmetry_space_group_name_H-M "P M M N"
_symmetry_group_IT_number 59
_space_group.IT_coordinate_system_code '2'
_symmetry_cell_setting 'orthorhombic'
loop_
_space_group_symop_operation_xyz
x,y,z
1/2-x,1/2-y,z
1/2+x,-y,-z
-x,1/2+y,-z
-x,-y,-z
1/2+x,1/2+y,-z
1/2-x,y,z
x,1/2-y,z
loop_
_atom_site_type_symbol
_atom_site_label
_atom_site_fract_x
_atom_site_fract_y
_atom_site_fract_z
Si Si1 0.352501 0.428109 0.914216
Si Si2 0.939741 0.428287 0.440358
Si Si3 0.250000 0.431023 0.525940
Si Si4 0.250000 0.570982 0.377134
Si Si5 0.518771 0.429059 0.823418
Si Si6 0.145904 0.570066 0.053515
Si Si7 0.072374 0.073121 0.316753
O O1 0.250000 0.489982 0.897956
O O2 0.351961 0.250000 0.929371
O O3 0.415720 0.464701 0.849053
O O4 0.393529 0.504333 0.982579
O O5 0.927816 0.250000 0.455781
O O6 0.839851 0.504920 0.436313
O O7 0.000000 0.500000 0.500000
O O8 0.990140 0.460450 0.369185
O O9 0.250000 0.250000 0.531204
O O10 0.250000 0.476816 0.446884
O O11 0.250000 0.750000 0.393900
O O12 0.339652 0.529820 0.333607
O O13 0.533050 0.250000 0.806851
O O14 0.587789 0.487603 0.882055
O O15 0.535473 0.529983 0.757258
O O16 0.250000 0.513015 0.064515
O O17 0.138928 0.750000 0.048287
O O18 0.101734 0.250000 0.319274
#
# Coordination Sequence:
#
# PCOD8245015 Si02
#       7
#     8   8   4   4   8   8   8
#     4   9  18  34  55  79 109 146 192 245 294 346
#     4  11  23  41  65  91 124 161 202 252 302 353
#     4  12  24  40  66  96 124 155 202 253 298 360
#     4  12  24  40  66  92 122 159 194 237 300 360
#     4  10  21  36  55  80 114 154 194 236 294 357
#     4   9  18  32  52  80 110 143 189 240 289 349
#     4  11  25  42  61  89 124 156 198 247 294 355
#
# _framework density 19.283808000000001
#
# number of rings (size 3 to 8) (size 9 to 14) (size 15 to 20)
#    0.000    1.667    1.667    3.000    1.167    3.333 
#    1.500    0.000    0.000    0.000    0.000    0.000 
#    0.000    0.000    0.000    0.000    0.000    0.000 
#
# Total GULP energy -595366.039952 kJ/mol
# GULP energy per Si atom -12403.459166 kJ/mol
# Density = 1.923992 g / cm^3
# Si number density = 19.283808 Si / 1000 Ang^3
#
#
#
# Elastic Constant Matrix: (Units=GPa)
#
#
# Indices 1 2 3 4 5 6 
#
# 1 129.7079 49.9620 53.5928 0.0000 0.0000 0.0000
# 2 49.9620 82.6168 39.5313 0.0000 0.0000 0.0000
# 3 53.5928 39.5313 110.3022 0.0000 0.0000 0.0000
# 4 0.0000 0.0000 0.0000 35.9384 0.0000 0.0000
# 5 0.0000 0.0000 0.0000 0.0000 24.5275 0.0000
# 6 0.0000 0.0000 0.0000 0.0000 0.0000 26.3347
#
#
#
# Elastic Compliance Matrix: (Units=1/GPa)
#
#
# Indices 1 2 3 4 5 6 
#
# 1 0.011130 -0.005001 -0.003615 0.000000 0.000000 0.000000
# 2 -0.005001 0.016856 -0.003611 0.000000 0.000000 0.000000
# 3 -0.003615 -0.003611 0.012117 0.000000 0.000000 0.000000
# 4 0.000000 0.000000 0.000000 0.027825 0.000000 0.000000
# 5 0.000000 0.000000 0.000000 0.000000 0.040771 0.000000
# 6 0.000000 0.000000 0.000000 0.000000 0.000000 0.037973
#
#
# Mechanical properties :
#
#
# Convention : Reuss Voigt Hill
#
# Bulk Modulus (GPa) = 63.90666 67.64436 65.77551
# Shear Modulus (GPa) = 28.35394 29.32952 28.84173
#
# Velocity S-wave (km/s) = 3.83867 3.90415 3.87155
# Velocity P-wave (km/s) = 7.27044 7.44834 7.35992
#
# Compressibility (1/GPa) = 0.01564782
#
# Stress axis : x y z
#
# Youngs Moduli (GPa) = 89.85026 59.32521 82.52918
#
# Poissons Ratio (x) = 0.29666 0.29837
# Poissons Ratio (y) = 0.44931 0.29805
# Poissons Ratio (z) = 0.32484 0.21425
#
# Static dielectric constant tensor:
#      x y z
#    x 4.014070 0.000000 0.000000 
#    y 0.000000 3.513960 0.000000 
#    z 0.000000 0.000000 3.463050 
# 
# 
# High freq. dielectric constant tensor:
#      x y z
#    x 1.764750 0.000000 0.000000 
#    y 0.000000 1.751190 0.000000 
#    z 0.000000 0.000000 1.744980 
# 
# From -- ./inp_files/27404.got.cif
#   From: 2010.03.12/outbox.cif.g09.slc.cpg/sg59_14_cif.got.tgz:27404.got - 2010.04.16 16:29:54.
