data_PCOD8245939
_publ_section_title
;
Structure prediction by ZEFSAII (Michael W. Deem and Ramdas Pophale) SiO2 
 PCOD8245939
Probable space group: P M M N
;
_chemical_formula_sum "Si O2"
_cell_formula_units_Z 64
_cell_length_a 9.224256
_cell_length_b 20.613285
_cell_length_c 20.438084
_cell_angle_alpha 90.000000
_cell_angle_beta 90.000000
_cell_angle_gamma 90.000000
_cell_volume 3886.142620
_symmetry_space_group_name_H-M "P M M N"
_symmetry_group_IT_number 59
_space_group.IT_coordinate_system_code '2'
_symmetry_cell_setting 'orthorhombic'
loop_
_space_group_symop_operation_xyz
x,y,z
1/2-x,1/2-y,z
1/2+x,-y,-z
-x,1/2+y,-z
-x,-y,-z
1/2+x,1/2+y,-z
1/2-x,y,z
x,1/2-y,z
loop_
_atom_site_type_symbol
_atom_site_label
_atom_site_fract_x
_atom_site_fract_y
_atom_site_fract_z
Si Si1 0.087062 0.915550 0.052095
Si Si2 0.587315 0.569100 0.928039
Si Si3 0.423376 0.438873 0.466440
Si Si4 0.920887 0.463569 0.338432
Si Si5 0.587609 0.900795 0.174698
Si Si6 0.922023 0.678484 0.442516
Si Si7 0.410616 0.554370 0.806509
Si Si8 0.077693 0.108976 0.683987
O O1 0.250000 0.889422 0.045716
O O2 0.013073 0.880204 0.114082
O O3 0.084592 0.992276 0.062390
O O4 0.002214 0.896793 0.986055
O O5 0.750000 0.596179 0.930205
O O6 0.519620 0.587935 0.857687
O O7 0.500000 0.500000 0.500000
O O8 0.250000 0.448460 0.467301
O O9 0.483160 0.428165 0.393296
O O10 0.472649 0.374147 0.504697
O O11 0.750000 0.458747 0.355033
O O12 0.955481 0.430066 0.268385
O O13 0.975157 0.537812 0.337411
O O14 0.750000 0.875098 0.160391
O O15 0.523094 0.871550 0.242889
O O16 0.591365 0.977692 0.183438
O O17 0.750000 0.679754 0.440053
O O18 0.983125 0.750000 0.460497
O O19 0.980076 0.659529 0.369996
O O20 0.250000 0.581856 0.820519
O O21 0.250000 0.106592 0.687940
#
# Coordination Sequence:
#
# PCOD8245939 Si02
#       8
#     8   8   8   8   8   8   8   8
#     4   9  15  21  29  43  66  96 132 169 203 243
#     4   9  15  21  30  44  67  98 133 169 203 245
#     4  11  20  30  47  68  89 113 146 185 226 270
#     4   9  16  28  44  62  84 109 142 180 221 264
#     4   8  13  21  34  49  67  94 129 168 206 243
#     4   9  17  29  46  67  89 114 147 185 223 267
#     4   8  14  23  35  50  71 100 131 167 209 252
#     4   8  13  24  41  59  80 106 138 176 216 258
#
# _framework density 16.468772999999999
#
# number of rings (size 3 to 8) (size 9 to 14) (size 15 to 20)
#    0.000    3.125    1.250    2.625    0.000    3.500 
#    0.000    1.875    0.000    1.500    0.000    0.000 
#    0.000    0.000    0.000    1.125    0.000   22.500 
#
# Total GULP energy -793088.335950 kJ/mol
# GULP energy per Si atom -12392.005249 kJ/mol
# Density = 1.643129 g / cm^3
# Si number density = 16.468773 Si / 1000 Ang^3
#
#
#
# Elastic Constant Matrix: (Units=GPa)
#
#
# Indices 1 2 3 4 5 6 
#
# 1 88.9064 20.4198 68.9961 0.0000 0.0000 0.0000
# 2 20.4198 50.4700 40.8498 0.0000 0.0000 0.0000
# 3 68.9961 40.8498 163.7250 0.0000 0.0000 0.0000
# 4 0.0000 0.0000 0.0000 10.7437 0.0000 0.0000
# 5 0.0000 0.0000 0.0000 0.0000 32.5827 0.0000
# 6 0.0000 0.0000 0.0000 0.0000 0.0000 7.2359
#
#
#
# Elastic Compliance Matrix: (Units=1/GPa)
#
#
# Indices 1 2 3 4 5 6 
#
# 1 0.016785 -0.001336 -0.006740 0.000000 0.000000 0.000000
# 2 -0.001336 0.024934 -0.005658 0.000000 0.000000 0.000000
# 3 -0.006740 -0.005658 0.010360 0.000000 0.000000 0.000000
# 4 0.000000 0.000000 0.000000 0.093078 0.000000 0.000000
# 5 0.000000 0.000000 0.000000 0.000000 0.030691 0.000000
# 6 0.000000 0.000000 0.000000 0.000000 0.000000 0.138200
#
#
# Mechanical properties :
#
#
# Convention : Reuss Voigt Hill
#
# Bulk Modulus (GPa) = 40.63254 62.62587 51.62921
# Shear Modulus (GPa) = 14.29712 21.63482 17.96597
#
# Velocity S-wave (km/s) = 2.94961 3.62841 3.30648
# Velocity P-wave (km/s) = 6.02713 7.46079 6.78195
#
# Compressibility (1/GPa) = 0.02461082
#
# Stress axis : x y z
#
# Youngs Moduli (GPa) = 59.57535 40.10614 96.52481
#
# Poissons Ratio (x) = 0.05357 0.65061
# Poissons Ratio (y) = 0.07957 0.54615
# Poissons Ratio (z) = 0.40156 0.22693
#
# Static dielectric constant tensor:
#      x y z
#    x 3.016670 0.000000 0.000000 
#    y 0.000000 2.616330 0.000000 
#    z 0.000000 0.000000 3.495470 
# 
# 
# High freq. dielectric constant tensor:
#      x y z
#    x 1.615770 0.000000 0.000000 
#    y 0.000000 1.552240 0.000000 
#    z 0.000000 0.000000 1.655840 
# 
# From -- ./inp_files/29786.got.cif
#   From: 2010.03.12/outbox.cif.g09.slc.cpg/sg59_15_cif.got.tgz:29786.got - 2010.04.16 16:29:54.
