data_PCOD8245435
_publ_section_title
;
Structure prediction by ZEFSAII (Michael W. Deem and Ramdas Pophale) SiO2 
 PCOD8245435
Probable space group: P M M N
;
_chemical_formula_sum "Si O2"
_cell_formula_units_Z 48
_cell_length_a 8.735765
_cell_length_b 21.774974
_cell_length_c 12.318884
_cell_angle_alpha 90.000000
_cell_angle_beta 90.000000
_cell_angle_gamma 90.000000
_cell_volume 2343.311120
_symmetry_space_group_name_H-M "P M M N"
_symmetry_group_IT_number 59
_space_group.IT_coordinate_system_code '2'
_symmetry_cell_setting 'orthorhombic'
loop_
_space_group_symop_operation_xyz
x,y,z
1/2-x,1/2-y,z
1/2+x,-y,-z
-x,1/2+y,-z
-x,-y,-z
1/2+x,1/2+y,-z
1/2-x,y,z
x,1/2-y,z
loop_
_atom_site_type_symbol
_atom_site_label
_atom_site_fract_x
_atom_site_fract_y
_atom_site_fract_z
Si Si1 0.422088 0.024355 0.108314
Si Si2 0.569944 0.353179 0.156853
Si Si3 0.569924 0.818141 0.622812
Si Si4 0.071910 0.818541 0.077460
Si Si5 0.069987 0.432562 0.521118
Si Si6 0.077710 0.908922 0.255703
O O1 0.250000 0.047465 0.081004
O O2 0.527177 0.075745 0.162296
O O3 0.413534 0.974756 0.201839
O O4 0.500000 0.000000 0.000000
O O5 0.750000 0.342987 0.164837
O O6 0.494643 0.317402 0.255737
O O7 0.502047 0.327871 0.042539
O O8 0.750000 0.825940 0.628915
O O9 0.529018 0.750000 0.572635
O O10 0.504538 0.877111 0.555713
O O11 0.250000 0.835768 0.068811
O O12 0.042553 0.750000 0.117780
O O13 0.999922 0.862621 0.168608
O O14 0.250000 0.439374 0.505233
O O15 0.000000 0.500000 0.500000
O O16 0.032362 0.410566 0.641710
O O17 0.250000 0.888104 0.289890
#
# Coordination Sequence:
#
# PCOD8245435 Si02
#       6
#     8   8   8   8   8   8
#     4  11  21  35  56  85 120 157 195 241 299 360
#     4  11  21  36  59  90 122 156 200 248 298 359
#     4  10  23  43  63  86 121 164 207 255 314 371
#     4   9  18  34  55  81 116 154 188 230 287 346
#     4  11  24  42  64  89 118 157 202 255 309 365
#     4  10  21  38  58  84 117 151 190 239 295 354
#
# _framework density 20.483837000000001
#
# number of rings (size 3 to 8) (size 9 to 14) (size 15 to 20)
#    0.000    1.667    1.667    3.000    0.000    8.333 
#    0.000    0.000    0.000    2.000    0.000    0.000 
#    0.000    0.000    0.000    0.000    0.000    0.000 
#
# Total GULP energy -594997.550682 kJ/mol
# GULP energy per Si atom -12395.782306 kJ/mol
# Density = 2.043721 g / cm^3
# Si number density = 20.483837 Si / 1000 Ang^3
#
#
#
# Elastic Constant Matrix: (Units=GPa)
#
#
# Indices 1 2 3 4 5 6 
#
# 1 13.8348 22.1105 19.1384 0.0000 0.0000 0.0000
# 2 22.1105 143.6080 59.7131 0.0000 0.0000 0.0000
# 3 19.1384 59.7131 126.5425 0.0000 0.0000 0.0000
# 4 0.0000 0.0000 0.0000 28.2082 0.0000 0.0000
# 5 0.0000 0.0000 0.0000 0.0000 32.7971 0.0000
# 6 0.0000 0.0000 0.0000 0.0000 0.0000 25.2419
#
#
#
# Elastic Compliance Matrix: (Units=1/GPa)
#
#
# Indices 1 2 3 4 5 6 
#
# 1 0.105728 -0.011980 -0.010337 0.000000 0.000000 0.000000
# 2 -0.011980 0.010021 -0.002917 0.000000 0.000000 0.000000
# 3 -0.010337 -0.002917 0.010842 0.000000 0.000000 0.000000
# 4 0.000000 0.000000 0.000000 0.035451 0.000000 0.000000
# 5 0.000000 0.000000 0.000000 0.000000 0.030490 0.000000
# 6 0.000000 0.000000 0.000000 0.000000 0.000000 0.039617
#
#
# Mechanical properties :
#
#
# Convention : Reuss Voigt Hill
#
# Bulk Modulus (GPa) = 13.13663 53.98989 33.56326
# Shear Modulus (GPa) = 16.23425 29.45102 22.84263
#
# Velocity S-wave (km/s) = 2.81826 3.79591 3.34302
# Velocity P-wave (km/s) = 4.12519 6.75473 5.59659
#
# Compressibility (1/GPa) = 0.07612302
#
# Stress axis : x y z
#
# Youngs Moduli (GPa) = 9.45823 99.79360 92.23203
#
# Poissons Ratio (x) = 1.19553 0.95342
# Poissons Ratio (y) = 0.11331 0.26901
# Poissons Ratio (z) = 0.09777 0.29107
#
# Static dielectric constant tensor:
#      x y z
#    x 3.576180 0.000000 0.000000 
#    y 0.000000 3.956750 0.000000 
#    z 0.000000 0.000000 3.720710 
# 
# 
# High freq. dielectric constant tensor:
#      x y z
#    x 1.778320 0.000000 0.000000 
#    y 0.000000 1.815810 0.000000 
#    z 0.000000 0.000000 1.802410 
# 
# From -- ./inp_files/14377.got.cif
#   From: 2010.03.12/outbox.cif.g09.slc.cpg/sg59_8_cif.got.tgz:14377.got - 2010.04.16 16:29:54.
