data_PCOD8245388
_publ_section_title
;
Structure prediction by ZEFSAII (Michael W. Deem and Ramdas Pophale) SiO2 
 PCOD8245388
Probable space group: P M M N
;
_chemical_formula_sum "Si O2"
_cell_formula_units_Z 64
_cell_length_a 8.651611
_cell_length_b 24.778802
_cell_length_c 14.986302
_cell_angle_alpha 90.000000
_cell_angle_beta 90.000000
_cell_angle_gamma 90.000000
_cell_volume 3212.711809
_symmetry_space_group_name_H-M "P M M N"
_symmetry_group_IT_number 59
_space_group.IT_coordinate_system_code '2'
_symmetry_cell_setting 'orthorhombic'
loop_
_space_group_symop_operation_xyz
x,y,z
1/2-x,1/2-y,z
1/2+x,-y,-z
-x,1/2+y,-z
-x,-y,-z
1/2+x,1/2+y,-z
1/2-x,y,z
x,1/2-y,z
loop_
_atom_site_type_symbol
_atom_site_label
_atom_site_fract_x
_atom_site_fract_y
_atom_site_fract_z
Si Si1 0.067907 0.105486 0.274328
Si Si2 0.927308 0.876648 0.215925
Si Si3 0.070503 0.187718 0.953277
Si Si4 0.071995 0.544332 0.440070
Si Si5 0.071297 0.812740 0.859776
Si Si6 0.427785 0.492911 0.731894
Si Si7 0.929186 0.859141 0.530285
Si Si8 0.927857 0.189896 0.625640
O O1 0.250000 0.093776 0.279155
O O2 0.003174 0.123757 0.372534
O O3 0.034686 0.154384 0.208151
O O4 0.980768 0.052251 0.234897
O O5 0.750000 0.859587 0.225835
O O6 0.996043 0.847985 0.128027
O O7 0.007179 0.854700 0.305627
O O8 0.943205 0.941855 0.200589
O O9 0.250000 0.175515 0.972677
O O10 0.043942 0.250000 0.928448
O O11 0.973105 0.171107 0.039894
O O12 0.250000 0.555985 0.462527
O O13 0.000000 0.500000 0.500000
O O14 0.053020 0.522245 0.341663
O O15 0.966465 0.595875 0.456450
O O16 0.250000 0.826544 0.843265
O O17 0.035613 0.750000 0.842749
O O18 0.250000 0.496775 0.698370
O O19 0.750000 0.848247 0.542422
O O20 0.003402 0.809006 0.476507
O O21 0.750000 0.175202 0.615414
O O22 0.954749 0.250000 0.664924
#
# Coordination Sequence:
#
# PCOD8245388 Si02
#       8
#     8   8   8   8   8   8   8   8
#     4  11  24  40  61  87 117 154 199 247 295 351
#     4  10  21  37  60  88 119 156 197 240 292 354
#     4   9  18  36  63  91 117 149 192 241 292 350
#     4  12  22  34  55  81 112 152 198 245 290 339
#     4  10  22  41  65  91 118 148 187 241 300 356
#     4  11  22  36  57  86 121 158 198 243 291 348
#     4  11  23  38  56  80 111 151 198 246 293 344
#     4  11  24  38  54  81 118 158 199 246 299 356
#
# _framework density 19.920864999999999
#
# number of rings (size 3 to 8) (size 9 to 14) (size 15 to 20)
#    0.000    1.375    2.500    3.375    0.000    5.250 
#    0.000    4.375    0.000    0.000    0.000    0.000 
#    0.000    0.000    0.000    0.000    0.000    0.000 
#
# Total GULP energy -793086.610978 kJ/mol
# GULP energy per Si atom -12391.978297 kJ/mol
# Density = 1.987552 g / cm^3
# Si number density = 19.920865 Si / 1000 Ang^3
#
#
#
# Elastic Constant Matrix: (Units=GPa)
#
#
# Indices 1 2 3 4 5 6 
#
# 1 66.4839 32.0095 30.1228 0.0000 0.0000 0.0000
# 2 32.0095 99.4554 53.4684 0.0000 0.0000 0.0000
# 3 30.1228 53.4684 100.9410 0.0000 0.0000 0.0000
# 4 0.0000 0.0000 0.0000 33.4667 0.0000 0.0000
# 5 0.0000 0.0000 0.0000 0.0000 25.5631 0.0000
# 6 0.0000 0.0000 0.0000 0.0000 0.0000 27.8142
#
#
#
# Elastic Compliance Matrix: (Units=1/GPa)
#
#
# Indices 1 2 3 4 5 6 
#
# 1 0.018563 -0.004189 -0.003320 0.000000 0.000000 0.000000
# 2 -0.004189 0.015004 -0.006697 0.000000 0.000000 0.000000
# 3 -0.003320 -0.006697 0.014445 0.000000 0.000000 0.000000
# 4 0.000000 0.000000 0.000000 0.029880 0.000000 0.000000
# 5 0.000000 0.000000 0.000000 0.000000 0.039119 0.000000
# 6 0.000000 0.000000 0.000000 0.000000 0.000000 0.035953
#
#
# Mechanical properties :
#
#
# Convention : Reuss Voigt Hill
#
# Bulk Modulus (GPa) = 51.02666 55.34240 53.18453
# Shear Modulus (GPa) = 26.60850 27.45411 27.03130
#
# Velocity S-wave (km/s) = 3.65870 3.71638 3.68766
# Velocity P-wave (km/s) = 6.59685 6.80123 6.69982
#
# Compressibility (1/GPa) = 0.01959760
#
# Stress axis : x y z
#
# Youngs Moduli (GPa) = 53.87166 66.65081 69.22726
#
# Poissons Ratio (x) = 0.27922 0.22986
# Poissons Ratio (y) = 0.22568 0.46363
# Poissons Ratio (z) = 0.17888 0.44638
#
# Static dielectric constant tensor:
#      x y z
#    x 3.512060 0.000000 0.000000 
#    y 0.000000 3.806350 0.000000 
#    z 0.000000 0.000000 3.522730 
# 
# 
# High freq. dielectric constant tensor:
#      x y z
#    x 1.778460 0.000000 0.000000 
#    y 0.000000 1.786050 0.000000 
#    z 0.000000 0.000000 1.758930 
# 
# From -- ./inp_files/21595.got.cif
#   From: 2010.03.12/outbox.cif.g09.slc.cpg/sg59_11_cif.got.tgz:21595.got - 2010.04.16 16:29:54.
