data_PCOD8245284
_publ_section_title
;
Structure prediction by ZEFSAII (Michael W. Deem and Ramdas Pophale) SiO2 
 PCOD8245284
Probable space group: P M M N
;
_chemical_formula_sum "Si O2"
_cell_formula_units_Z 48
_cell_length_a 17.045954
_cell_length_b 13.240377
_cell_length_c 10.781389
_cell_angle_alpha 90.000000
_cell_angle_beta 90.000000
_cell_angle_gamma 90.000000
_cell_volume 2433.304052
_symmetry_space_group_name_H-M "P M M N"
_symmetry_group_IT_number 59
_space_group.IT_coordinate_system_code '2'
_symmetry_cell_setting 'orthorhombic'
loop_
_space_group_symop_operation_xyz
x,y,z
1/2-x,1/2-y,z
1/2+x,-y,-z
-x,1/2+y,-z
-x,-y,-z
1/2+x,1/2+y,-z
1/2-x,y,z
x,1/2-y,z
loop_
_atom_site_type_symbol
_atom_site_label
_atom_site_fract_x
_atom_site_fract_y
_atom_site_fract_z
Si Si1 0.562315 0.866603 0.772535
Si Si2 0.658146 0.359763 0.637670
Si Si3 0.933298 0.476670 0.100475
Si Si4 0.586569 0.958798 0.514352
Si Si5 0.841755 0.035894 0.880992
Si Si6 0.157697 0.368789 0.732350
O O1 0.566676 0.750000 0.806265
O O2 0.588931 0.884003 0.631383
O O3 0.622549 0.923649 0.863882
O O4 0.472357 0.905965 0.794234
O O5 0.750000 0.348840 0.650609
O O6 0.621414 0.250000 0.603626
O O7 0.639471 0.441553 0.533130
O O8 0.622968 0.393992 0.771186
O O9 0.892559 0.573789 0.163054
O O10 0.866326 0.421247 0.016751
O O11 0.000000 0.500000 0.000000
O O12 0.620938 0.897117 0.400079
O O13 0.500000 0.000000 0.500000
O O14 0.750000 0.028056 0.869885
O O15 0.250000 0.398873 0.737644
O O16 0.147167 0.250000 0.754553
#
# Coordination Sequence:
#
# PCOD8245284 Si02
#       6
#     8   8   8   8   8   8
#     4  10  21  37  57  86 121 157 200 245 299 359
#     4   9  19  36  59  86 116 155 199 243 298 361
#     4  10  21  39  57  85 121 159 202 247 298 353
#     4  11  21  39  59  89 122 157 199 249 302 358
#     4   9  19  36  59  86 118 155 199 252 301 352
#     4  11  24  42  66  94 125 162 203 252 311 370
#
# _framework density 19.726264
#
# number of rings (size 3 to 8) (size 9 to 14) (size 15 to 20)
#    0.000    2.000    1.667    1.500    0.000    5.667 
#    0.000    0.000    0.000    1.500    0.000    0.000 
#    0.000    0.000    0.000    0.000    0.000    0.000 
#
# Total GULP energy -594828.725364 kJ/mol
# GULP energy per Si atom -12392.265112 kJ/mol
# Density = 1.968137 g / cm^3
# Si number density = 19.726264 Si / 1000 Ang^3
#
#
#
# Elastic Constant Matrix: (Units=GPa)
#
#
# Indices 1 2 3 4 5 6 
#
# 1 85.3005 31.3843 30.4537 0.0000 0.0000 0.0000
# 2 31.3843 89.4062 9.9004 0.0000 0.0000 0.0000
# 3 30.4537 9.9004 88.5236 0.0000 0.0000 0.0000
# 4 0.0000 0.0000 0.0000 19.3046 0.0000 0.0000
# 5 0.0000 0.0000 0.0000 0.0000 39.0973 0.0000
# 6 0.0000 0.0000 0.0000 0.0000 0.0000 29.7729
#
#
#
# Elastic Compliance Matrix: (Units=1/GPa)
#
#
# Indices 1 2 3 4 5 6 
#
# 1 0.015161 -0.004804 -0.004678 0.000000 0.000000 0.000000
# 2 -0.004804 0.012847 0.000216 0.000000 0.000000 0.000000
# 3 -0.004678 0.000216 0.012882 0.000000 0.000000 0.000000
# 4 0.000000 0.000000 0.000000 0.051801 0.000000 0.000000
# 5 0.000000 0.000000 0.000000 0.000000 0.025577 0.000000
# 6 0.000000 0.000000 0.000000 0.000000 0.000000 0.033588
#
#
# Mechanical properties :
#
#
# Convention : Reuss Voigt Hill
#
# Bulk Modulus (GPa) = 44.72859 45.18967 44.95913
# Shear Modulus (GPa) = 28.11496 30.40110 29.25803
#
# Velocity S-wave (km/s) = 3.77935 3.93001 3.85541
# Velocity P-wave (km/s) = 6.46286 6.59935 6.53146
#
# Compressibility (1/GPa) = 0.02235707
#
# Stress axis : x y z
#
# Youngs Moduli (GPa) = 65.95873 77.83717 77.62936
#
# Poissons Ratio (x) = 0.37392 0.36318
# Poissons Ratio (y) = 0.31686 -0.01675
# Poissons Ratio (z) = 0.30858 -0.01680
#
# Static dielectric constant tensor:
#      x y z
#    x 3.938740 0.000000 0.000000 
#    y 0.000000 3.530980 0.000000 
#    z 0.000000 0.000000 4.156200 
# 
# 
# High freq. dielectric constant tensor:
#      x y z
#    x 1.774730 0.000000 0.000000 
#    y 0.000000 1.753500 0.000000 
#    z 0.000000 0.000000 1.776870 
# 
# From -- ./inp_files/15787.got.cif
#   From: 2010.03.12/outbox.cif.g09.slc.cpg/sg59_8_cif.got.tgz:15787.got - 2010.04.16 16:29:54.
