data_PCOD8245570
_publ_section_title
;
Structure prediction by ZEFSAII (Michael W. Deem and Ramdas Pophale) SiO2 
 PCOD8245570
Probable space group: P M M N
;
_chemical_formula_sum "Si O2"
_cell_formula_units_Z 48
_cell_length_a 30.816486
_cell_length_b 8.367358
_cell_length_c 8.837411
_cell_angle_alpha 90.000000
_cell_angle_beta 90.000000
_cell_angle_gamma 90.000000
_cell_volume 2278.749144
_symmetry_space_group_name_H-M "P M M N"
_symmetry_group_IT_number 59
_space_group.IT_coordinate_system_code '2'
_symmetry_cell_setting 'orthorhombic'
loop_
_space_group_symop_operation_xyz
x,y,z
1/2-x,1/2-y,z
1/2+x,-y,-z
-x,1/2+y,-z
-x,-y,-z
1/2+x,1/2+y,-z
1/2-x,y,z
x,1/2-y,z
loop_
_atom_site_type_symbol
_atom_site_label
_atom_site_fract_x
_atom_site_fract_y
_atom_site_fract_z
Si Si1 0.250000 0.931300 0.163637
Si Si2 0.997316 0.565019 0.331836
Si Si3 0.169403 0.435257 0.332001
Si Si4 0.663321 0.937438 0.315461
Si Si5 0.750000 0.565157 0.161847
Si Si6 0.081489 0.566705 0.852208
Si Si7 0.579933 0.934145 0.821755
O O1 0.250000 0.750000 0.106478
O O2 0.292129 0.961051 0.264039
O O3 0.250000 0.043458 0.017440
O O4 0.983882 0.750000 0.333893
O O5 0.961563 0.465300 0.242768
O O6 0.000000 0.500000 0.500000
O O7 0.043115 0.545320 0.248878
O O8 0.179888 0.250000 0.302890
O O9 0.165830 0.473767 0.507939
O O10 0.125263 0.487625 0.250751
O O11 0.656970 0.750000 0.282029
O O12 0.706602 0.008138 0.236301
O O13 0.622833 0.032783 0.250864
O O14 0.750000 0.750000 0.203723
O O15 0.081713 0.750000 0.904640
O O16 0.082320 0.454691 0.998645
O O17 0.569737 0.750000 0.783104
#
# Coordination Sequence:
#
# PCOD8245570 Si02
#       7
#     4   8   8   8   4   8   8
#     4  12  25  38  58  88 124 160 201 250 300 358
#     4  12  25  43  66  93 125 161 203 253 307 368
#     4  10  22  41  65  89 119 158 202 249 304 366
#     4  10  21  40  65  92 119 156 205 256 306 364
#     4  10  21  38  62  88 120 160 203 250 306 366
#     4  12  25  41  62  91 127 166 205 252 305 362
#     4  11  23  41  65  93 124 163 208 256 306 362
#
# _framework density 21.064185999999999
#
# number of rings (size 3 to 8) (size 9 to 14) (size 15 to 20)
#    0.000    1.000    0.000    7.250    0.000    9.333 
#    0.000    0.833    0.000    0.000    0.000    0.000 
#    0.000    0.000    0.000    0.000    0.000    0.000 
#
# Total GULP energy -595607.036376 kJ/mol
# GULP energy per Si atom -12408.479925 kJ/mol
# Density = 2.101624 g / cm^3
# Si number density = 21.064186 Si / 1000 Ang^3
#
#
#
# Elastic Constant Matrix: (Units=GPa)
#
#
# Indices 1 2 3 4 5 6 
#
# 1 156.9822 25.0959 58.6716 0.0000 0.0000 0.0000
# 2 25.0959 61.3970 10.1469 0.0000 0.0000 0.0000
# 3 58.6716 10.1469 129.3850 0.0000 0.0000 0.0000
# 4 0.0000 0.0000 0.0000 25.9016 0.0000 0.0000
# 5 0.0000 0.0000 0.0000 0.0000 42.7711 0.0000
# 6 0.0000 0.0000 0.0000 0.0000 0.0000 30.2185
#
#
#
# Elastic Compliance Matrix: (Units=1/GPa)
#
#
# Indices 1 2 3 4 5 6 
#
# 1 0.008101 -0.002740 -0.003459 0.000000 0.000000 0.000000
# 2 -0.002740 0.017428 -0.000124 0.000000 0.000000 0.000000
# 3 -0.003459 -0.000124 0.009307 0.000000 0.000000 0.000000
# 4 0.000000 0.000000 0.000000 0.038608 0.000000 0.000000
# 5 0.000000 0.000000 0.000000 0.000000 0.023380 0.000000
# 6 0.000000 0.000000 0.000000 0.000000 0.000000 0.033092
#
#
# Mechanical properties :
#
#
# Convention : Reuss Voigt Hill
#
# Bulk Modulus (GPa) = 45.06468 59.51033 52.28751
# Shear Modulus (GPa) = 33.34275 36.70156 35.02216
#
# Velocity S-wave (km/s) = 3.98290 4.17870 4.08197
# Velocity P-wave (km/s) = 6.52623 7.18298 6.86247
#
# Compressibility (1/GPa) = 0.02219033
#
# Stress axis : x y z
#
# Youngs Moduli (GPa) = 123.44561 57.37960 107.44636
#
# Poissons Ratio (x) = 0.15720 0.37161
# Poissons Ratio (y) = 0.33819 0.01337
# Poissons Ratio (z) = 0.42694 0.00714
#
# Static dielectric constant tensor:
#      x y z
#    x 4.000000 0.000000 0.000000 
#    y 0.000000 3.641260 0.000000 
#    z 0.000000 0.000000 3.863370 
# 
# 
# High freq. dielectric constant tensor:
#      x y z
#    x 1.844580 0.000000 0.000000 
#    y 0.000000 1.817740 0.000000 
#    z 0.000000 0.000000 1.841180 
# 
# From -- ./inp_files/13056.got.cif
#   From: 2010.03.12/outbox.cif.g09.slc.cpg/sg59_7_cif.got.tgz:13056.got - 2010.04.16 16:29:54.
