data_PCOD8245830
_publ_section_title
;
Structure prediction by ZEFSAII (Michael W. Deem and Ramdas Pophale) SiO2 
 PCOD8245830
Probable space group: P M M N
;
_chemical_formula_sum "Si O2"
_cell_formula_units_Z 64
_cell_length_a 30.597721
_cell_length_b 8.708715
_cell_length_c 11.894581
_cell_angle_alpha 90.000000
_cell_angle_beta 90.000000
_cell_angle_gamma 90.000000
_cell_volume 3169.511315
_symmetry_space_group_name_H-M "P M M N"
_symmetry_group_IT_number 59
_space_group.IT_coordinate_system_code '2'
_symmetry_cell_setting 'orthorhombic'
loop_
_space_group_symop_operation_xyz
x,y,z
1/2-x,1/2-y,z
1/2+x,-y,-z
-x,1/2+y,-z
-x,-y,-z
1/2+x,1/2+y,-z
1/2-x,y,z
x,1/2-y,z
loop_
_atom_site_type_symbol
_atom_site_label
_atom_site_fract_x
_atom_site_fract_y
_atom_site_fract_z
Si Si1 0.299704 0.430176 0.995885
Si Si2 0.085545 0.928015 0.246012
Si Si3 0.547227 0.072754 0.996698
Si Si4 0.177210 0.070171 0.244521
Si Si5 0.125623 0.071730 0.607062
Si Si6 0.798752 0.424942 0.532500
Si Si7 0.456430 0.069238 0.450942
Si Si8 0.375489 0.931059 0.849818
O O1 0.250000 0.470486 0.962082
O O2 0.308456 0.250000 0.992784
O O3 0.308847 0.491861 0.121893
O O4 0.331493 0.507407 0.906574
O O5 0.098104 0.750000 0.263285
O O6 0.067761 0.960156 0.123314
O O7 0.126625 0.036967 0.266964
O O8 0.049044 0.980945 0.333641
O O9 0.540427 0.250000 0.021176
O O10 0.580977 0.002595 0.088607
O O11 0.500000 0.000000 0.000000
O O12 0.186883 0.250000 0.256358
O O13 0.204366 0.980957 0.338806
O O14 0.126833 0.250000 0.638610
O O15 0.083731 0.029971 0.532681
O O16 0.169367 0.031221 0.539643
O O17 0.123030 0.974959 0.720285
O O18 0.750000 0.436802 0.481182
O O19 0.815819 0.250000 0.528358
O O20 0.461119 0.250000 0.430410
O O21 0.500000 0.000000 0.500000
O O22 0.374493 0.750000 0.863425
#
# Coordination Sequence:
#
# PCOD8245830 Si02
#       8
#     8   8   8   8   8   8   8   8
#     4  10  22  40  63  92 125 164 208 253 306 368
#     4  11  22  40  65  94 129 164 204 257 310 367
#     4  10  24  42  63  93 126 162 205 252 306 365
#     4  11  21  37  63  95 129 165 204 253 311 370
#     4  11  25  44  65  91 123 164 211 257 309 370
#     4  11  24  41  64  94 126 164 208 255 311 371
#     4  11  25  43  65  95 126 163 209 255 311 372
#     4  11  24  43  64  91 124 163 208 257 312 367
#
# _framework density 20.192388000000001
#
# number of rings (size 3 to 8) (size 9 to 14) (size 15 to 20)
#    0.000    1.250    2.500    2.625    1.750    6.250 
#    0.000    0.000    0.000    0.000    0.000    0.000 
#    0.000    0.000    0.000    0.000    0.000    0.000 
#
# Total GULP energy -793869.582209 kJ/mol
# GULP energy per Si atom -12404.212222 kJ/mol
# Density = 2.014643 g / cm^3
# Si number density = 20.192388 Si / 1000 Ang^3
#
#
#
# Elastic Constant Matrix: (Units=GPa)
#
#
# Indices 1 2 3 4 5 6 
#
# 1 117.7556 35.0825 28.9552 0.0000 0.0000 0.0000
# 2 35.0825 44.1205 33.7268 0.0000 0.0000 0.0000
# 3 28.9552 33.7268 86.2368 0.0000 0.0000 0.0000
# 4 0.0000 0.0000 0.0000 36.6406 0.0000 0.0000
# 5 0.0000 0.0000 0.0000 0.0000 24.5319 0.0000
# 6 0.0000 0.0000 0.0000 0.0000 0.0000 32.9180
#
#
#
# Elastic Compliance Matrix: (Units=1/GPa)
#
#
# Indices 1 2 3 4 5 6 
#
# 1 0.011138 -0.008555 -0.000394 0.000000 0.000000 0.000000
# 2 -0.008555 0.038903 -0.012342 0.000000 0.000000 0.000000
# 3 -0.000394 -0.012342 0.016555 0.000000 0.000000 0.000000
# 4 0.000000 0.000000 0.000000 0.027292 0.000000 0.000000
# 5 0.000000 0.000000 0.000000 0.000000 0.040763 0.000000
# 6 0.000000 0.000000 0.000000 0.000000 0.000000 0.030378
#
#
# Mechanical properties :
#
#
# Convention : Reuss Voigt Hill
#
# Bulk Modulus (GPa) = 41.64360 49.29357 45.46859
# Shear Modulus (GPa) = 23.18938 28.84132 26.01535
#
# Velocity S-wave (km/s) = 3.39251 3.78342 3.59329
# Velocity P-wave (km/s) = 6.00114 6.59929 6.30731
#
# Compressibility (1/GPa) = 0.02401329
#
# Stress axis : x y z
#
# Youngs Moduli (GPa) = 89.78411 25.70528 60.40430
#
# Poissons Ratio (x) = 0.21992 0.02378
# Poissons Ratio (y) = 0.76813 0.74551
# Poissons Ratio (z) = 0.03535 0.31726
#
# Static dielectric constant tensor:
#      x y z
#    x 3.998380 0.000000 0.000000 
#    y 0.000000 3.688780 0.000000 
#    z 0.000000 0.000000 3.749990 
# 
# 
# High freq. dielectric constant tensor:
#      x y z
#    x 1.801090 0.000000 0.000000 
#    y 0.000000 1.791290 0.000000 
#    z 0.000000 0.000000 1.795320 
# 
# From -- ./inp_files/19370.got.cif
#   From: 2010.03.12/outbox.cif.g09.slc.cpg/sg59_10_cif.got.tgz:19370.got - 2010.04.16 16:29:54.
