data_PCOD8245778
_publ_section_title
;
Structure prediction by ZEFSAII (Michael W. Deem and Ramdas Pophale) SiO2 
 PCOD8245778
Probable space group: P M M N
;
_chemical_formula_sum "Si O2"
_cell_formula_units_Z 32
_cell_length_a 22.742821
_cell_length_b 9.755692
_cell_length_c 6.447899
_cell_angle_alpha 90.000000
_cell_angle_beta 90.000000
_cell_angle_gamma 90.000000
_cell_volume 1430.607969
_symmetry_space_group_name_H-M "P M M N"
_symmetry_group_IT_number 59
_space_group.IT_coordinate_system_code '2'
_symmetry_cell_setting 'orthorhombic'
loop_
_space_group_symop_operation_xyz
x,y,z
1/2-x,1/2-y,z
1/2+x,-y,-z
-x,1/2+y,-z
-x,-y,-z
1/2+x,1/2+y,-z
1/2-x,y,z
x,1/2-y,z
loop_
_atom_site_type_symbol
_atom_site_label
_atom_site_fract_x
_atom_site_fract_y
_atom_site_fract_z
Si Si1 0.091588 0.494659 0.032841
Si Si2 0.492262 0.401441 0.702514
Si Si3 0.893271 0.096404 0.390485
Si Si4 0.682835 0.904172 0.658945
O O1 0.146888 0.413983 0.126604
O O2 0.059767 0.570221 0.226714
O O3 0.045518 0.393598 0.917593
O O4 0.115588 0.600736 0.858675
O O5 0.487196 0.250000 0.597612
O O6 0.458628 0.524583 0.564543
O O7 0.892735 0.250000 0.479818
O O8 0.841016 0.007583 0.485728
O O9 0.750000 0.942487 0.707068
O O10 0.677149 0.750000 0.571042
#
# Coordination Sequence:
#
# PCOD8245778 Si02
#       4
#     8   8   8   8
#     4   9  21  37  65  91 123 156 199 252 307 355
#     4   9  18  37  65  93 122 158 200 248 305 369
#     4  10  22  39  61  92 127 159 195 248 308 364
#     4  11  25  43  63  87 117 162 216 256 294 357
#
# _framework density 22.368113999999998
#
# number of rings (size 3 to 8) (size 9 to 14) (size 15 to 20)
#    1.500    0.750    0.000    2.250    0.000    5.500 
#    0.000    2.500    0.000    0.000    0.000    0.000 
#    0.000    0.000    0.000    0.000    0.000    0.000 
#
# Total GULP energy -396683.354388 kJ/mol
# GULP energy per Si atom -12396.354825 kJ/mol
# Density = 2.231720 g / cm^3
# Si number density = 22.368114 Si / 1000 Ang^3
#
#
#
# Elastic Constant Matrix: (Units=GPa)
#
#
# Indices 1 2 3 4 5 6 
#
# 1 169.2125 70.2120 54.4352 0.0000 0.0000 0.0000
# 2 70.2120 182.3739 40.4566 0.0000 0.0000 0.0000
# 3 54.4352 40.4566 102.9536 0.0000 0.0000 0.0000
# 4 0.0000 0.0000 0.0000 32.3650 0.0000 0.0000
# 5 0.0000 0.0000 0.0000 0.0000 34.6118 0.0000
# 6 0.0000 0.0000 0.0000 0.0000 0.0000 23.5159
#
#
#
# Elastic Compliance Matrix: (Units=1/GPa)
#
#
# Indices 1 2 3 4 5 6 
#
# 1 0.007929 -0.002325 -0.003279 0.000000 0.000000 0.000000
# 2 -0.002325 0.006689 -0.001399 0.000000 0.000000 0.000000
# 3 -0.003279 -0.001399 0.011996 0.000000 0.000000 0.000000
# 4 0.000000 0.000000 0.000000 0.030898 0.000000 0.000000
# 5 0.000000 0.000000 0.000000 0.000000 0.028892 0.000000
# 6 0.000000 0.000000 0.000000 0.000000 0.000000 0.042525
#
#
# Mechanical properties :
#
#
# Convention : Reuss Voigt Hill
#
# Bulk Modulus (GPa) = 79.31163 87.19419 83.25291
# Shear Modulus (GPa) = 33.98180 37.39427 35.68804
#
# Velocity S-wave (km/s) = 3.90193 4.09316 3.99869
# Velocity P-wave (km/s) = 7.47225 7.83612 7.65634
#
# Compressibility (1/GPa) = 0.01260849
#
# Stress axis : x y z
#
# Youngs Moduli (GPa) = 126.11323 149.50328 83.35808
#
# Poissons Ratio (x) = 0.34765 0.27331
# Poissons Ratio (y) = 0.29326 0.11661
# Poissons Ratio (z) = 0.41350 0.20914
#
# Static dielectric constant tensor:
#      x y z
#    x 3.881970 0.000000 0.000000 
#    y 0.000000 3.739350 0.000000 
#    z 0.000000 0.000000 4.121570 
# 
# 
# High freq. dielectric constant tensor:
#      x y z
#    x 1.871860 0.000000 0.000000 
#    y 0.000000 1.869410 0.000000 
#    z 0.000000 0.000000 1.908630 
# 
# From -- ./inp_files/11833.got.cif
#   From: 2010.03.12/outbox.cif.g09.slc.cpg/sg59_6_cif.got.tgz:11833.got - 2010.04.16 16:29:54.
