data_PCOD8245624
_publ_section_title
;
Structure prediction by ZEFSAII (Michael W. Deem and Ramdas Pophale) SiO2 
 PCOD8245624
Probable space group: P M M N
;
_chemical_formula_sum "Si O2"
_cell_formula_units_Z 64
_cell_length_a 8.969099
_cell_length_b 30.850991
_cell_length_c 11.964998
_cell_angle_alpha 90.000000
_cell_angle_beta 90.000000
_cell_angle_gamma 90.000000
_cell_volume 3310.781861
_symmetry_space_group_name_H-M "P M M N"
_symmetry_group_IT_number 59
_space_group.IT_coordinate_system_code '2'
_symmetry_cell_setting 'orthorhombic'
loop_
_space_group_symop_operation_xyz
x,y,z
1/2-x,1/2-y,z
1/2+x,-y,-z
-x,1/2+y,-z
-x,-y,-z
1/2+x,1/2+y,-z
1/2-x,y,z
x,1/2-y,z
loop_
_atom_site_type_symbol
_atom_site_label
_atom_site_fract_x
_atom_site_fract_y
_atom_site_fract_z
Si Si1 0.925052 0.175730 0.749759
Si Si2 0.576035 0.546321 0.494615
Si Si3 0.426934 0.797919 0.492067
Si Si4 0.927012 0.875681 0.876269
Si Si5 0.419140 0.087104 0.744145
Si Si6 0.919730 0.701910 0.031520
Si Si7 0.427857 0.621022 0.636564
Si Si8 0.079040 0.455830 0.973341
O O1 0.750000 0.181567 0.754435
O O2 0.989021 0.194400 0.633076
O O3 0.965205 0.125563 0.758658
O O4 0.991762 0.201835 0.852849
O O5 0.500000 0.500000 0.500000
O O6 0.750000 0.542674 0.525196
O O7 0.549852 0.562889 0.370256
O O8 0.497824 0.578638 0.580779
O O9 0.250000 0.800322 0.490024
O O10 0.479910 0.750000 0.532949
O O11 0.487255 0.835598 0.573749
O O12 0.750000 0.875440 0.853188
O O13 0.017811 0.876503 0.762593
O O14 0.980061 0.832625 0.942045
O O15 0.979714 0.916557 0.949873
O O16 0.250000 0.105194 0.750595
O O17 0.449166 0.053613 0.843483
O O18 0.750000 0.689823 0.060373
O O19 0.934147 0.750000 0.978969
O O20 0.250000 0.617293 0.631618
O O21 0.250000 0.462879 0.000818
O O22 0.000000 0.500000 0.000000
#
# Coordination Sequence:
#
# PCOD8245624 Si02
#       8
#     8   8   8   8   8   8   8   8
#     4  11  20  34  60  91 123 154 192 244 294 351
#     4  11  24  41  64  91 122 157 198 247 297 354
#     4   9  19  36  57  84 119 156 192 238 296 348
#     4  10  22  41  60  83 117 156 196 244 297 348
#     4  10  21  40  63  87 119 156 193 241 294 349
#     4  10  21  39  62  86 118 159 199 243 299 358
#     4  11  23  40  61  86 119 159 202 247 296 355
#     4  10  22  40  61  86 117 152 190 240 293 347
#
# _framework density 19.330781000000002
#
# number of rings (size 3 to 8) (size 9 to 14) (size 15 to 20)
#    0.000    1.750    2.500    1.500    1.750    3.250 
#    0.000    0.000    0.000    3.375    0.000    0.000 
#    0.000    0.000    0.000    0.000    0.000    0.000 
#
# Total GULP energy -793682.978169 kJ/mol
# GULP energy per Si atom -12401.296534 kJ/mol
# Density = 1.928678 g / cm^3
# Si number density = 19.330781 Si / 1000 Ang^3
#
#
#
# Elastic Constant Matrix: (Units=GPa)
#
#
# Indices 1 2 3 4 5 6 
#
# 1 58.6184 39.2226 41.8879 0.0000 0.0000 0.0000
# 2 39.2226 153.7787 59.0286 0.0000 0.0000 0.0000
# 3 41.8879 59.0286 135.9429 0.0000 0.0000 0.0000
# 4 0.0000 0.0000 0.0000 26.2294 0.0000 0.0000
# 5 0.0000 0.0000 0.0000 0.0000 32.5209 0.0000
# 6 0.0000 0.0000 0.0000 0.0000 0.0000 21.8300
#
#
#
# Elastic Compliance Matrix: (Units=1/GPa)
#
#
# Indices 1 2 3 4 5 6 
#
# 1 0.023664 -0.003884 -0.005605 0.000000 0.000000 0.000000
# 2 -0.003884 0.008441 -0.002468 0.000000 0.000000 0.000000
# 3 -0.005605 -0.002468 0.010155 0.000000 0.000000 0.000000
# 4 0.000000 0.000000 0.000000 0.038125 0.000000 0.000000
# 5 0.000000 0.000000 0.000000 0.000000 0.030749 0.000000
# 6 0.000000 0.000000 0.000000 0.000000 0.000000 0.045808
#
#
# Mechanical properties :
#
#
# Convention : Reuss Voigt Hill
#
# Bulk Modulus (GPa) = 54.51185 69.84646 62.17915
# Shear Modulus (GPa) = 26.74192 29.99613 28.36902
#
# Velocity S-wave (km/s) = 3.72342 3.94347 3.83503
# Velocity P-wave (km/s) = 6.83710 7.54621 7.20039
#
# Compressibility (1/GPa) = 0.01834464
#
# Stress axis : x y z
#
# Youngs Moduli (GPa) = 42.25898 118.46867 98.47476
#
# Poissons Ratio (x) = 0.46015 0.55194
# Poissons Ratio (y) = 0.16414 0.24308
# Poissons Ratio (z) = 0.23686 0.29243
#
# Static dielectric constant tensor:
#      x y z
#    x 3.303970 0.000000 0.000000 
#    y 0.000000 3.963590 0.000000 
#    z 0.000000 0.000000 4.953830 
# 
# 
# High freq. dielectric constant tensor:
#      x y z
#    x 1.738240 0.000000 0.000000 
#    y 0.000000 1.766960 0.000000 
#    z 0.000000 0.000000 1.759120 
# 
# From -- ./inp_files/14933.got.cif
#   From: 2010.03.12/outbox.cif.g09.slc.cpg/sg59_8_cif.got.tgz:14933.got - 2010.04.16 16:29:54.
