data_PCOD8245941
_publ_section_title
;
Structure prediction by ZEFSAII (Michael W. Deem and Ramdas Pophale) SiO2 
 PCOD8245941
Probable space group: P M M N
;
_chemical_formula_sum "Si O2"
_cell_formula_units_Z 48
_cell_length_a 8.926505
_cell_length_b 18.333281
_cell_length_c 16.615664
_cell_angle_alpha 90.000000
_cell_angle_beta 90.000000
_cell_angle_gamma 90.000000
_cell_volume 2719.188714
_symmetry_space_group_name_H-M "P M M N"
_symmetry_group_IT_number 59
_space_group.IT_coordinate_system_code '2'
_symmetry_cell_setting 'orthorhombic'
loop_
_space_group_symop_operation_xyz
x,y,z
1/2-x,1/2-y,z
1/2+x,-y,-z
-x,1/2+y,-z
-x,-y,-z
1/2+x,1/2+y,-z
1/2-x,y,z
x,1/2-y,z
loop_
_atom_site_type_symbol
_atom_site_label
_atom_site_fract_x
_atom_site_fract_y
_atom_site_fract_z
Si Si1 0.572023 0.830395 0.165985
Si Si2 0.571413 0.974339 0.082060
Si Si3 0.423761 0.547936 0.759332
Si Si4 0.576331 0.900302 0.329121
Si Si5 0.571216 0.168449 0.355738
Si Si6 0.572982 0.421446 0.509674
O O1 0.750000 0.831868 0.167608
O O2 0.511233 0.750000 0.141408
O O3 0.517805 0.891419 0.102057
O O4 0.517178 0.849700 0.256121
O O5 0.750000 0.977995 0.075928
O O6 0.508082 0.026766 0.153498
O O7 0.500000 0.000000 0.000000
O O8 0.250000 0.559357 0.774594
O O9 0.449033 0.484309 0.694637
O O10 0.491950 0.621864 0.720662
O O11 0.750000 0.885056 0.348227
O O12 0.478847 0.883088 0.407712
O O13 0.750000 0.169668 0.353398
O O14 0.504951 0.250000 0.350050
O O15 0.517477 0.131221 0.438245
O O16 0.500000 0.500000 0.500000
O O17 0.750000 0.431375 0.508739
#
# Coordination Sequence:
#
# PCOD8245941 Si02
#       6
#     8   8   8   8   8   8
#     4   8  15  29  50  73  97 129 164 196 237 292
#     4   9  17  30  51  74  97 123 158 197 234 286
#     4   8  14  28  47  65  87 119 155 189 226 278
#     4   9  16  29  49  70  91 119 159 199 234 278
#     4   9  17  29  46  67  91 122 161 200 231 267
#     4  11  20  30  47  70  96 127 163 199 238 282
#
# _framework density 17.652324
#
# number of rings (size 3 to 8) (size 9 to 14) (size 15 to 20)
#    0.000    3.000    1.667    2.500    0.000    0.667 
#    0.000    4.167    0.000    4.000    0.000    0.000 
#    0.000    0.000    0.000    0.000    0.000    0.000 
#
# Total GULP energy -594810.870366 kJ/mol
# GULP energy per Si atom -12391.893133 kJ/mol
# Density = 1.761215 g / cm^3
# Si number density = 17.652324 Si / 1000 Ang^3
#
#
#
# Elastic Constant Matrix: (Units=GPa)
#
#
# Indices 1 2 3 4 5 6 
#
# 1 26.7282 21.8280 26.4914 0.0000 0.0000 0.0000
# 2 21.8280 151.3996 82.1610 0.0000 0.0000 0.0000
# 3 26.4914 82.1610 148.9430 0.0000 0.0000 0.0000
# 4 0.0000 0.0000 0.0000 23.7249 0.0000 0.0000
# 5 0.0000 0.0000 0.0000 0.0000 29.1304 0.0000
# 6 0.0000 0.0000 0.0000 0.0000 0.0000 12.9776
#
#
#
# Elastic Compliance Matrix: (Units=1/GPa)
#
#
# Indices 1 2 3 4 5 6 
#
# 1 0.046456 -0.003160 -0.006520 0.000000 0.000000 0.000000
# 2 -0.003160 0.009642 -0.004757 0.000000 0.000000 0.000000
# 3 -0.006520 -0.004757 0.010498 0.000000 0.000000 0.000000
# 4 0.000000 0.000000 0.000000 0.042150 0.000000 0.000000
# 5 0.000000 0.000000 0.000000 0.000000 0.034328 0.000000
# 6 0.000000 0.000000 0.000000 0.000000 0.000000 0.077056
#
#
# Mechanical properties :
#
#
# Convention : Reuss Voigt Hill
#
# Bulk Modulus (GPa) = 26.50899 65.33686 45.92292
# Shear Modulus (GPa) = 19.11488 26.27262 22.69375
#
# Velocity S-wave (km/s) = 3.29424 3.86208 3.58941
# Velocity P-wave (km/s) = 5.43316 7.54858 6.57649
#
# Compressibility (1/GPa) = 0.03772306
#
# Stress axis : x y z
#
# Youngs Moduli (GPa) = 21.52572 103.71319 95.25984
#
# Poissons Ratio (x) = 0.32769 0.62108
# Poissons Ratio (y) = 0.06801 0.45313
# Poissons Ratio (z) = 0.14035 0.49334
#
# Static dielectric constant tensor:
#      x y z
#    x 2.845760 0.000000 0.000000 
#    y 0.000000 3.623300 0.000000 
#    z 0.000000 0.000000 3.489750 
# 
# 
# High freq. dielectric constant tensor:
#      x y z
#    x 1.629310 0.000000 0.000000 
#    y 0.000000 1.681630 0.000000 
#    z 0.000000 0.000000 1.683450 
# 
# From -- ./inp_files/25757.got.cif
#   From: 2010.03.12/outbox.cif.g09.slc.cpg/sg59_13_cif.got.tgz:25757.got - 2010.04.16 16:29:54.
