data_PCOD8245175
_publ_section_title
;
Structure prediction by ZEFSAII (Michael W. Deem and Ramdas Pophale) SiO2 
 PCOD8245175
Probable space group: P M M N
;
_chemical_formula_sum "Si O2"
_cell_formula_units_Z 40
_cell_length_a 18.763462
_cell_length_b 13.279710
_cell_length_c 7.617927
_cell_angle_alpha 90.000000
_cell_angle_beta 90.000000
_cell_angle_gamma 90.000000
_cell_volume 1898.184268
_symmetry_space_group_name_H-M "P M M N"
_symmetry_group_IT_number 59
_space_group.IT_coordinate_system_code '2'
_symmetry_cell_setting 'orthorhombic'
loop_
_space_group_symop_operation_xyz
x,y,z
1/2-x,1/2-y,z
1/2+x,-y,-z
-x,1/2+y,-z
-x,-y,-z
1/2+x,1/2+y,-z
1/2-x,y,z
x,1/2-y,z
loop_
_atom_site_type_symbol
_atom_site_label
_atom_site_fract_x
_atom_site_fract_y
_atom_site_fract_z
Si Si1 0.670885 0.481550 0.796498
Si Si2 0.611544 0.366528 0.096906
Si Si3 0.474926 0.050187 0.225005
Si Si4 0.170311 0.001150 0.600404
Si Si5 0.963300 0.633961 0.404608
O O1 0.750000 0.526882 0.835041
O O2 0.607255 0.561793 0.842163
O O3 0.664556 0.450828 0.592660
O O4 0.657286 0.385370 0.920960
O O5 0.604899 0.250000 0.132342
O O6 0.531816 0.415408 0.077204
O O7 0.650874 0.415144 0.262407
O O8 0.488813 0.120824 0.394286
O O9 0.486132 0.933058 0.280056
O O10 0.250000 0.040949 0.636392
O O11 0.118343 0.096828 0.615517
O O12 0.969441 0.750000 0.347124
#
# Coordination Sequence:
#
# PCOD8245175 Si02
#       5
#     8   8   8   8   8
#     4  10  21  37  56  78 107 144 183 224 275 329
#     4  11  22  36  58  84 111 148 189 226 272 332
#     4   9  19  35  54  81 115 143 179 236 280 317
#     4   9  20  37  55  81 117 148 181 233 280 318
#     4   9  17  32  57  84 109 146 191 226 271 334
#
# _framework density 21.072770999999999
#
# number of rings (size 3 to 8) (size 9 to 14) (size 15 to 20)
#    0.000    2.400    0.000    3.000    0.000    3.600 
#    0.000    2.000    0.000   12.600    0.000   11.200 
#    0.000    0.000    0.000    0.000    0.000    0.000 
#
# Total GULP energy -495788.300005 kJ/mol
# GULP energy per Si atom -12394.707500 kJ/mol
# Density = 2.102481 g / cm^3
# Si number density = 21.072771 Si / 1000 Ang^3
#
#
#
# Elastic Constant Matrix: (Units=GPa)
#
#
# Indices 1 2 3 4 5 6 
#
# 1 149.3361 8.9301 27.3386 0.0000 0.0000 0.0000
# 2 8.9301 102.3931 18.5927 0.0000 0.0000 0.0000
# 3 27.3386 18.5927 70.2549 0.0000 0.0000 0.0000
# 4 0.0000 0.0000 0.0000 14.0550 0.0000 0.0000
# 5 0.0000 0.0000 0.0000 0.0000 28.2818 0.0000
# 6 0.0000 0.0000 0.0000 0.0000 0.0000 13.5275
#
#
#
# Elastic Compliance Matrix: (Units=1/GPa)
#
#
# Indices 1 2 3 4 5 6 
#
# 1 0.007211 -0.000125 -0.002773 0.000000 0.000000 0.000000
# 2 -0.000125 0.010261 -0.002667 0.000000 0.000000 0.000000
# 3 -0.002773 -0.002667 0.016019 0.000000 0.000000 0.000000
# 4 0.000000 0.000000 0.000000 0.071149 0.000000 0.000000
# 5 0.000000 0.000000 0.000000 0.000000 0.035358 0.000000
# 6 0.000000 0.000000 0.000000 0.000000 0.000000 0.073924
#
#
# Mechanical properties :
#
#
# Convention : Reuss Voigt Hill
#
# Bulk Modulus (GPa) = 44.72059 47.96743 46.34401
# Shear Modulus (GPa) = 21.50470 28.98102 25.24286
#
# Velocity S-wave (km/s) = 3.19799 3.71250 3.46481
# Velocity P-wave (km/s) = 5.90798 6.41787 6.16820
#
# Compressibility (1/GPa) = 0.02236107
#
# Stress axis : x y z
#
# Youngs Moduli (GPa) = 138.66823 97.45188 62.42684
#
# Poissons Ratio (x) = 0.01222 0.17311
# Poissons Ratio (y) = 0.01739 0.16648
# Poissons Ratio (z) = 0.38453 0.25989
#
# Static dielectric constant tensor:
#      x y z
#    x 4.394870 0.000000 0.000000 
#    y 0.000000 3.225220 0.000000 
#    z 0.000000 0.000000 3.917060 
# 
# 
# High freq. dielectric constant tensor:
#      x y z
#    x 1.849200 0.000000 0.000000 
#    y 0.000000 1.768660 0.000000 
#    z 0.000000 0.000000 1.837530 
# 
# From -- ./inp_files/7361.got.cif
#   From: 2010.03.12/outbox.cif.g09.slc.cpg/sg59_4_cif.got.tgz:7361.got - 2010.04.16 16:29:54.
