data_PCOD8245840
_publ_section_title
;
Structure prediction by ZEFSAII (Michael W. Deem and Ramdas Pophale) SiO2 
 PCOD8245840
Probable space group: P M M N
;
_chemical_formula_sum "Si O2"
_cell_formula_units_Z 56
_cell_length_a 8.909693
_cell_length_b 15.507981
_cell_length_c 20.904914
_cell_angle_alpha 90.000000
_cell_angle_beta 90.000000
_cell_angle_gamma 90.000000
_cell_volume 2888.460184
_symmetry_space_group_name_H-M "P M M N"
_symmetry_group_IT_number 59
_space_group.IT_coordinate_system_code '2'
_symmetry_cell_setting 'orthorhombic'
loop_
_space_group_symop_operation_xyz
x,y,z
1/2-x,1/2-y,z
1/2+x,-y,-z
-x,1/2+y,-z
-x,-y,-z
1/2+x,1/2+y,-z
1/2-x,y,z
x,1/2-y,z
loop_
_atom_site_type_symbol
_atom_site_label
_atom_site_fract_x
_atom_site_fract_y
_atom_site_fract_z
Si Si1 0.927683 0.093043 0.992840
Si Si2 0.923401 0.082861 0.470791
Si Si3 0.075631 0.993794 0.658380
Si Si4 0.420640 0.344023 0.579382
Si Si5 0.424727 0.151490 0.864005
Si Si6 0.573441 0.999175 0.790248
Si Si7 0.577695 0.653968 0.884345
O O1 0.750000 0.083830 0.987977
O O2 0.973162 0.150110 0.053478
O O3 0.986896 0.139533 0.929754
O O4 0.000000 0.000000 0.000000
O O5 0.750000 0.080329 0.486738
O O6 0.949050 0.082922 0.393890
O O7 0.995222 0.161513 0.510443
O O8 0.000000 0.000000 0.500000
O O9 0.250000 0.000256 0.678635
O O10 0.017093 0.084499 0.628463
O O11 0.974496 0.972713 0.719144
O O12 0.250000 0.368873 0.563988
O O13 0.435514 0.250000 0.611909
O O14 0.250000 0.131043 0.875218
O O15 0.447361 0.250000 0.840155
O O16 0.488636 0.086242 0.810917
O O17 0.750000 0.015969 0.793545
O O18 0.525409 0.918679 0.834421
O O19 0.750000 0.637646 0.904743
O O20 0.559183 0.750000 0.854321
#
# Coordination Sequence:
#
# PCOD8245840 Si02
#       7
#     8   8   8   8   8   8   8
#     4  12  23  37  61  90 118 149 188 237 292 346
#     4   9  17  31  52  77 104 137 176 219 269 320
#     4   9  19  35  54  76 109 150 187 226 275 335
#     4   9  18  33  54  81 111 143 181 227 281 337
#     4  11  24  41  61  85 117 156 192 234 292 350
#     4  11  23  38  59  85 114 152 196 243 285 336
#     4  10  22  41  62  84 113 149 189 238 297 350
#
# _framework density 19.387492999999999
#
# number of rings (size 3 to 8) (size 9 to 14) (size 15 to 20)
#    0.000    1.857    1.429    3.857    0.000    7.429 
#    0.000    2.143    0.000    2.571    0.000    0.000 
#    0.000    0.000    0.000    0.000    0.000    0.000 
#
# Total GULP energy -694216.249121 kJ/mol
# GULP energy per Si atom -12396.718734 kJ/mol
# Density = 1.934337 g / cm^3
# Si number density = 19.387493 Si / 1000 Ang^3
#
#
#
# Elastic Constant Matrix: (Units=GPa)
#
#
# Indices 1 2 3 4 5 6 
#
# 1 97.3382 22.8815 37.8650 0.0000 0.0000 0.0000
# 2 22.8815 76.4612 16.0979 0.0000 0.0000 0.0000
# 3 37.8650 16.0979 98.8921 0.0000 0.0000 0.0000
# 4 0.0000 0.0000 0.0000 17.9850 0.0000 0.0000
# 5 0.0000 0.0000 0.0000 0.0000 36.8517 0.0000
# 6 0.0000 0.0000 0.0000 0.0000 0.0000 25.8229
#
#
#
# Elastic Compliance Matrix: (Units=1/GPa)
#
#
# Indices 1 2 3 4 5 6 
#
# 1 0.012649 -0.002864 -0.004377 0.000000 0.000000 0.000000
# 2 -0.002864 0.014191 -0.001214 0.000000 0.000000 0.000000
# 3 -0.004377 -0.001214 0.011986 0.000000 0.000000 0.000000
# 4 0.000000 0.000000 0.000000 0.055602 0.000000 0.000000
# 5 0.000000 0.000000 0.000000 0.000000 0.027136 0.000000
# 6 0.000000 0.000000 0.000000 0.000000 0.000000 0.038725
#
#
# Mechanical properties :
#
#
# Convention : Reuss Voigt Hill
#
# Bulk Modulus (GPa) = 45.62682 47.37559 46.50121
# Shear Modulus (GPa) = 27.09975 29.18841 28.14408
#
# Velocity S-wave (km/s) = 3.74277 3.88432 3.81420
# Velocity P-wave (km/s) = 6.50100 6.67881 6.59050
#
# Compressibility (1/GPa) = 0.02191693
#
# Stress axis : x y z
#
# Youngs Moduli (GPa) = 79.05503 70.46697 83.43377
#
# Poissons Ratio (x) = 0.20181 0.36520
# Poissons Ratio (y) = 0.22640 0.10125
# Poissons Ratio (z) = 0.34604 0.08551
#
# Static dielectric constant tensor:
#      x y z
#    x 3.739710 0.000000 0.000000 
#    y 0.000000 3.699920 0.000000 
#    z 0.000000 0.000000 3.627110 
# 
# 
# High freq. dielectric constant tensor:
#      x y z
#    x 1.758870 0.000000 0.000000 
#    y 0.000000 1.751310 0.000000 
#    z 0.000000 0.000000 1.745540 
# 
# From -- ./inp_files/29136.got.cif
#   From: 2010.03.12/outbox.cif.g09.slc.cpg/sg59_15_cif.got.tgz:29136.got - 2010.04.16 16:29:54.
