data_PCOD8245325
_publ_section_title
;
Structure prediction by ZEFSAII (Michael W. Deem and Ramdas Pophale) SiO2 
 PCOD8245325
Probable space group: P M M N
;
_chemical_formula_sum "Si O2"
_cell_formula_units_Z 48
_cell_length_a 9.081485
_cell_length_b 17.460445
_cell_length_c 15.025488
_cell_angle_alpha 90.000000
_cell_angle_beta 90.000000
_cell_angle_gamma 90.000000
_cell_volume 2382.543090
_symmetry_space_group_name_H-M "P M M N"
_symmetry_group_IT_number 59
_space_group.IT_coordinate_system_code '2'
_symmetry_cell_setting 'orthorhombic'
loop_
_space_group_symop_operation_xyz
x,y,z
1/2-x,1/2-y,z
1/2+x,-y,-z
-x,1/2+y,-z
-x,-y,-z
1/2+x,1/2+y,-z
1/2-x,y,z
x,1/2-y,z
loop_
_atom_site_type_symbol
_atom_site_label
_atom_site_fract_x
_atom_site_fract_y
_atom_site_fract_z
Si Si1 0.089117 0.339648 0.216008
Si Si2 0.419917 0.913375 0.931107
Si Si3 0.921015 0.073168 0.543971
Si Si4 0.576663 0.912773 0.106954
Si Si5 0.424239 0.839488 0.278106
Si Si6 0.088749 0.160682 0.410346
O O1 0.250000 0.369312 0.181527
O O2 0.095109 0.250000 0.226635
O O3 0.058057 0.376587 0.313243
O O4 0.956018 0.359522 0.151360
O O5 0.250000 0.908825 0.957308
O O6 0.464876 0.997673 0.896992
O O7 0.512992 0.880596 0.014191
O O8 0.750000 0.055198 0.547478
O O9 0.974894 0.104282 0.640773
O O10 0.956893 0.141417 0.476614
O O11 0.000000 0.000000 0.500000
O O12 0.750000 0.897848 0.112359
O O13 0.502048 0.870360 0.189572
O O14 0.250000 0.844983 0.264988
O O15 0.469053 0.750000 0.295415
O O16 0.250000 0.131552 0.444676
O O17 0.093093 0.250000 0.399394
#
# Coordination Sequence:
#
# PCOD8245325 Si02
#       6
#     8   8   8   8   8   8
#     4   9  19  35  56  83 115 152 192 234 285 344
#     4  10  21  37  58  86 119 154 196 243 291 348
#     4  11  24  40  60  88 120 156 200 247 298 356
#     4  10  22  39  60  87 116 152 196 241 295 352
#     4  10  23  43  64  87 118 158 202 248 300 357
#     4   9  19  37  59  84 116 154 194 238 292 349
#
# _framework density 20.146540999999999
#
# number of rings (size 3 to 8) (size 9 to 14) (size 15 to 20)
#    0.000    2.167    0.000    3.000    2.333    6.333 
#    0.000    1.667    0.000    0.000    0.000    0.000 
#    0.000    0.000    0.000    0.000    0.000    0.000 
#
# Total GULP energy -594777.531510 kJ/mol
# GULP energy per Si atom -12391.198573 kJ/mol
# Density = 2.010069 g / cm^3
# Si number density = 20.146541 Si / 1000 Ang^3
#
#
#
# Elastic Constant Matrix: (Units=GPa)
#
#
# Indices 1 2 3 4 5 6 
#
# 1 61.1811 38.6317 54.5972 0.0000 0.0000 0.0000
# 2 38.6317 68.3125 56.1921 0.0000 0.0000 0.0000
# 3 54.5972 56.1921 139.8343 0.0000 0.0000 0.0000
# 4 0.0000 0.0000 0.0000 35.9653 0.0000 0.0000
# 5 0.0000 0.0000 0.0000 0.0000 37.0580 0.0000
# 6 0.0000 0.0000 0.0000 0.0000 0.0000 32.2736
#
#
#
# Elastic Compliance Matrix: (Units=1/GPa)
#
#
# Indices 1 2 3 4 5 6 
#
# 1 0.029611 -0.010808 -0.007218 0.000000 0.000000 0.000000
# 2 -0.010808 0.025811 -0.006152 0.000000 0.000000 0.000000
# 3 -0.007218 -0.006152 0.012442 0.000000 0.000000 0.000000
# 4 0.000000 0.000000 0.000000 0.027805 0.000000 0.000000
# 5 0.000000 0.000000 0.000000 0.000000 0.026985 0.000000
# 6 0.000000 0.000000 0.000000 0.000000 0.000000 0.030985
#
#
# Mechanical properties :
#
#
# Convention : Reuss Voigt Hill
#
# Bulk Modulus (GPa) = 51.26303 63.13001 57.19652
# Shear Modulus (GPa) = 23.98107 29.05316 26.51712
#
# Velocity S-wave (km/s) = 3.45386 3.80161 3.63190
# Velocity P-wave (km/s) = 6.43474 7.11850 6.78524
#
# Compressibility (1/GPa) = 0.01950723
#
# Stress axis : x y z
#
# Youngs Moduli (GPa) = 33.77155 38.74257 80.37325
#
# Poissons Ratio (x) = 0.41872 0.58015
# Poissons Ratio (y) = 0.36500 0.49449
# Poissons Ratio (z) = 0.24377 0.23836
#
# Static dielectric constant tensor:
#      x y z
#    x 4.403490 0.000000 0.000000 
#    y 0.000000 3.637620 0.000000 
#    z 0.000000 0.000000 4.125870 
# 
# 
# High freq. dielectric constant tensor:
#      x y z
#    x 1.782750 0.000000 0.000000 
#    y 0.000000 1.779450 0.000000 
#    z 0.000000 0.000000 1.798020 
# 
# From -- ./inp_files/20419.got.cif
#   From: 2010.03.12/outbox.cif.g09.slc.cpg/sg59_11_cif.got.tgz:20419.got - 2010.04.16 16:29:54.
