data_PCOD8245630
_publ_section_title
;
Structure prediction by ZEFSAII (Michael W. Deem and Ramdas Pophale) SiO2 
 PCOD8245630
Probable space group: P M M N
;
_chemical_formula_sum "Si O2"
_cell_formula_units_Z 48
_cell_length_a 30.218569
_cell_length_b 8.530743
_cell_length_c 9.428634
_cell_angle_alpha 90.000000
_cell_angle_beta 90.000000
_cell_angle_gamma 90.000000
_cell_volume 2430.577821
_symmetry_space_group_name_H-M "P M M N"
_symmetry_group_IT_number 59
_space_group.IT_coordinate_system_code '2'
_symmetry_cell_setting 'orthorhombic'
loop_
_space_group_symop_operation_xyz
x,y,z
1/2-x,1/2-y,z
1/2+x,-y,-z
-x,1/2+y,-z
-x,-y,-z
1/2+x,1/2+y,-z
1/2-x,y,z
x,1/2-y,z
loop_
_atom_site_type_symbol
_atom_site_label
_atom_site_fract_x
_atom_site_fract_y
_atom_site_fract_z
Si Si1 0.325477 0.930212 0.160623
Si Si2 0.250000 0.068809 0.345739
Si Si3 0.250000 0.436748 0.661984
Si Si4 0.924152 0.933079 0.143135
Si Si5 0.927113 0.068525 0.837974
Si Si6 0.002432 0.933394 0.656715
Si Si7 0.330410 0.935147 0.839107
O O1 0.313253 0.750000 0.181895
O O2 0.376166 0.964537 0.200892
O O3 0.294315 0.027365 0.262682
O O4 0.316399 0.980795 0.998815
O O5 0.250000 0.250000 0.371544
O O6 0.250000 0.994403 0.502479
O O7 0.250000 0.250000 0.673457
O O8 0.206572 0.504926 0.733996
O O9 0.925502 0.750000 0.108363
O O10 0.876123 0.980959 0.201582
O O11 0.959195 0.973856 0.263253
O O12 0.936558 0.027452 0.001286
O O13 0.939440 0.250000 0.815428
O O14 0.955881 0.961452 0.734637
O O15 0.013343 0.750000 0.653806
O O16 0.000000 0.000000 0.500000
O O17 0.337391 0.750000 0.825784
#
# Coordination Sequence:
#
# PCOD8245630 Si02
#       7
#     8   4   4   8   8   8   8
#     4   9  20  38  61  85 112 145 188 236 285 339
#     4  11  24  37  54  82 118 153 190 233 282 340
#     4  11  24  39  54  82 120 157 194 237 290 352
#     4  11  22  39  63  90 118 153 195 242 292 348
#     4  10  21  40  63  89 118 152 195 244 292 346
#     4  12  25  41  60  86 120 158 196 240 293 351
#     4  10  21  39  62  88 114 148 194 244 293 346
#
# _framework density 19.748390000000001
#
# number of rings (size 3 to 8) (size 9 to 14) (size 15 to 20)
#    0.000    1.500    0.000    6.500    0.000    8.667 
#    0.000    3.333    0.000    0.000    0.000    0.000 
#    0.000    0.000    0.000    0.000    0.000    0.000 
#
# Total GULP energy -595444.553852 kJ/mol
# GULP energy per Si atom -12405.094872 kJ/mol
# Density = 1.970344 g / cm^3
# Si number density = 19.748390 Si / 1000 Ang^3
#
#
#
# Elastic Constant Matrix: (Units=GPa)
#
#
# Indices 1 2 3 4 5 6 
#
# 1 118.1342 27.6890 71.7111 0.0000 0.0000 0.0000
# 2 27.6890 73.8836 18.9400 0.0000 0.0000 0.0000
# 3 71.7111 18.9400 115.9119 0.0000 0.0000 0.0000
# 4 0.0000 0.0000 0.0000 33.8639 0.0000 0.0000
# 5 0.0000 0.0000 0.0000 0.0000 -24.7708 0.0000
# 6 0.0000 0.0000 0.0000 0.0000 0.0000 37.6383
#
#
#
# Elastic Compliance Matrix: (Units=1/GPa)
#
#
# Indices 1 2 3 4 5 6 
#
# 1 0.014252 -0.003216 -0.008292 0.000000 0.000000 0.000000
# 2 -0.003216 0.014852 -0.000437 0.000000 0.000000 0.000000
# 3 -0.008292 -0.000437 0.013829 0.000000 0.000000 0.000000
# 4 0.000000 0.000000 0.000000 0.029530 0.000000 0.000000
# 5 0.000000 0.000000 0.000000 0.000000 -0.040370 0.000000
# 6 0.000000 0.000000 0.000000 0.000000 0.000000 0.026569
#
#
# Mechanical properties :
#
#
# Convention : Reuss Voigt Hill
#
# Bulk Modulus (GPa) = 52.51289 60.51221 56.51255
# Shear Modulus (GPa) = 56.24381 21.98560 39.11470
#
# Velocity S-wave (km/s) = 5.34247 3.34021 4.45528
# Velocity P-wave (km/s) = 8.04393 6.75160 7.42593
#
# Compressibility (1/GPa) = 0.01904294
#
# Stress axis : x y z
#
# Youngs Moduli (GPa) = 70.16525 67.33092 72.31356
#
# Poissons Ratio (x) = 0.21651 0.59962
# Poissons Ratio (y) = 0.22562 0.03163
# Poissons Ratio (z) = 0.58180 0.02945
#
# Static dielectric constant tensor:
#      x y z
#    x 3.767410 0.000000 0.000000 
#    y 0.000000 3.683090 0.000000 
#    z 0.000000 0.000000 3.606120 
# 
# 
# High freq. dielectric constant tensor:
#      x y z
#    x 1.783690 0.000000 0.000000 
#    y 0.000000 1.780430 0.000000 
#    z 0.000000 0.000000 1.768590 
# 
# From -- ./inp_files/12993.got.cif
#   From: 2010.03.12/outbox.cif.g09.slc.cpg/sg59_7_cif.got.tgz:12993.got - 2010.04.16 16:29:54.
