data_PCOD8245983
_publ_section_title
;
Structure prediction by ZEFSAII (Michael W. Deem and Ramdas Pophale) SiO2 
 PCOD8245983
Probable space group: P M M N
;
_chemical_formula_sum "Si O2"
_cell_formula_units_Z 48
_cell_length_a 9.266694
_cell_length_b 29.708590
_cell_length_c 10.172026
_cell_angle_alpha 90.000000
_cell_angle_beta 90.000000
_cell_angle_gamma 90.000000
_cell_volume 2800.362956
_symmetry_space_group_name_H-M "P M M N"
_symmetry_group_IT_number 59
_space_group.IT_coordinate_system_code '2'
_symmetry_cell_setting 'orthorhombic'
loop_
_space_group_symop_operation_xyz
x,y,z
1/2-x,1/2-y,z
1/2+x,-y,-z
-x,1/2+y,-z
-x,-y,-z
1/2+x,1/2+y,-z
1/2-x,y,z
x,1/2-y,z
loop_
_atom_site_type_symbol
_atom_site_label
_atom_site_fract_x
_atom_site_fract_y
_atom_site_fract_z
Si Si1 0.919249 0.521372 0.877477
Si Si2 0.578223 0.982065 0.371780
Si Si3 0.913364 0.200683 0.714082
Si Si4 0.913953 0.882131 0.980485
Si Si5 0.587043 0.201088 0.026637
Si Si6 0.417207 0.384399 0.722100
O O1 0.750000 0.506961 0.874774
O O2 0.003381 0.507173 0.748340
O O3 0.933328 0.575111 0.887212
O O4 0.000000 0.500000 0.000000
O O5 0.750000 0.991998 0.373011
O O6 0.548088 0.928731 0.362311
O O7 0.500000 0.000000 0.500000
O O8 0.750000 0.194146 0.666229
O O9 0.970122 0.250000 0.665360
O O10 0.923135 0.199430 0.870335
O O11 0.004955 0.158955 0.656898
O O12 0.750000 0.866780 0.990216
O O13 0.970431 0.893458 0.128034
O O14 0.996784 0.840212 0.913931
O O15 0.750000 0.194969 0.074778
O O16 0.528628 0.250000 0.075213
O O17 0.250000 0.373107 0.719618
#
# Coordination Sequence:
#
# PCOD8245983 Si02
#       6
#     8   8   8   8   8   8
#     4  11  21  35  54  77 104 136 173 215 257 303
#     4  11  23  39  54  75 104 137 177 218 261 312
#     4   8  14  24  39  63  94 125 160 200 242 294
#     4   9  17  29  45  69  98 128 165 206 249 298
#     4   8  14  24  38  61  94 128 161 198 243 295
#     4   9  17  30  46  67  98 130 164 206 248 298
#
# _framework density 17.140635
#
# number of rings (size 3 to 8) (size 9 to 14) (size 15 to 20)
#    0.000    2.667    1.667    2.000    0.000    3.333 
#    0.000    3.333    0.000    0.000    0.000    1.167 
#    0.000    9.333    0.000    0.000    0.000    0.000 
#
# Total GULP energy -594853.784008 kJ/mol
# GULP energy per Si atom -12392.787167 kJ/mol
# Density = 1.710162 g / cm^3
# Si number density = 17.140635 Si / 1000 Ang^3
#
#
#
# Elastic Constant Matrix: (Units=GPa)
#
#
# Indices 1 2 3 4 5 6 
#
# 1 99.3675 81.4161 43.0321 0.0000 0.0000 0.0000
# 2 81.4161 155.0814 43.1563 0.0000 0.0000 0.0000
# 3 43.0321 43.1563 69.5142 0.0000 0.0000 0.0000
# 4 0.0000 0.0000 0.0000 12.2326 0.0000 0.0000
# 5 0.0000 0.0000 0.0000 0.0000 21.7308 0.0000
# 6 0.0000 0.0000 0.0000 0.0000 0.0000 39.3085
#
#
#
# Elastic Compliance Matrix: (Units=1/GPa)
#
#
# Indices 1 2 3 4 5 6 
#
# 1 0.020241 -0.008630 -0.007172 0.000000 0.000000 0.000000
# 2 -0.008630 0.011475 -0.001781 0.000000 0.000000 0.000000
# 3 -0.007172 -0.001781 0.019931 0.000000 0.000000 0.000000
# 4 0.000000 0.000000 0.000000 0.081749 0.000000 0.000000
# 5 0.000000 0.000000 0.000000 0.000000 0.046018 0.000000
# 6 0.000000 0.000000 0.000000 0.000000 0.000000 0.025440
#
#
# Mechanical properties :
#
#
# Convention : Reuss Voigt Hill
#
# Bulk Modulus (GPa) = 60.68131 73.24134 66.96132
# Shear Modulus (GPa) = 20.36552 25.07829 22.72191
#
# Velocity S-wave (km/s) = 3.45068 3.82919 3.64485
# Velocity P-wave (km/s) = 7.16625 7.89763 7.54082
#
# Compressibility (1/GPa) = 0.01647954
#
# Stress axis : x y z
#
# Youngs Moduli (GPa) = 49.40535 87.14755 50.17288
#
# Poissons Ratio (x) = 0.75212 0.35983
# Poissons Ratio (y) = 0.42639 0.08937
# Poissons Ratio (z) = 0.35433 0.15524
#
# Static dielectric constant tensor:
#      x y z
#    x 3.337950 0.000000 0.000000 
#    y 0.000000 3.689780 0.000000 
#    z 0.000000 0.000000 2.565400 
# 
# 
# High freq. dielectric constant tensor:
#      x y z
#    x 1.665940 0.000000 0.000000 
#    y 0.000000 1.681200 0.000000 
#    z 0.000000 0.000000 1.597070 
# 
# From -- ./inp_files/6283.got.cif
#   From: 2010.03.12/outbox.cif.g09.slc.cpg/sg59_4_cif.got.tgz:6283.got - 2010.04.16 16:29:54.
