data_PCOD8245885
_publ_section_title
;
Structure prediction by ZEFSAII (Michael W. Deem and Ramdas Pophale) SiO2 
 PCOD8245885
Probable space group: P M M N
;
_chemical_formula_sum "Si O2"
_cell_formula_units_Z 48
_cell_length_a 8.658871
_cell_length_b 30.455906
_cell_length_c 9.155520
_cell_angle_alpha 90.000000
_cell_angle_beta 90.000000
_cell_angle_gamma 90.000000
_cell_volume 2414.436615
_symmetry_space_group_name_H-M "P M M N"
_symmetry_group_IT_number 59
_space_group.IT_coordinate_system_code '2'
_symmetry_cell_setting 'orthorhombic'
loop_
_space_group_symop_operation_xyz
x,y,z
1/2-x,1/2-y,z
1/2+x,-y,-z
-x,1/2+y,-z
-x,-y,-z
1/2+x,1/2+y,-z
1/2-x,y,z
x,1/2-y,z
loop_
_atom_site_type_symbol
_atom_site_label
_atom_site_fract_x
_atom_site_fract_y
_atom_site_fract_z
Si Si1 0.933758 0.959709 0.911329
Si Si2 0.429680 0.800549 0.582576
Si Si3 0.431489 0.379231 0.579122
Si Si4 0.068480 0.123164 0.908894
Si Si5 0.929775 0.299868 0.083490
Si Si6 0.567709 0.040201 0.410257
O O1 0.750000 0.961794 0.909312
O O2 0.996458 0.960740 0.749147
O O3 0.996604 0.915699 0.989594
O O4 0.000000 0.000000 0.000000
O O5 0.250000 0.810947 0.556033
O O6 0.465297 0.750000 0.544355
O O7 0.534915 0.830537 0.479984
O O8 0.474817 0.810614 0.749913
O O9 0.250000 0.389400 0.567336
O O10 0.494263 0.382270 0.744518
O O11 0.526104 0.414045 0.485165
O O12 0.250000 0.120602 0.903288
O O13 0.022090 0.169902 0.972940
O O14 0.750000 0.308039 0.059403
O O15 0.974356 0.250000 0.045947
O O16 0.750000 0.034919 0.399000
O O17 0.500000 0.000000 0.500000
#
# Coordination Sequence:
#
# PCOD8245885 Si02
#       6
#     8   8   8   8   8   8
#     4  11  23  41  64  90 120 156 197 241 292 349
#     4   9  19  37  59  84 115 152 196 244 294 350
#     4  11  23  39  58  85 120 155 195 241 291 350
#     4  10  23  39  56  82 117 153 190 235 285 342
#     4   9  19  36  58  83 111 146 191 240 288 342
#     4  12  25  42  64  90 119 153 195 243 296 353
#
# _framework density 19.880414999999999
#
# number of rings (size 3 to 8) (size 9 to 14) (size 15 to 20)
#    0.000    1.667    0.000    5.500    0.000    8.667 
#    0.000    5.000    0.000    0.000    0.000    0.000 
#    0.000    0.000    0.000    0.000    0.000    0.000 
#
# Total GULP energy -595396.178471 kJ/mol
# GULP energy per Si atom -12404.087051 kJ/mol
# Density = 1.983517 g / cm^3
# Si number density = 19.880415 Si / 1000 Ang^3
#
#
#
# Elastic Constant Matrix: (Units=GPa)
#
#
# Indices 1 2 3 4 5 6 
#
# 1 55.7630 28.0360 34.0942 0.0000 0.0000 0.0000
# 2 28.0360 125.0299 75.4237 0.0000 0.0000 0.0000
# 3 34.0942 75.4237 162.4434 0.0000 0.0000 0.0000
# 4 0.0000 0.0000 0.0000 44.0948 0.0000 0.0000
# 5 0.0000 0.0000 0.0000 0.0000 34.9119 0.0000
# 6 0.0000 0.0000 0.0000 0.0000 0.0000 38.6820
#
#
#
# Elastic Compliance Matrix: (Units=1/GPa)
#
#
# Indices 1 2 3 4 5 6 
#
# 1 0.021298 -0.002888 -0.003129 0.000000 0.000000 0.000000
# 2 -0.002888 0.011502 -0.004734 0.000000 0.000000 0.000000
# 3 -0.003129 -0.004734 0.009011 0.000000 0.000000 0.000000
# 4 0.000000 0.000000 0.000000 0.022678 0.000000 0.000000
# 5 0.000000 0.000000 0.000000 0.000000 0.028644 0.000000
# 6 0.000000 0.000000 0.000000 0.000000 0.000000 0.025852
#
#
# Mechanical properties :
#
#
# Convention : Reuss Voigt Hill
#
# Bulk Modulus (GPa) = 49.24199 68.70489 58.97344
# Shear Modulus (GPa) = 33.95434 37.24989 35.60212
#
# Velocity S-wave (km/s) = 4.13719 4.33332 4.23639
# Velocity P-wave (km/s) = 6.90251 7.72470 7.32515
#
# Compressibility (1/GPa) = 0.02030787
#
# Stress axis : x y z
#
# Youngs Moduli (GPa) = 46.95198 86.94506 110.97776
#
# Poissons Ratio (x) = 0.25111 0.34727
# Poissons Ratio (y) = 0.13561 0.52538
# Poissons Ratio (z) = 0.14692 0.41160
#
# Static dielectric constant tensor:
#      x y z
#    x 3.529960 0.000000 0.000000 
#    y 0.000000 3.842670 0.000000 
#    z 0.000000 0.000000 3.957920 
# 
# 
# High freq. dielectric constant tensor:
#      x y z
#    x 1.772450 0.000000 0.000000 
#    y 0.000000 1.791080 0.000000 
#    z 0.000000 0.000000 1.787210 
# 
# From -- ./inp_files/6219.got.cif
#   From: 2010.03.12/outbox.cif.g09.slc.cpg/sg59_4_cif.got.tgz:6219.got - 2010.04.16 16:29:54.
