data_PCOD8245836
_publ_section_title
;
Structure prediction by ZEFSAII (Michael W. Deem and Ramdas Pophale) SiO2 
 PCOD8245836
Probable space group: P M M N
;
_chemical_formula_sum "Si O2"
_cell_formula_units_Z 40
_cell_length_a 8.431427
_cell_length_b 18.506742
_cell_length_c 12.375154
_cell_angle_alpha 90.000000
_cell_angle_beta 90.000000
_cell_angle_gamma 90.000000
_cell_volume 1930.997302
_symmetry_space_group_name_H-M "P M M N"
_symmetry_group_IT_number 59
_space_group.IT_coordinate_system_code '2'
_symmetry_cell_setting 'orthorhombic'
loop_
_space_group_symop_operation_xyz
x,y,z
1/2-x,1/2-y,z
1/2+x,-y,-z
-x,1/2+y,-z
-x,-y,-z
1/2+x,1/2+y,-z
1/2-x,y,z
x,1/2-y,z
loop_
_atom_site_type_symbol
_atom_site_label
_atom_site_fract_x
_atom_site_fract_y
_atom_site_fract_z
Si Si1 0.065365 0.929301 0.557502
Si Si2 0.435210 0.333067 0.620174
Si Si3 0.066235 0.421234 0.830295
Si Si4 0.933338 0.166778 0.023883
Si Si5 0.066917 0.425640 0.206280
O O1 0.250000 0.939359 0.581505
O O2 0.034901 0.860215 0.482204
O O3 0.974967 0.917808 0.668811
O O4 0.000000 0.000000 0.500000
O O5 0.250000 0.344496 0.596359
O O6 0.477156 0.250000 0.640787
O O7 0.489733 0.376743 0.725659
O O8 0.250000 0.442029 0.821472
O O9 0.965886 0.494164 0.837954
O O10 0.039687 0.373561 0.935915
O O11 0.750000 0.158311 0.992649
O O12 0.985191 0.250000 0.027305
O O13 0.963893 0.132409 0.140898
O O14 0.250000 0.407630 0.188553
#
# Coordination Sequence:
#
# PCOD8245836 Si02
#       5
#     8   8   8   8   8
#     4  12  24  41  65  93 127 168 212 260 316 375
#     4  10  22  40  64  95 130 169 212 260 316 377
#     4  11  22  40  67  96 129 168 212 263 317 379
#     4  11  25  44  65  92 129 170 214 265 320 379
#     4  12  25  42  67  95 126 167 215 266 319 379
#
# _framework density 20.714683999999998
#
# number of rings (size 3 to 8) (size 9 to 14) (size 15 to 20)
#    0.000    0.800    2.000    6.000    0.000    4.400 
#    0.000    0.000    0.000    0.000    0.000    0.000 
#    0.000    0.000    0.000    0.000    0.000    0.000 
#
# Total GULP energy -496361.098873 kJ/mol
# GULP energy per Si atom -12409.027472 kJ/mol
# Density = 2.066754 g / cm^3
# Si number density = 20.714684 Si / 1000 Ang^3
#
#
#
# Elastic Constant Matrix: (Units=GPa)
#
#
# Indices 1 2 3 4 5 6 
#
# 1 66.2144 22.4796 6.8577 0.0000 0.0000 0.0000
# 2 22.4796 81.7789 35.6146 0.0000 0.0000 0.0000
# 3 6.8577 35.6146 121.9141 0.0000 0.0000 0.0000
# 4 0.0000 0.0000 0.0000 33.3713 0.0000 0.0000
# 5 0.0000 0.0000 0.0000 0.0000 32.9945 0.0000
# 6 0.0000 0.0000 0.0000 0.0000 0.0000 23.4369
#
#
#
# Elastic Compliance Matrix: (Units=1/GPa)
#
#
# Indices 1 2 3 4 5 6 
#
# 1 0.016679 -0.004785 0.000460 0.000000 0.000000 0.000000
# 2 -0.004785 0.015383 -0.004225 0.000000 0.000000 0.000000
# 3 0.000460 -0.004225 0.009411 0.000000 0.000000 0.000000
# 4 0.000000 0.000000 0.000000 0.029966 0.000000 0.000000
# 5 0.000000 0.000000 0.000000 0.000000 0.030308 0.000000
# 6 0.000000 0.000000 0.000000 0.000000 0.000000 0.042668
#
#
# Mechanical properties :
#
#
# Convention : Reuss Voigt Hill
#
# Bulk Modulus (GPa) = 41.02877 44.42349 42.72613
# Shear Modulus (GPa) = 29.47419 31.62422 30.54921
#
# Velocity S-wave (km/s) = 3.77618 3.91149 3.84443
# Velocity P-wave (km/s) = 6.23397 6.47237 6.35429
#
# Compressibility (1/GPa) = 0.02437314
#
# Stress axis : x y z
#
# Youngs Moduli (GPa) = 59.95436 65.00556 106.26070
#
# Poissons Ratio (x) = 0.31105 -0.04884
# Poissons Ratio (y) = 0.28688 0.44892
# Poissons Ratio (z) = -0.02756 0.27463
#
# Static dielectric constant tensor:
#      x y z
#    x 3.772460 0.000000 0.000000 
#    y 0.000000 3.764660 0.000000 
#    z 0.000000 0.000000 3.834560 
# 
# 
# High freq. dielectric constant tensor:
#      x y z
#    x 1.815250 0.000000 0.000000 
#    y 0.000000 1.817030 0.000000 
#    z 0.000000 0.000000 1.823530 
# 
# From -- ./inp_files/13822.got.cif
#   From: 2010.03.12/outbox.cif.g09.slc.cpg/sg59_7_cif.got.tgz:13822.got - 2010.04.16 16:29:54.
