data_PCOD8245577
_publ_section_title
;
Structure prediction by ZEFSAII (Michael W. Deem and Ramdas Pophale) SiO2 
 PCOD8245577
Probable space group: P M M N
;
_chemical_formula_sum "Si O2"
_cell_formula_units_Z 64
_cell_length_a 24.629917
_cell_length_b 9.003529
_cell_length_c 14.962695
_cell_angle_alpha 90.000000
_cell_angle_beta 90.000000
_cell_angle_gamma 90.000000
_cell_volume 3318.069966
_symmetry_space_group_name_H-M "P M M N"
_symmetry_group_IT_number 59
_space_group.IT_coordinate_system_code '2'
_symmetry_cell_setting 'orthorhombic'
loop_
_space_group_symop_operation_xyz
x,y,z
1/2-x,1/2-y,z
1/2+x,-y,-z
-x,1/2+y,-z
-x,-y,-z
1/2+x,1/2+y,-z
1/2-x,y,z
x,1/2-y,z
loop_
_atom_site_type_symbol
_atom_site_label
_atom_site_fract_x
_atom_site_fract_y
_atom_site_fract_z
Si Si1 0.454552 0.086549 0.950288
Si Si2 0.619610 0.926706 0.285997
Si Si3 0.609182 0.575017 0.782260
Si Si4 0.362532 0.580270 0.034802
Si Si5 0.003073 0.413159 0.753808
Si Si6 0.312995 0.576856 0.559015
Si Si7 0.310454 0.921005 0.861052
Si Si8 0.187746 0.422176 0.376627
O O1 0.444033 0.250000 0.993333
O O2 0.471703 0.108516 0.850165
O O3 0.500000 0.000000 0.000000
O O4 0.403908 0.979722 0.960920
O O5 0.623174 0.750000 0.286704
O O6 0.555844 0.975951 0.299785
O O7 0.652149 0.992374 0.368325
O O8 0.645770 0.980439 0.192497
O O9 0.605890 0.750000 0.792292
O O10 0.634320 0.512197 0.874104
O O11 0.549071 0.519370 0.755989
O O12 0.650492 0.525615 0.705268
O O13 0.374485 0.750000 0.061853
O O14 0.309842 0.562206 0.970895
O O15 0.984879 0.250000 0.717917
O O16 0.250000 0.543069 0.577575
O O17 0.326038 0.750000 0.563959
O O18 0.329794 0.518096 0.461680
O O19 0.250000 0.966091 0.829070
O O20 0.322826 0.750000 0.836332
O O21 0.250000 0.453266 0.349438
O O22 0.178528 0.250000 0.399796
#
# Coordination Sequence:
#
# PCOD8245577 Si02
#       8
#     8   8   8   8   8   8   8   8
#     4  11  20  33  53  77 106 143 191 238 278 322
#     4  11  22  37  58  85 115 150 189 231 283 338
#     4  11  23  37  59  87 114 148 191 236 284 337
#     4  11  22  35  53  77 110 151 191 233 280 330
#     4  10  22  37  54  80 116 152 190 234 279 334
#     4  10  21  38  62  91 117 145 185 231 281 339
#     4  10  22  38  54  77 112 152 193 237 284 336
#     4   9  20  41  65  88 114 144 183 234 287 338
#
# _framework density 19.288319999999999
#
# number of rings (size 3 to 8) (size 9 to 14) (size 15 to 20)
#    0.000    1.625    2.500    2.250    0.000    6.000 
#    0.000    0.625    0.000    0.000    0.000    0.000 
#    0.000    0.000    0.000    0.000    0.000    0.000 
#
# Total GULP energy -793028.732740 kJ/mol
# GULP energy per Si atom -12391.073949 kJ/mol
# Density = 1.924442 g / cm^3
# Si number density = 19.288320 Si / 1000 Ang^3
#
#
#
# Elastic Constant Matrix: (Units=GPa)
#
#
# Indices 1 2 3 4 5 6 
#
# 1 87.9272 45.7570 64.9774 0.0000 0.0000 0.0000
# 2 45.7570 92.0350 53.7406 0.0000 0.0000 0.0000
# 3 64.9774 53.7406 116.4897 0.0000 0.0000 0.0000
# 4 0.0000 0.0000 0.0000 29.0863 0.0000 0.0000
# 5 0.0000 0.0000 0.0000 0.0000 32.0268 0.0000
# 6 0.0000 0.0000 0.0000 0.0000 0.0000 23.3031
#
#
#
# Elastic Compliance Matrix: (Units=1/GPa)
#
#
# Indices 1 2 3 4 5 6 
#
# 1 0.020842 -0.004891 -0.009369 0.000000 0.000000 0.000000
# 2 -0.004891 0.016019 -0.004662 0.000000 0.000000 0.000000
# 3 -0.009369 -0.004662 0.015961 0.000000 0.000000 0.000000
# 4 0.000000 0.000000 0.000000 0.034380 0.000000 0.000000
# 5 0.000000 0.000000 0.000000 0.000000 0.031224 0.000000
# 6 0.000000 0.000000 0.000000 0.000000 0.000000 0.042913
#
#
# Mechanical properties :
#
#
# Convention : Reuss Voigt Hill
#
# Bulk Modulus (GPa) = 66.76448 69.48910 68.12679
# Shear Modulus (GPa) = 24.48852 25.68170 25.08511
#
# Velocity S-wave (km/s) = 3.56701 3.65288 3.61020
# Velocity P-wave (km/s) = 7.18706 7.34140 7.26464
#
# Compressibility (1/GPa) = 0.01497803
#
# Stress axis : x y z
#
# Youngs Moduli (GPa) = 47.97965 62.42423 62.65187
#
# Poissons Ratio (x) = 0.30534 0.58699
# Poissons Ratio (y) = 0.23468 0.29208
# Poissons Ratio (z) = 0.44953 0.29102
#
# Static dielectric constant tensor:
#      x y z
#    x 3.761820 0.000000 0.000000 
#    y 0.000000 3.632770 0.000000 
#    z 0.000000 0.000000 3.445910 
# 
# 
# High freq. dielectric constant tensor:
#      x y z
#    x 1.753120 0.000000 0.000000 
#    y 0.000000 1.758610 0.000000 
#    z 0.000000 0.000000 1.742360 
# 
# From -- ./inp_files/24702.got.cif
#   From: 2010.03.12/outbox.cif.g09.slc.cpg/sg59_13_cif.got.tgz:24702.got - 2010.04.16 16:29:54.
