data_PCOD8245073
_publ_section_title
;
Structure prediction by ZEFSAII (Michael W. Deem and Ramdas Pophale) SiO2 
 PCOD8245073
Probable space group: P M M N
;
_chemical_formula_sum "Si O2"
_cell_formula_units_Z 56
_cell_length_a 23.002455
_cell_length_b 8.959911
_cell_length_c 13.781184
_cell_angle_alpha 90.000000
_cell_angle_beta 90.000000
_cell_angle_gamma 90.000000
_cell_volume 2840.301328
_symmetry_space_group_name_H-M "P M M N"
_symmetry_group_IT_number 59
_space_group.IT_coordinate_system_code '2'
_symmetry_cell_setting 'orthorhombic'
loop_
_space_group_symop_operation_xyz
x,y,z
1/2-x,1/2-y,z
1/2+x,-y,-z
-x,1/2+y,-z
-x,-y,-z
1/2+x,1/2+y,-z
1/2-x,y,z
x,1/2-y,z
loop_
_atom_site_type_symbol
_atom_site_label
_atom_site_fract_x
_atom_site_fract_y
_atom_site_fract_z
Si Si1 0.628167 0.426923 0.576473
Si Si2 0.250000 0.571703 0.342736
Si Si3 0.593329 0.074919 0.363376
Si Si4 0.022855 0.927537 0.288564
Si Si5 0.317212 0.576496 0.804519
Si Si6 0.341304 0.085084 0.998765
Si Si7 0.532741 0.916074 0.916099
Si Si8 0.250000 0.574457 0.124961
O O1 0.630269 0.250000 0.580601
O O2 0.691702 0.490762 0.605613
O O3 0.613565 0.481876 0.468585
O O4 0.578297 0.485114 0.649702
O O5 0.250000 0.750000 0.344315
O O6 0.250000 0.508796 0.233273
O O7 0.578499 0.250000 0.362978
O O8 0.646123 0.037544 0.290985
O O9 0.535876 0.984809 0.337260
O O10 0.020963 0.750000 0.283795
O O11 0.028105 0.990264 0.181240
O O12 0.250000 0.531532 0.787181
O O13 0.322174 0.750000 0.831212
O O14 0.345200 0.483086 0.891565
O O15 0.312945 0.250000 0.991425
O O16 0.402380 0.098638 0.048969
O O17 0.305970 0.976955 0.067590
O O18 0.506328 0.750000 0.899136
O O19 0.500000 0.000000 0.000000
O O20 0.250000 0.750000 0.129568
#
# Coordination Sequence:
#
# PCOD8245073 Si02
#       8
#     8   4   8   8   8   8   8   4
#     4   9  19  35  58  87 118 153 195 247 300 353
#     4   9  18  33  56  87 116 144 187 243 298 347
#     4  10  21  37  60  87 117 153 199 250 299 353
#     4  11  22  38  59  87 121 159 201 244 297 358
#     4  10  21  36  56  85 116 151 196 245 297 353
#     4  11  23  38  57  83 115 153 192 237 292 350
#     4  11  24  40  60  87 119 155 197 245 299 354
#     4  11  21  35  58  85 114 152 193 235 284 347
#
# _framework density 19.716218999999999
#
# number of rings (size 3 to 8) (size 9 to 14) (size 15 to 20)
#    0.000    1.714    0.714    3.643    1.000    6.286 
#    0.000    0.714    0.000    1.714    0.000    0.000 
#    0.000    0.000    0.000    0.000    0.000    0.000 
#
# Total GULP energy -694453.803111 kJ/mol
# GULP energy per Si atom -12400.960770 kJ/mol
# Density = 1.967134 g / cm^3
# Si number density = 19.716219 Si / 1000 Ang^3
#
#
#
# Elastic Constant Matrix: (Units=GPa)
#
#
# Indices 1 2 3 4 5 6 
#
# 1 104.3652 34.8994 71.0529 0.0000 0.0000 0.0000
# 2 34.8994 69.6660 50.8917 0.0000 0.0000 0.0000
# 3 71.0529 50.8917 189.4213 0.0000 0.0000 0.0000
# 4 0.0000 0.0000 0.0000 -41.9894 0.0000 0.0000
# 5 0.0000 0.0000 0.0000 0.0000 41.6290 0.0000
# 6 0.0000 0.0000 0.0000 0.0000 0.0000 13.4153
#
#
#
# Elastic Compliance Matrix: (Units=1/GPa)
#
#
# Indices 1 2 3 4 5 6 
#
# 1 0.013652 -0.003855 -0.004085 0.000000 0.000000 0.000000
# 2 -0.003855 0.018948 -0.003645 0.000000 0.000000 0.000000
# 3 -0.004085 -0.003645 0.007791 0.000000 0.000000 0.000000
# 4 0.000000 0.000000 0.000000 -0.023816 0.000000 0.000000
# 5 0.000000 0.000000 0.000000 0.000000 0.024022 0.000000
# 6 0.000000 0.000000 0.000000 0.000000 0.000000 0.074542
#
#
# Mechanical properties :
#
#
# Convention : Reuss Voigt Hill
#
# Bulk Modulus (GPa) = 58.06804 75.23783 66.65293
# Shear Modulus (GPa) = 34.71055 16.38487 25.54771
#
# Velocity S-wave (km/s) = 4.20039 2.88590 3.60359
# Velocity P-wave (km/s) = 7.28287 7.02479 7.15500
#
# Compressibility (1/GPa) = 0.01722118
#
# Stress axis : x y z
#
# Youngs Moduli (GPa) = 73.24898 52.77665 128.35480
#
# Poissons Ratio (x) = 0.20344 0.52437
# Poissons Ratio (y) = 0.28235 0.46782
# Poissons Ratio (z) = 0.29925 0.19236
#
# Static dielectric constant tensor:
#      x y z
#    x 3.783210 0.000000 0.000000 
#    y 0.000000 3.662080 0.000000 
#    z 0.000000 0.000000 3.761650 
# 
# 
# High freq. dielectric constant tensor:
#      x y z
#    x 1.783730 0.000000 0.000000 
#    y 0.000000 1.750780 0.000000 
#    z 0.000000 0.000000 1.783900 
# 
# From -- ./inp_files/24419.got.cif
#   From: 2010.03.12/outbox.cif.g09.slc.cpg/sg59_13_cif.got.tgz:24419.got - 2010.04.16 16:29:54.
