data_PCOD8245667
_publ_section_title
;
Structure prediction by ZEFSAII (Michael W. Deem and Ramdas Pophale) SiO2 
 PCOD8245667
Probable space group: P M M N
;
_chemical_formula_sum "Si O2"
_cell_formula_units_Z 56
_cell_length_a 14.793765
_cell_length_b 8.543420
_cell_length_c 21.586768
_cell_angle_alpha 90.000000
_cell_angle_beta 90.000000
_cell_angle_gamma 90.000000
_cell_volume 2728.337528
_symmetry_space_group_name_H-M "P M M N"
_symmetry_group_IT_number 59
_space_group.IT_coordinate_system_code '2'
_symmetry_cell_setting 'orthorhombic'
loop_
_space_group_symop_operation_xyz
x,y,z
1/2-x,1/2-y,z
1/2+x,-y,-z
-x,1/2+y,-z
-x,-y,-z
1/2+x,1/2+y,-z
1/2-x,y,z
x,1/2-y,z
loop_
_atom_site_type_symbol
_atom_site_label
_atom_site_fract_x
_atom_site_fract_y
_atom_site_fract_z
Si Si1 0.147010 0.430661 0.455290
Si Si2 0.851650 0.937192 0.885435
Si Si3 0.019710 0.568444 0.353364
Si Si4 0.515496 0.565776 0.778649
Si Si5 0.642960 0.578958 0.018056
Si Si6 0.646762 0.432358 0.414870
Si Si7 0.646599 0.936409 0.152120
O O1 0.250000 0.469010 0.436375
O O2 0.134980 0.250000 0.473241
O O3 0.084002 0.469949 0.397883
O O4 0.117379 0.532061 0.514644
O O5 0.750000 0.995725 0.870444
O O6 0.853203 0.750000 0.889233
O O7 0.917707 0.998450 0.831997
O O8 0.885364 0.005457 0.953075
O O9 0.038337 0.750000 0.363821
O O10 0.043477 0.522489 0.283530
O O11 0.915322 0.527980 0.367352
O O12 0.525116 0.750000 0.768169
O O13 0.413286 0.522820 0.796786
O O14 0.750000 0.599344 0.016156
O O15 0.597419 0.750000 0.019297
O O16 0.618143 0.495774 0.083484
O O17 0.750000 0.486277 0.403963
O O18 0.633814 0.250000 0.401755
O O19 0.750000 0.979562 0.167124
O O20 0.632498 0.750000 0.154672
#
# Coordination Sequence:
#
# PCOD8245667 Si02
#       7
#     8   8   8   8   8   8   8
#     4  10  21  39  64  92 120 149 183 224 271 324
#     4   8  15  30  52  77 105 137 175 221 272 328
#     4  12  25  40  58  80 113 154 193 233 275 325
#     4  11  23  36  52  78 109 143 185 228 275 329
#     4   7  11  24  49  77 101 130 172 219 268 325
#     4  10  21  39  64  92 119 146 181 227 277 328
#     4   9  18  34  55  77 104 140 180 222 271 330
#
# _framework density 20.525321000000002
#
# number of rings (size 3 to 8) (size 9 to 14) (size 15 to 20)
#    0.000    2.429    0.000    4.714    0.000    3.714 
#    0.000    1.429    0.000    2.143    0.000    4.000 
#    0.000    0.000    0.000    0.000    0.000    0.000 
#
# Total GULP energy -694159.145949 kJ/mol
# GULP energy per Si atom -12395.699035 kJ/mol
# Density = 2.047860 g / cm^3
# Si number density = 20.525321 Si / 1000 Ang^3
#
#
#
# Elastic Constant Matrix: (Units=GPa)
#
#
# Indices 1 2 3 4 5 6 
#
# 1 47.4741 8.9780 6.1271 0.0000 0.0000 0.0000
# 2 8.9780 42.4211 4.0337 0.0000 0.0000 0.0000
# 3 6.1271 4.0337 68.6578 0.0000 0.0000 0.0000
# 4 0.0000 0.0000 0.0000 20.3913 0.0000 0.0000
# 5 0.0000 0.0000 0.0000 0.0000 28.7953 0.0000
# 6 0.0000 0.0000 0.0000 0.0000 0.0000 23.3730
#
#
#
# Elastic Compliance Matrix: (Units=1/GPa)
#
#
# Indices 1 2 3 4 5 6 
#
# 1 0.022140 -0.004523 -0.001710 0.000000 0.000000 0.000000
# 2 -0.004523 0.024630 -0.001043 0.000000 0.000000 0.000000
# 3 -0.001710 -0.001043 0.014779 0.000000 0.000000 0.000000
# 4 0.000000 0.000000 0.000000 0.049041 0.000000 0.000000
# 5 0.000000 0.000000 0.000000 0.000000 0.034728 0.000000
# 6 0.000000 0.000000 0.000000 0.000000 0.000000 0.042784
#
#
# Mechanical properties :
#
#
# Convention : Reuss Voigt Hill
#
# Bulk Modulus (GPa) = 21.27858 21.87006 21.57432
# Shear Modulus (GPa) = 22.90217 23.80621 23.35419
#
# Velocity S-wave (km/s) = 3.34398 3.40935 3.37682
# Velocity P-wave (km/s) = 5.02982 5.11629 5.07324
#
# Compressibility (1/GPa) = 0.04699562
#
# Stress axis : x y z
#
# Youngs Moduli (GPa) = 45.16671 40.60147 67.66404
#
# Poissons Ratio (x) = 0.18365 0.11571
# Poissons Ratio (y) = 0.20429 0.07060
# Poissons Ratio (z) = 0.07724 0.04236
#
# Static dielectric constant tensor:
#      x y z
#    x 3.703650 0.000000 0.000000 
#    y 0.000000 3.347580 0.000000 
#    z 0.000000 0.000000 3.892460 
# 
# 
# High freq. dielectric constant tensor:
#      x y z
#    x 1.798710 0.000000 0.000000 
#    y 0.000000 1.772150 0.000000 
#    z 0.000000 0.000000 1.809620 
# 
# From -- ./inp_files/29068.got.cif
#   From: 2010.03.12/outbox.cif.g09.slc.cpg/sg59_15_cif.got.tgz:29068.got - 2010.04.16 16:29:54.
