data_PCOD8245347
_publ_section_title
;
Structure prediction by ZEFSAII (Michael W. Deem and Ramdas Pophale) SiO2 
 PCOD8245347
Probable space group: P M M N
;
_chemical_formula_sum "Si O2"
_cell_formula_units_Z 56
_cell_length_a 8.841473
_cell_length_b 21.607741
_cell_length_c 14.707874
_cell_angle_alpha 90.000000
_cell_angle_beta 90.000000
_cell_angle_gamma 90.000000
_cell_volume 2809.854885
_symmetry_space_group_name_H-M "P M M N"
_symmetry_group_IT_number 59
_space_group.IT_coordinate_system_code '2'
_symmetry_cell_setting 'orthorhombic'
loop_
_space_group_symop_operation_xyz
x,y,z
1/2-x,1/2-y,z
1/2+x,-y,-z
-x,1/2+y,-z
-x,-y,-z
1/2+x,1/2+y,-z
1/2-x,y,z
x,1/2-y,z
loop_
_atom_site_type_symbol
_atom_site_label
_atom_site_fract_x
_atom_site_fract_y
_atom_site_fract_z
Si Si1 0.927128 0.974569 0.770685
Si Si2 0.070771 0.851079 0.828310
Si Si3 0.080021 0.151275 0.646638
Si Si4 0.928616 0.250000 0.314583
Si Si5 0.429611 0.750000 0.479016
Si Si6 0.420272 0.490180 0.593902
Si Si7 0.927476 0.112900 0.823990
Si Si8 0.422975 0.180365 0.986087
O O1 0.750000 0.961260 0.774049
O O2 0.014390 0.921505 0.824745
O O3 0.969253 0.040554 0.814777
O O4 0.983129 0.972287 0.667214
O O5 0.250000 0.849816 0.839245
O O6 0.018445 0.811654 0.739709
O O7 0.997156 0.819396 0.915242
O O8 0.250000 0.177780 0.653877
O O9 0.080379 0.081695 0.613810
O O10 0.986256 0.189517 0.573177
O O11 0.004801 0.154628 0.746061
O O12 0.750000 0.250000 0.321115
O O13 0.994954 0.250000 0.417401
O O14 0.250000 0.750000 0.479671
O O15 0.500000 0.500000 0.500000
O O16 0.250000 0.516957 0.592524
O O17 0.750000 0.123488 0.815753
O O18 0.986007 0.134203 0.921395
O O19 0.250000 0.157680 0.992245
O O20 0.432318 0.250000 0.947260
#
# Coordination Sequence:
#
# PCOD8245347 Si02
#       8
#     8   8   8   4   4   8   8   8
#     4  10  22  40  61  90 123 157 201 252 306 363
#     4  11  22  41  66  91 122 161 205 254 304 363
#     4  10  22  40  59  87 123 157 199 249 298 355
#     4   9  22  41  60  87 120 157 203 252 298 355
#     4  11  23  39  60  87 120 161 203 246 300 359
#     4  10  21  37  59  86 118 159 202 248 301 357
#     4  10  22  41  65  91 122 161 202 249 303 365
#     4  11  24  41  63  92 124 161 201 251 307 362
#
# _framework density 19.929853999999999
#
# number of rings (size 3 to 8) (size 9 to 14) (size 15 to 20)
#    0.000    1.714    0.714    2.786    3.000    4.857 
#    0.000    2.143    0.000    0.000    0.000    0.000 
#    0.000    0.000    0.000    0.000    0.000    0.000 
#
# Total GULP energy -694577.985582 kJ/mol
# GULP energy per Si atom -12403.178314 kJ/mol
# Density = 1.988449 g / cm^3
# Si number density = 19.929854 Si / 1000 Ang^3
#
#
#
# Elastic Constant Matrix: (Units=GPa)
#
#
# Indices 1 2 3 4 5 6 
#
# 1 78.7764 38.9137 28.3671 0.0000 0.0000 0.0000
# 2 38.9137 73.9045 43.0890 0.0000 0.0000 0.0000
# 3 28.3671 43.0890 110.7200 0.0000 0.0000 0.0000
# 4 0.0000 0.0000 0.0000 23.6196 0.0000 0.0000
# 5 0.0000 0.0000 0.0000 0.0000 36.8447 0.0000
# 6 0.0000 0.0000 0.0000 0.0000 0.0000 32.7715
#
#
#
# Elastic Compliance Matrix: (Units=1/GPa)
#
#
# Indices 1 2 3 4 5 6 
#
# 1 0.017268 -0.008424 -0.001146 0.000000 0.000000 0.000000
# 2 -0.008424 0.021612 -0.006252 0.000000 0.000000 0.000000
# 3 -0.001146 -0.006252 0.011759 0.000000 0.000000 0.000000
# 4 0.000000 0.000000 0.000000 0.042338 0.000000 0.000000
# 5 0.000000 0.000000 0.000000 0.000000 0.027141 0.000000
# 6 0.000000 0.000000 0.000000 0.000000 0.000000 0.030514
#
#
# Mechanical properties :
#
#
# Convention : Reuss Voigt Hill
#
# Bulk Modulus (GPa) = 52.64856 53.79338 53.22097
# Shear Modulus (GPa) = 26.50997 28.84922 27.67960
#
# Velocity S-wave (km/s) = 3.65110 3.80878 3.73077
# Velocity P-wave (km/s) = 6.65194 6.81119 6.73204
#
# Compressibility (1/GPa) = 0.01899387
#
# Stress axis : x y z
#
# Youngs Moduli (GPa) = 57.91005 46.27028 85.04422
#
# Poissons Ratio (x) = 0.38980 0.09743
# Poissons Ratio (y) = 0.48786 0.53173
# Poissons Ratio (z) = 0.06635 0.28930
#
# Static dielectric constant tensor:
#      x y z
#    x 3.978880 0.000000 0.000000 
#    y 0.000000 19.758800 0.000000 
#    z 0.000000 0.000000 3.653660 
# 
# 
# High freq. dielectric constant tensor:
#      x y z
#    x 1.786590 0.000000 0.000000 
#    y 0.000000 1.780520 0.000000 
#    z 0.000000 0.000000 1.782340 
# 
# From -- ./inp_files/21134.got.cif
#   From: 2010.03.12/outbox.cif.g09.slc.cpg/sg59_11_cif.got.tgz:21134.got - 2010.04.16 16:29:54.
