data_PCOD8245626
_publ_section_title
;
Structure prediction by ZEFSAII (Michael W. Deem and Ramdas Pophale) SiO2 
 PCOD8245626
Probable space group: P M M N
;
_chemical_formula_sum "Si O2"
_cell_formula_units_Z 56
_cell_length_a 13.889523
_cell_length_b 21.681600
_cell_length_c 9.569673
_cell_angle_alpha 90.000000
_cell_angle_beta 90.000000
_cell_angle_gamma 90.000000
_cell_volume 2881.879098
_symmetry_space_group_name_H-M "P M M N"
_symmetry_group_IT_number 59
_space_group.IT_coordinate_system_code '2'
_symmetry_cell_setting 'orthorhombic'
loop_
_space_group_symop_operation_xyz
x,y,z
1/2-x,1/2-y,z
1/2+x,-y,-z
-x,1/2+y,-z
-x,-y,-z
1/2+x,1/2+y,-z
1/2-x,y,z
x,1/2-y,z
loop_
_atom_site_type_symbol
_atom_site_label
_atom_site_fract_x
_atom_site_fract_y
_atom_site_fract_z
Si Si1 0.864317 0.002494 0.081465
Si Si2 0.985392 0.679215 0.744873
Si Si3 0.001552 0.320059 0.701462
Si Si4 0.500507 0.396943 0.980097
Si Si5 0.362624 0.991072 0.603588
Si Si6 0.362559 0.645029 0.531362
Si Si7 0.135992 0.381044 0.486813
O O1 0.750000 0.002020 0.068581
O O2 0.904393 0.061264 0.997565
O O3 0.905228 0.008032 0.239735
O O4 0.905055 0.939350 0.015999
O O5 0.952604 0.750000 0.751295
O O6 0.992765 0.653944 0.900356
O O7 0.905174 0.640659 0.661065
O O8 0.088800 0.674212 0.668743
O O9 0.015465 0.250000 0.750592
O O10 0.905424 0.324915 0.607767
O O11 0.094793 0.339275 0.611713
O O12 0.989437 0.362760 0.834281
O O13 0.250000 0.998594 0.623959
O O14 0.400028 0.048381 0.510975
O O15 0.387833 0.927731 0.525511
O O16 0.250000 0.658850 0.540413
O O17 0.250000 0.374436 0.486368
#
# Coordination Sequence:
#
# PCOD8245626 Si02
#       7
#     8   8   8   8   8   8   8
#     4  10  21  39  62  90 118 150 194 242 298 358
#     4  11  24  39  58  86 120 160 202 237 283 351
#     4  11  24  39  58  86 120 160 202 237 283 351
#     4  11  23  40  62  88 121 159 188 242 300 345
#     4   9  17  34  62  88 111 143 191 245 295 346
#     4  10  21  39  62  87 117 153 197 249 296 342
#     4  10  21  39  62  87 117 153 197 249 296 342
#
# _framework density 19.431766
#
# number of rings (size 3 to 8) (size 9 to 14) (size 15 to 20)
#    0.000    1.714    2.857    2.143    0.000    8.000 
#    0.000    1.429    0.000    5.143    0.000    0.000 
#    0.000    0.000    0.000    0.000    0.000    0.000 
#
# Total GULP energy -694520.229311 kJ/mol
# GULP energy per Si atom -12402.146952 kJ/mol
# Density = 1.938754 g / cm^3
# Si number density = 19.431766 Si / 1000 Ang^3
#
#
#
# Elastic Constant Matrix: (Units=GPa)
#
#
# Indices 1 2 3 4 5 6 
#
# 1 82.5912 9.8839 20.9059 0.0000 0.0000 0.0000
# 2 9.8839 95.1184 8.8919 0.0000 0.0000 0.0000
# 3 20.9059 8.8919 88.1624 0.0000 0.0000 0.0000
# 4 0.0000 0.0000 0.0000 32.9358 0.0000 0.0000
# 5 0.0000 0.0000 0.0000 0.0000 11.9489 0.0000
# 6 0.0000 0.0000 0.0000 0.0000 0.0000 21.5732
#
#
#
# Elastic Compliance Matrix: (Units=1/GPa)
#
#
# Indices 1 2 3 4 5 6 
#
# 1 0.012988 -0.001072 -0.002972 0.000000 0.000000 0.000000
# 2 -0.001072 0.010702 -0.000825 0.000000 0.000000 0.000000
# 3 -0.002972 -0.000825 0.012131 0.000000 0.000000 0.000000
# 4 0.000000 0.000000 0.000000 0.030362 0.000000 0.000000
# 5 0.000000 0.000000 0.000000 0.000000 0.083689 0.000000
# 6 0.000000 0.000000 0.000000 0.000000 0.000000 0.046354
#
#
# Mechanical properties :
#
#
# Convention : Reuss Voigt Hill
#
# Bulk Modulus (GPa) = 38.33911 38.35950 38.34930
# Shear Modulus (GPa) = 23.29285 28.37093 25.83189
#
# Velocity S-wave (km/s) = 3.46598 3.82518 3.65000
# Velocity P-wave (km/s) = 5.98250 6.26840 6.12712
#
# Compressibility (1/GPa) = 0.02608302
#
# Stress axis : x y z
#
# Youngs Moduli (GPa) = 76.99218 93.44280 82.43586
#
# Poissons Ratio (x) = 0.10015 0.24498
# Poissons Ratio (y) = 0.08252 0.06803
# Poissons Ratio (z) = 0.22881 0.07711
#
# Static dielectric constant tensor:
#      x y z
#    x 3.439420 0.000000 0.000000 
#    y 0.000000 3.761400 0.000000 
#    z 0.000000 0.000000 3.515220 
# 
# 
# High freq. dielectric constant tensor:
#      x y z
#    x 1.751640 0.000000 0.000000 
#    y 0.000000 1.770880 0.000000 
#    z 0.000000 0.000000 1.752310 
# 
# From -- ./inp_files/9387.got.cif
#   From: 2010.03.12/outbox.cif.g09.slc.cpg/sg59_5_cif.got.tgz:9387.got - 2010.04.16 16:29:54.
