data_PCOD8245336
_publ_section_title
;
Structure prediction by ZEFSAII (Michael W. Deem and Ramdas Pophale) SiO2 
 PCOD8245336
Probable space group: P M M N
;
_chemical_formula_sum "Si O2"
_cell_formula_units_Z 48
_cell_length_a 15.247963
_cell_length_b 17.731836
_cell_length_c 9.327853
_cell_angle_alpha 90.000000
_cell_angle_beta 90.000000
_cell_angle_gamma 90.000000
_cell_volume 2522.012465
_symmetry_space_group_name_H-M "P M M N"
_symmetry_group_IT_number 59
_space_group.IT_coordinate_system_code '2'
_symmetry_cell_setting 'orthorhombic'
loop_
_space_group_symop_operation_xyz
x,y,z
1/2-x,1/2-y,z
1/2+x,-y,-z
-x,1/2+y,-z
-x,-y,-z
1/2+x,1/2+y,-z
1/2-x,y,z
x,1/2-y,z
loop_
_atom_site_type_symbol
_atom_site_label
_atom_site_fract_x
_atom_site_fract_y
_atom_site_fract_z
Si Si1 0.492490 0.162786 0.624683
Si Si2 0.351009 0.410597 0.821988
Si Si3 0.350876 0.835895 0.165057
Si Si4 0.502173 0.663615 0.699724
Si Si5 0.924459 0.052990 0.069489
Si Si6 0.344760 0.335570 0.105751
O O1 0.463915 0.250000 0.628219
O O2 0.413630 0.114962 0.693105
O O3 0.585693 0.149486 0.700353
O O4 0.505759 0.134527 0.462245
O O5 0.250000 0.386157 0.792429
O O6 0.355633 0.499971 0.846969
O O7 0.390599 0.374146 0.968503
O O8 0.250000 0.846912 0.214137
O O9 0.365044 0.750000 0.107052
O O10 0.374263 0.898205 0.048242
O O11 0.468429 0.750000 0.714447
O O12 0.451952 0.610642 0.808152
O O13 0.603516 0.656740 0.746276
O O14 0.000000 0.000000 0.000000
O O15 0.250000 0.373602 0.131876
O O16 0.334728 0.250000 0.059071
#
# Coordination Sequence:
#
# PCOD8245336 Si02
#       6
#     8   8   8   8   8   8
#     4  10  21  38  60  86 117 154 192 235 290 350
#     4  11  22  36  56  85 119 153 192 239 289 346
#     4  10  21  40  64  87 114 154 202 242 283 344
#     4  10  21  37  59  84 115 154 194 238 291 347
#     4  12  21  37  60  86 114 152 193 248 295 342
#     4   9  17  31  52  79 110 147 192 238 284 340
#
# _framework density 19.032418
#
# number of rings (size 3 to 8) (size 9 to 14) (size 15 to 20)
#    0.000    1.667    3.333    1.500    0.000    5.000 
#    0.000    3.333    0.000    4.000    0.000    0.000 
#    0.000    0.000    0.000    0.000    0.000    0.000 
#
# Total GULP energy -594920.647757 kJ/mol
# GULP energy per Si atom -12394.180162 kJ/mol
# Density = 1.898910 g / cm^3
# Si number density = 19.032418 Si / 1000 Ang^3
#
#
#
# Elastic Constant Matrix: (Units=GPa)
#
#
# Indices 1 2 3 4 5 6 
#
# 1 101.7340 43.3232 59.0755 0.0000 0.0000 0.0000
# 2 43.3232 81.0987 57.6397 0.0000 0.0000 0.0000
# 3 59.0755 57.6397 143.5536 0.0000 0.0000 0.0000
# 4 0.0000 0.0000 0.0000 15.2842 0.0000 0.0000
# 5 0.0000 0.0000 0.0000 0.0000 17.0424 0.0000
# 6 0.0000 0.0000 0.0000 0.0000 0.0000 27.4303
#
#
#
# Elastic Compliance Matrix: (Units=1/GPa)
#
#
# Indices 1 2 3 4 5 6 
#
# 1 0.014126 -0.004778 -0.003895 0.000000 0.000000 0.000000
# 2 -0.004778 0.018871 -0.005611 0.000000 0.000000 0.000000
# 3 -0.003895 -0.005611 0.010822 0.000000 0.000000 0.000000
# 4 0.000000 0.000000 0.000000 0.065427 0.000000 0.000000
# 5 0.000000 0.000000 0.000000 0.000000 0.058677 0.000000
# 6 0.000000 0.000000 0.000000 0.000000 0.000000 0.036456
#
#
# Mechanical properties :
#
#
# Convention : Reuss Voigt Hill
#
# Bulk Modulus (GPa) = 65.56752 71.82927 68.69840
# Shear Modulus (GPa) = 21.00583 23.04124 22.02354
#
# Velocity S-wave (km/s) = 3.32578 3.48319 3.40539
# Velocity P-wave (km/s) = 7.01947 7.34842 7.18583
#
# Compressibility (1/GPa) = 0.01525145
#
# Stress axis : x y z
#
# Youngs Moduli (GPa) = 70.79241 52.99175 92.40775
#
# Poissons Ratio (x) = 0.25320 0.35989
# Poissons Ratio (y) = 0.33825 0.51848
# Poissons Ratio (z) = 0.27571 0.29732
#
# Static dielectric constant tensor:
#      x y z
#    x 3.647880 0.000000 0.000000 
#    y 0.000000 3.741230 0.000000 
#    z 0.000000 0.000000 3.434530 
# 
# 
# High freq. dielectric constant tensor:
#      x y z
#    x 1.738370 0.000000 0.000000 
#    y 0.000000 1.746640 0.000000 
#    z 0.000000 0.000000 1.727630 
# 
# From -- ./inp_files/8979.got.cif
#   From: 2010.03.12/outbox.cif.g09.slc.cpg/sg59_5_cif.got.tgz:8979.got - 2010.04.16 16:29:54.
