data_PCOD8245357
_publ_section_title
;
Structure prediction by ZEFSAII (Michael W. Deem and Ramdas Pophale) SiO2 
 PCOD8245357
Probable space group: P M M N
;
_chemical_formula_sum "Si O2"
_cell_formula_units_Z 48
_cell_length_a 17.638655
_cell_length_b 8.504487
_cell_length_c 15.273087
_cell_angle_alpha 90.000000
_cell_angle_beta 90.000000
_cell_angle_gamma 90.000000
_cell_volume 2291.080838
_symmetry_space_group_name_H-M "P M M N"
_symmetry_group_IT_number 59
_space_group.IT_coordinate_system_code '2'
_symmetry_cell_setting 'orthorhombic'
loop_
_space_group_symop_operation_xyz
x,y,z
1/2-x,1/2-y,z
1/2+x,-y,-z
-x,1/2+y,-z
-x,-y,-z
1/2+x,1/2+y,-z
1/2-x,y,z
x,1/2-y,z
loop_
_atom_site_type_symbol
_atom_site_label
_atom_site_fract_x
_atom_site_fract_y
_atom_site_fract_z
Si Si1 0.162499 0.065566 0.663066
Si Si2 0.086804 0.931056 0.829403
Si Si3 0.838203 0.566916 0.688315
Si Si4 0.075782 0.931082 0.152450
Si Si5 0.083164 0.435453 0.487158
Si Si6 0.662736 0.567745 0.006218
O O1 0.250000 0.021724 0.675346
O O2 0.148075 0.250000 0.677030
O O3 0.136604 0.010527 0.566866
O O4 0.112681 0.969293 0.731532
O O5 0.102921 0.750000 0.850942
O O6 0.997740 0.961833 0.836830
O O7 0.134322 0.038883 0.895543
O O8 0.750000 0.537578 0.672650
O O9 0.855536 0.750000 0.704738
O O10 0.864041 0.469594 0.772347
O O11 0.882055 0.500486 0.603434
O O12 0.051366 0.750000 0.157379
O O13 0.113493 0.962800 0.058891
O O14 0.079932 0.250000 0.483036
O O15 0.000000 0.500000 0.500000
O O16 0.750000 0.517108 0.998810
O O17 0.652353 0.750000 0.982136
#
# Coordination Sequence:
#
# PCOD8245357 Si02
#       6
#     8   8   8   8   8   8
#     4  10  21  39  62  88 120 158 200 246 298 355
#     4  12  25  41  62  89 122 158 199 246 296 352
#     4  10  21  39  62  88 120 158 200 246 298 355
#     4  12  25  41  62  89 122 158 199 246 296 352
#     4  10  21  37  59  87 119 158 201 246 296 350
#     4  11  24  43  66  91 121 157 196 241 296 355
#
# _framework density 20.950811000000002
#
# number of rings (size 3 to 8) (size 9 to 14) (size 15 to 20)
#    0.000    1.167    0.000    6.500    0.000   12.000 
#    0.000    0.000    0.000    3.000    0.000    0.000 
#    0.000    0.000    0.000    0.000    0.000    0.000 
#
# Total GULP energy -595586.880821 kJ/mol
# GULP energy per Si atom -12408.060017 kJ/mol
# Density = 2.090313 g / cm^3
# Si number density = 20.950811 Si / 1000 Ang^3
#
#
#
# Elastic Constant Matrix: (Units=GPa)
#
#
# Indices 1 2 3 4 5 6 
#
# 1 97.0943 23.0151 13.2412 0.0000 0.0000 0.0000
# 2 23.0151 51.1145 23.8384 0.0000 0.0000 0.0000
# 3 13.2412 23.8384 97.7997 0.0000 0.0000 0.0000
# 4 0.0000 0.0000 0.0000 29.0091 0.0000 0.0000
# 5 0.0000 0.0000 0.0000 0.0000 47.1258 0.0000
# 6 0.0000 0.0000 0.0000 0.0000 0.0000 30.4731
#
#
#
# Elastic Compliance Matrix: (Units=1/GPa)
#
#
# Indices 1 2 3 4 5 6 
#
# 1 0.011540 -0.005040 -0.000334 0.000000 0.000000 0.000000
# 2 -0.005040 0.024275 -0.005234 0.000000 0.000000 0.000000
# 3 -0.000334 -0.005234 0.011546 0.000000 0.000000 0.000000
# 4 0.000000 0.000000 0.000000 0.034472 0.000000 0.000000
# 5 0.000000 0.000000 0.000000 0.000000 0.021220 0.000000
# 6 0.000000 0.000000 0.000000 0.000000 0.000000 0.032816
#
#
# Mechanical properties :
#
#
# Convention : Reuss Voigt Hill
#
# Bulk Modulus (GPa) = 38.25081 40.68865 39.46973
# Shear Modulus (GPa) = 30.15702 33.71587 31.93644
#
# Velocity S-wave (km/s) = 3.79809 4.01594 3.90853
# Velocity P-wave (km/s) = 6.12626 6.40054 6.26490
#
# Compressibility (1/GPa) = 0.02614324
#
# Stress axis : x y z
#
# Youngs Moduli (GPa) = 86.65886 41.19545 86.60965
#
# Poissons Ratio (x) = 0.20763 0.02891
# Poissons Ratio (y) = 0.43677 0.45335
# Poissons Ratio (z) = 0.02893 0.21564
#
# Static dielectric constant tensor:
#      x y z
#    x 3.868690 0.000000 0.000000 
#    y 0.000000 3.677360 0.000000 
#    z 0.000000 0.000000 3.976580 
# 
# 
# High freq. dielectric constant tensor:
#      x y z
#    x 1.834930 0.000000 0.000000 
#    y 0.000000 1.811150 0.000000 
#    z 0.000000 0.000000 1.837700 
# 
# From -- ./inp_files/23676.got.cif
#   From: 2010.03.12/outbox.cif.g09.slc.cpg/sg59_12_cif.got.tgz:23676.got - 2010.04.16 16:29:54.
