data_PCOD8245151
_publ_section_title
;
Structure prediction by ZEFSAII (Michael W. Deem and Ramdas Pophale) SiO2 
 PCOD8245151
Probable space group: P M M N
;
_chemical_formula_sum "Si O2"
_cell_formula_units_Z 56
_cell_length_a 8.817668
_cell_length_b 14.993593
_cell_length_c 22.087967
_cell_angle_alpha 90.000000
_cell_angle_beta 90.000000
_cell_angle_gamma 90.000000
_cell_volume 2920.217542
_symmetry_space_group_name_H-M "P M M N"
_symmetry_group_IT_number 59
_space_group.IT_coordinate_system_code '2'
_symmetry_cell_setting 'orthorhombic'
loop_
_space_group_symop_operation_xyz
x,y,z
1/2-x,1/2-y,z
1/2+x,-y,-z
-x,1/2+y,-z
-x,-y,-z
1/2+x,1/2+y,-z
1/2-x,y,z
x,1/2-y,z
loop_
_atom_site_type_symbol
_atom_site_label
_atom_site_fract_x
_atom_site_fract_y
_atom_site_fract_z
Si Si1 0.429937 0.485219 0.709542
Si Si2 0.072533 0.563237 0.164025
Si Si3 0.570016 0.347161 0.362438
Si Si4 0.920716 0.651433 0.389547
Si Si5 0.929999 0.250000 0.887249
Si Si6 0.071064 0.061473 0.051848
Si Si7 0.068907 0.750000 0.974286
Si Si8 0.429131 0.904437 0.506899
O O1 0.250000 0.480937 0.714310
O O2 0.496346 0.467151 0.774639
O O3 0.490357 0.580673 0.685640
O O4 0.490998 0.413043 0.661221
O O5 0.250000 0.572039 0.174642
O O6 0.006696 0.660334 0.144563
O O7 0.035135 0.488293 0.114524
O O8 0.750000 0.352149 0.364583
O O9 0.513486 0.250000 0.340686
O O10 0.508734 0.363746 0.430305
O O11 0.750000 0.619689 0.405876
O O12 0.920531 0.750000 0.361259
O O13 0.019203 0.654733 0.450374
O O14 0.750000 0.250000 0.886332
O O15 0.985030 0.250000 0.956361
O O16 0.250000 0.070185 0.040250
O O17 0.997341 0.159968 0.055895
O O18 0.000000 0.000000 0.000000
O O19 0.250000 0.750000 0.966991
O O20 0.250000 0.910618 0.507571
O O21 0.500000 0.000000 0.500000
#
# Coordination Sequence:
#
# PCOD8245151 Si02
#       8
#     8   8   8   8   4   8   4   8
#     4  10  21  38  57  80 112 150 193 236 284 344
#     4  10  22  40  60  84 120 157 192 240 294 346
#     4   9  18  35  58  79 104 141 187 240 290 338
#     4  10  21  37  55  80 116 149 181 231 291 342
#     4   9  18  37  61  87 119 155 186 229 292 349
#     4  11  22  39  63  91 124 160 199 247 303 356
#     4  11  21  39  65  93 125 159 200 247 298 357
#     4  11  20  34  57  83 112 144 186 236 293 351
#
# _framework density 19.176653000000002
#
# number of rings (size 3 to 8) (size 9 to 14) (size 15 to 20)
#    0.000    1.857    2.857    1.500    1.000    2.571 
#    1.286    0.000    0.000    1.714    0.000    0.000 
#    0.000    0.000    0.000    0.000    0.000    0.000 
#
# Total GULP energy -694315.178364 kJ/mol
# GULP energy per Si atom -12398.485328 kJ/mol
# Density = 1.913301 g / cm^3
# Si number density = 19.176653 Si / 1000 Ang^3
#
#
#
# Elastic Constant Matrix: (Units=GPa)
#
#
# Indices 1 2 3 4 5 6 
#
# 1 52.3483 41.0938 41.3429 0.0000 0.0000 0.0000
# 2 41.0938 184.8693 80.5254 0.0000 0.0000 0.0000
# 3 41.3429 80.5254 146.1742 0.0000 0.0000 0.0000
# 4 0.0000 0.0000 0.0000 20.5806 0.0000 0.0000
# 5 0.0000 0.0000 0.0000 0.0000 33.7982 0.0000
# 6 0.0000 0.0000 0.0000 0.0000 0.0000 23.9037
#
#
#
# Elastic Compliance Matrix: (Units=1/GPa)
#
#
# Indices 1 2 3 4 5 6 
#
# 1 0.026132 -0.003407 -0.005514 0.000000 0.000000 0.000000
# 2 -0.003407 0.007561 -0.003202 0.000000 0.000000 0.000000
# 3 -0.005514 -0.003202 0.010165 0.000000 0.000000 0.000000
# 4 0.000000 0.000000 0.000000 0.048590 0.000000 0.000000
# 5 0.000000 0.000000 0.000000 0.000000 0.029587 0.000000
# 6 0.000000 0.000000 0.000000 0.000000 0.000000 0.041834
#
#
# Mechanical properties :
#
#
# Convention : Reuss Voigt Hill
#
# Bulk Modulus (GPa) = 50.98883 78.81290 64.90086
# Shear Modulus (GPa) = 25.68679 30.35181 28.01930
#
# Velocity S-wave (km/s) = 3.66386 3.98269 3.82660
# Velocity P-wave (km/s) = 6.67422 7.89536 7.31033
#
# Compressibility (1/GPa) = 0.01961214
#
# Stress axis : x y z
#
# Youngs Moduli (GPa) = 38.26691 132.25483 98.38108
#
# Poissons Ratio (x) = 0.45058 0.54250
# Poissons Ratio (y) = 0.13037 0.31499
# Poissons Ratio (z) = 0.21101 0.42345
#
# Static dielectric constant tensor:
#      x y z
#    x 3.374580 0.000000 0.000000 
#    y 0.000000 3.746550 0.000000 
#    z 0.000000 0.000000 3.581660 
# 
# 
# High freq. dielectric constant tensor:
#      x y z
#    x 1.722250 0.000000 0.000000 
#    y 0.000000 1.767100 0.000000 
#    z 0.000000 0.000000 1.741100 
# 
# From -- ./inp_files/29231.got.cif
#   From: 2010.03.12/outbox.cif.g09.slc.cpg/sg59_15_cif.got.tgz:29231.got - 2010.04.16 16:29:54.
