data_PCOD8245765
_publ_section_title
;
Structure prediction by ZEFSAII (Michael W. Deem and Ramdas Pophale) SiO2 
 PCOD8245765
Probable space group: P M M N
;
_chemical_formula_sum "Si O2"
_cell_formula_units_Z 40
_cell_length_a 8.794748
_cell_length_b 18.717267
_cell_length_c 12.485219
_cell_angle_alpha 90.000000
_cell_angle_beta 90.000000
_cell_angle_gamma 90.000000
_cell_volume 2055.237427
_symmetry_space_group_name_H-M "P M M N"
_symmetry_group_IT_number 59
_space_group.IT_coordinate_system_code '2'
_symmetry_cell_setting 'orthorhombic'
loop_
_space_group_symop_operation_xyz
x,y,z
1/2-x,1/2-y,z
1/2+x,-y,-z
-x,1/2+y,-z
-x,-y,-z
1/2+x,1/2+y,-z
1/2-x,y,z
x,1/2-y,z
loop_
_atom_site_type_symbol
_atom_site_label
_atom_site_fract_x
_atom_site_fract_y
_atom_site_fract_z
Si Si1 0.070003 0.434775 0.716533
Si Si2 0.924100 0.167919 0.135856
Si Si3 0.428888 0.414778 0.324706
Si Si4 0.574980 0.432797 0.943418
Si Si5 0.569500 0.830008 0.468462
O O1 0.250000 0.438603 0.724903
O O2 0.014189 0.373325 0.635464
O O3 0.011711 0.509721 0.671981
O O4 0.004566 0.415481 0.831924
O O5 0.750000 0.158634 0.174234
O O6 0.973958 0.250000 0.132449
O O7 0.033987 0.126376 0.215753
O O8 0.944612 0.136690 0.017118
O O9 0.250000 0.427962 0.331646
O O10 0.490519 0.368678 0.424486
O O11 0.750000 0.451512 0.921971
O O12 0.500000 0.500000 0.000000
O O13 0.750000 0.826646 0.471979
O O14 0.500918 0.750000 0.463749
#
# Coordination Sequence:
#
# PCOD8245765 Si02
#       5
#     8   8   8   8   8
#     4  11  22  37  60  86 117 155 196 242 292 349
#     4  10  22  39  59  85 118 153 189 238 299 352
#     4  11  21  36  61  88 116 152 197 245 290 346
#     4  11  22  38  60  85 117 154 193 238 288 345
#     4   9  20  38  58  84 118 154 194 243 295 346
#
# _framework density 19.462471000000001
#
# number of rings (size 3 to 8) (size 9 to 14) (size 15 to 20)
#    0.000    1.600    2.000    3.000    0.000    2.800 
#    0.000    3.000    0.000    6.600    0.000    0.000 
#    0.000    0.000    0.000    0.000    0.000    0.000 
#
# Total GULP energy -496173.417716 kJ/mol
# GULP energy per Si atom -12404.335443 kJ/mol
# Density = 1.941817 g / cm^3
# Si number density = 19.462471 Si / 1000 Ang^3
#
#
#
# Elastic Constant Matrix: (Units=GPa)
#
#
# Indices 1 2 3 4 5 6 
#
# 1 78.0350 39.3859 44.4385 0.0000 0.0000 0.0000
# 2 39.3859 141.1398 75.3547 0.0000 0.0000 0.0000
# 3 44.4385 75.3547 155.3139 0.0000 0.0000 0.0000
# 4 0.0000 0.0000 0.0000 33.5892 0.0000 0.0000
# 5 0.0000 0.0000 0.0000 0.0000 27.7613 0.0000
# 6 0.0000 0.0000 0.0000 0.0000 0.0000 14.8645
#
#
#
# Elastic Compliance Matrix: (Units=1/GPa)
#
#
# Indices 1 2 3 4 5 6 
#
# 1 0.016056 -0.002737 -0.003266 0.000000 0.000000 0.000000
# 2 -0.002737 0.010029 -0.004083 0.000000 0.000000 0.000000
# 3 -0.003266 -0.004083 0.009354 0.000000 0.000000 0.000000
# 4 0.000000 0.000000 0.000000 0.029771 0.000000 0.000000
# 5 0.000000 0.000000 0.000000 0.000000 0.036021 0.000000
# 6 0.000000 0.000000 0.000000 0.000000 0.000000 0.067275
#
#
# Mechanical properties :
#
#
# Convention : Reuss Voigt Hill
#
# Bulk Modulus (GPa) = 65.49859 76.98300 71.24080
# Shear Modulus (GPa) = 25.80432 29.59697 27.70064
#
# Velocity S-wave (km/s) = 3.64517 3.90387 3.77674
# Velocity P-wave (km/s) = 7.17239 7.74343 7.46338
#
# Compressibility (1/GPa) = 0.01526750
#
# Stress axis : x y z
#
# Youngs Moduli (GPa) = 62.28187 99.71506 106.90758
#
# Poissons Ratio (x) = 0.27289 0.34918
# Poissons Ratio (y) = 0.17045 0.43646
# Poissons Ratio (z) = 0.20342 0.40710
#
# Static dielectric constant tensor:
#      x y z
#    x 3.474840 0.000000 0.000000 
#    y 0.000000 3.790620 0.000000 
#    z 0.000000 0.000000 3.752260 
# 
# 
# High freq. dielectric constant tensor:
#      x y z
#    x 1.747710 0.000000 0.000000 
#    y 0.000000 1.767170 0.000000 
#    z 0.000000 0.000000 1.770790 
# 
# From -- ./inp_files/13819.got.cif
#   From: 2010.03.12/outbox.cif.g09.slc.cpg/sg59_7_cif.got.tgz:13819.got - 2010.04.16 16:29:54.
