data_PCOD8245382
_publ_section_title
;
Structure prediction by ZEFSAII (Michael W. Deem and Ramdas Pophale) SiO2 
 PCOD8245382
Probable space group: P M M N
;
_chemical_formula_sum "Si O2"
_cell_formula_units_Z 64
_cell_length_a 9.166398
_cell_length_b 28.798836
_cell_length_c 12.059212
_cell_angle_alpha 90.000000
_cell_angle_beta 90.000000
_cell_angle_gamma 90.000000
_cell_volume 3183.409991
_symmetry_space_group_name_H-M "P M M N"
_symmetry_group_IT_number 59
_space_group.IT_coordinate_system_code '2'
_symmetry_cell_setting 'orthorhombic'
loop_
_space_group_symop_operation_xyz
x,y,z
1/2-x,1/2-y,z
1/2+x,-y,-z
-x,1/2+y,-z
-x,-y,-z
1/2+x,1/2+y,-z
1/2-x,y,z
x,1/2-y,z
loop_
_atom_site_type_symbol
_atom_site_label
_atom_site_fract_x
_atom_site_fract_y
_atom_site_fract_z
Si Si1 0.414859 0.859058 0.021153
Si Si2 0.085021 0.194957 0.803725
Si Si3 0.581651 0.016908 0.668594
Si Si4 0.920348 0.036856 0.922073
Si Si5 0.918516 0.065841 0.444362
Si Si6 0.087104 0.802508 0.803181
Si Si7 0.577798 0.660326 0.601205
Si Si8 0.909632 0.303491 0.598850
O O1 0.250000 0.852763 0.067416
O O2 0.527476 0.826574 0.083807
O O3 0.463643 0.912465 0.032209
O O4 0.424644 0.842023 0.895665
O O5 0.250000 0.179043 0.783117
O O6 0.073196 0.250000 0.812106
O O7 0.987678 0.173580 0.704769
O O8 0.750000 0.000117 0.667990
O O9 0.534423 0.033415 0.791846
O O10 0.561198 0.057618 0.576792
O O11 0.476249 0.975825 0.631247
O O12 0.750000 0.027452 0.935034
O O13 0.000000 0.000000 0.000000
O O14 0.750000 0.073501 0.414543
O O15 0.010198 0.109762 0.407712
O O16 0.250000 0.804828 0.750298
O O17 0.059495 0.750000 0.848905
O O18 0.964384 0.814601 0.714572
O O19 0.750000 0.657027 0.591251
O O20 0.514559 0.692321 0.505076
O O21 0.750000 0.327233 0.579857
O O22 0.885887 0.250000 0.624491
#
# Coordination Sequence:
#
# PCOD8245382 Si02
#       8
#     8   8   8   8   8   8   8   8
#     4  10  22  40  64  91 120 160 209 255 302 362
#     4  10  21  37  59  91 128 161 198 249 306 363
#     4   9  20  40  62  88 123 157 197 251 307 361
#     4  10  23  41  62  91 125 161 203 252 306 365
#     4  10  21  38  63  90 119 159 202 247 300 368
#     4  10  22  41  63  88 121 162 211 261 308 368
#     4  12  25  38  58  89 124 157 199 253 309 368
#     4  10  21  38  60  85 117 158 200 242 294 356
#
# _framework density 20.104227999999999
#
# number of rings (size 3 to 8) (size 9 to 14) (size 15 to 20)
#    0.000    1.875    0.000    3.000    3.500    5.750 
#    0.000    0.000    0.000    0.000    0.000    0.000 
#    0.000    0.000    0.000    0.000    0.000    0.000 
#
# Total GULP energy -793565.382391 kJ/mol
# GULP energy per Si atom -12399.459100 kJ/mol
# Density = 2.005847 g / cm^3
# Si number density = 20.104228 Si / 1000 Ang^3
#
#
#
# Elastic Constant Matrix: (Units=GPa)
#
#
# Indices 1 2 3 4 5 6 
#
# 1 138.3712 48.2488 51.0116 0.0000 0.0000 0.0000
# 2 48.2488 43.2339 38.2335 0.0000 0.0000 0.0000
# 3 51.0116 38.2335 104.0725 0.0000 0.0000 0.0000
# 4 0.0000 0.0000 0.0000 33.0225 0.0000 0.0000
# 5 0.0000 0.0000 0.0000 0.0000 20.6341 0.0000
# 6 0.0000 0.0000 0.0000 0.0000 0.0000 21.2918
#
#
#
# Elastic Compliance Matrix: (Units=1/GPa)
#
#
# Indices 1 2 3 4 5 6 
#
# 1 0.011971 -0.012103 -0.001422 0.000000 0.000000 0.000000
# 2 -0.012103 0.046496 -0.011149 0.000000 0.000000 0.000000
# 3 -0.001422 -0.011149 0.014401 0.000000 0.000000 0.000000
# 4 0.000000 0.000000 0.000000 0.030282 0.000000 0.000000
# 5 0.000000 0.000000 0.000000 0.000000 0.048463 0.000000
# 6 0.000000 0.000000 0.000000 0.000000 0.000000 0.046966
#
#
# Mechanical properties :
#
#
# Convention : Reuss Voigt Hill
#
# Bulk Modulus (GPa) = 42.51362 62.29615 52.40488
# Shear Modulus (GPa) = 19.54894 24.86861 22.20877
#
# Velocity S-wave (km/s) = 3.12168 3.52089 3.32728
# Velocity P-wave (km/s) = 5.84686 6.89803 6.39408
#
# Compressibility (1/GPa) = 0.02352187
#
# Stress axis : x y z
#
# Youngs Moduli (GPa) = 83.53509 21.50713 69.43754
#
# Poissons Ratio (x) = 0.26029 0.09871
# Poissons Ratio (y) = 1.01098 0.77419
# Poissons Ratio (z) = 0.11875 0.23979
#
# Static dielectric constant tensor:
#      x y z
#    x 3.813850 0.000000 0.000000 
#    y 0.000000 3.911800 0.000000 
#    z 0.000000 0.000000 3.671220 
# 
# 
# High freq. dielectric constant tensor:
#      x y z
#    x 1.789520 0.000000 0.000000 
#    y 0.000000 1.783330 0.000000 
#    z 0.000000 0.000000 1.787270 
# 
# From -- ./inp_files/14876.got.cif
#   From: 2010.03.12/outbox.cif.g09.slc.cpg/sg59_8_cif.got.tgz:14876.got - 2010.04.16 16:29:54.
