data_PCOD8245853
_publ_section_title
;
Structure prediction by ZEFSAII (Michael W. Deem and Ramdas Pophale) SiO2 
 PCOD8245853
Probable space group: P M M N
;
_chemical_formula_sum "Si O2"
_cell_formula_units_Z 48
_cell_length_a 8.685651
_cell_length_b 15.841581
_cell_length_c 16.910352
_cell_angle_alpha 90.000000
_cell_angle_beta 90.000000
_cell_angle_gamma 90.000000
_cell_volume 2326.770479
_symmetry_space_group_name_H-M "P M M N"
_symmetry_group_IT_number 59
_space_group.IT_coordinate_system_code '2'
_symmetry_cell_setting 'orthorhombic'
loop_
_space_group_symop_operation_xyz
x,y,z
1/2-x,1/2-y,z
1/2+x,-y,-z
-x,1/2+y,-z
-x,-y,-z
1/2+x,1/2+y,-z
1/2-x,y,z
x,1/2-y,z
loop_
_atom_site_type_symbol
_atom_site_label
_atom_site_fract_x
_atom_site_fract_y
_atom_site_fract_z
Si Si1 0.432944 0.156005 0.499635
Si Si2 0.928100 0.344759 0.820169
Si Si3 0.431360 0.081125 0.335906
Si Si4 0.931215 0.594877 0.331823
Si Si5 0.431368 0.499052 0.913600
Si Si6 0.928894 0.344090 0.190888
O O1 0.250000 0.158993 0.498684
O O2 0.501089 0.250000 0.496539
O O3 0.492568 0.106221 0.422885
O O4 0.493350 0.112138 0.579608
O O5 0.750000 0.370236 0.823160
O O6 0.953255 0.250000 0.854435
O O7 0.985964 0.343146 0.729600
O O8 0.021638 0.412974 0.870215
O O9 0.250000 0.063637 0.336301
O O10 0.474183 0.152602 0.272374
O O11 0.524672 0.999509 0.307591
O O12 0.750000 0.609728 0.325640
O O13 0.250000 0.501333 0.920326
O O14 0.490216 0.583594 0.868741
O O15 0.500000 0.500000 0.000000
O O16 0.750000 0.358993 0.210348
O O17 0.954778 0.250000 0.154587
#
# Coordination Sequence:
#
# PCOD8245853 Si02
#       6
#     8   8   8   8   8   8
#     4   9  19  34  52  80 117 158 207 259 307 359
#     4  11  24  42  65  94 128 165 208 260 314 367
#     4  11  21  35  58  86 120 161 207 257 308 362
#     4  11  21  36  59  85 119 164 210 256 310 368
#     4  11  24  43  68  96 129 166 202 251 310 372
#     4  10  22  41  64  91 124 163 205 250 306 369
#
# _framework density 20.629451
#
# number of rings (size 3 to 8) (size 9 to 14) (size 15 to 20)
#    0.000    1.500    1.667    3.500    0.000    4.333 
#    0.000    4.167    0.000    6.000    0.000    0.000 
#    0.000    0.000    0.000    0.000    0.000    0.000 
#
# Total GULP energy -595276.468655 kJ/mol
# GULP energy per Si atom -12401.593097 kJ/mol
# Density = 2.058250 g / cm^3
# Si number density = 20.629451 Si / 1000 Ang^3
#
#
#
# Elastic Constant Matrix: (Units=GPa)
#
#
# Indices 1 2 3 4 5 6 
#
# 1 44.9892 23.3399 26.8672 0.0000 0.0000 0.0000
# 2 23.3399 126.7800 47.2265 0.0000 0.0000 0.0000
# 3 26.8672 47.2265 138.0728 0.0000 0.0000 0.0000
# 4 0.0000 0.0000 0.0000 23.1929 0.0000 0.0000
# 5 0.0000 0.0000 0.0000 0.0000 34.3609 0.0000
# 6 0.0000 0.0000 0.0000 0.0000 0.0000 27.3667
#
#
#
# Elastic Compliance Matrix: (Units=1/GPa)
#
#
# Indices 1 2 3 4 5 6 
#
# 1 0.026350 -0.003370 -0.003975 0.000000 0.000000 0.000000
# 2 -0.003370 0.009471 -0.002583 0.000000 0.000000 0.000000
# 3 -0.003975 -0.002583 0.008900 0.000000 0.000000 0.000000
# 4 0.000000 0.000000 0.000000 0.043117 0.000000 0.000000
# 5 0.000000 0.000000 0.000000 0.000000 0.029103 0.000000
# 6 0.000000 0.000000 0.000000 0.000000 0.000000 0.036541
#
#
# Mechanical properties :
#
#
# Convention : Reuss Voigt Hill
#
# Bulk Modulus (GPa) = 40.22031 56.07881 48.14956
# Shear Modulus (GPa) = 27.52933 31.14464 29.33698
#
# Velocity S-wave (km/s) = 3.65700 3.88972 3.77515
# Velocity P-wave (km/s) = 6.11313 6.88594 6.51101
#
# Compressibility (1/GPa) = 0.02486306
#
# Stress axis : x y z
#
# Youngs Moduli (GPa) = 37.95118 105.59078 112.36462
#
# Poissons Ratio (x) = 0.35588 0.44659
# Poissons Ratio (y) = 0.12791 0.29029
# Poissons Ratio (z) = 0.15084 0.27279
#
# Static dielectric constant tensor:
#      x y z
#    x 3.519770 0.000000 0.000000 
#    y 0.000000 3.859430 0.000000 
#    z 0.000000 0.000000 3.853270 
# 
# 
# High freq. dielectric constant tensor:
#      x y z
#    x 1.792310 0.000000 0.000000 
#    y 0.000000 1.819480 0.000000 
#    z 0.000000 0.000000 1.808180 
# 
# From -- ./inp_files/25506.got.cif
#   From: 2010.03.12/outbox.cif.g09.slc.cpg/sg59_13_cif.got.tgz:25506.got - 2010.04.16 16:29:54.
