data_PCOD8245708
_publ_section_title
;
Structure prediction by ZEFSAII (Michael W. Deem and Ramdas Pophale) SiO2 
 PCOD8245708
Probable space group: P M M N
;
_chemical_formula_sum "Si O2"
_cell_formula_units_Z 40
_cell_length_a 18.795074
_cell_length_b 9.928514
_cell_length_c 11.144232
_cell_angle_alpha 90.000000
_cell_angle_beta 90.000000
_cell_angle_gamma 90.000000
_cell_volume 2079.593432
_symmetry_space_group_name_H-M "P M M N"
_symmetry_group_IT_number 59
_space_group.IT_coordinate_system_code '2'
_symmetry_cell_setting 'orthorhombic'
loop_
_space_group_symop_operation_xyz
x,y,z
1/2-x,1/2-y,z
1/2+x,-y,-z
-x,1/2+y,-z
-x,-y,-z
1/2+x,1/2+y,-z
1/2-x,y,z
x,1/2-y,z
loop_
_atom_site_type_symbol
_atom_site_label
_atom_site_fract_x
_atom_site_fract_y
_atom_site_fract_z
Si Si1 0.568135 0.908770 0.977526
Si Si2 0.049975 0.250000 0.437953
Si Si3 0.909850 0.250000 0.581625
Si Si4 0.335033 0.750000 0.671158
Si Si5 0.108852 0.023210 0.776969
Si Si6 0.329826 0.250000 0.619146
Si Si7 0.553086 0.003921 0.727148
O O1 0.549327 0.750000 0.979971
O O2 0.595680 0.951246 0.844992
O O3 0.625099 0.946598 0.081752
O O4 0.500000 0.000000 0.000000
O O5 0.126737 0.250000 0.496957
O O6 0.039729 0.117858 0.361501
O O7 0.991157 0.250000 0.540637
O O8 0.855712 0.250000 0.469616
O O9 0.898546 0.382059 0.664058
O O10 0.250000 0.750000 0.682572
O O11 0.370461 0.626866 0.741218
O O12 0.156964 0.118108 0.696813
O O13 0.025714 0.058772 0.757723
O O14 0.250000 0.250000 0.573694
#
# Coordination Sequence:
#
# PCOD8245708 Si02
#       7
#     8   4   4   4   8   4   8
#     4  10  22  36  59  93 124 153 195 250 308 366
#     4  12  20  37  59  84 125 159 201 255 300 362
#     4  12  22  37  61  90 127 163 201 253 302 368
#     4  12  26  41  61  91 125 165 208 255 311 372
#     4  11  21  39  61  87 126 155 200 258 311 366
#     4  12  24  37  59  87 119 163 206 249 305 368
#     4  11  21  36  62  91 122 158 197 256 311 355
#
# _framework density 19.234528000000001
#
# number of rings (size 3 to 8) (size 9 to 14) (size 15 to 20)
#    0.000    0.800    6.000    2.400    8.400    0.000 
#    0.000    0.000    0.000    7.200    0.000    0.000 
#    0.000    0.000    0.000    0.000    0.000    0.000 
#
# Total GULP energy -495927.093506 kJ/mol
# GULP energy per Si atom -12398.177338 kJ/mol
# Density = 1.919075 g / cm^3
# Si number density = 19.234528 Si / 1000 Ang^3
#
#
#
# Elastic Constant Matrix: (Units=GPa)
#
#
# Indices 1 2 3 4 5 6 
#
# 1 56.3961 -4.1381 20.8494 0.0000 0.0000 0.0000
# 2 -4.1381 144.1550 49.1024 0.0000 0.0000 0.0000
# 3 20.8494 49.1024 131.8880 0.0000 0.0000 0.0000
# 4 0.0000 0.0000 0.0000 44.0386 0.0000 0.0000
# 5 0.0000 0.0000 0.0000 0.0000 16.8753 0.0000
# 6 0.0000 0.0000 0.0000 0.0000 0.0000 15.8379
#
#
#
# Elastic Compliance Matrix: (Units=1/GPa)
#
#
# Indices 1 2 3 4 5 6 
#
# 1 0.019240 0.001819 -0.003719 0.000000 0.000000 0.000000
# 2 0.001819 0.008116 -0.003309 0.000000 0.000000 0.000000
# 3 -0.003719 -0.003309 0.009402 0.000000 0.000000 0.000000
# 4 0.000000 0.000000 0.000000 0.022707 0.000000 0.000000
# 5 0.000000 0.000000 0.000000 0.000000 0.059258 0.000000
# 6 0.000000 0.000000 0.000000 0.000000 0.000000 0.063140
#
#
# Mechanical properties :
#
#
# Convention : Reuss Voigt Hill
#
# Bulk Modulus (GPa) = 37.96453 51.56295 44.76374
# Shear Modulus (GPa) = 24.86793 33.12538 28.99665
#
# Velocity S-wave (km/s) = 3.59956 4.15442 3.88691
# Velocity P-wave (km/s) = 6.08739 7.06243 6.59296
#
# Compressibility (1/GPa) = 0.02634038
#
# Stress axis : x y z
#
# Youngs Moduli (GPa) = 51.97505 123.20698 106.35875
#
# Poissons Ratio (x) = -0.22411 0.39552
# Poissons Ratio (y) = -0.09454 0.35198
# Poissons Ratio (z) = 0.19328 0.40773
#
# Static dielectric constant tensor:
#      x y z
#    x 3.094870 0.000000 0.000000 
#    y 0.000000 3.239750 0.000000 
#    z 0.000000 0.000000 4.277680 
# 
# 
# High freq. dielectric constant tensor:
#      x y z
#    x 1.690450 0.000000 0.000000 
#    y 0.000000 1.771870 0.000000 
#    z 0.000000 0.000000 1.771520 
# 
# From -- ./inp_files/18191.got.cif
#   From: 2010.03.12/outbox.cif.g09.slc.cpg/sg59_10_cif.got.tgz:18191.got - 2010.04.16 16:29:54.
