data_PCOD8245215
_publ_section_title
;
Structure prediction by ZEFSAII (Michael W. Deem and Ramdas Pophale) SiO2 
 PCOD8245215
Probable space group: P M M N
;
_chemical_formula_sum "Si O2"
_cell_formula_units_Z 64
_cell_length_a 8.911855
_cell_length_b 15.281543
_cell_length_c 24.276675
_cell_angle_alpha 90.000000
_cell_angle_beta 90.000000
_cell_angle_gamma 90.000000
_cell_volume 3306.164999
_symmetry_space_group_name_H-M "P M M N"
_symmetry_group_IT_number 59
_space_group.IT_coordinate_system_code '2'
_symmetry_cell_setting 'orthorhombic'
loop_
_space_group_symop_operation_xyz
x,y,z
1/2-x,1/2-y,z
1/2+x,-y,-z
-x,1/2+y,-z
-x,-y,-z
1/2+x,1/2+y,-z
1/2-x,y,z
x,1/2-y,z
loop_
_atom_site_type_symbol
_atom_site_label
_atom_site_fract_x
_atom_site_fract_y
_atom_site_fract_z
Si Si1 0.429221 0.152411 0.382984
Si Si2 0.572566 0.905470 0.997965
Si Si3 0.071406 0.502688 0.307703
Si Si4 0.921386 0.152454 0.894690
Si Si5 0.577894 0.151043 0.111478
Si Si6 0.915655 0.646240 0.496535
Si Si7 0.427344 0.848486 0.387742
Si Si8 0.072765 0.005331 0.183271
O O1 0.250000 0.154718 0.383636
O O2 0.491024 0.250000 0.369369
O O3 0.490642 0.084884 0.337370
O O4 0.483001 0.119430 0.443646
O O5 0.750000 0.914098 0.993732
O O6 0.512930 0.854228 0.945179
O O7 0.527950 0.852991 0.052484
O O8 0.500000 0.000000 0.000000
O O9 0.250000 0.502391 0.308595
O O10 0.010932 0.588647 0.339458
O O11 0.012275 0.505093 0.245315
O O12 0.750000 0.133771 0.913046
O O13 0.936625 0.250000 0.869449
O O14 0.972324 0.082891 0.848912
O O15 0.750000 0.124086 0.100538
O O16 0.566045 0.250000 0.133812
O O17 0.508188 0.088290 0.157133
O O18 0.750000 0.605701 0.488075
O O19 0.905249 0.750000 0.495892
O O20 0.020125 0.613405 0.446749
O O21 0.250000 0.848536 0.388427
O O22 0.488827 0.750000 0.377120
O O23 0.250000 0.021848 0.181400
#
# Coordination Sequence:
#
# PCOD8245215 Si02
#       8
#     8   8   8   8   8   8   8   8
#     4   8  14  26  45  69  97 128 164 214 268 311
#     4  12  23  37  61  90 119 149 181 222 273 325
#     4   9  18  31  48  73 101 132 175 218 258 309
#     4  10  21  37  57  83 115 149 184 225 275 326
#     4  11  24  41  61  85 115 150 183 222 275 328
#     4   8  14  26  45  68  94 126 166 210 259 314
#     4   9  17  29  46  70 102 135 165 205 258 313
#     4  10  21  37  57  80 107 143 187 233 273 318
#
# _framework density 19.357776000000001
#
# number of rings (size 3 to 8) (size 9 to 14) (size 15 to 20)
#    0.000    2.375    1.250    2.625    0.000    4.250 
#    0.000    4.375    0.000    0.750    0.000    3.500 
#    0.000    0.000    0.000    0.000    0.000    0.000 
#
# Total GULP energy -793457.012342 kJ/mol
# GULP energy per Si atom -12397.765818 kJ/mol
# Density = 1.931372 g / cm^3
# Si number density = 19.357776 Si / 1000 Ang^3
#
#
#
# Elastic Constant Matrix: (Units=GPa)
#
#
# Indices 1 2 3 4 5 6 
#
# 1 55.8239 29.6067 36.2508 0.0000 0.0000 0.0000
# 2 29.6067 124.2561 75.3156 0.0000 0.0000 0.0000
# 3 36.2508 75.3156 173.0853 0.0000 0.0000 0.0000
# 4 0.0000 0.0000 0.0000 17.1342 0.0000 0.0000
# 5 0.0000 0.0000 0.0000 0.0000 22.5071 0.0000
# 6 0.0000 0.0000 0.0000 0.0000 0.0000 18.7096
#
#
#
# Elastic Compliance Matrix: (Units=1/GPa)
#
#
# Indices 1 2 3 4 5 6 
#
# 1 0.021673 -0.003277 -0.003113 0.000000 0.000000 0.000000
# 2 -0.003277 0.011426 -0.004286 0.000000 0.000000 0.000000
# 3 -0.003113 -0.004286 0.008294 0.000000 0.000000 0.000000
# 4 0.000000 0.000000 0.000000 0.058363 0.000000 0.000000
# 5 0.000000 0.000000 0.000000 0.000000 0.044430 0.000000
# 6 0.000000 0.000000 0.000000 0.000000 0.000000 0.053448
#
#
# Mechanical properties :
#
#
# Convention : Reuss Voigt Hill
#
# Bulk Modulus (GPa) = 49.89526 70.61238 60.25382
# Shear Modulus (GPa) = 22.15643 25.80301 23.97972
#
# Velocity S-wave (km/s) = 3.38683 3.65492 3.52343
# Velocity P-wave (km/s) = 6.41291 7.37347 6.90990
#
# Compressibility (1/GPa) = 0.02004198
#
# Stress axis : x y z
#
# Youngs Moduli (GPa) = 46.13999 87.51640 120.56335
#
# Poissons Ratio (x) = 0.28680 0.37534
# Poissons Ratio (y) = 0.15120 0.51670
# Poissons Ratio (z) = 0.14364 0.37507
#
# Static dielectric constant tensor:
#      x y z
#    x 3.323040 0.000000 0.000000 
#    y 0.000000 3.715760 0.000000 
#    z 0.000000 0.000000 3.756930 
# 
# 
# High freq. dielectric constant tensor:
#      x y z
#    x 1.718890 0.000000 0.000000 
#    y 0.000000 1.759520 0.000000 
#    z 0.000000 0.000000 1.752000 
# 
# From -- ./inp_files/31684.got.cif
#   From: 2010.03.12/outbox.cif.g09.slc.cpg/sg59_16_cif.got.tgz:31684.got - 2010.04.16 16:29:54.
