data_PCOD8245420
_publ_section_title
;
Structure prediction by ZEFSAII (Michael W. Deem and Ramdas Pophale) SiO2 
 PCOD8245420
Probable space group: P M M N
;
_chemical_formula_sum "Si O2"
_cell_formula_units_Z 64
_cell_length_a 8.676708
_cell_length_b 15.409753
_cell_length_c 23.977646
_cell_angle_alpha 90.000000
_cell_angle_beta 90.000000
_cell_angle_gamma 90.000000
_cell_volume 3205.953389
_symmetry_space_group_name_H-M "P M M N"
_symmetry_group_IT_number 59
_space_group.IT_coordinate_system_code '2'
_symmetry_cell_setting 'orthorhombic'
loop_
_space_group_symop_operation_xyz
x,y,z
1/2-x,1/2-y,z
1/2+x,-y,-z
-x,1/2+y,-z
-x,-y,-z
1/2+x,1/2+y,-z
1/2-x,y,z
x,1/2-y,z
loop_
_atom_site_type_symbol
_atom_site_label
_atom_site_fract_x
_atom_site_fract_y
_atom_site_fract_z
Si Si1 0.431849 0.999704 0.560937
Si Si2 0.068888 0.402662 0.757449
Si Si3 0.430602 0.499169 0.939210
Si Si4 0.426783 0.848271 0.130418
Si Si5 0.932955 0.846009 0.363129
Si Si6 0.570660 0.588557 0.753305
Si Si7 0.428116 0.653358 0.860931
Si Si8 0.427528 0.848298 0.642307
O O1 0.250000 0.006098 0.556118
O O2 0.500106 0.082706 0.594251
O O3 0.500000 0.000000 0.500000
O O4 0.482129 0.912223 0.593006
O O5 0.250000 0.387261 0.765127
O O6 0.006644 0.365121 0.699018
O O7 0.980660 0.352226 0.805818
O O8 0.034049 0.504068 0.759866
O O9 0.250000 0.505239 0.945569
O O10 0.472674 0.410815 0.907906
O O11 0.491723 0.582761 0.904949
O O12 0.500000 0.500000 0.000000
O O13 0.250000 0.878027 0.126509
O O14 0.447566 0.750000 0.108743
O O15 0.750000 0.852782 0.362491
O O16 0.987907 0.750000 0.381787
O O17 0.750000 0.563869 0.754292
O O18 0.529020 0.650328 0.804850
O O19 0.532170 0.637842 0.696281
O O20 0.250000 0.634209 0.846086
O O21 0.446853 0.750000 0.886580
O O22 0.250000 0.867683 0.658331
O O23 0.448785 0.750000 0.620732
#
# Coordination Sequence:
#
# PCOD8245420 Si02
#       8
#     8   8   8   8   8   8   8   8
#     4  10  21  38  57  81 112 149 195 240 289 344
#     4  11  20  36  62  89 119 157 199 241 294 361
#     4  11  24  42  65  90 121 163 208 254 303 355
#     4  11  24  41  62  92 129 163 198 248 306 358
#     4   9  18  34  58  85 112 145 187 235 286 345
#     4  12  23  35  58  91 125 155 190 241 301 356
#     4  10  22  41  64  89 119 159 202 242 295 362
#     4  10  21  39  61  83 113 155 198 238 287 352
#
# _framework density 19.962859999999999
#
# number of rings (size 3 to 8) (size 9 to 14) (size 15 to 20)
#    0.000    1.500    2.500    3.000    0.000    5.500 
#    0.000    1.250    0.000    1.500    0.000    0.000 
#    0.000    0.000    0.000    0.000    0.000    0.000 
#
# Total GULP energy -793810.136793 kJ/mol
# GULP energy per Si atom -12403.283387 kJ/mol
# Density = 1.991742 g / cm^3
# Si number density = 19.962860 Si / 1000 Ang^3
#
#
#
# Elastic Constant Matrix: (Units=GPa)
#
#
# Indices 1 2 3 4 5 6 
#
# 1 41.4441 23.7671 30.8366 0.0000 0.0000 0.0000
# 2 23.7671 144.0061 65.1760 0.0000 0.0000 0.0000
# 3 30.8366 65.1760 157.7015 0.0000 0.0000 0.0000
# 4 0.0000 0.0000 0.0000 15.1985 0.0000 0.0000
# 5 0.0000 0.0000 0.0000 0.0000 35.4351 0.0000
# 6 0.0000 0.0000 0.0000 0.0000 0.0000 21.3452
#
#
#
# Elastic Compliance Matrix: (Units=1/GPa)
#
#
# Indices 1 2 3 4 5 6 
#
# 1 0.029090 -0.002739 -0.004556 0.000000 0.000000 0.000000
# 2 -0.002739 0.008800 -0.003101 0.000000 0.000000 0.000000
# 3 -0.004556 -0.003101 0.008514 0.000000 0.000000 0.000000
# 4 0.000000 0.000000 0.000000 0.065796 0.000000 0.000000
# 5 0.000000 0.000000 0.000000 0.000000 0.028221 0.000000
# 6 0.000000 0.000000 0.000000 0.000000 0.000000 0.046849
#
#
# Mechanical properties :
#
#
# Convention : Reuss Voigt Hill
#
# Bulk Modulus (GPa) = 39.04665 64.74567 51.89616
# Shear Modulus (GPa) = 23.08421 29.28723 26.18572
#
# Velocity S-wave (km/s) = 3.40421 3.83441 3.62570
# Velocity P-wave (km/s) = 5.92062 7.21852 6.60154
#
# Compressibility (1/GPa) = 0.02561039
#
# Stress axis : x y z
#
# Youngs Moduli (GPa) = 34.37655 113.63881 117.45763
#
# Poissons Ratio (x) = 0.31125 0.53515
# Poissons Ratio (y) = 0.09416 0.36427
# Poissons Ratio (z) = 0.15662 0.35243
#
# Static dielectric constant tensor:
#      x y z
#    x 3.416730 0.000000 0.000000 
#    y 0.000000 4.032220 0.000000 
#    z 0.000000 0.000000 3.684100 
# 
# 
# High freq. dielectric constant tensor:
#      x y z
#    x 1.762190 0.000000 0.000000 
#    y 0.000000 1.794880 0.000000 
#    z 0.000000 0.000000 1.774130 
# 
# From -- ./inp_files/31570.got.cif
#   From: 2010.03.12/outbox.cif.g09.slc.cpg/sg59_16_cif.got.tgz:31570.got - 2010.04.16 16:29:54.
