data_PCOD8245852
_publ_section_title
;
Structure prediction by ZEFSAII (Michael W. Deem and Ramdas Pophale) SiO2 
 PCOD8245852
Probable space group: P M M N
;
_chemical_formula_sum "Si O2"
_cell_formula_units_Z 56
_cell_length_a 15.913972
_cell_length_b 9.006827
_cell_length_c 19.421247
_cell_angle_alpha 90.000000
_cell_angle_beta 90.000000
_cell_angle_gamma 90.000000
_cell_volume 2783.732644
_symmetry_space_group_name_H-M "P M M N"
_symmetry_group_IT_number 59
_space_group.IT_coordinate_system_code '2'
_symmetry_cell_setting 'orthorhombic'
loop_
_space_group_symop_operation_xyz
x,y,z
1/2-x,1/2-y,z
1/2+x,-y,-z
-x,1/2+y,-z
-x,-y,-z
1/2+x,1/2+y,-z
1/2-x,y,z
x,1/2-y,z
loop_
_atom_site_type_symbol
_atom_site_label
_atom_site_fract_x
_atom_site_fract_y
_atom_site_fract_z
Si Si1 0.914934 0.081145 0.208076
Si Si2 0.849065 0.586075 0.080413
Si Si3 0.497869 0.073011 0.573983
Si Si4 0.657678 0.425747 0.659697
Si Si5 0.344256 0.075404 0.071310
Si Si6 0.844580 0.080056 0.352548
Si Si7 0.418328 0.923598 0.200424
O O1 0.946777 0.250000 0.201118
O O2 0.848407 0.064652 0.269790
O O3 0.873885 0.035487 0.136018
O O4 0.991032 0.973310 0.227316
O O5 0.750000 0.598268 0.074812
O O6 0.885155 0.750000 0.100075
O O7 0.881440 0.537398 0.004482
O O8 0.498867 0.250000 0.568200
O O9 0.580970 0.011415 0.613764
O O10 0.500000 0.000000 0.500000
O O11 0.412414 0.025373 0.611785
O O12 0.750000 0.485344 0.635496
O O13 0.655172 0.250000 0.653321
O O14 0.646686 0.471496 0.739805
O O15 0.250000 0.011977 0.079762
O O16 0.344687 0.250000 0.083234
O O17 0.402527 0.000830 0.127905
O O18 0.750000 0.033974 0.375170
O O19 0.862908 0.250000 0.374684
O O20 0.416485 0.750000 0.188006
#
# Coordination Sequence:
#
# PCOD8245852 Si02
#       7
#     8   8   8   8   8   8   8
#     4  11  22  36  57  84 117 153 198 252 304 357
#     4   9  19  36  56  78 109 150 196 246 301 362
#     4  11  23  41  65  94 128 162 200 245 294 355
#     4   9  19  37  61  88 119 156 197 242 295 352
#     4   9  19  36  55  78 111 150 193 245 305 361
#     4  10  22  41  64  90 123 163 204 249 304 361
#     4  11  21  35  57  84 114 150 199 250 298 358
#
# _framework density 20.116873999999999
#
# number of rings (size 3 to 8) (size 9 to 14) (size 15 to 20)
#    0.000    2.000    1.429    3.000    0.000    4.286 
#    0.000    2.857    0.000    3.857    0.000    0.000 
#    0.000    0.000    0.000    0.000    0.000    0.000 
#
# Total GULP energy -694248.492091 kJ/mol
# GULP energy per Si atom -12397.294502 kJ/mol
# Density = 2.007109 g / cm^3
# Si number density = 20.116874 Si / 1000 Ang^3
#
#
#
# Elastic Constant Matrix: (Units=GPa)
#
#
# Indices 1 2 3 4 5 6 
#
# 1 112.9549 26.5429 54.0084 0.0000 0.0000 0.0000
# 2 26.5429 51.4413 50.8458 0.0000 0.0000 0.0000
# 3 54.0084 50.8458 128.5322 0.0000 0.0000 0.0000
# 4 0.0000 0.0000 0.0000 33.2880 0.0000 0.0000
# 5 0.0000 0.0000 0.0000 0.0000 27.0241 0.0000
# 6 0.0000 0.0000 0.0000 0.0000 0.0000 27.7358
#
#
#
# Elastic Compliance Matrix: (Units=1/GPa)
#
#
# Indices 1 2 3 4 5 6 
#
# 1 0.011185 -0.001849 -0.003969 0.000000 0.000000 0.000000
# 2 -0.001849 0.032227 -0.011972 0.000000 0.000000 0.000000
# 3 -0.003969 -0.011972 0.014184 0.000000 0.000000 0.000000
# 4 0.000000 0.000000 0.000000 0.030041 0.000000 0.000000
# 5 0.000000 0.000000 0.000000 0.000000 0.037004 0.000000
# 6 0.000000 0.000000 0.000000 0.000000 0.000000 0.036055
#
#
# Mechanical properties :
#
#
# Convention : Reuss Voigt Hill
#
# Bulk Modulus (GPa) = 45.41862 61.74695 53.58279
# Shear Modulus (GPa) = 24.55656 28.37832 26.46744
#
# Velocity S-wave (km/s) = 3.49763 3.75997 3.63117
# Velocity P-wave (km/s) = 6.24000 7.04348 6.65388
#
# Compressibility (1/GPa) = 0.02201740
#
# Stress axis : x y z
#
# Youngs Moduli (GPa) = 89.40508 31.03025 70.50415
#
# Poissons Ratio (x) = 0.05737 0.27980
# Poissons Ratio (y) = 0.16528 0.84405
# Poissons Ratio (z) = 0.35481 0.37148
#
# Static dielectric constant tensor:
#      x y z
#    x 3.800930 0.000000 0.000000 
#    y 0.000000 3.549190 0.000000 
#    z 0.000000 0.000000 3.795930 
# 
# 
# High freq. dielectric constant tensor:
#      x y z
#    x 1.787360 0.000000 0.000000 
#    y 0.000000 1.767900 0.000000 
#    z 0.000000 0.000000 1.790830 
# 
# From -- ./inp_files/30301.got.cif
#   From: 2010.03.12/outbox.cif.g09.slc.cpg/sg59_16_cif.got.tgz:30301.got - 2010.04.16 16:29:54.
