data_PCOD8245363
_publ_section_title
;
Structure prediction by ZEFSAII (Michael W. Deem and Ramdas Pophale) SiO2 
 PCOD8245363
Probable space group: P M M N
;
_chemical_formula_sum "Si O2"
_cell_formula_units_Z 48
_cell_length_a 8.845947
_cell_length_b 16.799555
_cell_length_c 16.367153
_cell_angle_alpha 90.000000
_cell_angle_beta 90.000000
_cell_angle_gamma 90.000000
_cell_volume 2432.289434
_symmetry_space_group_name_H-M "P M M N"
_symmetry_group_IT_number 59
_space_group.IT_coordinate_system_code '2'
_symmetry_cell_setting 'orthorhombic'
loop_
_space_group_symop_operation_xyz
x,y,z
1/2-x,1/2-y,z
1/2+x,-y,-z
-x,1/2+y,-z
-x,-y,-z
1/2+x,1/2+y,-z
1/2-x,y,z
x,1/2-y,z
loop_
_atom_site_type_symbol
_atom_site_label
_atom_site_fract_x
_atom_site_fract_y
_atom_site_fract_z
Si Si1 0.926829 0.916629 0.020917
Si Si2 0.429269 0.750000 0.299107
Si Si3 0.075800 0.542743 0.732195
Si Si4 0.581387 0.159456 0.124813
Si Si5 0.072436 0.923661 0.545993
Si Si6 0.570155 0.250000 0.517797
Si Si7 0.427381 0.894227 0.191382
O O1 0.750000 0.928197 0.029643
O O2 0.989715 0.883294 0.105510
O O3 0.963961 0.856757 0.947688
O O4 0.000000 0.000000 0.000000
O O5 0.250000 0.750000 0.303869
O O6 0.494595 0.750000 0.390321
O O7 0.489046 0.826309 0.251025
O O8 0.250000 0.514670 0.738089
O O9 0.040995 0.615619 0.791705
O O10 0.033121 0.568171 0.641118
O O11 0.964191 0.474980 0.762549
O O12 0.750000 0.135858 0.094339
O O13 0.571020 0.250000 0.149860
O O14 0.250000 0.928063 0.528055
O O15 0.011630 0.834609 0.520851
O O16 0.000000 0.000000 0.500000
O O17 0.750000 0.250000 0.512442
O O18 0.250000 0.887914 0.174716
#
# Coordination Sequence:
#
# PCOD8245363 Si02
#       7
#     8   4   8   8   8   4   8
#     4  12  24  40  60  85 116 154 199 245 298 354
#     4   9  20  36  57  86 117 152 198 242 288 347
#     4  10  21  37  59  88 119 154 197 246 294 352
#     4  10  22  39  60  85 119 159 200 245 293 349
#     4  10  21  37  61  90 121 157 202 248 302 358
#     4   9  18  36  61  88 119 158 200 244 290 361
#     4  11  22  38  61  87 117 157 198 243 297 354
#
# _framework density 19.734493000000001
#
# number of rings (size 3 to 8) (size 9 to 14) (size 15 to 20)
#    0.000    1.667    1.667    3.000    2.333    2.333 
#    0.000    1.667    0.000    4.000    0.000    0.000 
#    0.000    0.000    0.000    0.000    0.000    0.000 
#
# Total GULP energy -595103.361087 kJ/mol
# GULP energy per Si atom -12397.986689 kJ/mol
# Density = 1.968958 g / cm^3
# Si number density = 19.734493 Si / 1000 Ang^3
#
#
#
# Elastic Constant Matrix: (Units=GPa)
#
#
# Indices 1 2 3 4 5 6 
#
# 1 74.9581 32.8931 45.8966 0.0000 0.0000 0.0000
# 2 32.8931 140.9215 69.1844 0.0000 0.0000 0.0000
# 3 45.8966 69.1844 174.5843 0.0000 0.0000 0.0000
# 4 0.0000 0.0000 0.0000 74.7435 0.0000 0.0000
# 5 0.0000 0.0000 0.0000 0.0000 28.6485 0.0000
# 6 0.0000 0.0000 0.0000 0.0000 0.0000 14.9927
#
#
#
# Elastic Compliance Matrix: (Units=1/GPa)
#
#
# Indices 1 2 3 4 5 6 
#
# 1 0.016397 -0.002124 -0.003469 0.000000 0.000000 0.000000
# 2 -0.002124 0.009085 -0.003042 0.000000 0.000000 0.000000
# 3 -0.003469 -0.003042 0.007845 0.000000 0.000000 0.000000
# 4 0.000000 0.000000 0.000000 0.013379 0.000000 0.000000
# 5 0.000000 0.000000 0.000000 0.000000 0.034906 0.000000
# 6 0.000000 0.000000 0.000000 0.000000 0.000000 0.066699
#
#
# Mechanical properties :
#
#
# Convention : Reuss Voigt Hill
#
# Bulk Modulus (GPa) = 62.27593 76.26803 69.27198
# Shear Modulus (GPa) = 29.25108 39.84293 34.54700
#
# Velocity S-wave (km/s) = 3.85415 4.49815 4.18854
# Velocity P-wave (km/s) = 7.17157 8.10609 7.65311
#
# Compressibility (1/GPa) = 0.01605757
#
# Stress axis : x y z
#
# Youngs Moduli (GPa) = 60.98720 110.06676 127.46574
#
# Poissons Ratio (x) = 0.23382 0.44215
# Poissons Ratio (y) = 0.12956 0.38774
# Poissons Ratio (z) = 0.21155 0.33481
#
# Static dielectric constant tensor:
#      x y z
#    x 2.478620 0.000000 0.000000 
#    y 0.000000 3.707060 0.000000 
#    z 0.000000 0.000000 4.782890 
# 
# 
# High freq. dielectric constant tensor:
#      x y z
#    x 1.746510 0.000000 0.000000 
#    y 0.000000 1.782010 0.000000 
#    z 0.000000 0.000000 1.785980 
# 
# From -- ./inp_files/20605.got.cif
#   From: 2010.03.12/outbox.cif.g09.slc.cpg/sg59_11_cif.got.tgz:20605.got - 2010.04.16 16:29:54.
