data_PCOD8245152
_publ_section_title
;
Structure prediction by ZEFSAII (Michael W. Deem and Ramdas Pophale) SiO2 
 PCOD8245152
Probable space group: P M M N
;
_chemical_formula_sum "Si O2"
_cell_formula_units_Z 64
_cell_length_a 9.118502
_cell_length_b 14.363992
_cell_length_c 26.343078
_cell_angle_alpha 90.000000
_cell_angle_beta 90.000000
_cell_angle_gamma 90.000000
_cell_volume 3450.366035
_symmetry_space_group_name_H-M "P M M N"
_symmetry_group_IT_number 59
_space_group.IT_coordinate_system_code '2'
_symmetry_cell_setting 'orthorhombic'
loop_
_space_group_symop_operation_xyz
x,y,z
1/2-x,1/2-y,z
1/2+x,-y,-z
-x,1/2+y,-z
-x,-y,-z
1/2+x,1/2+y,-z
1/2-x,y,z
x,1/2-y,z
loop_
_atom_site_type_symbol
_atom_site_label
_atom_site_fract_x
_atom_site_fract_y
_atom_site_fract_z
Si Si1 0.080485 0.356063 0.095232
Si Si2 0.923860 0.500706 0.446255
Si Si3 0.578255 0.009501 0.823630
Si Si4 0.915119 0.139260 0.996234
Si Si5 0.076340 0.146358 0.635601
Si Si6 0.418164 0.139841 0.897055
Si Si7 0.077190 0.501431 0.717633
Si Si8 0.076560 0.646808 0.634191
O O1 0.250000 0.362163 0.079827
O O2 0.034929 0.250000 0.107781
O O3 0.043605 0.416615 0.144471
O O4 0.989584 0.397020 0.047819
O O5 0.750000 0.501210 0.453528
O O6 0.976497 0.591504 0.414668
O O7 0.976619 0.409198 0.415523
O O8 0.000000 0.500000 0.500000
O O9 0.750000 0.030969 0.821329
O O10 0.497751 0.097568 0.848218
O O11 0.516991 0.993598 0.767988
O O12 0.750000 0.100677 0.992958
O O13 0.918550 0.250000 0.996039
O O14 0.004212 0.101272 0.947884
O O15 0.250000 0.152276 0.634036
O O16 0.006474 0.250000 0.636447
O O17 0.030715 0.090818 0.686342
O O18 0.250000 0.107792 0.898269
O O19 0.432579 0.250000 0.892636
O O20 0.250000 0.500513 0.730238
O O21 0.032086 0.592029 0.685086
O O22 0.250000 0.653721 0.632146
O O23 0.005296 0.750000 0.634574
#
# Coordination Sequence:
#
# PCOD8245152 Si02
#       8
#     8   8   8   8   8   8   8   8
#     4   9  19  36  54  72  99 136 172 201 239 301
#     4   9  17  29  47  73 104 134 164 201 243 288
#     4  11  23  36  52  76 105 134 164 207 261 307
#     4   9  17  31  53  79 104 129 161 206 255 298
#     4   8  15  30  51  71  93 127 168 203 238 286
#     4  10  21  37  56  76 100 133 170 205 245 302
#     4   9  18  33  52  72  93 122 166 213 250 293
#     4   8  15  30  51  72  96 131 172 209 248 296
#
# _framework density 18.548756999999998
#
# number of rings (size 3 to 8) (size 9 to 14) (size 15 to 20)
#    0.000    2.875    0.000    2.625    0.000    5.250 
#    0.000    3.750    0.000    1.500    0.000    0.000 
#    0.000    0.000    0.000    0.000    0.000    0.000 
#
# Total GULP energy -793512.248504 kJ/mol
# GULP energy per Si atom -12398.628883 kJ/mol
# Density = 1.850654 g / cm^3
# Si number density = 18.548757 Si / 1000 Ang^3
#
#
#
# Elastic Constant Matrix: (Units=GPa)
#
#
# Indices 1 2 3 4 5 6 
#
# 1 83.8821 39.6222 65.4351 0.0000 0.0000 0.0000
# 2 39.6222 119.8107 67.2172 0.0000 0.0000 0.0000
# 3 65.4351 67.2172 169.4966 0.0000 0.0000 0.0000
# 4 0.0000 0.0000 0.0000 15.8597 0.0000 0.0000
# 5 0.0000 0.0000 0.0000 0.0000 39.1818 0.0000
# 6 0.0000 0.0000 0.0000 0.0000 0.0000 15.4847
#
#
#
# Elastic Compliance Matrix: (Units=1/GPa)
#
#
# Indices 1 2 3 4 5 6 
#
# 1 0.017664 -0.002593 -0.005791 0.000000 0.000000 0.000000
# 2 -0.002593 0.011115 -0.003407 0.000000 0.000000 0.000000
# 3 -0.005791 -0.003407 0.009487 0.000000 0.000000 0.000000
# 4 0.000000 0.000000 0.000000 0.063053 0.000000 0.000000
# 5 0.000000 0.000000 0.000000 0.000000 0.025522 0.000000
# 6 0.000000 0.000000 0.000000 0.000000 0.000000 0.064580
#
#
# Mechanical properties :
#
#
# Convention : Reuss Voigt Hill
#
# Bulk Modulus (GPa) = 68.10040 79.74871 73.92455
# Shear Modulus (GPa) = 22.73797 27.49957 25.11877
#
# Velocity S-wave (km/s) = 3.50501 3.85457 3.68394
# Velocity P-wave (km/s) = 7.29206 7.93081 7.61813
#
# Compressibility (1/GPa) = 0.01468420
#
# Stress axis : x y z
#
# Youngs Moduli (GPa) = 56.61371 89.96548 105.41139
#
# Poissons Ratio (x) = 0.23324 0.61044
# Poissons Ratio (y) = 0.14677 0.35915
# Poissons Ratio (z) = 0.32785 0.30653
#
# Static dielectric constant tensor:
#      x y z
#    x 3.202330 0.000000 0.000000 
#    y 0.000000 3.879350 0.000000 
#    z 0.000000 0.000000 3.357230 
# 
# 
# High freq. dielectric constant tensor:
#      x y z
#    x 1.694840 0.000000 0.000000 
#    y 0.000000 1.725380 0.000000 
#    z 0.000000 0.000000 1.719010 
# 
# From -- ./inp_files/31614.got.cif
#   From: 2010.03.12/outbox.cif.g09.slc.cpg/sg59_16_cif.got.tgz:31614.got - 2010.04.16 16:29:54.
