data_PCOD8245846
_publ_section_title
;
Structure prediction by ZEFSAII (Michael W. Deem and Ramdas Pophale) SiO2 
 PCOD8245846
Probable space group: P M M N
;
_chemical_formula_sum "Si O2"
_cell_formula_units_Z 56
_cell_length_a 8.778573
_cell_length_b 15.203425
_cell_length_c 21.283028
_cell_angle_alpha 90.000000
_cell_angle_beta 90.000000
_cell_angle_gamma 90.000000
_cell_volume 2840.526056
_symmetry_space_group_name_H-M "P M M N"
_symmetry_group_IT_number 59
_space_group.IT_coordinate_system_code '2'
_symmetry_cell_setting 'orthorhombic'
loop_
_space_group_symop_operation_xyz
x,y,z
1/2-x,1/2-y,z
1/2+x,-y,-z
-x,1/2+y,-z
-x,-y,-z
1/2+x,1/2+y,-z
1/2-x,y,z
x,1/2-y,z
loop_
_atom_site_type_symbol
_atom_site_label
_atom_site_fract_x
_atom_site_fract_y
_atom_site_fract_z
Si Si1 0.075831 0.847488 0.883770
Si Si2 0.930143 0.498193 0.211305
Si Si3 0.429285 0.404783 0.993338
Si Si4 0.924817 0.150077 0.865616
Si Si5 0.926404 0.851603 0.417960
Si Si6 0.070029 0.494845 0.345555
Si Si7 0.930983 0.847267 0.559394
O O1 0.250000 0.868154 0.903063
O O2 0.061832 0.750000 0.853839
O O3 0.017172 0.918943 0.833993
O O4 0.972185 0.848854 0.945605
O O5 0.750000 0.506424 0.214527
O O6 0.997349 0.589512 0.186573
O O7 0.994057 0.475933 0.279229
O O8 0.250000 0.412740 0.986289
O O9 0.492744 0.356979 0.932187
O O10 0.500000 0.500000 0.000000
O O11 0.750000 0.121223 0.873797
O O12 0.938271 0.250000 0.841494
O O13 0.750000 0.877891 0.410934
O O14 0.950966 0.750000 0.399983
O O15 0.985580 0.869632 0.488770
O O16 0.025677 0.909164 0.370488
O O17 0.250000 0.488845 0.338180
O O18 0.005435 0.420384 0.392995
O O19 0.750000 0.846311 0.559632
O O20 0.991133 0.750000 0.579030
#
# Coordination Sequence:
#
# PCOD8245846 Si02
#       7
#     8   8   8   8   8   8   8
#     4  10  22  41  63  87 116 151 192 241 295 345
#     4  11  24  41  60  82 114 158 199 238 282 342
#     4  12  23  37  62  92 122 154 191 238 290 345
#     4  11  24  42  64  89 118 151 190 242 298 348
#     4   9  18  35  59  84 112 148 190 234 282 341
#     4  11  22  35  56  84 116 151 189 237 288 338
#     4   8  16  33  57  85 115 148 187 232 283 339
#
# _framework density 19.714659000000001
#
# number of rings (size 3 to 8) (size 9 to 14) (size 15 to 20)
#    0.000    1.714    1.429    4.286    0.000    5.143 
#    0.000    0.714    0.000    3.000    0.000    0.000 
#    0.000    0.000    0.000    0.000    0.000    0.000 
#
# Total GULP energy -694572.415799 kJ/mol
# GULP energy per Si atom -12403.078854 kJ/mol
# Density = 1.966979 g / cm^3
# Si number density = 19.714659 Si / 1000 Ang^3
#
#
#
# Elastic Constant Matrix: (Units=GPa)
#
#
# Indices 1 2 3 4 5 6 
#
# 1 83.9639 26.7890 27.1462 0.0000 0.0000 0.0000
# 2 26.7890 97.8565 29.9539 0.0000 0.0000 0.0000
# 3 27.1462 29.9539 89.7441 0.0000 0.0000 0.0000
# 4 0.0000 0.0000 0.0000 16.5682 0.0000 0.0000
# 5 0.0000 0.0000 0.0000 0.0000 26.6242 0.0000
# 6 0.0000 0.0000 0.0000 0.0000 0.0000 26.3816
#
#
#
# Elastic Compliance Matrix: (Units=1/GPa)
#
#
# Indices 1 2 3 4 5 6 
#
# 1 0.013855 -0.002796 -0.003258 0.000000 0.000000 0.000000
# 2 -0.002796 0.011946 -0.003142 0.000000 0.000000 0.000000
# 3 -0.003258 -0.003142 0.013177 0.000000 0.000000 0.000000
# 4 0.000000 0.000000 0.000000 0.060357 0.000000 0.000000
# 5 0.000000 0.000000 0.000000 0.000000 0.037560 0.000000
# 6 0.000000 0.000000 0.000000 0.000000 0.000000 0.037905
#
#
# Mechanical properties :
#
#
# Convention : Reuss Voigt Hill
#
# Bulk Modulus (GPa) = 48.57264 48.81584 48.69424
# Shear Modulus (GPa) = 24.99346 26.42650 25.70998
#
# Velocity S-wave (km/s) = 3.56442 3.66519 3.61516
# Velocity P-wave (km/s) = 6.45225 6.53654 6.49453
#
# Compressibility (1/GPa) = 0.02058772
#
# Stress axis : x y z
#
# Youngs Moduli (GPa) = 72.17527 83.70980 75.89099
#
# Poissons Ratio (x) = 0.23403 0.24724
# Poissons Ratio (y) = 0.20178 0.23842
# Poissons Ratio (z) = 0.23514 0.26298
#
# Static dielectric constant tensor:
#      x y z
#    x 3.519490 0.000000 0.000000 
#    y 0.000000 3.789870 0.000000 
#    z 0.000000 0.000000 3.619870 
# 
# 
# High freq. dielectric constant tensor:
#      x y z
#    x 1.759470 0.000000 0.000000 
#    y 0.000000 1.782270 0.000000 
#    z 0.000000 0.000000 1.764150 
# 
# From -- ./inp_files/29010.got.cif
#   From: 2010.03.12/outbox.cif.g09.slc.cpg/sg59_15_cif.got.tgz:29010.got - 2010.04.16 16:29:54.
