data_PCOD8245222
_publ_section_title
;
Structure prediction by ZEFSAII (Michael W. Deem and Ramdas Pophale) SiO2 
 PCOD8245222
Probable space group: P M M N
;
_chemical_formula_sum "Si O2"
_cell_formula_units_Z 56
_cell_length_a 8.977554
_cell_length_b 14.082117
_cell_length_c 22.537697
_cell_angle_alpha 90.000000
_cell_angle_beta 90.000000
_cell_angle_gamma 90.000000
_cell_volume 2849.282497
_symmetry_space_group_name_H-M "P M M N"
_symmetry_group_IT_number 59
_space_group.IT_coordinate_system_code '2'
_symmetry_cell_setting 'orthorhombic'
loop_
_space_group_symop_operation_xyz
x,y,z
1/2-x,1/2-y,z
1/2+x,-y,-z
-x,1/2+y,-z
-x,-y,-z
1/2+x,1/2+y,-z
1/2-x,y,z
x,1/2-y,z
loop_
_atom_site_type_symbol
_atom_site_label
_atom_site_fract_x
_atom_site_fract_y
_atom_site_fract_z
Si Si1 0.074606 0.359633 0.703324
Si Si2 0.925008 0.531216 0.414251
Si Si3 0.574096 0.858529 0.531706
Si Si4 0.575538 0.471895 0.808340
Si Si5 0.416079 0.353171 0.898022
Si Si6 0.578750 0.357040 0.144172
Si Si7 0.919783 0.591477 0.975249
O O1 0.250000 0.368915 0.713186
O O2 0.027890 0.250000 0.695360
O O3 0.022202 0.418046 0.645777
O O4 0.992061 0.403399 0.759279
O O5 0.750000 0.513815 0.415005
O O6 0.973431 0.601469 0.467378
O O7 0.002277 0.427804 0.418987
O O8 0.750000 0.860889 0.539877
O O9 0.515401 0.750000 0.538577
O O10 0.750000 0.480083 0.799201
O O11 0.536031 0.428100 0.873029
O O12 0.503846 0.576807 0.807360
O O13 0.250000 0.389210 0.880543
O O14 0.445766 0.250000 0.868865
O O15 0.426020 0.338089 0.968690
O O16 0.750000 0.388275 0.138874
O O17 0.563576 0.250000 0.167975
O O18 0.505795 0.362955 0.079485
O O19 0.750000 0.570344 0.955384
O O20 0.000000 0.500000 0.000000
#
# Coordination Sequence:
#
# PCOD8245222 Si02
#       7
#     8   8   8   8   8   8   8
#     4  10  21  39  62  84 111 150 192 234 281 334
#     4   9  18  33  55  84 115 151 196 238 278 331
#     4   9  17  31  53  83 120 157 191 231 281 333
#     4  12  25  39  58  83 112 144 182 233 285 336
#     4  10  21  37  57  80 110 147 182 219 269 331
#     4  11  24  42  63  84 109 145 188 233 283 341
#     4  11  21  35  58  86 115 147 182 223 277 336
#
# _framework density 19.654069
#
# number of rings (size 3 to 8) (size 9 to 14) (size 15 to 20)
#    0.000    1.714    1.429    3.429    0.000    7.143 
#    0.000    0.714    0.000    3.429    0.000    0.000 
#    0.000    0.000    0.000    0.000    0.000    0.000 
#
# Total GULP energy -694350.404061 kJ/mol
# GULP energy per Si atom -12399.114358 kJ/mol
# Density = 1.960934 g / cm^3
# Si number density = 19.654069 Si / 1000 Ang^3
#
#
#
# Elastic Constant Matrix: (Units=GPa)
#
#
# Indices 1 2 3 4 5 6 
#
# 1 85.5926 58.4165 37.3595 0.0000 0.0000 0.0000
# 2 58.4165 154.1443 43.2565 0.0000 0.0000 0.0000
# 3 37.3595 43.2565 76.4378 0.0000 0.0000 0.0000
# 4 0.0000 0.0000 0.0000 31.8409 0.0000 0.0000
# 5 0.0000 0.0000 0.0000 0.0000 26.7402 0.0000
# 6 0.0000 0.0000 0.0000 0.0000 0.0000 25.9755
#
#
#
# Elastic Compliance Matrix: (Units=1/GPa)
#
#
# Indices 1 2 3 4 5 6 
#
# 1 0.017662 -0.005077 -0.005759 0.000000 0.000000 0.000000
# 2 -0.005077 0.009172 -0.002709 0.000000 0.000000 0.000000
# 3 -0.005759 -0.002709 0.017430 0.000000 0.000000 0.000000
# 4 0.000000 0.000000 0.000000 0.031406 0.000000 0.000000
# 5 0.000000 0.000000 0.000000 0.000000 0.037397 0.000000
# 6 0.000000 0.000000 0.000000 0.000000 0.000000 0.038498
#
#
# Mechanical properties :
#
#
# Convention : Reuss Voigt Hill
#
# Bulk Modulus (GPa) = 58.22881 66.02661 62.12771
# Shear Modulus (GPa) = 27.11783 28.72081 27.91932
#
# Velocity S-wave (km/s) = 3.71854 3.82686 3.77309
# Velocity P-wave (km/s) = 6.93742 7.29341 7.11764
#
# Compressibility (1/GPa) = 0.01717363
#
# Stress axis : x y z
#
# Youngs Moduli (GPa) = 56.61761 109.03056 57.37132
#
# Poissons Ratio (x) = 0.55359 0.33042
# Poissons Ratio (y) = 0.28747 0.15540
# Poissons Ratio (z) = 0.32608 0.29533
#
# Static dielectric constant tensor:
#      x y z
#    x 3.570970 0.000000 0.000000 
#    y 0.000000 3.772000 0.000000 
#    z 0.000000 0.000000 3.529490 
# 
# 
# High freq. dielectric constant tensor:
#      x y z
#    x 1.759960 0.000000 0.000000 
#    y 0.000000 1.780550 0.000000 
#    z 0.000000 0.000000 1.746680 
# 
# From -- ./inp_files/29126.got.cif
#   From: 2010.03.12/outbox.cif.g09.slc.cpg/sg59_15_cif.got.tgz:29126.got - 2010.04.16 16:29:54.
