data_PCOD8245296
_publ_section_title
;
Structure prediction by ZEFSAII (Michael W. Deem and Ramdas Pophale) SiO2 
 PCOD8245296
Probable space group: P M M N
;
_chemical_formula_sum "Si O2"
_cell_formula_units_Z 40
_cell_length_a 9.282044
_cell_length_b 14.308133
_cell_length_c 14.802341
_cell_angle_alpha 90.000000
_cell_angle_beta 90.000000
_cell_angle_gamma 90.000000
_cell_volume 1965.879962
_symmetry_space_group_name_H-M "P M M N"
_symmetry_group_IT_number 59
_space_group.IT_coordinate_system_code '2'
_symmetry_cell_setting 'orthorhombic'
loop_
_space_group_symop_operation_xyz
x,y,z
1/2-x,1/2-y,z
1/2+x,-y,-z
-x,1/2+y,-z
-x,-y,-z
1/2+x,1/2+y,-z
1/2-x,y,z
x,1/2-y,z
loop_
_atom_site_type_symbol
_atom_site_label
_atom_site_fract_x
_atom_site_fract_y
_atom_site_fract_z
Si Si1 0.920371 0.510281 0.406005
Si Si2 0.085803 0.639073 0.276379
Si Si3 0.911441 0.638860 0.105868
Si Si4 0.582903 0.144327 0.262082
Si Si5 0.912597 0.860727 0.907364
O O1 0.750000 0.525200 0.419857
O O2 0.954618 0.417015 0.349215
O O3 0.000000 0.500000 0.500000
O O4 0.987444 0.599705 0.356408
O O5 0.250000 0.603680 0.285511
O O6 0.077718 0.750000 0.282946
O O7 0.023038 0.602222 0.180783
O O8 0.750000 0.601969 0.128202
O O9 0.908008 0.750000 0.105256
O O10 0.962084 0.602848 0.006643
O O11 0.750000 0.143836 0.240692
O O12 0.527889 0.250000 0.281359
O O13 0.509576 0.098232 0.173380
O O14 0.750000 0.892450 0.888929
O O15 0.927220 0.750000 0.905867
#
# Coordination Sequence:
#
# PCOD8245296 Si02
#       5
#     8   8   8   8   8
#     4  11  24  41  60  82 109 142 182 230 284 337
#     4  10  21  37  58  84 113 146 185 229 275 324
#     4   8  14  27  49  78 112 147 181 219 265 317
#     4   9  19  36  57  81 110 143 178 220 271 325
#     4   8  14  26  48  79 112 145 180 218 262 315
#
# _framework density 20.347121000000001
#
# number of rings (size 3 to 8) (size 9 to 14) (size 15 to 20)
#    0.000    2.800    0.000    2.400    0.000    4.400 
#    0.000    7.000    0.000    0.000    0.000    0.000 
#    0.000    0.000    0.000    0.000    0.000    0.000 
#
# Total GULP energy -495866.687206 kJ/mol
# GULP energy per Si atom -12396.667180 kJ/mol
# Density = 2.030081 g / cm^3
# Si number density = 20.347121 Si / 1000 Ang^3
#
#
#
# Elastic Constant Matrix: (Units=GPa)
#
#
# Indices 1 2 3 4 5 6 
#
# 1 122.5711 36.8036 97.7214 0.0000 0.0000 0.0000
# 2 36.8036 42.7356 35.8461 0.0000 0.0000 0.0000
# 3 97.7214 35.8461 190.8299 0.0000 0.0000 0.0000
# 4 0.0000 0.0000 0.0000 433.9243 0.0000 0.0000
# 5 0.0000 0.0000 0.0000 0.0000 45.9780 0.0000
# 6 0.0000 0.0000 0.0000 0.0000 0.0000 22.8500
#
#
#
# Elastic Compliance Matrix: (Units=1/GPa)
#
#
# Indices 1 2 3 4 5 6 
#
# 1 0.015854 -0.008123 -0.006593 0.000000 0.000000 0.000000
# 2 -0.008123 0.031938 -0.001840 0.000000 0.000000 0.000000
# 3 -0.006593 -0.001840 0.008962 0.000000 0.000000 0.000000
# 4 0.000000 0.000000 0.000000 0.002305 0.000000 0.000000
# 5 0.000000 0.000000 0.000000 0.000000 0.021750 0.000000
# 6 0.000000 0.000000 0.000000 0.000000 0.000000 0.043764
#
#
# Mechanical properties :
#
#
# Convention : Reuss Voigt Hill
#
# Bulk Modulus (GPa) = 42.29577 77.43096 59.86337
# Shear Modulus (GPa) = 30.19991 112.93483 71.56737
#
# Velocity S-wave (km/s) = 3.85676 7.45819 5.93714
# Velocity P-wave (km/s) = 6.37691 10.59734 8.74553
#
# Compressibility (1/GPa) = 0.02364303
#
# Stress axis : x y z
#
# Youngs Moduli (GPa) = 63.07702 31.31021 111.58516
#
# Poissons Ratio (x) = 0.25434 0.73563
# Poissons Ratio (y) = 0.51239 0.20527
# Poissons Ratio (z) = 0.41584 0.05760
#
# Static dielectric constant tensor:
#      x y z
#    x 3.801630 0.000000 0.000000 
#    y 0.000000 3.540900 0.000000 
#    z 0.000000 0.000000 3.996730 
# 
# 
# High freq. dielectric constant tensor:
#      x y z
#    x 1.794000 0.000000 0.000000 
#    y 0.000000 1.781080 0.000000 
#    z 0.000000 0.000000 1.797580 
# 
# From -- ./inp_files/19842.got.cif
#   From: 2010.03.12/outbox.cif.g09.slc.cpg/sg59_10_cif.got.tgz:19842.got - 2010.04.16 16:29:54.
