data_PCOD8245919
_publ_section_title
;
Structure prediction by ZEFSAII (Michael W. Deem and Ramdas Pophale) SiO2 
 PCOD8245919
Probable space group: P M M N
;
_chemical_formula_sum "Si O2"
_cell_formula_units_Z 56
_cell_length_a 8.699500
_cell_length_b 20.427458
_cell_length_c 14.570818
_cell_angle_alpha 90.000000
_cell_angle_beta 90.000000
_cell_angle_gamma 90.000000
_cell_volume 2589.360700
_symmetry_space_group_name_H-M "P M M N"
_symmetry_group_IT_number 59
_space_group.IT_coordinate_system_code '2'
_symmetry_cell_setting 'orthorhombic'
loop_
_space_group_symop_operation_xyz
x,y,z
1/2-x,1/2-y,z
1/2+x,-y,-z
-x,1/2+y,-z
-x,-y,-z
1/2+x,1/2+y,-z
1/2-x,y,z
x,1/2-y,z
loop_
_atom_site_type_symbol
_atom_site_label
_atom_site_fract_x
_atom_site_fract_y
_atom_site_fract_z
Si Si1 0.429967 0.536807 0.653918
Si Si2 0.432016 0.825707 0.129772
Si Si3 0.079713 0.069260 0.002998
Si Si4 0.080303 0.750000 0.804541
Si Si5 0.068756 0.376607 0.492512
Si Si6 0.921825 0.250000 0.411338
Si Si7 0.568326 0.398664 0.684684
Si Si8 0.079890 0.378582 0.199286
O O1 0.250000 0.521851 0.645196
O O2 0.492368 0.559237 0.554239
O O3 0.517677 0.473936 0.693538
O O4 0.460587 0.594585 0.725881
O O5 0.250000 0.826411 0.123640
O O6 0.491921 0.750000 0.122162
O O7 0.485604 0.857310 0.226600
O O8 0.493314 0.871074 0.047391
O O9 0.250000 0.065293 0.959478
O O10 0.090752 0.076576 0.111459
O O11 0.000000 0.000000 0.000000
O O12 0.250000 0.750000 0.849735
O O13 0.094302 0.750000 0.696213
O O14 0.984430 0.811089 0.839766
O O15 0.250000 0.385693 0.489940
O O16 0.018664 0.312761 0.438516
O O17 0.013400 0.367829 0.596467
O O18 0.750000 0.250000 0.455781
O O19 0.750000 0.394817 0.672162
O O20 0.250000 0.370878 0.244468
#
# Coordination Sequence:
#
# PCOD8245919 Si02
#       8
#     8   8   8   4   8   4   8   8
#     4  12  24  41  64  95 131 169 216 267 322 384
#     4  10  24  46  70  98 131 174 222 273 331 393
#     4  11  25  44  69 100 133 172 215 269 328 390
#     4  11  23  39  63  94 126 167 212 256 315 381
#     4  12  25  41  64  95 129 170 217 266 324 383
#     4  11  23  41  63  92 128 167 214 262 317 381
#     4  11  24  43  67  93 128 171 218 270 326 383
#     4  11  24  41  64  94 130 167 208 257 320 384
#
# _framework density 21.626961000000001
#
# number of rings (size 3 to 8) (size 9 to 14) (size 15 to 20)
#    0.000    0.857    1.429    5.571    2.000    7.714 
#    0.000    0.000    0.000    0.000    0.000    0.000 
#    0.000    0.000    0.000    0.000    0.000    0.000 
#
# Total GULP energy -694443.751361 kJ/mol
# GULP energy per Si atom -12400.781274 kJ/mol
# Density = 2.157774 g / cm^3
# Si number density = 21.626961 Si / 1000 Ang^3
#
#
#
# Elastic Constant Matrix: (Units=GPa)
#
#
# Indices 1 2 3 4 5 6 
#
# 1 97.6267 26.7042 27.2785 0.0000 0.0000 0.0000
# 2 26.7042 130.7568 17.2147 0.0000 0.0000 0.0000
# 3 27.2785 17.2147 76.8344 0.0000 0.0000 0.0000
# 4 0.0000 0.0000 0.0000 35.3632 0.0000 0.0000
# 5 0.0000 0.0000 0.0000 0.0000 33.2424 0.0000
# 6 0.0000 0.0000 0.0000 0.0000 0.0000 37.8041
#
#
#
# Elastic Compliance Matrix: (Units=1/GPa)
#
#
# Indices 1 2 3 4 5 6 
#
# 1 0.011820 -0.001918 -0.003767 0.000000 0.000000 0.000000
# 2 -0.001918 0.008191 -0.001154 0.000000 0.000000 0.000000
# 3 -0.003767 -0.001154 0.014611 0.000000 0.000000 0.000000
# 4 0.000000 0.000000 0.000000 0.028278 0.000000 0.000000
# 5 0.000000 0.000000 0.000000 0.000000 0.030082 0.000000
# 6 0.000000 0.000000 0.000000 0.000000 0.000000 0.026452
#
#
# Mechanical properties :
#
#
# Convention : Reuss Voigt Hill
#
# Bulk Modulus (GPa) = 47.74577 49.73476 48.74027
# Shear Modulus (GPa) = 35.69013 36.88331 36.28672
#
# Velocity S-wave (km/s) = 4.06675 4.13417 4.10060
# Velocity P-wave (km/s) = 6.64651 6.77016 6.70862
#
# Compressibility (1/GPa) = 0.02094426
#
# Stress axis : x y z
#
# Youngs Moduli (GPa) = 84.60045 122.07787 68.44185
#
# Poissons Ratio (x) = 0.23416 0.25781
# Poissons Ratio (y) = 0.16227 0.07900
# Poissons Ratio (z) = 0.31867 0.14092
#
# Static dielectric constant tensor:
#      x y z
#    x 4.149340 0.000000 0.000000 
#    y 0.000000 3.977000 0.000000 
#    z 0.000000 0.000000 3.984330 
# 
# 
# High freq. dielectric constant tensor:
#      x y z
#    x 1.857970 0.000000 0.000000 
#    y 0.000000 1.862440 0.000000 
#    z 0.000000 0.000000 1.853400 
# 
# From -- ./inp_files/21127.got.cif
#   From: 2010.03.12/outbox.cif.g09.slc.cpg/sg59_11_cif.got.tgz:21127.got - 2010.04.16 16:29:54.
