data_PCOD8245828
_publ_section_title
;
Structure prediction by ZEFSAII (Michael W. Deem and Ramdas Pophale) SiO2 
 PCOD8245828
Probable space group: P M M N
;
_chemical_formula_sum "Si O2"
_cell_formula_units_Z 64
_cell_length_a 8.715081
_cell_length_b 16.088127
_cell_length_c 22.197413
_cell_angle_alpha 90.000000
_cell_angle_beta 90.000000
_cell_angle_gamma 90.000000
_cell_volume 3112.284403
_symmetry_space_group_name_H-M "P M M N"
_symmetry_group_IT_number 59
_space_group.IT_coordinate_system_code '2'
_symmetry_cell_setting 'orthorhombic'
loop_
_space_group_symop_operation_xyz
x,y,z
1/2-x,1/2-y,z
1/2+x,-y,-z
-x,1/2+y,-z
-x,-y,-z
1/2+x,1/2+y,-z
1/2-x,y,z
x,1/2-y,z
loop_
_atom_site_type_symbol
_atom_site_label
_atom_site_fract_x
_atom_site_fract_y
_atom_site_fract_z
Si Si1 0.425612 0.845528 0.267092
Si Si2 0.430245 0.346069 0.858611
Si Si3 0.432575 0.503078 0.065997
Si Si4 0.572088 0.436561 0.611363
Si Si5 0.069657 0.344012 0.140177
Si Si6 0.082127 0.157132 0.509342
Si Si7 0.428659 0.607008 0.608627
Si Si8 0.081098 0.652855 0.738029
O O1 0.250000 0.865221 0.249924
O O2 0.447139 0.750000 0.284619
O O3 0.529615 0.869815 0.210135
O O4 0.479004 0.896723 0.325309
O O5 0.250000 0.354114 0.868551
O O6 0.483276 0.250000 0.872284
O O7 0.511844 0.412313 0.901913
O O8 0.250000 0.505025 0.064621
O O9 0.492641 0.416989 0.096637
O O10 0.500000 0.500000 0.000000
O O11 0.750000 0.462933 0.613195
O O12 0.545480 0.377642 0.554537
O O13 0.457614 0.510855 0.597090
O O14 0.250000 0.338724 0.135238
O O15 0.003220 0.250000 0.125544
O O16 0.026206 0.374991 0.207043
O O17 0.250000 0.111713 0.512240
O O18 0.108006 0.250000 0.530246
O O19 0.019090 0.158071 0.441432
O O20 0.250000 0.630314 0.605502
O O21 0.496249 0.627384 0.674849
O O22 0.250000 0.611153 0.744978
O O23 0.100900 0.750000 0.739277
#
# Coordination Sequence:
#
# PCOD8245828 Si02
#       8
#     8   8   8   8   8   8   8   8
#     4   9  19  37  60  86 116 152 195 242 295 356
#     4  10  22  40  63  91 125 165 208 257 310 363
#     4  11  24  41  63  93 127 165 208 252 305 366
#     4  11  23  38  58  84 116 152 192 240 296 355
#     4   9  20  39  62  88 121 160 201 248 301 359
#     4  11  24  41  60  81 108 146 193 244 297 356
#     4  11  23  38  57  83 116 152 191 239 294 351
#     4   9  19  36  58  85 115 149 191 238 289 346
#
# _framework density 20.563673999999999
#
# number of rings (size 3 to 8) (size 9 to 14) (size 15 to 20)
#    0.000    1.875    0.000    3.000    1.750    6.250 
#    0.000    3.750    0.000    0.000    0.000    0.000 
#    0.000    0.000    0.000    0.000    0.000    0.000 
#
# Total GULP energy -793347.797475 kJ/mol
# GULP energy per Si atom -12396.059336 kJ/mol
# Density = 2.051687 g / cm^3
# Si number density = 20.563674 Si / 1000 Ang^3
#
#
#
# Elastic Constant Matrix: (Units=GPa)
#
#
# Indices 1 2 3 4 5 6 
#
# 1 56.4418 27.6846 29.8635 0.0000 0.0000 0.0000
# 2 27.6846 75.3015 56.8827 0.0000 0.0000 0.0000
# 3 29.8635 56.8827 140.1581 0.0000 0.0000 0.0000
# 4 0.0000 0.0000 0.0000 38.8054 0.0000 0.0000
# 5 0.0000 0.0000 0.0000 0.0000 -46.3027 0.0000
# 6 0.0000 0.0000 0.0000 0.0000 0.0000 23.1006
#
#
#
# Elastic Compliance Matrix: (Units=1/GPa)
#
#
# Indices 1 2 3 4 5 6 
#
# 1 0.022007 -0.006560 -0.002027 0.000000 0.000000 0.000000
# 2 -0.006560 0.021107 -0.007168 0.000000 0.000000 0.000000
# 3 -0.002027 -0.007168 0.010476 0.000000 0.000000 0.000000
# 4 0.000000 0.000000 0.000000 0.025770 0.000000 0.000000
# 5 0.000000 0.000000 0.000000 0.000000 -0.021597 0.000000
# 6 0.000000 0.000000 0.000000 0.000000 0.000000 0.043289
#
#
# Mechanical properties :
#
#
# Convention : Reuss Voigt Hill
#
# Bulk Modulus (GPa) = 45.29032 55.64033 50.46532
# Shear Modulus (GPa) = 35.73428 13.61869 24.67649
#
# Velocity S-wave (km/s) = 4.17314 2.57625 3.46787
# Velocity P-wave (km/s) = 6.72996 5.99715 6.37409
#
# Compressibility (1/GPa) = 0.02207978
#
# Stress axis : x y z
#
# Youngs Moduli (GPa) = 45.43924 47.37829 95.45721
#
# Poissons Ratio (x) = 0.31080 0.19347
# Poissons Ratio (y) = 0.29808 0.68427
# Poissons Ratio (z) = 0.09209 0.33962
#
# Static dielectric constant tensor:
#      x y z
#    x 3.626890 0.000000 0.000000 
#    y 0.000000 3.915440 0.000000 
#    z 0.000000 0.000000 3.891520 
# 
# 
# High freq. dielectric constant tensor:
#      x y z
#    x 1.799620 0.000000 0.000000 
#    y 0.000000 1.807940 0.000000 
#    z 0.000000 0.000000 1.807320 
# 
# From -- ./inp_files/29557.got.cif
#   From: 2010.03.12/outbox.cif.g09.slc.cpg/sg59_15_cif.got.tgz:29557.got - 2010.04.16 16:29:54.
