data_PCOD8245922
_publ_section_title
;
Structure prediction by ZEFSAII (Michael W. Deem and Ramdas Pophale) SiO2 
 PCOD8245922
Probable space group: P M M N
;
_chemical_formula_sum "Si O2"
_cell_formula_units_Z 52
_cell_length_a 12.180656
_cell_length_b 31.741204
_cell_length_c 7.401768
_cell_angle_alpha 90.000000
_cell_angle_beta 90.000000
_cell_angle_gamma 90.000000
_cell_volume 2861.735843
_symmetry_space_group_name_H-M "P M M N"
_symmetry_group_IT_number 59
_space_group.IT_coordinate_system_code '2'
_symmetry_cell_setting 'orthorhombic'
loop_
_space_group_symop_operation_xyz
x,y,z
1/2-x,1/2-y,z
1/2+x,-y,-z
-x,1/2+y,-z
-x,-y,-z
1/2+x,1/2+y,-z
1/2-x,y,z
x,1/2-y,z
loop_
_atom_site_type_symbol
_atom_site_label
_atom_site_fract_x
_atom_site_fract_y
_atom_site_fract_z
Si Si1 0.750000 0.067332 0.539306
Si Si2 0.750000 0.996622 0.250001
Si Si3 0.250000 0.932668 0.039304
Si Si4 0.872632 0.296054 0.464068
Si Si5 0.628565 0.915778 0.249999
Si Si6 0.627368 0.203946 0.035932
Si Si7 0.968388 0.118447 0.041357
Si Si8 0.468388 0.618447 0.541356
O O1 0.750000 0.056282 0.750001
O O2 0.644110 0.093641 0.484307
O O3 0.750000 0.023788 0.431435
O O4 0.641497 0.966722 0.250001
O O5 0.750000 0.023788 0.068566
O O6 0.355889 0.906359 0.984306
O O7 0.750000 0.302096 0.543621
O O8 0.918680 0.250000 0.524707
O O9 0.865375 0.298611 0.250000
O O10 0.950830 0.333707 0.532390
O O11 0.750000 0.894565 0.249999
O O12 0.565518 0.902420 0.070172
O O13 0.565518 0.902420 0.429827
O O14 0.750000 0.197904 0.956379
O O15 0.581321 0.250000 0.975293
O O16 0.549169 0.166293 0.967611
O O17 0.003744 0.117673 0.250001
#
# Coordination Sequence:
#
# PCOD8245922 Si02
#       8
#     4   4   4   8   8   8   8   8
#     4  12  22  38  63  93 117 149 186 241 305 370
#     4  10  26  46  56  86 116 144 216 248 292 360
#     4  12  22  38  63  93 117 149 186 241 305 370
#     4   8  14  26  51  90 127 151 180 226 288 363
#     4  10  26  45  56  83 113 157 209 254 283 348
#     4   8  14  26  51  90 127 151 180 226 288 363
#     4  11  20  37  65  87 121 158 191 237 300 352
#     4  11  20  37  65  87 121 158 191 237 300 352
#
# _framework density 18.170788999999999
#
# number of rings (size 3 to 8) (size 9 to 14) (size 15 to 20)
#    0.462    1.538    4.615    0.923    0.000    3.077 
#    0.000    0.769    0.000    4.615    0.000    4.308 
#    0.000    0.000    0.000    0.000    0.000    0.000 
#
# Total GULP energy -644481.688471 kJ/mol
# GULP energy per Si atom -12393.878624 kJ/mol
# Density = 1.812943 g / cm^3
# Si number density = 18.170789 Si / 1000 Ang^3
#
#
#
# Elastic Constant Matrix: (Units=GPa)
#
#
# Indices 1 2 3 4 5 6 
#
# 1 110.1870 60.1362 36.0449 0.0000 0.0000 0.0000
# 2 60.1362 168.5651 51.5820 0.0000 0.0000 0.0000
# 3 36.0449 51.5820 104.0006 0.0000 0.0000 0.0000
# 4 0.0000 0.0000 0.0000 -10.9765 0.0000 0.0000
# 5 0.0000 0.0000 0.0000 0.0000 6.1862 0.0000
# 6 0.0000 0.0000 0.0000 0.0000 0.0000 -8.4716
#
#
#
# Elastic Compliance Matrix: (Units=1/GPa)
#
#
# Indices 1 2 3 4 5 6 
#
# 1 0.011736 -0.003469 -0.002347 0.000000 0.000000 0.000000
# 2 -0.003469 0.008019 -0.002775 0.000000 0.000000 0.000000
# 3 -0.002347 -0.002775 0.011805 0.000000 0.000000 0.000000
# 4 0.000000 0.000000 0.000000 -0.091104 0.000000 0.000000
# 5 0.000000 0.000000 0.000000 0.000000 0.161650 0.000000
# 6 0.000000 0.000000 0.000000 0.000000 0.000000 -0.118042
#
#
# Mechanical properties :
#
#
# Convention : Reuss Voigt Hill
#
# Bulk Modulus (GPa) = 69.54763 75.36430 72.45597
# Shear Modulus (GPa) = 827.79945 13.01360 420.40653
#
# Velocity S-wave (km/s) = 21.36715 2.67906 15.22715
# Velocity P-wave (km/s) = 25.43811 7.15090 18.68466
#
# Compressibility (1/GPa) = 0.01437864
#
# Stress axis : x y z
#
# Youngs Moduli (GPa) = 85.20468 124.70212 84.70825
#
# Poissons Ratio (x) = 0.43256 0.19883
# Poissons Ratio (y) = 0.29555 0.23507
# Poissons Ratio (z) = 0.20000 0.34606
#
# Static dielectric constant tensor:
#      x y z
#    x 2.804480 0.000000 0.000000 
#    y 0.000000 3.744130 0.000000 
#    z 0.000000 0.000000 3.318660 
# 
# 
# High freq. dielectric constant tensor:
#      x y z
#    x 1.664580 0.000000 0.000000 
#    y 0.000000 1.716940 0.000000 
#    z 0.000000 0.000000 1.708870 
# 
# From -- ./inp_files/7951.got.cif
#   From: 2010.03.12/outbox.cif.g09.slc.cpg/sg59_4_cif.got.tgz:7951.got - 2010.04.16 16:29:54.
