data_PCOD8245674
_publ_section_title
;
Structure prediction by ZEFSAII (Michael W. Deem and Ramdas Pophale) SiO2 
 PCOD8245674
Probable space group: P M M N
;
_chemical_formula_sum "Si O2"
_cell_formula_units_Z 48
_cell_length_a 17.109002
_cell_length_b 9.795701
_cell_length_c 14.642540
_cell_angle_alpha 90.000000
_cell_angle_beta 90.000000
_cell_angle_gamma 90.000000
_cell_volume 2454.011630
_symmetry_space_group_name_H-M "P M M N"
_symmetry_group_IT_number 59
_space_group.IT_coordinate_system_code '2'
_symmetry_cell_setting 'orthorhombic'
loop_
_space_group_symop_operation_xyz
x,y,z
1/2-x,1/2-y,z
1/2+x,-y,-z
-x,1/2+y,-z
-x,-y,-z
1/2+x,1/2+y,-z
1/2-x,y,z
x,1/2-y,z
loop_
_atom_site_type_symbol
_atom_site_label
_atom_site_fract_x
_atom_site_fract_y
_atom_site_fract_z
Si Si1 0.098413 0.988907 0.637108
Si Si2 0.664270 0.250000 0.464493
Si Si3 0.970826 0.583398 0.086774
Si Si4 0.834524 0.250000 0.675478
Si Si5 0.843467 0.750000 0.681222
Si Si6 0.437363 0.505087 0.264883
Si Si7 0.157598 0.250000 0.533824
Si Si8 0.339672 0.908025 0.827856
O O1 0.121092 0.127258 0.589165
O O2 0.111845 0.878300 0.559897
O O3 0.152950 0.953835 0.723145
O O4 0.008413 0.987621 0.665338
O O5 0.750000 0.250000 0.415145
O O6 0.680707 0.250000 0.569609
O O7 0.964942 0.750000 0.073258
O O8 0.031991 0.546421 0.165548
O O9 0.887038 0.516882 0.110997
O O10 0.000000 0.500000 0.000000
O O11 0.750000 0.250000 0.725170
O O12 0.881125 0.380661 0.701360
O O13 0.750000 0.750000 0.694808
O O14 0.882914 0.626607 0.735464
O O15 0.865091 0.750000 0.573323
O O16 0.250000 0.250000 0.543792
O O17 0.250000 0.917709 0.858630
O O18 0.369736 0.750000 0.839208
#
# Coordination Sequence:
#
# PCOD8245674 Si02
#       8
#     8   4   8   4   4   8   4   8
#     4  11  22  35  58  91 127 169 213 265 315 372
#     4  11  21  35  57  87 124 174 219 252 307 366
#     4  11  25  45  73 100 127 164 202 257 327 395
#     4  11  23  41  62  85 125 170 214 266 307 361
#     4  11  25  43  62  87 125 176 224 270 319 367
#     4  11  24  42  64  93 122 160 215 263 322 388
#     4  11  23  37  55  87 132 176 221 268 315 366
#     4  10  21  39  65  98 135 170 208 258 319 384
#
# _framework density 19.559811
#
# number of rings (size 3 to 8) (size 9 to 14) (size 15 to 20)
#    0.000    1.167    1.667    4.500    8.167    7.000 
#    0.000    1.667    0.000    0.000    0.000    0.000 
#    0.000    0.000    0.000    0.000    0.000    0.000 
#
# Total GULP energy -594945.050863 kJ/mol
# GULP energy per Si atom -12394.688560 kJ/mol
# Density = 1.951529 g / cm^3
# Si number density = 19.559811 Si / 1000 Ang^3
#
#
#
# Elastic Constant Matrix: (Units=GPa)
#
#
# Indices 1 2 3 4 5 6 
#
# 1 128.8895 64.3052 46.8606 0.0000 0.0000 0.0000
# 2 64.3052 194.2389 52.4252 0.0000 0.0000 0.0000
# 3 46.8606 52.4252 80.2556 0.0000 0.0000 0.0000
# 4 0.0000 0.0000 0.0000 37.4916 0.0000 0.0000
# 5 0.0000 0.0000 0.0000 0.0000 20.6969 0.0000
# 6 0.0000 0.0000 0.0000 0.0000 0.0000 50.1142
#
#
#
# Elastic Compliance Matrix: (Units=1/GPa)
#
#
# Indices 1 2 3 4 5 6 
#
# 1 0.010590 -0.002230 -0.004726 0.000000 0.000000 0.000000
# 2 -0.002230 0.006720 -0.003087 0.000000 0.000000 0.000000
# 3 -0.004726 -0.003087 0.017237 0.000000 0.000000 0.000000
# 4 0.000000 0.000000 0.000000 0.026673 0.000000 0.000000
# 5 0.000000 0.000000 0.000000 0.000000 0.048316 0.000000
# 6 0.000000 0.000000 0.000000 0.000000 0.000000 0.019954
#
#
# Mechanical properties :
#
#
# Convention : Reuss Voigt Hill
#
# Bulk Modulus (GPa) = 69.16484 81.17401 75.16943
# Shear Modulus (GPa) = 32.38400 37.64674 35.01537
#
# Velocity S-wave (km/s) = 4.07337 4.39190 4.23563
# Velocity P-wave (km/s) = 7.58687 8.20420 7.90156
#
# Compressibility (1/GPa) = 0.01445821
#
# Stress axis : x y z
#
# Youngs Moduli (GPa) = 94.43193 148.81089 58.01575
#
# Poissons Ratio (x) = 0.33187 0.27420
# Poissons Ratio (y) = 0.21060 0.17912
# Poissons Ratio (z) = 0.44632 0.45945
#
# Static dielectric constant tensor:
#      x y z
#    x 3.872760 0.000000 0.000000 
#    y 0.000000 3.825520 0.000000 
#    z 0.000000 0.000000 3.932900 
# 
# 
# High freq. dielectric constant tensor:
#      x y z
#    x 1.776210 0.000000 0.000000 
#    y 0.000000 1.784550 0.000000 
#    z 0.000000 0.000000 1.749430 
# 
# From -- ./inp_files/23809.got.cif
#   From: 2010.03.12/outbox.cif.g09.slc.cpg/sg59_12_cif.got.tgz:23809.got - 2010.04.16 16:29:54.
