data_PCOD8245448
_publ_section_title
;
Structure prediction by ZEFSAII (Michael W. Deem and Ramdas Pophale) SiO2 
 PCOD8245448
Probable space group: P M M N
;
_chemical_formula_sum "Si O2"
_cell_formula_units_Z 56
_cell_length_a 8.858267
_cell_length_b 13.529656
_cell_length_c 21.267705
_cell_angle_alpha 90.000000
_cell_angle_beta 90.000000
_cell_angle_gamma 90.000000
_cell_volume 2548.919669
_symmetry_space_group_name_H-M "P M M N"
_symmetry_group_IT_number 59
_space_group.IT_coordinate_system_code '2'
_symmetry_cell_setting 'orthorhombic'
loop_
_space_group_symop_operation_xyz
x,y,z
1/2-x,1/2-y,z
1/2+x,-y,-z
-x,1/2+y,-z
-x,-y,-z
1/2+x,1/2+y,-z
1/2-x,y,z
x,1/2-y,z
loop_
_atom_site_type_symbol
_atom_site_label
_atom_site_fract_x
_atom_site_fract_y
_atom_site_fract_z
Si Si1 0.427608 0.862309 0.219562
Si Si2 0.572012 0.039672 0.276237
Si Si3 0.922955 0.139262 0.520920
Si Si4 0.425395 0.050789 0.404508
Si Si5 0.421538 0.868144 0.968293
Si Si6 0.079474 0.367601 0.907030
Si Si7 0.079749 0.366992 0.157034
O O1 0.250000 0.872969 0.227257
O O2 0.481253 0.750000 0.228817
O O3 0.476878 0.903952 0.151228
O O4 0.510764 0.927440 0.271881
O O5 0.750000 0.042650 0.271423
O O6 0.504182 0.105747 0.220932
O O7 0.519401 0.081949 0.343201
O O8 0.750000 0.122183 0.499813
O O9 0.948306 0.250000 0.547122
O O10 0.964822 0.062190 0.575899
O O11 0.028690 0.123715 0.460661
O O12 0.250000 0.064416 0.389298
O O13 0.250000 0.904953 0.973158
O O14 0.429456 0.750000 0.968590
O O15 0.492576 0.911278 0.903801
O O16 0.514507 0.911383 0.027829
O O17 0.250000 0.405584 0.897227
O O18 0.073556 0.250000 0.910199
O O19 0.250000 0.409509 0.158567
O O20 0.082575 0.250000 0.150961
#
# Coordination Sequence:
#
# PCOD8245448 Si02
#       7
#     8   8   8   8   8   8   8
#     4  10  21  38  59  82 111 149 193 241 293 348
#     4  12  25  40  59  84 118 157 195 237 285 339
#     4   9  19  38  64  92 121 153 189 230 277 328
#     4  10  21  38  60  88 121 155 192 233 278 329
#     4   9  16  28  49  77 108 143 185 234 291 351
#     4   9  16  28  49  77 108 143 186 236 290 347
#     4  10  21  38  59  82 110 147 193 243 294 349
#
# _framework density 21.970092999999999
#
# number of rings (size 3 to 8) (size 9 to 14) (size 15 to 20)
#    0.000    2.143    0.000    3.429    0.000    7.143 
#    0.000    2.143    0.000    0.000    0.000    0.000 
#    0.000    0.000    0.000    0.000    0.000    0.000 
#
# Total GULP energy -694630.366231 kJ/mol
# GULP energy per Si atom -12404.113683 kJ/mol
# Density = 2.192009 g / cm^3
# Si number density = 21.970093 Si / 1000 Ang^3
#
#
#
# Elastic Constant Matrix: (Units=GPa)
#
#
# Indices 1 2 3 4 5 6 
#
# 1 146.2094 -5.8107 45.2317 0.0000 0.0000 0.0000
# 2 -5.8107 17.5312 -12.5154 0.0000 0.0000 0.0000
# 3 45.2317 -12.5154 98.5216 0.0000 0.0000 0.0000
# 4 0.0000 0.0000 0.0000 24.6013 0.0000 0.0000
# 5 0.0000 0.0000 0.0000 0.0000 42.6898 0.0000
# 6 0.0000 0.0000 0.0000 0.0000 0.0000 25.2538
#
#
#
# Elastic Compliance Matrix: (Units=1/GPa)
#
#
# Indices 1 2 3 4 5 6 
#
# 1 0.007972 0.000032 -0.003656 0.000000 0.000000 0.000000
# 2 0.000032 0.062730 0.007954 0.000000 0.000000 0.000000
# 3 -0.003656 0.007954 0.012839 0.000000 0.000000 0.000000
# 4 0.000000 0.000000 0.000000 0.040648 0.000000 0.000000
# 5 0.000000 0.000000 0.000000 0.000000 0.023425 0.000000
# 6 0.000000 0.000000 0.000000 0.000000 0.000000 0.039598
#
#
# Mechanical properties :
#
#
# Convention : Reuss Voigt Hill
#
# Bulk Modulus (GPa) = 10.84580 35.11927 22.98253
# Shear Modulus (GPa) = 23.89092 34.19942 29.04517
#
# Velocity S-wave (km/s) = 3.30120 3.94970 3.63992
# Velocity P-wave (km/s) = 4.41337 6.06794 5.30555
#
# Compressibility (1/GPa) = 0.09220162
#
# Stress axis : x y z
#
# Youngs Moduli (GPa) = 125.44308 15.94132 77.88874
#
# Poissons Ratio (x) = -0.00052 0.28474
# Poissons Ratio (y) = -0.00407 -0.61951
# Poissons Ratio (z) = 0.45859 -0.12679
#
# Static dielectric constant tensor:
#      x y z
#    x 4.026500 0.000000 0.000000 
#    y 0.000000 3.905960 0.000000 
#    z 0.000000 0.000000 3.868470 
# 
# 
# High freq. dielectric constant tensor:
#      x y z
#    x 1.869570 0.000000 0.000000 
#    y 0.000000 1.868570 0.000000 
#    z 0.000000 0.000000 1.857520 
# 
# From -- ./inp_files/29137.got.cif
#   From: 2010.03.12/outbox.cif.g09.slc.cpg/sg59_15_cif.got.tgz:29137.got - 2010.04.16 16:29:54.
