data_PCOD8245496
_publ_section_title
;
Structure prediction by ZEFSAII (Michael W. Deem and Ramdas Pophale) SiO2 
 PCOD8245496
Probable space group: P M M N
;
_chemical_formula_sum "Si O2"
_cell_formula_units_Z 48
_cell_length_a 19.010412
_cell_length_b 8.763638
_cell_length_c 14.946271
_cell_angle_alpha 90.000000
_cell_angle_beta 90.000000
_cell_angle_gamma 90.000000
_cell_volume 2490.054264
_symmetry_space_group_name_H-M "P M M N"
_symmetry_group_IT_number 59
_space_group.IT_coordinate_system_code '2'
_symmetry_cell_setting 'orthorhombic'
loop_
_space_group_symop_operation_xyz
x,y,z
1/2-x,1/2-y,z
1/2+x,-y,-z
-x,1/2+y,-z
-x,-y,-z
1/2+x,1/2+y,-z
1/2-x,y,z
x,1/2-y,z
loop_
_atom_site_type_symbol
_atom_site_label
_atom_site_fract_x
_atom_site_fract_y
_atom_site_fract_z
Si Si1 0.443572 0.926875 0.241588
Si Si2 0.830247 0.570212 0.101836
Si Si3 0.409913 0.572176 0.733110
Si Si4 0.070862 0.927811 0.036662
Si Si5 0.832069 0.574129 0.427818
Si Si6 0.330104 0.926072 0.387598
O O1 0.465099 0.750000 0.251615
O O2 0.420433 0.964513 0.140926
O O3 0.378085 0.970709 0.303837
O O4 0.508305 0.030977 0.271037
O O5 0.750000 0.515988 0.112553
O O6 0.836138 0.750000 0.092103
O O7 0.873365 0.521762 0.188493
O O8 0.861564 0.495893 0.012734
O O9 0.400430 0.750000 0.752604
O O10 0.375500 0.531088 0.638892
O O11 0.067073 0.750000 0.016687
O O12 0.000000 0.000000 0.000000
O O13 0.750000 0.544105 0.410511
O O14 0.851862 0.750000 0.411890
O O15 0.852956 0.528285 0.528286
O O16 0.250000 0.961022 0.359520
O O17 0.339590 0.750000 0.414888
#
# Coordination Sequence:
#
# PCOD8245496 Si02
#       6
#     8   8   8   8   8   8
#     4  10  22  39  61  87 119 157 194 240 297 353
#     4  11  24  41  61  87 121 158 198 248 301 354
#     4  12  24  37  59  88 118 155 198 245 294 354
#     4  11  22  38  62  88 119 159 200 244 295 355
#     4  10  21  38  60  85 117 156 193 238 298 355
#     4   9  19  38  62  87 115 150 196 245 290 344
#
# _framework density 19.276688
#
# number of rings (size 3 to 8) (size 9 to 14) (size 15 to 20)
#    0.000    1.500    1.667    3.500    0.000    7.000 
#    0.000    1.667    0.000    2.000    0.000    0.000 
#    0.000    0.000    0.000    0.000    0.000    0.000 
#
# Total GULP energy -595496.898041 kJ/mol
# GULP energy per Si atom -12406.185376 kJ/mol
# Density = 1.923281 g / cm^3
# Si number density = 19.276688 Si / 1000 Ang^3
#
#
#
# Elastic Constant Matrix: (Units=GPa)
#
#
# Indices 1 2 3 4 5 6 
#
# 1 104.0585 37.1538 62.5392 0.0000 0.0000 0.0000
# 2 37.1538 71.8156 37.8148 0.0000 0.0000 0.0000
# 3 62.5392 37.8148 126.0167 0.0000 0.0000 0.0000
# 4 0.0000 0.0000 0.0000 32.4777 0.0000 0.0000
# 5 0.0000 0.0000 0.0000 0.0000 48.8016 0.0000
# 6 0.0000 0.0000 0.0000 0.0000 0.0000 30.0170
#
#
#
# Elastic Compliance Matrix: (Units=1/GPa)
#
#
# Indices 1 2 3 4 5 6 
#
# 1 0.014830 -0.004510 -0.006007 0.000000 0.000000 0.000000
# 2 -0.004510 0.017909 -0.003136 0.000000 0.000000 0.000000
# 3 -0.006007 -0.003136 0.011857 0.000000 0.000000 0.000000
# 4 0.000000 0.000000 0.000000 0.030790 0.000000 0.000000
# 5 0.000000 0.000000 0.000000 0.000000 0.020491 0.000000
# 6 0.000000 0.000000 0.000000 0.000000 0.000000 0.033314
#
#
# Mechanical properties :
#
#
# Convention : Reuss Voigt Hill
#
# Bulk Modulus (GPa) = 57.83033 64.10071 60.96552
# Shear Modulus (GPa) = 30.81462 33.21815 32.01639
#
# Velocity S-wave (km/s) = 4.00252 4.15568 4.07982
# Velocity P-wave (km/s) = 7.17115 7.50676 7.34087
#
# Compressibility (1/GPa) = 0.01729196
#
# Stress axis : x y z
#
# Youngs Moduli (GPa) = 67.43058 55.83829 84.33500
#
# Poissons Ratio (x) = 0.25180 0.50657
# Poissons Ratio (y) = 0.30408 0.26448
# Poissons Ratio (z) = 0.40503 0.17511
#
# Static dielectric constant tensor:
#      x y z
#    x 3.616680 0.000000 0.000000 
#    y 0.000000 3.606050 0.000000 
#    z 0.000000 0.000000 3.662570 
# 
# 
# High freq. dielectric constant tensor:
#      x y z
#    x 1.752560 0.000000 0.000000 
#    y 0.000000 1.756210 0.000000 
#    z 0.000000 0.000000 1.759800 
# 
# From -- ./inp_files/20335.got.cif
#   From: 2010.03.12/outbox.cif.g09.slc.cpg/sg59_11_cif.got.tgz:20335.got - 2010.04.16 16:29:54.
