data_PCOD8245609
_publ_section_title
;
Structure prediction by ZEFSAII (Michael W. Deem and Ramdas Pophale) SiO2 
 PCOD8245609
Probable space group: P M M N
;
_chemical_formula_sum "Si O2"
_cell_formula_units_Z 48
_cell_length_a 15.436289
_cell_length_b 16.293244
_cell_length_c 10.032334
_cell_angle_alpha 90.000000
_cell_angle_beta 90.000000
_cell_angle_gamma 90.000000
_cell_volume 2523.204466
_symmetry_space_group_name_H-M "P M M N"
_symmetry_group_IT_number 59
_space_group.IT_coordinate_system_code '2'
_symmetry_cell_setting 'orthorhombic'
loop_
_space_group_symop_operation_xyz
x,y,z
1/2-x,1/2-y,z
1/2+x,-y,-z
-x,1/2+y,-z
-x,-y,-z
1/2+x,1/2+y,-z
1/2-x,y,z
x,1/2-y,z
loop_
_atom_site_type_symbol
_atom_site_label
_atom_site_fract_x
_atom_site_fract_y
_atom_site_fract_z
Si Si1 0.750000 0.152448 0.721002
Si Si2 0.250000 0.653616 0.976438
Si Si3 0.457198 0.397874 0.869244
Si Si4 0.929944 0.414435 0.624438
Si Si5 0.851049 0.750000 0.015988
Si Si6 0.148336 0.250000 0.298153
Si Si7 0.420943 0.921367 0.887180
Si Si8 0.467898 0.397618 0.360935
O O1 0.750000 0.250000 0.719737
O O2 0.665823 0.120440 0.643807
O O3 0.750000 0.117709 0.872757
O O4 0.250000 0.750000 0.986309
O O5 0.169548 0.624252 0.889843
O O6 0.502249 0.375553 0.729384
O O7 0.390538 0.329282 0.913915
O O8 0.404317 0.482686 0.857422
O O9 0.535689 0.408318 0.970628
O O10 0.924462 0.512787 0.638915
O O11 0.964175 0.387430 0.480512
O O12 0.750000 0.750000 0.045451
O O13 0.870849 0.750000 0.859459
O O14 0.250000 0.250000 0.327957
O O15 0.108100 0.169494 0.367651
O O16 0.480172 0.880936 0.774519
#
# Coordination Sequence:
#
# PCOD8245609 Si02
#       8
#     4   4   8   8   4   4   8   8
#     4  11  24  37  61  96 120 157 210 251 302 358
#     4  11  24  35  61  94 124 157 204 257 302 354
#     4  10  21  39  62  86 120 160 199 250 305 355
#     4  10  23  43  65  88 125 166 202 250 304 369
#     4  11  24  37  63  96 123 157 206 262 305 353
#     4  11  24  39  65  96 121 155 206 258 305 365
#     4  10  21  39  60  88 120 160 201 246 303 358
#     4  10  23  43  64  91 122 166 202 247 316 360
#
# _framework density 19.023429
#
# number of rings (size 3 to 8) (size 9 to 14) (size 15 to 20)
#    0.000    1.667    3.333    0.000    7.000    0.667 
#    0.000    2.500    0.000    0.000    0.000    0.000 
#    0.000    0.000    0.000    0.000    0.000    0.000 
#
# Total GULP energy -595378.625015 kJ/mol
# GULP energy per Si atom -12403.721354 kJ/mol
# Density = 1.898013 g / cm^3
# Si number density = 19.023429 Si / 1000 Ang^3
#
#
#
# Elastic Constant Matrix: (Units=GPa)
#
#
# Indices 1 2 3 4 5 6 
#
# 1 119.1098 69.8347 21.7358 0.0000 0.0000 0.0000
# 2 69.8347 94.2218 31.4736 0.0000 0.0000 0.0000
# 3 21.7358 31.4736 58.5033 0.0000 0.0000 0.0000
# 4 0.0000 0.0000 0.0000 18.0598 0.0000 0.0000
# 5 0.0000 0.0000 0.0000 0.0000 26.3479 0.0000
# 6 0.0000 0.0000 0.0000 0.0000 0.0000 29.9741
#
#
#
# Elastic Compliance Matrix: (Units=1/GPa)
#
#
# Indices 1 2 3 4 5 6 
#
# 1 0.014859 -0.011178 0.000493 0.000000 0.000000 0.000000
# 2 -0.011178 0.021347 -0.007331 0.000000 0.000000 0.000000
# 3 0.000493 -0.007331 0.020854 0.000000 0.000000 0.000000
# 4 0.000000 0.000000 0.000000 0.055372 0.000000 0.000000
# 5 0.000000 0.000000 0.000000 0.000000 0.037954 0.000000
# 6 0.000000 0.000000 0.000000 0.000000 0.000000 0.033362
#
#
# Mechanical properties :
#
#
# Convention : Reuss Voigt Hill
#
# Bulk Modulus (GPa) = 47.55674 57.54698 52.55186
# Shear Modulus (GPa) = 22.04680 24.79574 23.42127
#
# Velocity S-wave (km/s) = 3.40800 3.61422 3.51262
# Velocity P-wave (km/s) = 6.36704 6.90891 6.64350
#
# Compressibility (1/GPa) = 0.02102751
#
# Stress axis : x y z
#
# Youngs Moduli (GPa) = 67.29737 46.84488 47.95230
#
# Poissons Ratio (x) = 0.52363 -0.02363
# Poissons Ratio (y) = 0.75225 0.35155
# Poissons Ratio (z) = -0.03317 0.34343
#
# Static dielectric constant tensor:
#      x y z
#    x 3.322320 0.000000 0.000000 
#    y 0.000000 3.560210 0.000000 
#    z 0.000000 0.000000 3.574090 
# 
# 
# High freq. dielectric constant tensor:
#      x y z
#    x 1.736780 0.000000 0.000000 
#    y 0.000000 1.745410 0.000000 
#    z 0.000000 0.000000 1.742000 
# 
# From -- ./inp_files/9086.got.cif
#   From: 2010.03.12/outbox.cif.g09.slc.cpg/sg59_5_cif.got.tgz:9086.got - 2010.04.16 16:29:54.
