data_PCOD8245000
_publ_section_title
;
Structure prediction by ZEFSAII (Michael W. Deem and Ramdas Pophale) SiO2 
 PCOD8245000
Probable space group: P M M N
;
_chemical_formula_sum "Si O2"
_cell_formula_units_Z 40
_cell_length_a 9.008000
_cell_length_b 9.261247
_cell_length_c 25.599551
_cell_angle_alpha 90.000000
_cell_angle_beta 90.000000
_cell_angle_gamma 90.000000
_cell_volume 2135.650554
_symmetry_space_group_name_H-M "P M M N"
_symmetry_group_IT_number 59
_space_group.IT_coordinate_system_code '2'
_symmetry_cell_setting 'orthorhombic'
loop_
_space_group_symop_operation_xyz
x,y,z
1/2-x,1/2-y,z
1/2+x,-y,-z
-x,1/2+y,-z
-x,-y,-z
1/2+x,1/2+y,-z
1/2-x,y,z
x,1/2-y,z
loop_
_atom_site_type_symbol
_atom_site_label
_atom_site_fract_x
_atom_site_fract_y
_atom_site_fract_z
Si Si1 0.078082 0.580885 0.046835
Si Si2 0.075034 0.415477 0.546658
Si Si3 0.921796 0.416704 0.350674
Si Si4 0.422442 0.082105 0.847456
Si Si5 0.579975 0.580275 0.755066
O O1 0.250000 0.539281 0.047735
O O2 0.051925 0.750000 0.038873
O O3 0.006910 0.527745 0.100982
O O4 0.000000 0.500000 0.000000
O O5 0.250000 0.428676 0.539581
O O6 0.021838 0.250000 0.546237
O O7 0.024615 0.486823 0.600984
O O8 0.000000 0.500000 0.500000
O O9 0.750000 0.444452 0.336991
O O10 0.949885 0.250000 0.365245
O O11 0.019214 0.465383 0.301460
O O12 0.250000 0.048214 0.855132
O O13 0.452838 0.250000 0.837551
O O14 0.482165 0.996774 0.798196
O O15 0.750000 0.530020 0.759725
O O16 0.562782 0.750000 0.763393
#
# Coordination Sequence:
#
# PCOD8245000 Si02
#       5
#     8   8   8   8   8
#     4  10  21  37  57  81 109 142 180 222 269 320
#     4  10  21  36  55  80 109 141 178 220 266 317
#     4   9  18  34  54  75 104 142 180 219 263 312
#     4  10  21  37  57  80 107 141 180 222 268 317
#     4  10  21  36  55  81 111 142 177 218 265 317
#
# _framework density 18.729655000000001
#
# number of rings (size 3 to 8) (size 9 to 14) (size 15 to 20)
#    0.000    2.200    0.000    2.400    0.000    7.200 
#    0.000    4.000    0.000    0.000    0.000    0.000 
#    0.000    0.000    0.000    0.000    0.000    0.000 
#
# Total GULP energy -496184.915243 kJ/mol
# GULP energy per Si atom -12404.622881 kJ/mol
# Density = 1.868703 g / cm^3
# Si number density = 18.729655 Si / 1000 Ang^3
#
#
#
# Elastic Constant Matrix: (Units=GPa)
#
#
# Indices 1 2 3 4 5 6 
#
# 1 92.0731 44.5446 68.4463 0.0000 0.0000 0.0000
# 2 44.5446 77.1767 76.0415 0.0000 0.0000 0.0000
# 3 68.4463 76.0415 161.4244 0.0000 0.0000 0.0000
# 4 0.0000 0.0000 0.0000 41.3336 0.0000 0.0000
# 5 0.0000 0.0000 0.0000 0.0000 43.2686 0.0000
# 6 0.0000 0.0000 0.0000 0.0000 0.0000 29.5834
#
#
#
# Elastic Compliance Matrix: (Units=1/GPa)
#
#
# Indices 1 2 3 4 5 6 
#
# 1 0.016837 -0.005008 -0.004780 0.000000 0.000000 0.000000
# 2 -0.005008 0.025670 -0.009969 0.000000 0.000000 0.000000
# 3 -0.004780 -0.009969 0.012918 0.000000 0.000000 0.000000
# 4 0.000000 0.000000 0.000000 0.024193 0.000000 0.000000
# 5 0.000000 0.000000 0.000000 0.000000 0.023111 0.000000
# 6 0.000000 0.000000 0.000000 0.000000 0.000000 0.033803
#
#
# Mechanical properties :
#
#
# Convention : Reuss Voigt Hill
#
# Bulk Modulus (GPa) = 62.85041 78.74879 70.79960
# Shear Modulus (GPa) = 27.57096 32.27991 29.92544
#
# Velocity S-wave (km/s) = 3.84089 4.15597 4.00153
# Velocity P-wave (km/s) = 7.30064 8.07253 7.69627
#
# Compressibility (1/GPa) = 0.01591079
#
# Stress axis : x y z
#
# Youngs Moduli (GPa) = 59.39154 38.95597 77.41434
#
# Poissons Ratio (x) = 0.19511 0.37004
# Poissons Ratio (y) = 0.29746 0.77171
# Poissons Ratio (z) = 0.28389 0.38834
#
# Static dielectric constant tensor:
#      x y z
#    x 3.320180 0.000000 0.000000 
#    y 0.000000 3.411470 0.000000 
#    z 0.000000 0.000000 3.510850 
# 
# 
# High freq. dielectric constant tensor:
#      x y z
#    x 1.734620 0.000000 0.000000 
#    y 0.000000 1.722890 0.000000 
#    z 0.000000 0.000000 1.740720 
# 
# From -- ./inp_files/31115.got.cif
#   From: 2010.03.12/outbox.cif.g09.slc.cpg/sg59_16_cif.got.tgz:31115.got - 2010.04.16 16:29:54.
