data_PCOD8245383
_publ_section_title
;
Structure prediction by ZEFSAII (Michael W. Deem and Ramdas Pophale) SiO2 
 PCOD8245383
Probable space group: P M M N
;
_chemical_formula_sum "Si O2"
_cell_formula_units_Z 48
_cell_length_a 17.022616
_cell_length_b 9.333515
_cell_length_c 16.372626
_cell_angle_alpha 90.000000
_cell_angle_beta 90.000000
_cell_angle_gamma 90.000000
_cell_volume 2601.296601
_symmetry_space_group_name_H-M "P M M N"
_symmetry_group_IT_number 59
_space_group.IT_coordinate_system_code '2'
_symmetry_cell_setting 'orthorhombic'
loop_
_space_group_symop_operation_xyz
x,y,z
1/2-x,1/2-y,z
1/2+x,-y,-z
-x,1/2+y,-z
-x,-y,-z
1/2+x,1/2+y,-z
1/2-x,y,z
x,1/2-y,z
loop_
_atom_site_type_symbol
_atom_site_label
_atom_site_fract_x
_atom_site_fract_y
_atom_site_fract_z
Si Si1 0.750000 0.582885 0.334220
Si Si2 0.056899 0.916122 0.106508
Si Si3 0.410197 0.415177 0.578415
Si Si4 0.439123 0.083008 0.391104
Si Si5 0.093125 0.917450 0.923992
Si Si6 0.750000 0.080932 0.165689
Si Si7 0.158652 0.915613 0.261290
O O1 0.750000 0.750000 0.312528
O O2 0.825912 0.540052 0.386829
O O3 0.750000 0.494079 0.252184
O O4 0.034691 0.750000 0.108989
O O5 0.119223 0.957252 0.175530
O O6 0.094634 0.958736 0.019583
O O7 0.977132 0.002778 0.122668
O O8 0.430023 0.250000 0.596709
O O9 0.476182 0.510255 0.622830
O O10 0.408572 0.445878 0.482217
O O11 0.447407 0.250000 0.371400
O O12 0.375278 0.014075 0.332202
O O13 0.079953 0.750000 0.911089
O O14 0.174504 0.969513 0.885313
O O15 0.750000 0.250000 0.179634
O O16 0.250000 0.949085 0.252177
O O17 0.143157 0.750000 0.283437
#
# Coordination Sequence:
#
# PCOD8245383 Si02
#       7
#     4   8   8   8   8   4   8
#     4  10  22  38  58  81 108 146 186 225 268 324
#     4   9  19  36  58  80 106 145 186 222 268 326
#     4   9  20  39  60  81 109 146 186 225 272 329
#     4  10  21  37  60  84 111 145 182 226 278 328
#     4   9  19  36  57  80 109 143 180 225 275 322
#     4  10  22  36  54  83 114 142 178 227 276 324
#     4  10  22  37  56  83 113 145 185 227 270 325
#
# _framework density 18.452337
#
# number of rings (size 3 to 8) (size 9 to 14) (size 15 to 20)
#    0.000    2.500    0.000    0.500    4.667    3.000 
#    0.000    0.000    0.000    0.000    0.000    0.000 
#    0.000    0.000    0.000    0.000    0.000    0.000 
#
# Total GULP energy -595389.818433 kJ/mol
# GULP energy per Si atom -12403.954551 kJ/mol
# Density = 1.841034 g / cm^3
# Si number density = 18.452337 Si / 1000 Ang^3
#
#
#
# Elastic Constant Matrix: (Units=GPa)
#
#
# Indices 1 2 3 4 5 6 
#
# 1 180.8777 70.1306 83.7124 0.0000 0.0000 0.0000
# 2 70.1306 66.9281 53.0992 0.0000 0.0000 0.0000
# 3 83.7124 53.0992 96.0159 0.0000 0.0000 0.0000
# 4 0.0000 0.0000 0.0000 31.5080 0.0000 0.0000
# 5 0.0000 0.0000 0.0000 0.0000 36.7634 0.0000
# 6 0.0000 0.0000 0.0000 0.0000 0.0000 31.1488
#
#
#
# Elastic Compliance Matrix: (Units=1/GPa)
#
#
# Indices 1 2 3 4 5 6 
#
# 1 0.010780 -0.006840 -0.005616 0.000000 0.000000 0.000000
# 2 -0.006840 0.030962 -0.011159 0.000000 0.000000 0.000000
# 3 -0.005616 -0.011159 0.021482 0.000000 0.000000 0.000000
# 4 0.000000 0.000000 0.000000 0.031738 0.000000 0.000000
# 5 0.000000 0.000000 0.000000 0.000000 0.027201 0.000000
# 6 0.000000 0.000000 0.000000 0.000000 0.000000 0.032104
#
#
# Mechanical properties :
#
#
# Convention : Reuss Voigt Hill
#
# Bulk Modulus (GPa) = 62.52237 84.18957 73.35597
# Shear Modulus (GPa) = 24.17459 29.00935 26.59197
#
# Velocity S-wave (km/s) = 3.62347 3.96930 3.80032
# Velocity P-wave (km/s) = 7.17376 8.16894 7.68747
#
# Compressibility (1/GPa) = 0.01599427
#
# Stress axis : x y z
#
# Youngs Moduli (GPa) = 92.76737 32.29720 46.55003
#
# Poissons Ratio (x) = 0.22092 0.26140
# Poissons Ratio (y) = 0.63455 0.51947
# Poissons Ratio (z) = 0.52094 0.36041
#
# Static dielectric constant tensor:
#      x y z
#    x 3.521610 0.000000 0.000000 
#    y 0.000000 3.369490 0.000000 
#    z 0.000000 0.000000 3.446240 
# 
# 
# High freq. dielectric constant tensor:
#      x y z
#    x 1.724310 0.000000 0.000000 
#    y 0.000000 1.711260 0.000000 
#    z 0.000000 0.000000 1.719910 
# 
# From -- ./inp_files/23715.got.cif
#   From: 2010.03.12/outbox.cif.g09.slc.cpg/sg59_12_cif.got.tgz:23715.got - 2010.04.16 16:29:54.
