data_PCOD8245026
_publ_section_title
;
Structure prediction by ZEFSAII (Michael W. Deem and Ramdas Pophale) SiO2 
 PCOD8245026
Probable space group: P M M N
;
_chemical_formula_sum "Si O2"
_cell_formula_units_Z 48
_cell_length_a 9.701507
_cell_length_b 8.997203
_cell_length_c 29.004664
_cell_angle_alpha 90.000000
_cell_angle_beta 90.000000
_cell_angle_gamma 90.000000
_cell_volume 2531.713513
_symmetry_space_group_name_H-M "P M M N"
_symmetry_group_IT_number 59
_space_group.IT_coordinate_system_code '2'
_symmetry_cell_setting 'orthorhombic'
loop_
_space_group_symop_operation_xyz
x,y,z
1/2-x,1/2-y,z
1/2+x,-y,-z
-x,1/2+y,-z
-x,-y,-z
1/2+x,1/2+y,-z
1/2-x,y,z
x,1/2-y,z
loop_
_atom_site_type_symbol
_atom_site_label
_atom_site_fract_x
_atom_site_fract_y
_atom_site_fract_z
Si Si1 0.589767 0.925860 0.539649
Si Si2 0.250000 0.927386 0.038457
Si Si3 0.405842 0.918954 0.197435
Si Si4 0.906581 0.075217 0.374536
Si Si5 0.592258 0.576348 0.280547
Si Si6 0.536136 0.574675 0.896765
Si Si7 0.750000 0.423891 0.064991
O O1 0.750000 0.979793 0.539046
O O2 0.582661 0.750000 0.533092
O O3 0.516125 0.975615 0.587002
O O4 0.500000 0.000000 0.500000
O O5 0.250000 0.750000 0.041346
O O6 0.383508 0.989947 0.063477
O O7 0.250000 0.992040 0.986432
O O8 0.250000 0.923993 0.215767
O O9 0.448072 0.750000 0.184280
O O10 0.502332 0.982855 0.237860
O O11 0.418255 0.023489 0.153410
O O12 0.750000 0.022932 0.387385
O O13 0.909383 0.250000 0.367969
O O14 0.956854 0.003120 0.327023
O O15 0.750000 0.536841 0.269391
O O16 0.568822 0.750000 0.287914
O O17 0.562093 0.750000 0.901314
O O18 0.379210 0.526519 0.904654
O O19 0.750000 0.250000 0.057005
#
# Coordination Sequence:
#
# PCOD8245026 Si02
#       7
#     8   4   8   8   8   8   4
#     4  10  21  36  55  81 113 150 192 237 283 333
#     4  11  21  39  61  81 111 147 181 221 274 329
#     4  10  21  37  55  77 109 144 179 221 274 329
#     4   9  18  34  54  77 108 144 181 226 281 334
#     4   9  19  35  55  79 107 141 183 229 274 326
#     4  11  22  38  58  83 112 143 182 227 273 325
#     4   9  22  39  57  83 113 143 179 227 274 323
#
# _framework density 18.959491
#
# number of rings (size 3 to 8) (size 9 to 14) (size 15 to 20)
#    0.000    2.167    0.833    1.750    1.167    3.000 
#    0.000    5.417    0.000    0.000    0.000    0.000 
#    0.000    0.000    0.000    0.000    0.000    0.000 
#
# Total GULP energy -595212.706779 kJ/mol
# GULP energy per Si atom -12400.264725 kJ/mol
# Density = 1.891634 g / cm^3
# Si number density = 18.959491 Si / 1000 Ang^3
#
#
#
# Elastic Constant Matrix: (Units=GPa)
#
#
# Indices 1 2 3 4 5 6 
#
# 1 124.1690 25.7375 57.1306 0.0000 0.0000 0.0000
# 2 25.7375 44.1975 28.2745 0.0000 0.0000 0.0000
# 3 57.1306 28.2745 120.8684 0.0000 0.0000 0.0000
# 4 0.0000 0.0000 0.0000 25.9584 0.0000 0.0000
# 5 0.0000 0.0000 0.0000 0.0000 42.8529 0.0000
# 6 0.0000 0.0000 0.0000 0.0000 0.0000 23.8026
#
#
#
# Elastic Compliance Matrix: (Units=1/GPa)
#
#
# Indices 1 2 3 4 5 6 
#
# 1 0.010742 -0.003536 -0.004250 0.000000 0.000000 0.000000
# 2 -0.003536 0.027772 -0.004825 0.000000 0.000000 0.000000
# 3 -0.004250 -0.004825 0.011411 0.000000 0.000000 0.000000
# 4 0.000000 0.000000 0.000000 0.038523 0.000000 0.000000
# 5 0.000000 0.000000 0.000000 0.000000 0.023336 0.000000
# 6 0.000000 0.000000 0.000000 0.000000 0.000000 0.042012
#
#
# Mechanical properties :
#
#
# Convention : Reuss Voigt Hill
#
# Bulk Modulus (GPa) = 40.48308 56.83557 48.65932
# Shear Modulus (GPa) = 26.70179 30.39559 28.54869
#
# Velocity S-wave (km/s) = 3.75688 4.00832 3.88464
# Velocity P-wave (km/s) = 6.34174 7.17389 6.77061
#
# Compressibility (1/GPa) = 0.02470168
#
# Stress axis : x y z
#
# Youngs Moduli (GPa) = 93.09178 36.00771 87.63413
#
# Poissons Ratio (x) = 0.12734 0.37246
# Poissons Ratio (y) = 0.32922 0.42284
# Poissons Ratio (z) = 0.39565 0.17374
#
# Static dielectric constant tensor:
#      x y z
#    x 3.671350 0.000000 0.000000 
#    y 0.000000 3.333410 0.000000 
#    z 0.000000 0.000000 3.534330 
# 
# 
# High freq. dielectric constant tensor:
#      x y z
#    x 1.748320 0.000000 0.000000 
#    y 0.000000 1.724230 0.000000 
#    z 0.000000 0.000000 1.742300 
# 
# From -- ./inp_files/32995.got.cif
#   From: 2010.03.12/outbox.cif.g09.slc.cpg/sg59_17_cif.got.tgz:32995.got - 2010.04.16 16:29:54.
