data_PCOD8245004
_publ_section_title
;
Structure prediction by ZEFSAII (Michael W. Deem and Ramdas Pophale) SiO2 
 PCOD8245004
Probable space group: P M M N
;
_chemical_formula_sum "Si O2"
_cell_formula_units_Z 64
_cell_length_a 9.060284
_cell_length_b 14.358467
_cell_length_c 26.072933
_cell_angle_alpha 90.000000
_cell_angle_beta 90.000000
_cell_angle_gamma 90.000000
_cell_volume 3391.874494
_symmetry_space_group_name_H-M "P M M N"
_symmetry_group_IT_number 59
_space_group.IT_coordinate_system_code '2'
_symmetry_cell_setting 'orthorhombic'
loop_
_space_group_symop_operation_xyz
x,y,z
1/2-x,1/2-y,z
1/2+x,-y,-z
-x,1/2+y,-z
-x,-y,-z
1/2+x,1/2+y,-z
1/2-x,y,z
x,1/2-y,z
loop_
_atom_site_type_symbol
_atom_site_label
_atom_site_fract_x
_atom_site_fract_y
_atom_site_fract_z
Si Si1 0.419868 0.356337 0.769109
Si Si2 0.578362 0.010637 0.579279
Si Si3 0.918309 0.359890 0.870897
Si Si4 0.422791 0.508640 0.686967
Si Si5 0.923130 0.508829 0.054161
Si Si6 0.579618 0.356234 0.136185
Si Si7 0.581301 0.640205 0.761856
Si Si8 0.920561 0.857550 0.496467
O O1 0.250000 0.368205 0.785485
O O2 0.457814 0.250000 0.755246
O O3 0.517076 0.393075 0.816402
O O4 0.458679 0.416002 0.719240
O O5 0.750000 0.025448 0.590590
O O6 0.491300 0.003708 0.631643
O O7 0.549140 0.915113 0.548351
O O8 0.520045 0.100496 0.548665
O O9 0.750000 0.393884 0.874791
O O10 0.932293 0.250000 0.876172
O O11 0.012485 0.401972 0.916987
O O12 0.250000 0.526297 0.681388
O O13 0.493821 0.597286 0.714436
O O14 0.750000 0.522611 0.046159
O O15 0.959912 0.416173 0.086416
O O16 0.000000 0.500000 0.000000
O O17 0.750000 0.366920 0.151671
O O18 0.538821 0.250000 0.122758
O O19 0.486331 0.393948 0.184232
O O20 0.750000 0.607561 0.759638
O O21 0.564428 0.750000 0.756677
O O22 0.750000 0.866865 0.480018
O O23 0.964330 0.750000 0.505964
#
# Coordination Sequence:
#
# PCOD8245004 Si02
#       8
#     8   8   8   8   8   8   8   8
#     4   9  19  36  56  78 106 142 182 220 263 320
#     4  10  21  36  55  83 114 143 181 228 275 322
#     4  10  21  37  57  80 107 140 178 222 271 322
#     4  11  22  35  54  81 114 150 183 220 268 320
#     4  11  23  37  55  80 108 140 178 221 271 325
#     4   9  19  37  58  78 104 139 177 218 267 325
#     4  10  21  36  55  80 109 142 180 222 269 320
#     4   9  19  38  61  80 104 143 186 227 274 327
#
# _framework density 18.868622999999999
#
# number of rings (size 3 to 8) (size 9 to 14) (size 15 to 20)
#    0.000    2.125    0.000    2.625    0.000    8.750 
#    0.000    3.750    0.000    0.000    0.000    0.000 
#    0.000    0.000    0.000    0.000    0.000    0.000 
#
# Total GULP energy -793889.515280 kJ/mol
# GULP energy per Si atom -12404.523676 kJ/mol
# Density = 1.882568 g / cm^3
# Si number density = 18.868623 Si / 1000 Ang^3
#
#
#
# Elastic Constant Matrix: (Units=GPa)
#
#
# Indices 1 2 3 4 5 6 
#
# 1 121.7987 52.4242 83.5482 0.0000 0.0000 0.0000
# 2 52.4242 85.2345 52.7366 0.0000 0.0000 0.0000
# 3 83.5482 52.7366 148.7123 0.0000 0.0000 0.0000
# 4 0.0000 0.0000 0.0000 19.2648 0.0000 0.0000
# 5 0.0000 0.0000 0.0000 0.0000 40.7645 0.0000
# 6 0.0000 0.0000 0.0000 0.0000 0.0000 29.6842
#
#
#
# Elastic Compliance Matrix: (Units=1/GPa)
#
#
# Indices 1 2 3 4 5 6 
#
# 1 0.014914 -0.005110 -0.006567 0.000000 0.000000 0.000000
# 2 -0.005110 0.016781 -0.003080 0.000000 0.000000 0.000000
# 3 -0.006567 -0.003080 0.011506 0.000000 0.000000 0.000000
# 4 0.000000 0.000000 0.000000 0.051908 0.000000 0.000000
# 5 0.000000 0.000000 0.000000 0.000000 0.024531 0.000000
# 6 0.000000 0.000000 0.000000 0.000000 0.000000 0.033688
#
#
# Mechanical properties :
#
#
# Convention : Reuss Voigt Hill
#
# Bulk Modulus (GPa) = 73.06015 81.46261 77.26138
# Shear Modulus (GPa) = 26.68020 29.07848 27.87934
#
# Velocity S-wave (km/s) = 3.76440 3.92995 3.84806
# Velocity P-wave (km/s) = 7.59597 7.99124 7.79611
#
# Compressibility (1/GPa) = 0.01368735
#
# Stress axis : x y z
#
# Youngs Moduli (GPa) = 67.04980 59.59115 86.91152
#
# Poissons Ratio (x) = 0.30452 0.57074
# Poissons Ratio (y) = 0.34263 0.26769
# Poissons Ratio (z) = 0.44031 0.18354
#
# Static dielectric constant tensor:
#      x y z
#    x 2.726400 0.000000 0.000000 
#    y 0.000000 3.589730 0.000000 
#    z 0.000000 0.000000 3.426570 
# 
# 
# High freq. dielectric constant tensor:
#      x y z
#    x 1.742910 0.000000 0.000000 
#    y 0.000000 1.740210 0.000000 
#    z 0.000000 0.000000 1.729960 
# 
# From -- ./inp_files/31431.got.cif
#   From: 2010.03.12/outbox.cif.g09.slc.cpg/sg59_16_cif.got.tgz:31431.got - 2010.04.16 16:29:54.
