data_PCOD8245975
_publ_section_title
;
Structure prediction by ZEFSAII (Michael W. Deem and Ramdas Pophale) SiO2 
 PCOD8245975
Probable space group: P M M N
;
_chemical_formula_sum "Si O2"
_cell_formula_units_Z 56
_cell_length_a 23.754778
_cell_length_b 14.818414
_cell_length_c 8.612113
_cell_angle_alpha 90.000000
_cell_angle_beta 90.000000
_cell_angle_gamma 90.000000
_cell_volume 3031.533835
_symmetry_space_group_name_H-M "P M M N"
_symmetry_group_IT_number 59
_space_group.IT_coordinate_system_code '2'
_symmetry_cell_setting 'orthorhombic'
loop_
_space_group_symop_operation_xyz
x,y,z
1/2-x,1/2-y,z
1/2+x,-y,-z
-x,1/2+y,-z
-x,-y,-z
1/2+x,1/2+y,-z
1/2-x,y,z
x,1/2-y,z
loop_
_atom_site_type_symbol
_atom_site_label
_atom_site_fract_x
_atom_site_fract_y
_atom_site_fract_z
Si Si1 0.685317 0.146297 0.222338
Si Si2 0.404415 0.980395 0.278793
Si Si3 0.899855 0.649502 0.946013
Si Si4 0.483088 0.441997 0.854068
Si Si5 0.314382 0.353330 0.793931
Si Si6 0.684684 0.353598 0.865549
Si Si7 0.386974 0.002484 0.633927
O O1 0.750000 0.124678 0.259912
O O2 0.671789 0.250000 0.254912
O O3 0.646037 0.089841 0.335450
O O4 0.671946 0.121549 0.044042
O O5 0.459363 0.919368 0.237887
O O6 0.349752 0.921086 0.242927
O O7 0.406130 0.006842 0.457370
O O8 0.405397 0.074931 0.186715
O O9 0.902041 0.750000 0.872566
O O10 0.949805 0.644063 0.076153
O O11 0.840940 0.633487 0.035127
O O12 0.442190 0.497644 0.740721
O O13 0.500000 0.500000 0.000000
O O14 0.250000 0.385577 0.805220
O O15 0.319119 0.250000 0.738934
O O16 0.346375 0.413002 0.666812
O O17 0.750000 0.367733 0.826954
O O18 0.667532 0.250000 0.832478
#
# Coordination Sequence:
#
# PCOD8245975 Si02
#       7
#     8   8   8   8   8   8   8
#     4   9  18  34  55  77 103 139 182 220 254 304
#     4  11  22  34  53  80 112 140 166 213 276 328
#     4   9  19  36  57  78 101 136 182 225 262 308
#     4   9  19  37  56  74  97 135 181 220 253 306
#     4   9  18  34  55  76 100 137 183 220 250 297
#     4   9  19  36  57  80 106 140 183 224 260 308
#     4  11  21  33  52  79 111 140 169 214 272 322
#
# _framework density 18.472497000000001
#
# number of rings (size 3 to 8) (size 9 to 14) (size 15 to 20)
#    0.000    2.429    0.000    4.286    0.000    4.571 
#    0.000    5.714    0.000    6.857    0.000    0.000 
#    0.000    0.000    0.000    0.000    0.000    0.000 
#
# Total GULP energy -694269.756568 kJ/mol
# GULP energy per Si atom -12397.674224 kJ/mol
# Density = 1.843045 g / cm^3
# Si number density = 18.472497 Si / 1000 Ang^3
#
#
#
# Elastic Constant Matrix: (Units=GPa)
#
#
# Indices 1 2 3 4 5 6 
#
# 1 110.0881 41.9412 52.7787 0.0000 0.0000 0.0000
# 2 41.9412 86.9842 44.1299 0.0000 0.0000 0.0000
# 3 52.7787 44.1299 110.7771 0.0000 0.0000 0.0000
# 4 0.0000 0.0000 0.0000 20.2046 0.0000 0.0000
# 5 0.0000 0.0000 0.0000 0.0000 19.4800 0.0000
# 6 0.0000 0.0000 0.0000 0.0000 0.0000 17.7942
#
#
#
# Elastic Compliance Matrix: (Units=1/GPa)
#
#
# Indices 1 2 3 4 5 6 
#
# 1 0.012716 -0.003832 -0.004532 0.000000 0.000000 0.000000
# 2 -0.003832 0.015563 -0.004374 0.000000 0.000000 0.000000
# 3 -0.004532 -0.004374 0.012929 0.000000 0.000000 0.000000
# 4 0.000000 0.000000 0.000000 0.049494 0.000000 0.000000
# 5 0.000000 0.000000 0.000000 0.000000 0.051335 0.000000
# 6 0.000000 0.000000 0.000000 0.000000 0.000000 0.056198
#
#
# Mechanical properties :
#
#
# Convention : Reuss Voigt Hill
#
# Bulk Modulus (GPa) = 63.56496 65.06100 64.31298
# Shear Modulus (GPa) = 21.83835 22.76242 22.30039
#
# Velocity S-wave (km/s) = 3.44206 3.51413 3.47828
# Velocity P-wave (km/s) = 7.09100 7.19461 7.14299
#
# Compressibility (1/GPa) = 0.01573194
#
# Stress axis : x y z
#
# Youngs Moduli (GPa) = 78.63888 64.25409 77.34671
#
# Poissons Ratio (x) = 0.24624 0.35053
# Poissons Ratio (y) = 0.30136 0.33832
# Poissons Ratio (z) = 0.35639 0.28105
#
# Static dielectric constant tensor:
#      x y z
#    x 3.730980 0.000000 0.000000 
#    y 0.000000 3.370330 0.000000 
#    z 0.000000 0.000000 3.212140 
# 
# 
# High freq. dielectric constant tensor:
#      x y z
#    x 1.728010 0.000000 0.000000 
#    y 0.000000 1.712420 0.000000 
#    z 0.000000 0.000000 1.699630 
# 
# From -- ./inp_files/11405.got.cif
#   From: 2010.03.12/outbox.cif.g09.slc.cpg/sg59_6_cif.got.tgz:11405.got - 2010.04.16 16:29:54.
