data_PCOD8245100
_publ_section_title
;
Structure prediction by ZEFSAII (Michael W. Deem and Ramdas Pophale) SiO2 
 PCOD8245100
Probable space group: P M M N
;
_chemical_formula_sum "Si O2"
_cell_formula_units_Z 48
_cell_length_a 8.732499
_cell_length_b 9.774567
_cell_length_c 28.873783
_cell_angle_alpha 90.000000
_cell_angle_beta 90.000000
_cell_angle_gamma 90.000000
_cell_volume 2464.562072
_symmetry_space_group_name_H-M "P M M N"
_symmetry_group_IT_number 59
_space_group.IT_coordinate_system_code '2'
_symmetry_cell_setting 'orthorhombic'
loop_
_space_group_symop_operation_xyz
x,y,z
1/2-x,1/2-y,z
1/2+x,-y,-z
-x,1/2+y,-z
-x,-y,-z
1/2+x,1/2+y,-z
1/2-x,y,z
x,1/2-y,z
loop_
_atom_site_type_symbol
_atom_site_label
_atom_site_fract_x
_atom_site_fract_y
_atom_site_fract_z
Si Si1 0.431832 0.037356 0.104054
Si Si2 0.427832 0.903563 0.798393
Si Si3 0.570064 0.250000 0.932024
Si Si4 0.566909 0.250000 0.036390
Si Si5 0.431945 0.594296 0.277309
Si Si6 0.069670 0.404126 0.461725
Si Si7 0.432187 0.403339 0.358680
O O1 0.250000 0.056782 0.106778
O O2 0.507001 0.094998 0.150157
O O3 0.498360 0.116145 0.060191
O O4 0.482576 0.880579 0.097462
O O5 0.250000 0.941212 0.799131
O O6 0.453981 0.750000 0.778355
O O7 0.515075 0.016412 0.768455
O O8 0.750000 0.250000 0.938189
O O9 0.503119 0.250000 0.983931
O O10 0.750000 0.250000 0.040098
O O11 0.250000 0.595700 0.277913
O O12 0.495181 0.750000 0.277831
O O13 0.497984 0.512935 0.322000
O O14 0.250000 0.416639 0.464226
O O15 0.016237 0.250000 0.472225
O O16 0.012858 0.446565 0.410202
O O17 0.000000 0.500000 0.500000
O O18 0.250000 0.401984 0.356954
O O19 0.492332 0.250000 0.346839
#
# Coordination Sequence:
#
# PCOD8245100 Si02
#       7
#     8   8   4   4   8   8   8
#     4  11  22  39  62  87 113 149 192 231 272 327
#     4  11  24  41  59  81 111 146 185 230 279 331
#     4   9  22  39  59  87 119 149 185 233 278 321
#     4  11  21  39  61  87 121 151 183 229 278 329
#     4  10  21  36  58  87 113 139 178 229 281 337
#     4   9  18  32  51  78 111 147 189 235 280 330
#     4   8  15  31  54  78 107 145 189 233 276 327
#
# _framework density 19.476075999999999
#
# number of rings (size 3 to 8) (size 9 to 14) (size 15 to 20)
#    0.000    2.167    0.833    3.250    1.167    3.000 
#    0.000    6.250    0.000    1.000    0.000    0.000 
#    0.000    0.000    0.000    0.000    0.000    0.000 
#
# Total GULP energy -595132.852030 kJ/mol
# GULP energy per Si atom -12398.601084 kJ/mol
# Density = 1.943175 g / cm^3
# Si number density = 19.476076 Si / 1000 Ang^3
#
#
#
# Elastic Constant Matrix: (Units=GPa)
#
#
# Indices 1 2 3 4 5 6 
#
# 1 14.9619 20.2888 6.6469 0.0000 0.0000 0.0000
# 2 20.2888 133.8672 50.9951 0.0000 0.0000 0.0000
# 3 6.6469 50.9951 103.9101 0.0000 0.0000 0.0000
# 4 0.0000 0.0000 0.0000 36.7987 0.0000 0.0000
# 5 0.0000 0.0000 0.0000 0.0000 28.2283 0.0000
# 6 0.0000 0.0000 0.0000 0.0000 0.0000 26.7367
#
#
#
# Elastic Compliance Matrix: (Units=1/GPa)
#
#
# Indices 1 2 3 4 5 6 
#
# 1 0.084224 -0.013176 0.001079 0.000000 0.000000 0.000000
# 2 -0.013176 0.011249 -0.004678 0.000000 0.000000 0.000000
# 3 0.001079 -0.004678 0.011850 0.000000 0.000000 0.000000
# 4 0.000000 0.000000 0.000000 0.027175 0.000000 0.000000
# 5 0.000000 0.000000 0.000000 0.000000 0.035425 0.000000
# 6 0.000000 0.000000 0.000000 0.000000 0.000000 0.037402
#
#
# Mechanical properties :
#
#
# Convention : Reuss Voigt Hill
#
# Bulk Modulus (GPa) = 13.55503 45.40009 29.47756
# Shear Modulus (GPa) = 18.83477 30.00662 24.42070
#
# Velocity S-wave (km/s) = 3.11315 3.92942 3.54486
# Velocity P-wave (km/s) = 4.46063 6.62936 5.65003
#
# Compressibility (1/GPa) = 0.07377337
#
# Stress axis : x y z
#
# Youngs Moduli (GPa) = 11.87310 88.89733 84.38572
#
# Poissons Ratio (x) = 1.17130 -0.09102
# Poissons Ratio (y) = 0.15644 0.39473
# Poissons Ratio (z) = -0.01281 0.41584
#
# Static dielectric constant tensor:
#      x y z
#    x 3.198500 0.000000 0.000000 
#    y 0.000000 4.010280 0.000000 
#    z 0.000000 0.000000 3.543210 
# 
# 
# High freq. dielectric constant tensor:
#      x y z
#    x 1.731560 0.000000 0.000000 
#    y 0.000000 1.769900 0.000000 
#    z 0.000000 0.000000 1.767630 
# 
# From -- ./inp_files/33097.got.cif
#   From: 2010.03.12/outbox.cif.g09.slc.cpg/sg59_17_cif.got.tgz:33097.got - 2010.04.16 16:29:54.
