data_PCOD8245615
_publ_section_title
;
Structure prediction by ZEFSAII (Michael W. Deem and Ramdas Pophale) SiO2 
 PCOD8245615
Probable space group: P M M N
;
_chemical_formula_sum "Si O2"
_cell_formula_units_Z 48
_cell_length_a 30.879307
_cell_length_b 8.868949
_cell_length_c 8.900361
_cell_angle_alpha 90.000000
_cell_angle_beta 90.000000
_cell_angle_gamma 90.000000
_cell_volume 2437.515157
_symmetry_space_group_name_H-M "P M M N"
_symmetry_group_IT_number 59
_space_group.IT_coordinate_system_code '2'
_symmetry_cell_setting 'orthorhombic'
loop_
_space_group_symop_operation_xyz
x,y,z
1/2-x,1/2-y,z
1/2+x,-y,-z
-x,1/2+y,-z
-x,-y,-z
1/2+x,1/2+y,-z
1/2-x,y,z
x,1/2-y,z
loop_
_atom_site_type_symbol
_atom_site_label
_atom_site_fract_x
_atom_site_fract_y
_atom_site_fract_z
Si Si1 0.250000 0.072523 0.167852
Si Si2 0.667868 0.427072 0.326385
Si Si3 0.917266 0.074146 0.850438
Si Si4 0.999804 0.426434 0.661482
Si Si5 0.829937 0.076360 0.672910
Si Si6 0.250000 0.071143 0.828133
Si Si7 0.586881 0.927134 0.169184
O O1 0.250000 0.250000 0.164470
O O2 0.292674 0.020701 0.252646
O O3 0.250000 0.008778 0.998351
O O4 0.674067 0.250000 0.301862
O O5 0.665087 0.470924 0.500432
O O6 0.707884 0.512326 0.254751
O O7 0.624206 0.478634 0.247793
O O8 0.921119 0.250000 0.895125
O O9 0.874906 0.041660 0.753247
O O10 0.958180 0.018564 0.754228
O O11 0.915393 0.970807 0.995972
O O12 0.997547 0.250000 0.635916
O O13 0.042184 0.474694 0.752960
O O14 0.000000 0.500000 0.500000
O O15 0.816579 0.250000 0.688125
O O16 0.250000 0.250000 0.823712
O O17 0.596400 0.750000 0.184329
#
# Coordination Sequence:
#
# PCOD8245615 Si02
#       7
#     4   8   8   8   8   4   8
#     4  11  24  39  58  84 116 151 186 231 290 344
#     4  11  23  40  62  87 116 155 197 238 288 347
#     4  10  21  39  61  85 115 154 196 240 289 347
#     4  10  22  39  60  87 119 154 195 241 293 350
#     4  10  22  39  60  85 113 147 193 240 282 337
#     4  11  24  41  60  88 122 153 192 243 292 344
#     4  11  23  38  58  88 121 153 192 241 292 345
#
# _framework density 19.692186
#
# number of rings (size 3 to 8) (size 9 to 14) (size 15 to 20)
#    0.000    1.500    0.000    4.500    0.000   11.333 
#    0.000    0.000    0.000    0.000    0.000    0.000 
#    0.000    0.000    0.000    0.000    0.000    0.000 
#
# Total GULP energy -595489.613071 kJ/mol
# GULP energy per Si atom -12406.033606 kJ/mol
# Density = 1.964737 g / cm^3
# Si number density = 19.692186 Si / 1000 Ang^3
#
#
#
# Elastic Constant Matrix: (Units=GPa)
#
#
# Indices 1 2 3 4 5 6 
#
# 1 148.0055 37.6532 68.0208 0.0000 0.0000 0.0000
# 2 37.6532 50.7522 45.8269 0.0000 0.0000 0.0000
# 3 68.0208 45.8269 164.8706 0.0000 0.0000 0.0000
# 4 0.0000 0.0000 0.0000 36.3796 0.0000 0.0000
# 5 0.0000 0.0000 0.0000 0.0000 44.4854 0.0000
# 6 0.0000 0.0000 0.0000 0.0000 0.0000 60.6136
#
#
#
# Elastic Compliance Matrix: (Units=1/GPa)
#
#
# Indices 1 2 3 4 5 6 
#
# 1 0.009034 -0.004455 -0.002489 0.000000 0.000000 0.000000
# 2 -0.004455 0.028503 -0.006085 0.000000 0.000000 0.000000
# 3 -0.002489 -0.006085 0.008783 0.000000 0.000000 0.000000
# 4 0.000000 0.000000 0.000000 0.027488 0.000000 0.000000
# 5 0.000000 0.000000 0.000000 0.000000 0.022479 0.000000
# 6 0.000000 0.000000 0.000000 0.000000 0.000000 0.016498
#
#
# Mechanical properties :
#
#
# Convention : Reuss Voigt Hill
#
# Bulk Modulus (GPa) = 49.35007 74.07000 61.71004
# Shear Modulus (GPa) = 34.34166 42.43754 38.38960
#
# Velocity S-wave (km/s) = 4.18056 4.64728 4.42009
# Velocity P-wave (km/s) = 6.95830 8.15425 7.57990
#
# Compressibility (1/GPa) = 0.02026340
#
# Stress axis : x y z
#
# Youngs Moduli (GPa) = 110.69756 35.08436 113.85106
#
# Poissons Ratio (x) = 0.15629 0.28335
# Poissons Ratio (y) = 0.49314 0.69274
# Poissons Ratio (z) = 0.27550 0.21347
#
# Static dielectric constant tensor:
#      x y z
#    x 3.770180 0.000000 0.000000 
#    y 0.000000 3.571350 0.000000 
#    z 0.000000 0.000000 3.783100 
# 
# 
# High freq. dielectric constant tensor:
#      x y z
#    x 1.789060 0.000000 0.000000 
#    y 0.000000 1.767340 0.000000 
#    z 0.000000 0.000000 1.786920 
# 
# From -- ./inp_files/13000.got.cif
#   From: 2010.03.12/outbox.cif.g09.slc.cpg/sg59_7_cif.got.tgz:13000.got - 2010.04.16 16:29:54.
