data_PCOD8245691
_publ_section_title
;
Structure prediction by ZEFSAII (Michael W. Deem and Ramdas Pophale) SiO2 
 PCOD8245691
Probable space group: P M M N
;
_chemical_formula_sum "Si O2"
_cell_formula_units_Z 48
_cell_length_a 8.457053
_cell_length_b 30.652122
_cell_length_c 9.558213
_cell_angle_alpha 90.000000
_cell_angle_beta 90.000000
_cell_angle_gamma 90.000000
_cell_volume 2477.743252
_symmetry_space_group_name_H-M "P M M N"
_symmetry_group_IT_number 59
_space_group.IT_coordinate_system_code '2'
_symmetry_cell_setting 'orthorhombic'
loop_
_space_group_symop_operation_xyz
x,y,z
1/2-x,1/2-y,z
1/2+x,-y,-z
-x,1/2+y,-z
-x,-y,-z
1/2+x,1/2+y,-z
1/2-x,y,z
x,1/2-y,z
loop_
_atom_site_type_symbol
_atom_site_label
_atom_site_fract_x
_atom_site_fract_y
_atom_site_fract_z
Si Si1 0.565222 0.637563 0.412989
Si Si2 0.435994 0.800397 0.195906
Si Si3 0.066268 0.368899 0.014281
Si Si4 0.936398 0.012055 0.348655
Si Si5 0.065194 0.568685 0.208351
Si Si6 0.066451 0.611154 0.693145
O O1 0.750000 0.633560 0.381002
O O2 0.498601 0.681828 0.344427
O O3 0.476927 0.595781 0.347611
O O4 0.531476 0.638326 0.578013
O O5 0.250000 0.808659 0.185189
O O6 0.481026 0.750000 0.184232
O O7 0.521492 0.825572 0.070497
O O8 0.250000 0.368838 0.050468
O O9 0.968357 0.368187 0.156979
O O10 0.025344 0.411912 0.925077
O O11 0.750000 0.005502 0.346565
O O12 0.987468 0.060833 0.308834
O O13 0.000000 0.000000 0.500000
O O14 0.014152 0.981153 0.231348
O O15 0.250000 0.571710 0.178039
O O16 0.250000 0.615702 0.657152
#
# Coordination Sequence:
#
# PCOD8245691 Si02
#       6
#     8   8   8   8   8   8
#     4  11  21  35  59  87 117 149 189 238 285 338
#     4  10  21  40  66  91 116 149 188 230 283 351
#     4  11  23  39  60  86 118 154 193 241 293 347
#     4  11  22  35  56  83 114 154 201 249 293 339
#     4  11  21  36  57  81 114 156 199 242 285 340
#     4  11  23  39  58  83 118 157 195 239 293 347
#
# _framework density 19.372468000000001
#
# number of rings (size 3 to 8) (size 9 to 14) (size 15 to 20)
#    0.000    1.167    1.667    8.000    0.000    4.000 
#    0.000    0.833    0.000    5.000    0.000    0.000 
#    0.000    0.000    0.000    0.000    0.000    0.000 
#
# Total GULP energy -595503.937458 kJ/mol
# GULP energy per Si atom -12406.332030 kJ/mol
# Density = 1.932838 g / cm^3
# Si number density = 19.372468 Si / 1000 Ang^3
#
#
#
# Elastic Constant Matrix: (Units=GPa)
#
#
# Indices 1 2 3 4 5 6 
#
# 1 85.5168 32.8942 3.9476 0.0000 0.0000 0.0000
# 2 32.8942 99.6622 35.0361 0.0000 0.0000 0.0000
# 3 3.9476 35.0361 103.7932 0.0000 0.0000 0.0000
# 4 0.0000 0.0000 0.0000 16.8453 0.0000 0.0000
# 5 0.0000 0.0000 0.0000 0.0000 34.6386 0.0000
# 6 0.0000 0.0000 0.0000 0.0000 0.0000 28.6363
#
#
#
# Elastic Compliance Matrix: (Units=1/GPa)
#
#
# Indices 1 2 3 4 5 6 
#
# 1 0.013509 -0.004854 0.001125 0.000000 0.000000 0.000000
# 2 -0.004854 0.013129 -0.004247 0.000000 0.000000 0.000000
# 3 0.001125 -0.004247 0.011025 0.000000 0.000000 0.000000
# 4 0.000000 0.000000 0.000000 0.059364 0.000000 0.000000
# 5 0.000000 0.000000 0.000000 0.000000 0.028870 0.000000
# 6 0.000000 0.000000 0.000000 0.000000 0.000000 0.034921
#
#
# Mechanical properties :
#
#
# Convention : Reuss Voigt Hill
#
# Bulk Modulus (GPa) = 46.06111 48.08088 47.07099
# Shear Modulus (GPa) = 27.17285 30.49699 28.83492
#
# Velocity S-wave (km/s) = 3.74926 3.97198 3.86223
# Velocity P-wave (km/s) = 6.52463 6.77558 6.65129
#
# Compressibility (1/GPa) = 0.02171029
#
# Stress axis : x y z
#
# Youngs Moduli (GPa) = 74.02575 76.16660 90.69933
#
# Poissons Ratio (x) = 0.36972 -0.10201
# Poissons Ratio (y) = 0.35933 0.38522
# Poissons Ratio (z) = -0.08326 0.32350
#
# Static dielectric constant tensor:
#      x y z
#    x 3.634580 0.000000 0.000000 
#    y 0.000000 3.557250 0.000000 
#    z 0.000000 0.000000 3.464980 
# 
# 
# High freq. dielectric constant tensor:
#      x y z
#    x 1.772340 0.000000 0.000000 
#    y 0.000000 1.740290 0.000000 
#    z 0.000000 0.000000 1.752560 
# 
# From -- ./inp_files/6266.got.cif
#   From: 2010.03.12/outbox.cif.g09.slc.cpg/sg59_4_cif.got.tgz:6266.got - 2010.04.16 16:29:54.
