data_PCOD8245238
_publ_section_title
;
Structure prediction by ZEFSAII (Michael W. Deem and Ramdas Pophale) SiO2 
 PCOD8245238
Probable space group: P M M N
;
_chemical_formula_sum "Si O2"
_cell_formula_units_Z 64
_cell_length_a 8.819181
_cell_length_b 20.105941
_cell_length_c 18.389035
_cell_angle_alpha 90.000000
_cell_angle_beta 90.000000
_cell_angle_gamma 90.000000
_cell_volume 3260.705673
_symmetry_space_group_name_H-M "P M M N"
_symmetry_group_IT_number 59
_space_group.IT_coordinate_system_code '2'
_symmetry_cell_setting 'orthorhombic'
loop_
_space_group_symop_operation_xyz
x,y,z
1/2-x,1/2-y,z
1/2+x,-y,-z
-x,1/2+y,-z
-x,-y,-z
1/2+x,1/2+y,-z
1/2-x,y,z
x,1/2-y,z
loop_
_atom_site_type_symbol
_atom_site_label
_atom_site_fract_x
_atom_site_fract_y
_atom_site_fract_z
Si Si1 0.428924 0.944922 0.551103
Si Si2 0.572097 0.943277 0.705247
Si Si3 0.923880 0.173520 0.051031
Si Si4 0.926883 0.562289 0.039163
Si Si5 0.573860 0.826887 0.471240
Si Si6 0.075778 0.673468 0.781783
Si Si7 0.929890 0.823382 0.307005
Si Si8 0.569964 0.558233 0.205449
O O1 0.250000 0.951499 0.549141
O O2 0.485593 0.960210 0.631612
O O3 0.477084 0.871247 0.526307
O O4 0.500000 0.000000 0.500000
O O5 0.750000 0.950733 0.692720
O O6 0.534199 0.868671 0.730583
O O7 0.514208 0.992856 0.767147
O O8 0.750000 0.153063 0.037862
O O9 0.950618 0.250000 0.030412
O O10 0.967597 0.160624 0.134550
O O11 0.030940 0.130490 0.000135
O O12 0.750000 0.551305 0.035101
O O13 0.980095 0.567904 0.122403
O O14 0.000000 0.500000 0.000000
O O15 0.750000 0.845237 0.480500
O O16 0.544982 0.750000 0.490772
O O17 0.519160 0.841988 0.388864
O O18 0.250000 0.652718 0.768074
O O19 0.050697 0.750000 0.761222
O O20 0.750000 0.820514 0.304869
O O21 0.993729 0.750000 0.285937
O O22 0.991140 0.878070 0.250648
O O23 0.750000 0.549382 0.214313
#
# Coordination Sequence:
#
# PCOD8245238 Si02
#       8
#     8   8   8   8   8   8   8   8
#     4  12  25  41  61  84 114 151 192 237 284 335
#     4  12  25  39  58  85 115 147 186 233 286 342
#     4   9  19  37  60  84 113 150 190 235 288 343
#     4  11  23  36  54  81 113 151 193 238 286 339
#     4   9  18  35  60  88 116 147 185 228 277 336
#     4   9  19  38  62  85 111 147 190 234 284 341
#     4   8  15  31  57  84 108 138 176 220 271 324
#     4  10  21  37  57  81 111 148 190 235 281 333
#
# _framework density 19.627654
#
# number of rings (size 3 to 8) (size 9 to 14) (size 15 to 20)
#    0.000    2.000    0.000    5.625    0.000    7.250 
#    0.000    2.500    0.000    1.125    0.000    0.000 
#    0.000    0.000    0.000    0.000    0.000    0.000 
#
# Total GULP energy -793800.315035 kJ/mol
# GULP energy per Si atom -12403.129922 kJ/mol
# Density = 1.958298 g / cm^3
# Si number density = 19.627654 Si / 1000 Ang^3
#
#
#
# Elastic Constant Matrix: (Units=GPa)
#
#
# Indices 1 2 3 4 5 6 
#
# 1 82.3593 35.6359 39.5045 0.0000 0.0000 0.0000
# 2 35.6359 92.0108 39.8372 0.0000 0.0000 0.0000
# 3 39.5045 39.8372 89.7075 0.0000 0.0000 0.0000
# 4 0.0000 0.0000 0.0000 40.7735 0.0000 0.0000
# 5 0.0000 0.0000 0.0000 0.0000 30.3769 0.0000
# 6 0.0000 0.0000 0.0000 0.0000 0.0000 31.5547
#
#
#
# Elastic Compliance Matrix: (Units=1/GPa)
#
#
# Indices 1 2 3 4 5 6 
#
# 1 0.016513 -0.004020 -0.005487 0.000000 0.000000 0.000000
# 2 -0.004020 0.014434 -0.004640 0.000000 0.000000 0.000000
# 3 -0.005487 -0.004640 0.015624 0.000000 0.000000 0.000000
# 4 0.000000 0.000000 0.000000 0.024526 0.000000 0.000000
# 5 0.000000 0.000000 0.000000 0.000000 0.032920 0.000000
# 6 0.000000 0.000000 0.000000 0.000000 0.000000 0.031691
#
#
# Mechanical properties :
#
#
# Convention : Reuss Voigt Hill
#
# Bulk Modulus (GPa) = 54.70919 54.89252 54.80085
# Shear Modulus (GPa) = 29.39576 30.48103 29.93839
#
# Velocity S-wave (km/s) = 3.87417 3.94504 3.90977
# Velocity P-wave (km/s) = 6.92433 6.98418 6.95432
#
# Compressibility (1/GPa) = 0.01827847
#
# Stress axis : x y z
#
# Youngs Moduli (GPa) = 60.55816 69.28090 64.00480
#
# Poissons Ratio (x) = 0.27851 0.35117
# Poissons Ratio (y) = 0.24344 0.29695
# Poissons Ratio (z) = 0.33226 0.32143
#
# Static dielectric constant tensor:
#      x y z
#    x 3.389350 0.000000 0.000000 
#    y 0.000000 3.401600 0.000000 
#    z 0.000000 0.000000 3.612970 
# 
# 
# High freq. dielectric constant tensor:
#      x y z
#    x 1.745810 0.000000 0.000000 
#    y 0.000000 1.779330 0.000000 
#    z 0.000000 0.000000 1.769150 
# 
# From -- ./inp_files/26184.got.cif
#   From: 2010.03.12/outbox.cif.g09.slc.cpg/sg59_14_cif.got.tgz:26184.got - 2010.04.16 16:29:54.
