data_PCOD8245307
_publ_section_title
;
Structure prediction by ZEFSAII (Michael W. Deem and Ramdas Pophale) SiO2 
 PCOD8245307
Probable space group: P M M N
;
_chemical_formula_sum "Si O2"
_cell_formula_units_Z 64
_cell_length_a 31.007586
_cell_length_b 8.938102
_cell_length_c 12.029034
_cell_angle_alpha 90.000000
_cell_angle_beta 90.000000
_cell_angle_gamma 90.000000
_cell_volume 3333.834340
_symmetry_space_group_name_H-M "P M M N"
_symmetry_group_IT_number 59
_space_group.IT_coordinate_system_code '2'
_symmetry_cell_setting 'orthorhombic'
loop_
_space_group_symop_operation_xyz
x,y,z
1/2-x,1/2-y,z
1/2+x,-y,-z
-x,1/2+y,-z
-x,-y,-z
1/2+x,1/2+y,-z
1/2-x,y,z
x,1/2-y,z
loop_
_atom_site_type_symbol
_atom_site_label
_atom_site_fract_x
_atom_site_fract_y
_atom_site_fract_z
Si Si1 0.632581 0.923018 0.104005
Si Si2 0.122457 0.078175 0.379795
Si Si3 0.557346 0.077002 0.240937
Si Si4 0.601474 0.919521 0.864233
Si Si5 0.014241 0.574806 0.113584
Si Si6 0.453562 0.923115 0.507192
Si Si7 0.699710 0.419669 0.242114
Si Si8 0.798846 0.574465 0.471352
O O1 0.627912 0.750000 0.135444
O O2 0.595174 0.011526 0.166372
O O3 0.678189 0.985898 0.143952
O O4 0.631130 0.948770 0.971565
O O5 0.113902 0.250000 0.411221
O O6 0.129124 0.056732 0.247631
O O7 0.167257 0.022789 0.434650
O O8 0.080502 0.988625 0.419819
O O9 0.551412 0.250000 0.209979
O O10 0.567154 0.054447 0.370868
O O11 0.513185 0.990847 0.215099
O O12 0.582622 0.750000 0.868472
O O13 0.563660 0.039927 0.862831
O O14 0.006375 0.750000 0.104852
O O15 0.000000 0.500000 0.000000
O O16 0.460541 0.750000 0.479031
O O17 0.500000 0.000000 0.500000
O O18 0.750000 0.427953 0.219264
O O19 0.682474 0.250000 0.240395
O O20 0.687429 0.488791 0.360443
O O21 0.750000 0.530752 0.508197
O O22 0.801758 0.750000 0.447040
#
# Coordination Sequence:
#
# PCOD8245307 Si02
#       8
#     8   8   8   8   8   8   8   8
#     4  11  22  36  57  83 111 145 186 230 277 332
#     4  10  21  38  59  83 116 154 190 237 291 342
#     4  11  23  38  57  82 113 146 185 234 283 332
#     4  10  22  39  56  80 114 151 192 236 282 335
#     4  12  23  36  56  81 110 148 192 237 283 334
#     4  11  24  39  56  81 113 150 191 237 286 341
#     4  10  21  37  58  84 115 147 179 226 286 340
#     4   9  18  35  61  90 116 146 188 234 284 345
#
# _framework density 19.197113999999999
#
# number of rings (size 3 to 8) (size 9 to 14) (size 15 to 20)
#    0.000    1.500    1.250    4.125    0.000    9.250 
#    0.000    0.625    0.000    2.250    0.000    1.750 
#    0.000    0.000    0.000    0.000    0.000    0.000 
#
# Total GULP energy -793810.525088 kJ/mol
# GULP energy per Si atom -12403.289454 kJ/mol
# Density = 1.915342 g / cm^3
# Si number density = 19.197114 Si / 1000 Ang^3
#
#
#
# Elastic Constant Matrix: (Units=GPa)
#
#
# Indices 1 2 3 4 5 6 
#
# 1 99.1412 44.1478 61.3323 0.0000 0.0000 0.0000
# 2 44.1478 113.4785 56.7988 0.0000 0.0000 0.0000
# 3 61.3323 56.7988 130.9089 0.0000 0.0000 0.0000
# 4 0.0000 0.0000 0.0000 22.7425 0.0000 0.0000
# 5 0.0000 0.0000 0.0000 0.0000 34.7524 0.0000
# 6 0.0000 0.0000 0.0000 0.0000 0.0000 31.0115
#
#
#
# Elastic Compliance Matrix: (Units=1/GPa)
#
#
# Indices 1 2 3 4 5 6 
#
# 1 0.014938 -0.002949 -0.005719 0.000000 0.000000 0.000000
# 2 -0.002949 0.011839 -0.003755 0.000000 0.000000 0.000000
# 3 -0.005719 -0.003755 0.011948 0.000000 0.000000 0.000000
# 4 0.000000 0.000000 0.000000 0.043971 0.000000 0.000000
# 5 0.000000 0.000000 0.000000 0.000000 0.028775 0.000000
# 6 0.000000 0.000000 0.000000 0.000000 0.000000 0.032246
#
#
# Mechanical properties :
#
#
# Convention : Reuss Voigt Hill
#
# Bulk Modulus (GPa) = 72.05506 74.23182 73.14344
# Shear Modulus (GPa) = 28.87030 29.78459 29.32745
#
# Velocity S-wave (km/s) = 3.88221 3.94320 3.91282
# Velocity P-wave (km/s) = 7.59679 7.71258 7.65490
#
# Compressibility (1/GPa) = 0.01387827
#
# Stress axis : x y z
#
# Youngs Moduli (GPa) = 66.94435 84.46654 83.69861
#
# Poissons Ratio (x) = 0.24908 0.47868
# Poissons Ratio (y) = 0.19741 0.31430
# Poissons Ratio (z) = 0.38286 0.31718
#
# Static dielectric constant tensor:
#      x y z
#    x 3.703930 0.000000 0.000000 
#    y 0.000000 3.674550 0.000000 
#    z 0.000000 0.000000 3.307760 
# 
# 
# High freq. dielectric constant tensor:
#      x y z
#    x 1.738780 0.000000 0.000000 
#    y 0.000000 1.755080 0.000000 
#    z 0.000000 0.000000 1.751700 
# 
# From -- ./inp_files/19229.got.cif
#   From: 2010.03.12/outbox.cif.g09.slc.cpg/sg59_10_cif.got.tgz:19229.got - 2010.04.16 16:29:54.
