data_PCOD8245908
_publ_section_title
;
Structure prediction by ZEFSAII (Michael W. Deem and Ramdas Pophale) SiO2 
 PCOD8245908
Probable space group: P M M N
;
_chemical_formula_sum "Si O2"
_cell_formula_units_Z 32
_cell_length_a 8.523354
_cell_length_b 23.663568
_cell_length_c 7.682882
_cell_angle_alpha 90.000000
_cell_angle_beta 90.000000
_cell_angle_gamma 90.000000
_cell_volume 1549.583265
_symmetry_space_group_name_H-M "P M M N"
_symmetry_group_IT_number 59
_space_group.IT_coordinate_system_code '2'
_symmetry_cell_setting 'orthorhombic'
loop_
_space_group_symop_operation_xyz
x,y,z
1/2-x,1/2-y,z
1/2+x,-y,-z
-x,1/2+y,-z
-x,-y,-z
1/2+x,1/2+y,-z
1/2-x,y,z
x,1/2-y,z
loop_
_atom_site_type_symbol
_atom_site_label
_atom_site_fract_x
_atom_site_fract_y
_atom_site_fract_z
Si Si1 0.432393 0.114941 0.168392
Si Si2 0.067465 0.814950 0.520243
Si Si3 0.068289 0.887360 0.188007
Si Si4 0.066726 0.501869 0.692461
O O1 0.250000 0.118020 0.127759
O O2 0.469090 0.153351 0.333783
O O3 0.480646 0.050434 0.200407
O O4 0.525966 0.138490 0.000354
O O5 0.250000 0.822246 0.564032
O O6 0.016143 0.750000 0.516373
O O7 0.026503 0.840970 0.332756
O O8 0.250000 0.904558 0.197714
O O9 0.962582 0.942650 0.213891
O O10 0.250000 0.515768 0.685410
O O11 0.000000 0.500000 0.500000
#
# Coordination Sequence:
#
# PCOD8245908 Si02
#       4
#     8   8   8   8
#     4  12  25  41  64  95 131 169 209 260 316 376
#     4  10  23  44  68  92 122 165 216 266 316 373
#     4  11  23  41  66  95 129 168 211 261 314 377
#     4  12  23  39  64  95 130 167 207 257 316 381
#
# _framework density 20.650714000000001
#
# number of rings (size 3 to 8) (size 9 to 14) (size 15 to 20)
#    0.000    0.750    2.500    6.000    0.000    2.500 
#    0.000    2.500    0.000    0.000    0.000    0.000 
#    0.000    0.000    0.000    0.000    0.000    0.000 
#
# Total GULP energy -397047.331737 kJ/mol
# GULP energy per Si atom -12407.729117 kJ/mol
# Density = 2.060371 g / cm^3
# Si number density = 20.650714 Si / 1000 Ang^3
#
#
#
# Elastic Constant Matrix: (Units=GPa)
#
#
# Indices 1 2 3 4 5 6 
#
# 1 70.1812 26.8805 32.4115 0.0000 0.0000 0.0000
# 2 26.8805 84.8534 0.6801 0.0000 0.0000 0.0000
# 3 32.4115 0.6801 107.0272 0.0000 0.0000 0.0000
# 4 0.0000 0.0000 0.0000 5.3749 0.0000 0.0000
# 5 0.0000 0.0000 0.0000 0.0000 30.6499 0.0000
# 6 0.0000 0.0000 0.0000 0.0000 0.0000 23.7115
#
#
#
# Elastic Compliance Matrix: (Units=1/GPa)
#
#
# Indices 1 2 3 4 5 6 
#
# 1 0.019238 -0.006048 -0.005788 0.000000 0.000000 0.000000
# 2 -0.006048 0.013687 0.001745 0.000000 0.000000 0.000000
# 3 -0.005788 0.001745 0.011085 0.000000 0.000000 0.000000
# 4 0.000000 0.000000 0.000000 0.186051 0.000000 0.000000
# 5 0.000000 0.000000 0.000000 0.000000 0.032627 0.000000
# 6 0.000000 0.000000 0.000000 0.000000 0.000000 0.042174
#
#
# Mechanical properties :
#
#
# Convention : Reuss Voigt Hill
#
# Bulk Modulus (GPa) = 41.96711 42.44509 42.20610
# Shear Modulus (GPa) = 15.01567 25.41992 20.21780
#
# Velocity S-wave (km/s) = 2.69945 3.51229 3.13235
# Velocity P-wave (km/s) = 5.48475 6.08660 5.79350
#
# Compressibility (1/GPa) = 0.02382818
#
# Stress axis : x y z
#
# Youngs Moduli (GPa) = 51.98007 73.06210 90.21204
#
# Poissons Ratio (x) = 0.44188 0.52211
# Poissons Ratio (y) = 0.31438 -0.15738
# Poissons Ratio (z) = 0.30084 -0.12746
#
# Static dielectric constant tensor:
#      x y z
#    x 3.736940 0.000000 0.000000 
#    y 0.000000 3.752180 0.000000 
#    z 0.000000 0.000000 3.930830 
# 
# 
# High freq. dielectric constant tensor:
#      x y z
#    x 1.813750 0.000000 0.000000 
#    y 0.000000 1.799300 0.000000 
#    z 0.000000 0.000000 1.828580 
# 
# From -- ./inp_files/5339.got.cif
#   From: 2010.03.12/outbox.cif.g09.slc.cpg/sg59_3_cif.got.tgz:5339.got - 2010.04.16 16:29:54.
