data_PCOD8245702
_publ_section_title
;
Structure prediction by ZEFSAII (Michael W. Deem and Ramdas Pophale) SiO2 
 PCOD8245702
Probable space group: P M M N
;
_chemical_formula_sum "Si O2"
_cell_formula_units_Z 64
_cell_length_a 18.957512
_cell_length_b 13.397084
_cell_length_c 14.365619
_cell_angle_alpha 90.000000
_cell_angle_beta 90.000000
_cell_angle_gamma 90.000000
_cell_volume 3648.513554
_symmetry_space_group_name_H-M "P M M N"
_symmetry_group_IT_number 59
_space_group.IT_coordinate_system_code '2'
_symmetry_cell_setting 'orthorhombic'
loop_
_space_group_symop_operation_xyz
x,y,z
1/2-x,1/2-y,z
1/2+x,-y,-z
-x,1/2+y,-z
-x,-y,-z
1/2+x,1/2+y,-z
1/2-x,y,z
x,1/2-y,z
loop_
_atom_site_type_symbol
_atom_site_label
_atom_site_fract_x
_atom_site_fract_y
_atom_site_fract_z
Si Si1 0.040682 0.369089 0.918463
Si Si2 0.916803 0.504551 0.917462
Si Si3 0.833829 0.358699 0.264913
Si Si4 0.666249 0.860618 0.563394
Si Si5 0.332025 0.034864 0.615279
Si Si6 0.167104 0.134538 0.227618
Si Si7 0.826923 0.864898 0.198889
Si Si8 0.667182 0.136074 0.055392
O O1 0.028727 0.250000 0.912132
O O2 0.111488 0.406189 0.866605
O O3 0.975051 0.429524 0.873261
O O4 0.046320 0.405110 0.025494
O O5 0.872797 0.556100 0.836401
O O6 0.867609 0.438975 0.983525
O O7 0.750000 0.353537 0.272254
O O8 0.866738 0.250000 0.284540
O O9 0.865848 0.433521 0.342351
O O10 0.853721 0.395722 0.161049
O O11 0.750000 0.856389 0.553062
O O12 0.635589 0.750000 0.546396
O O13 0.633436 0.933311 0.483595
O O14 0.646334 0.896406 0.666931
O O15 0.250000 0.016420 0.597964
O O16 0.344797 0.120495 0.692370
O O17 0.250000 0.122256 0.210310
O O18 0.145637 0.250000 0.207748
O O19 0.750000 0.916582 0.176173
O O20 0.819057 0.750000 0.177455
O O21 0.750000 0.130409 0.040084
O O22 0.641170 0.250000 0.037719
#
# Coordination Sequence:
#
# PCOD8245702 Si02
#       8
#     8   8   8   8   8   8   8   8
#     4  10  22  35  46  67  96 125 159 200 245 290
#     4  11  20  32  50  66  91 130 168 198 236 288
#     4   8  14  23  35  56  87 119 151 189 232 276
#     4   8  14  25  42  68  99 123 147 187 237 283
#     4   9  14  22  42  68  92 119 150 186 234 290
#     4   9  18  32  51  76 102 126 158 202 244 279
#     4   9  17  29  46  70  97 119 144 187 243 297
#     4   9  17  29  46  69  95 124 161 201 238 283
#
# _framework density 17.54139
#
# number of rings (size 3 to 8) (size 9 to 14) (size 15 to 20)
#    0.000    2.875    0.000    3.750    0.000    3.500 
#    0.000    1.250    0.000    3.000    0.000    5.250 
#    0.000    0.000    0.000    0.000    0.000    0.000 
#
# Total GULP energy -792910.902270 kJ/mol
# GULP energy per Si atom -12389.232848 kJ/mol
# Density = 1.750147 g / cm^3
# Si number density = 17.541390 Si / 1000 Ang^3
#
#
#
# Elastic Constant Matrix: (Units=GPa)
#
#
# Indices 1 2 3 4 5 6 
#
# 1 54.7639 44.0380 43.6512 0.0000 0.0000 0.0000
# 2 44.0380 109.0729 74.3119 0.0000 0.0000 0.0000
# 3 43.6512 74.3119 127.4048 0.0000 0.0000 0.0000
# 4 0.0000 0.0000 0.0000 34.4787 0.0000 0.0000
# 5 0.0000 0.0000 0.0000 0.0000 4.4097 0.0000
# 6 0.0000 0.0000 0.0000 0.0000 0.0000 20.5699
#
#
#
# Elastic Compliance Matrix: (Units=1/GPa)
#
#
# Indices 1 2 3 4 5 6 
#
# 1 0.028937 -0.008179 -0.005144 0.000000 0.000000 0.000000
# 2 -0.008179 0.017526 -0.007420 0.000000 0.000000 0.000000
# 3 -0.005144 -0.007420 0.013939 0.000000 0.000000 0.000000
# 4 0.000000 0.000000 0.000000 0.029003 0.000000 0.000000
# 5 0.000000 0.000000 0.000000 0.000000 0.226771 0.000000
# 6 0.000000 0.000000 0.000000 0.000000 0.000000 0.048615
#
#
# Mechanical properties :
#
#
# Convention : Reuss Voigt Hill
#
# Bulk Modulus (GPa) = 52.86344 68.36042 60.61193
# Shear Modulus (GPa) = 12.11879 20.50770 16.31324
#
# Velocity S-wave (km/s) = 2.63129 3.42293 3.05288
# Velocity P-wave (km/s) = 6.27960 7.39442 6.85969
#
# Compressibility (1/GPa) = 0.01891666
#
# Stress axis : x y z
#
# Youngs Moduli (GPa) = 34.55755 57.05913 71.73935
#
# Poissons Ratio (x) = 0.46667 0.36903
# Poissons Ratio (y) = 0.28264 0.53231
# Poissons Ratio (z) = 0.17776 0.42338
#
# Static dielectric constant tensor:
#      x y z
#    x 3.045380 0.000000 0.000000 
#    y 0.000000 3.561550 0.000000 
#    z 0.000000 0.000000 3.299600 
# 
# 
# High freq. dielectric constant tensor:
#      x y z
#    x 1.636100 0.000000 0.000000 
#    y 0.000000 1.689280 0.000000 
#    z 0.000000 0.000000 1.664100 
# 
# From -- ./inp_files/24030.got.cif
#   From: 2010.03.12/outbox.cif.g09.slc.cpg/sg59_13_cif.got.tgz:24030.got - 2010.04.16 16:29:54.
