data_PCOD8245863
_publ_section_title
;
Structure prediction by ZEFSAII (Michael W. Deem and Ramdas Pophale) SiO2 
 PCOD8245863
Probable space group: P M M N
;
_chemical_formula_sum "Si O2"
_cell_formula_units_Z 64
_cell_length_a 27.525522
_cell_length_b 8.753247
_cell_length_c 12.943265
_cell_angle_alpha 90.000000
_cell_angle_beta 90.000000
_cell_angle_gamma 90.000000
_cell_volume 3118.520407
_symmetry_space_group_name_H-M "P M M N"
_symmetry_group_IT_number 59
_space_group.IT_coordinate_system_code '2'
_symmetry_cell_setting 'orthorhombic'
loop_
_space_group_symop_operation_xyz
x,y,z
1/2-x,1/2-y,z
1/2+x,-y,-z
-x,1/2+y,-z
-x,-y,-z
1/2+x,1/2+y,-z
1/2-x,y,z
x,1/2-y,z
loop_
_atom_site_type_symbol
_atom_site_label
_atom_site_fract_x
_atom_site_fract_y
_atom_site_fract_z
Si Si1 0.194074 0.930267 0.494624
Si Si2 0.451350 0.417696 0.771974
Si Si3 0.466279 0.917581 0.078117
Si Si4 0.192927 0.079336 0.706177
Si Si5 0.369517 0.073966 0.097860
Si Si6 0.012758 0.070003 0.390847
Si Si7 0.362955 0.570434 0.885490
Si Si8 0.378004 0.069182 0.328839
O O1 0.250000 0.981358 0.472823
O O2 0.190722 0.750000 0.503871
O O3 0.174037 0.000475 0.601672
O O4 0.158749 0.987257 0.405660
O O5 0.430203 0.250000 0.739516
O O6 0.503737 0.388111 0.819823
O O7 0.464998 0.523529 0.675502
O O8 0.414673 0.498048 0.852591
O O9 0.445994 0.750000 0.039684
O O10 0.426445 0.044856 0.097319
O O11 0.500000 0.000000 0.000000
O O12 0.250000 0.082691 0.705574
O O13 0.171212 0.250000 0.711929
O O14 0.177433 0.984257 0.805788
O O15 0.357237 0.250000 0.077351
O O16 0.355932 0.024751 0.215126
O O17 0.346622 0.978626 0.002145
O O18 0.013896 0.250000 0.399244
O O19 0.065987 0.014006 0.347979
O O20 0.000000 0.000000 0.500000
O O21 0.366994 0.750000 0.880531
O O22 0.375069 0.250000 0.344363
#
# Coordination Sequence:
#
# PCOD8245863 Si02
#       8
#     8   8   8   8   8   8   8   8
#     4  10  22  41  67  97 125 155 198 252 307 364
#     4  11  23  38  57  83 118 160 205 251 298 356
#     4  11  21  33  54  80 112 154 200 246 291 341
#     4  10  22  43  70  95 122 156 196 246 305 368
#     4  11  22  39  59  84 121 163 208 255 302 360
#     4  11  24  41  58  84 122 164 209 255 309 366
#     4  12  25  39  61  92 125 161 203 253 307 366
#     4  10  23  41  63  88 121 165 209 254 305 365
#
# _framework density 20.522551
#
# number of rings (size 3 to 8) (size 9 to 14) (size 15 to 20)
#    0.000    1.250    2.500    3.375    1.750    4.500 
#    0.000    0.625    0.000    0.750    0.000    0.000 
#    0.000    0.000    0.000    0.000    0.000    0.000 
#
# Total GULP energy -792945.893132 kJ/mol
# GULP energy per Si atom -12389.779580 kJ/mol
# Density = 2.047584 g / cm^3
# Si number density = 20.522551 Si / 1000 Ang^3
#
#
#
# Elastic Constant Matrix: (Units=GPa)
#
#
# Indices 1 2 3 4 5 6 
#
# 1 46.1946 26.9581 32.8753 0.0000 0.0000 0.0000
# 2 26.9581 105.3247 66.2497 0.0000 0.0000 0.0000
# 3 32.8753 66.2497 146.6782 0.0000 0.0000 0.0000
# 4 0.0000 0.0000 0.0000 35.7963 0.0000 0.0000
# 5 0.0000 0.0000 0.0000 0.0000 37.8517 0.0000
# 6 0.0000 0.0000 0.0000 0.0000 0.0000 27.2835
#
#
#
# Elastic Compliance Matrix: (Units=1/GPa)
#
#
# Indices 1 2 3 4 5 6 
#
# 1 0.027114 -0.004354 -0.004110 0.000000 0.000000 0.000000
# 2 -0.004354 0.013962 -0.005330 0.000000 0.000000 0.000000
# 3 -0.004110 -0.005330 0.010146 0.000000 0.000000 0.000000
# 4 0.000000 0.000000 0.000000 0.027936 0.000000 0.000000
# 5 0.000000 0.000000 0.000000 0.000000 0.026419 0.000000
# 6 0.000000 0.000000 0.000000 0.000000 0.000000 0.036652
#
#
# Mechanical properties :
#
#
# Convention : Reuss Voigt Hill
#
# Bulk Modulus (GPa) = 42.31518 61.15151 51.73334
# Shear Modulus (GPa) = 28.13799 31.66060 29.89929
#
# Velocity S-wave (km/s) = 3.70682 3.93201 3.82108
# Velocity P-wave (km/s) = 6.24374 7.10466 6.68807
#
# Compressibility (1/GPa) = 0.02363218
#
# Stress axis : x y z
#
# Youngs Moduli (GPa) = 36.88147 71.62507 98.55810
#
# Poissons Ratio (x) = 0.31189 0.40511
# Poissons Ratio (y) = 0.16060 0.52532
# Poissons Ratio (z) = 0.15159 0.38176
#
# Static dielectric constant tensor:
#      x y z
#    x 3.523470 0.000000 0.000000 
#    y 0.000000 3.388470 0.000000 
#    z 0.000000 0.000000 3.968330 
# 
# 
# High freq. dielectric constant tensor:
#      x y z
#    x 1.780210 0.000000 0.000000 
#    y 0.000000 1.813800 0.000000 
#    z 0.000000 0.000000 1.817500 
# 
# From -- ./inp_files/19313.got.cif
#   From: 2010.03.12/outbox.cif.g09.slc.cpg/sg59_10_cif.got.tgz:19313.got - 2010.04.16 16:29:54.
