data_PCOD8245153
_publ_section_title
;
Structure prediction by ZEFSAII (Michael W. Deem and Ramdas Pophale) SiO2 
 PCOD8245153
Probable space group: P M M N
;
_chemical_formula_sum "Si O2"
_cell_formula_units_Z 64
_cell_length_a 19.734279
_cell_length_b 8.886708
_cell_length_c 20.245814
_cell_angle_alpha 90.000000
_cell_angle_beta 90.000000
_cell_angle_gamma 90.000000
_cell_volume 3550.564585
_symmetry_space_group_name_H-M "P M M N"
_symmetry_group_IT_number 59
_space_group.IT_coordinate_system_code '2'
_symmetry_cell_setting 'orthorhombic'
loop_
_space_group_symop_operation_xyz
x,y,z
1/2-x,1/2-y,z
1/2+x,-y,-z
-x,1/2+y,-z
-x,-y,-z
1/2+x,1/2+y,-z
1/2-x,y,z
x,1/2-y,z
loop_
_atom_site_type_symbol
_atom_site_label
_atom_site_fract_x
_atom_site_fract_y
_atom_site_fract_z
Si Si1 0.670733 0.576515 0.425034
Si Si2 0.923818 0.425116 0.819185
Si Si3 0.327589 0.073654 0.933053
Si Si4 0.172330 0.924340 0.439211
Si Si5 0.577365 0.925886 0.184362
Si Si6 0.431892 0.928290 0.327378
Si Si7 0.827158 0.428112 0.931403
Si Si8 0.573031 0.072377 0.323255
O O1 0.750000 0.551438 0.412666
O O2 0.649822 0.750000 0.417143
O O3 0.650730 0.523070 0.498266
O O4 0.632055 0.475716 0.372485
O O5 0.907739 0.250000 0.818068
O O6 0.910580 0.488787 0.745376
O O7 0.873207 0.498695 0.872780
O O8 0.001056 0.457622 0.840253
O O9 0.250000 0.030932 0.917744
O O10 0.337469 0.250000 0.943038
O O11 0.372298 0.014712 0.872103
O O12 0.353290 0.993980 0.999434
O O13 0.250000 0.953937 0.418949
O O14 0.160203 0.750000 0.456675
O O15 0.126430 0.976380 0.377971
O O16 0.588361 0.750000 0.199458
O O17 0.593345 0.015526 0.250791
O O18 0.443526 0.750000 0.325492
O O19 0.502513 0.002639 0.348770
O O20 0.750000 0.478135 0.917665
O O21 0.834224 0.250000 0.935537
O O22 0.566263 0.250000 0.322486
#
# Coordination Sequence:
#
# PCOD8245153 Si02
#       8
#     8   8   8   8   8   8   8   8
#     4  10  21  37  56  76 101 135 170 204 249 306
#     4   8  15  29  48  69  94 126 163 199 237 285
#     4   9  18  32  49  69  94 125 160 197 240 294
#     4   9  18  33  54  80 106 132 168 214 256 292
#     4   9  18  34  52  69  94 128 164 202 246 298
#     4   9  18  34  54  75 104 139 171 206 250 302
#     4   9  17  29  46  69  97 127 160 200 243 287
#     4  11  22  35  53  77 104 132 166 211 255 297
#
# _framework density 18.025302
#
# number of rings (size 3 to 8) (size 9 to 14) (size 15 to 20)
#    0.000    2.750    0.000    2.250    0.000    3.750 
#    0.000    6.250    0.000    0.000    0.000    3.500 
#    0.000    0.000    0.000    0.000    0.000    0.000 
#
# Total GULP energy -793616.312941 kJ/mol
# GULP energy per Si atom -12400.254890 kJ/mol
# Density = 1.798428 g / cm^3
# Si number density = 18.025302 Si / 1000 Ang^3
#
#
#
# Elastic Constant Matrix: (Units=GPa)
#
#
# Indices 1 2 3 4 5 6 
#
# 1 93.7497 34.9896 84.1974 0.0000 0.0000 0.0000
# 2 34.9896 50.2435 43.4205 0.0000 0.0000 0.0000
# 3 84.1974 43.4205 131.8863 0.0000 0.0000 0.0000
# 4 0.0000 0.0000 0.0000 29.0430 0.0000 0.0000
# 5 0.0000 0.0000 0.0000 0.0000 42.4208 0.0000
# 6 0.0000 0.0000 0.0000 0.0000 0.0000 19.2932
#
#
#
# Elastic Compliance Matrix: (Units=1/GPa)
#
#
# Indices 1 2 3 4 5 6 
#
# 1 0.025956 -0.005249 -0.014842 0.000000 0.000000 0.000000
# 2 -0.005249 0.028879 -0.006157 0.000000 0.000000 0.000000
# 3 -0.014842 -0.006157 0.019085 0.000000 0.000000 0.000000
# 4 0.000000 0.000000 0.000000 0.034432 0.000000 0.000000
# 5 0.000000 0.000000 0.000000 0.000000 0.023573 0.000000
# 6 0.000000 0.000000 0.000000 0.000000 0.000000 0.051832
#
#
# Mechanical properties :
#
#
# Convention : Reuss Voigt Hill
#
# Bulk Modulus (GPa) = 46.67758 66.78827 56.73293
# Shear Modulus (GPa) = 20.54287 25.70287 23.12287
#
# Velocity S-wave (km/s) = 3.37956 3.78025 3.58551
# Velocity P-wave (km/s) = 6.41719 7.49578 6.97736
#
# Compressibility (1/GPa) = 0.02142356
#
# Stress axis : x y z
#
# Youngs Moduli (GPa) = 38.52723 34.62704 52.39789
#
# Poissons Ratio (x) = 0.18175 0.77770
# Poissons Ratio (y) = 0.20222 0.32261
# Poissons Ratio (z) = 0.57183 0.21319
#
# Static dielectric constant tensor:
#      x y z
#    x 3.408370 0.000000 0.000000 
#    y 0.000000 3.138690 0.000000 
#    z 0.000000 0.000000 3.520030 
# 
# 
# High freq. dielectric constant tensor:
#      x y z
#    x 1.698320 0.000000 0.000000 
#    y 0.000000 1.678830 0.000000 
#    z 0.000000 0.000000 1.704290 
# 
# From -- ./inp_files/28272.got.cif
#   From: 2010.03.12/outbox.cif.g09.slc.cpg/sg59_15_cif.got.tgz:28272.got - 2010.04.16 16:29:54.
