data_PCOD8245436
_publ_section_title
;
Structure prediction by ZEFSAII (Michael W. Deem and Ramdas Pophale) SiO2 
 PCOD8245436
Probable space group: P M M N
;
_chemical_formula_sum "Si O2"
_cell_formula_units_Z 56
_cell_length_a 9.057595
_cell_length_b 13.732837
_cell_length_c 23.213465
_cell_angle_alpha 90.000000
_cell_angle_beta 90.000000
_cell_angle_gamma 90.000000
_cell_volume 2887.441101
_symmetry_space_group_name_H-M "P M M N"
_symmetry_group_IT_number 59
_space_group.IT_coordinate_system_code '2'
_symmetry_cell_setting 'orthorhombic'
loop_
_space_group_symop_operation_xyz
x,y,z
1/2-x,1/2-y,z
1/2+x,-y,-z
-x,1/2+y,-z
-x,-y,-z
1/2+x,1/2+y,-z
1/2-x,y,z
x,1/2-y,z
loop_
_atom_site_type_symbol
_atom_site_label
_atom_site_fract_x
_atom_site_fract_y
_atom_site_fract_z
Si Si1 0.078818 0.363263 0.700949
Si Si2 0.923336 0.530743 0.414908
Si Si3 0.575920 0.860065 0.529600
Si Si4 0.575995 0.463541 0.805752
Si Si5 0.420447 0.364219 0.909547
Si Si6 0.577049 0.361579 0.150207
Si Si7 0.913803 0.634533 0.962794
O O1 0.250000 0.383377 0.714604
O O2 0.050250 0.250000 0.689692
O O3 0.025610 0.420960 0.644556
O O4 0.982382 0.397626 0.754255
O O5 0.750000 0.512998 0.415976
O O6 0.972099 0.602230 0.466556
O O7 0.001960 0.426357 0.421246
O O8 0.750000 0.865631 0.537437
O O9 0.518298 0.750000 0.536811
O O10 0.750000 0.471544 0.801185
O O11 0.529839 0.416496 0.866031
O O12 0.505961 0.572110 0.802592
O O13 0.250000 0.388456 0.894478
O O14 0.448784 0.250000 0.904462
O O15 0.460318 0.403923 0.973747
O O16 0.750000 0.376663 0.156686
O O17 0.530245 0.250000 0.161092
O O18 0.530201 0.397062 0.086055
O O19 0.750000 0.595990 0.945903
O O20 0.907539 0.750000 0.967757
#
# Coordination Sequence:
#
# PCOD8245436 Si02
#       7
#     8   8   8   8   8   8   8
#     4  10  21  39  61  81 106 143 184 225 267 313
#     4   9  18  33  55  83 112 146 189 228 265 314
#     4   9  17  31  53  83 119 153 183 220 267 316
#     4  12  25  37  53  78 107 139 176 221 271 321
#     4   9  18  34  55  78 107 142 176 213 261 318
#     4  10  21  38  59  79 100 131 173 220 269 324
#     4   8  15  30  53  79 105 133 167 211 265 321
#
# _framework density 19.394334000000001
#
# number of rings (size 3 to 8) (size 9 to 14) (size 15 to 20)
#    0.000    2.429    0.000    3.429    0.000    6.857 
#    0.000    2.143    0.000    3.429    0.000    0.000 
#    0.000    0.000    0.000    0.000    0.000    0.000 
#
# Total GULP energy -694427.917494 kJ/mol
# GULP energy per Si atom -12400.498527 kJ/mol
# Density = 1.935019 g / cm^3
# Si number density = 19.394334 Si / 1000 Ang^3
#
#
#
# Elastic Constant Matrix: (Units=GPa)
#
#
# Indices 1 2 3 4 5 6 
#
# 1 76.4843 40.0429 34.2279 0.0000 0.0000 0.0000
# 2 40.0429 107.8989 43.8730 0.0000 0.0000 0.0000
# 3 34.2279 43.8730 69.8127 0.0000 0.0000 0.0000
# 4 0.0000 0.0000 0.0000 32.7498 0.0000 0.0000
# 5 0.0000 0.0000 0.0000 0.0000 26.0469 0.0000
# 6 0.0000 0.0000 0.0000 0.0000 0.0000 30.1089
#
#
#
# Elastic Compliance Matrix: (Units=1/GPa)
#
#
# Indices 1 2 3 4 5 6 
#
# 1 0.018042 -0.004163 -0.006230 0.000000 0.000000 0.000000
# 2 -0.004163 0.013409 -0.006386 0.000000 0.000000 0.000000
# 3 -0.006230 -0.006386 0.021392 0.000000 0.000000 0.000000
# 4 0.000000 0.000000 0.000000 0.030535 0.000000 0.000000
# 5 0.000000 0.000000 0.000000 0.000000 0.038392 0.000000
# 6 0.000000 0.000000 0.000000 0.000000 0.000000 0.033213
#
#
# Mechanical properties :
#
#
# Convention : Reuss Voigt Hill
#
# Bulk Modulus (GPa) = 51.85084 54.49817 53.17450
# Shear Modulus (GPa) = 25.64527 26.85126 26.24826
#
# Velocity S-wave (km/s) = 3.64030 3.72491 3.68285
# Velocity P-wave (km/s) = 6.66799 6.83088 6.74993
#
# Compressibility (1/GPa) = 0.01928609
#
# Stress axis : x y z
#
# Youngs Moduli (GPa) = 55.42711 74.57458 46.74721
#
# Poissons Ratio (x) = 0.31042 0.29122
# Poissons Ratio (y) = 0.23072 0.29854
# Poissons Ratio (z) = 0.34529 0.47625
#
# Static dielectric constant tensor:
#      x y z
#    x 3.413590 0.000000 0.000000 
#    y 0.000000 3.713290 0.000000 
#    z 0.000000 0.000000 3.507720 
# 
# 
# High freq. dielectric constant tensor:
#      x y z
#    x 1.745400 0.000000 0.000000 
#    y 0.000000 1.765510 0.000000 
#    z 0.000000 0.000000 1.739350 
# 
# From -- ./inp_files/29129.got.cif
#   From: 2010.03.12/outbox.cif.g09.slc.cpg/sg59_15_cif.got.tgz:29129.got - 2010.04.16 16:29:54.
