data_PCOD8245069
_publ_section_title
;
Structure prediction by ZEFSAII (Michael W. Deem and Ramdas Pophale) SiO2 
 PCOD8245069
Probable space group: P M M N
;
_chemical_formula_sum "Si O2"
_cell_formula_units_Z 48
_cell_length_a 8.893027
_cell_length_b 9.683608
_cell_length_c 28.737026
_cell_angle_alpha 90.000000
_cell_angle_beta 90.000000
_cell_angle_gamma 90.000000
_cell_volume 2474.734611
_symmetry_space_group_name_H-M "P M M N"
_symmetry_group_IT_number 59
_space_group.IT_coordinate_system_code '2'
_symmetry_cell_setting 'orthorhombic'
loop_
_space_group_symop_operation_xyz
x,y,z
1/2-x,1/2-y,z
1/2+x,-y,-z
-x,1/2+y,-z
-x,-y,-z
1/2+x,1/2+y,-z
1/2-x,y,z
x,1/2-y,z
loop_
_atom_site_type_symbol
_atom_site_label
_atom_site_fract_x
_atom_site_fract_y
_atom_site_fract_z
Si Si1 0.578838 0.094810 0.200393
Si Si2 0.424357 0.407638 0.627544
Si Si3 0.927260 0.090578 0.459851
Si Si4 0.577525 0.089185 0.723824
Si Si5 0.072713 0.037218 0.104268
Si Si6 0.426237 0.750000 0.066736
Si Si7 0.428994 0.750000 0.962445
O O1 0.750000 0.056364 0.187801
O O2 0.567831 0.250000 0.220233
O O3 0.479007 0.086620 0.154457
O O4 0.520949 0.992083 0.239378
O O5 0.250000 0.424165 0.640702
O O6 0.457340 0.250000 0.610883
O O7 0.472673 0.516547 0.588228
O O8 0.522261 0.446166 0.672209
O O9 0.750000 0.087250 0.467172
O O10 0.985419 0.250000 0.460150
O O11 0.000000 0.000000 0.500000
O O12 0.750000 0.043352 0.728427
O O13 0.556703 0.250000 0.734654
O O14 0.250000 0.061624 0.099998
O O15 0.990353 0.115889 0.063071
O O16 0.023543 0.879492 0.097427
O O17 0.250000 0.750000 0.059012
O O18 0.495522 0.750000 0.014846
O O19 0.250000 0.750000 0.960438
#
# Coordination Sequence:
#
# PCOD8245069 Si02
#       7
#     8   8   8   8   8   4   4
#     4  11  24  41  60  84 115 150 190 238 289 343
#     4   9  18  35  57  81 114 155 196 239 289 344
#     4  10  21  36  56  84 118 157 200 246 295 346
#     4  10  22  39  61  89 119 151 189 236 288 346
#     4  11  22  39  61  86 115 151 191 236 288 341
#     4   9  22  39  59  87 117 149 189 237 286 337
#     4  11  21  39  61  85 119 153 189 233 282 343
#
# _framework density 19.396018999999999
#
# number of rings (size 3 to 8) (size 9 to 14) (size 15 to 20)
#    0.000    1.833    0.833    2.750    1.167    4.333 
#    0.000    7.083    0.000    0.000    0.000    0.000 
#    0.000    0.000    0.000    0.000    0.000    0.000 
#
# Total GULP energy -595283.278308 kJ/mol
# GULP energy per Si atom -12401.734965 kJ/mol
# Density = 1.935187 g / cm^3
# Si number density = 19.396019 Si / 1000 Ang^3
#
#
#
# Elastic Constant Matrix: (Units=GPa)
#
#
# Indices 1 2 3 4 5 6 
#
# 1 76.9412 41.7977 36.0588 0.0000 0.0000 0.0000
# 2 41.7977 113.4224 53.6378 0.0000 0.0000 0.0000
# 3 36.0588 53.6378 97.2566 0.0000 0.0000 0.0000
# 4 0.0000 0.0000 0.0000 43.2281 0.0000 0.0000
# 5 0.0000 0.0000 0.0000 0.0000 26.2016 0.0000
# 6 0.0000 0.0000 0.0000 0.0000 0.0000 19.1297
#
#
#
# Elastic Compliance Matrix: (Units=1/GPa)
#
#
# Indices 1 2 3 4 5 6 
#
# 1 0.017287 -0.004518 -0.003918 0.000000 0.000000 0.000000
# 2 -0.004518 0.013108 -0.005554 0.000000 0.000000 0.000000
# 3 -0.003918 -0.005554 0.014798 0.000000 0.000000 0.000000
# 4 0.000000 0.000000 0.000000 0.023133 0.000000 0.000000
# 5 0.000000 0.000000 0.000000 0.000000 0.038166 0.000000
# 6 0.000000 0.000000 0.000000 0.000000 0.000000 0.052275
#
#
# Mechanical properties :
#
#
# Convention : Reuss Voigt Hill
#
# Bulk Modulus (GPa) = 58.09381 61.17875 59.63628
# Shear Modulus (GPa) = 25.97617 28.12028 27.04823
#
# Velocity S-wave (km/s) = 3.66355 3.81175 3.73838
# Velocity P-wave (km/s) = 6.92184 7.14024 7.03189
#
# Compressibility (1/GPa) = 0.01721354
#
# Stress axis : x y z
#
# Youngs Moduli (GPa) = 57.84585 76.28889 67.57757
#
# Poissons Ratio (x) = 0.34466 0.26476
# Poissons Ratio (y) = 0.26134 0.37534
# Poissons Ratio (z) = 0.22663 0.42372
#
# Static dielectric constant tensor:
#      x y z
#    x 3.560250 0.000000 0.000000 
#    y 0.000000 3.907230 0.000000 
#    z 0.000000 0.000000 3.550800 
# 
# 
# High freq. dielectric constant tensor:
#      x y z
#    x 1.753840 0.000000 0.000000 
#    y 0.000000 1.766950 0.000000 
#    z 0.000000 0.000000 1.759830 
# 
# From -- ./inp_files/32960.got.cif
#   From: 2010.03.12/outbox.cif.g09.slc.cpg/sg59_17_cif.got.tgz:32960.got - 2010.04.16 16:29:54.
