data_PCOD8245677
_publ_section_title
;
Structure prediction by ZEFSAII (Michael W. Deem and Ramdas Pophale) SiO2 
 PCOD8245677
Probable space group: P M M N
;
_chemical_formula_sum "Si O2"
_cell_formula_units_Z 48
_cell_length_a 11.158171
_cell_length_b 13.982813
_cell_length_c 15.905032
_cell_angle_alpha 90.000000
_cell_angle_beta 90.000000
_cell_angle_gamma 90.000000
_cell_volume 2481.544740
_symmetry_space_group_name_H-M "P M M N"
_symmetry_group_IT_number 59
_space_group.IT_coordinate_system_code '2'
_symmetry_cell_setting 'orthorhombic'
loop_
_space_group_symop_operation_xyz
x,y,z
1/2-x,1/2-y,z
1/2+x,-y,-z
-x,1/2+y,-z
-x,-y,-z
1/2+x,1/2+y,-z
1/2-x,y,z
x,1/2-y,z
loop_
_atom_site_type_symbol
_atom_site_label
_atom_site_fract_x
_atom_site_fract_y
_atom_site_fract_z
Si Si1 0.610045 0.640611 0.628146
Si Si2 0.390602 0.354774 0.559346
Si Si3 0.009258 0.536738 0.296993
Si Si4 0.250000 0.861685 0.087341
Si Si5 0.013923 0.863074 0.989401
Si Si6 0.750000 0.363644 0.727318
Si Si7 0.391159 0.482926 0.878998
O O1 0.750000 0.617454 0.638012
O O2 0.582974 0.750000 0.651698
O O3 0.563178 0.616884 0.533851
O O4 0.536534 0.575688 0.693725
O O5 0.250000 0.346225 0.551486
O O6 0.442553 0.250000 0.584672
O O7 0.420882 0.432937 0.628742
O O8 0.129460 0.597481 0.314780
O O9 0.946213 0.557698 0.207717
O O10 0.250000 0.750000 0.100219
O O11 0.133535 0.893985 0.038119
O O12 0.250000 0.908368 0.178856
O O13 0.998818 0.750000 0.972240
O O14 0.905725 0.902314 0.047528
O O15 0.031444 0.921390 0.902392
O O16 0.750000 0.250000 0.722787
O O17 0.250000 0.505002 0.867507
#
# Coordination Sequence:
#
# PCOD8245677 Si02
#       7
#     8   8   8   4   8   4   8
#     4   9  19  37  58  81 111 151 196 233 277 338
#     4   9  19  36  58  83 112 148 189 233 284 345
#     4  12  21  35  57  85 116 149 184 237 288 338
#     4   9  16  34  60  77 100 145 186 219 272 330
#     4  10  21  40  61  79 110 151 188 228 275 330
#     4  11  22  34  53  85 112 141 185 237 289 334
#     4  11  24  37  57  87 116 145 188 232 279 339
#
# _framework density 19.342791999999999
#
# number of rings (size 3 to 8) (size 9 to 14) (size 15 to 20)
#    0.000    1.833    3.333    2.500    0.000    1.667 
#    0.000    0.000    0.000    1.500    0.000    0.000 
#    0.000    0.000    0.000    0.000    0.000    0.000 
#
# Total GULP energy -594994.741623 kJ/mol
# GULP energy per Si atom -12395.723784 kJ/mol
# Density = 1.929877 g / cm^3
# Si number density = 19.342792 Si / 1000 Ang^3
#
#
#
# Elastic Constant Matrix: (Units=GPa)
#
#
# Indices 1 2 3 4 5 6 
#
# 1 55.6151 22.4483 24.8797 0.0000 0.0000 0.0000
# 2 22.4483 104.6532 22.8768 0.0000 0.0000 0.0000
# 3 24.8797 22.8768 57.4181 0.0000 0.0000 0.0000
# 4 0.0000 0.0000 0.0000 28.0412 0.0000 0.0000
# 5 0.0000 0.0000 0.0000 0.0000 22.7035 0.0000
# 6 0.0000 0.0000 0.0000 0.0000 0.0000 25.5599
#
#
#
# Elastic Compliance Matrix: (Units=1/GPa)
#
#
# Indices 1 2 3 4 5 6 
#
# 1 0.023154 -0.003038 -0.008822 0.000000 0.000000 0.000000
# 2 -0.003038 0.010866 -0.003013 0.000000 0.000000 0.000000
# 3 -0.008822 -0.003013 0.022439 0.000000 0.000000 0.000000
# 4 0.000000 0.000000 0.000000 0.035662 0.000000 0.000000
# 5 0.000000 0.000000 0.000000 0.000000 0.044046 0.000000
# 6 0.000000 0.000000 0.000000 0.000000 0.000000 0.039124
#
#
# Mechanical properties :
#
#
# Convention : Reuss Voigt Hill
#
# Bulk Modulus (GPa) = 37.43564 39.78844 38.61204
# Shear Modulus (GPa) = 23.37102 25.09303 24.23202
#
# Velocity S-wave (km/s) = 3.47977 3.60569 3.54329
# Velocity P-wave (km/s) = 5.96161 6.16031 6.06178
#
# Compressibility (1/GPa) = 0.02671251
#
# Stress axis : x y z
#
# Youngs Moduli (GPa) = 43.18975 92.03355 44.56489
#
# Poissons Ratio (x) = 0.27960 0.39316
# Poissons Ratio (y) = 0.13121 0.13426
# Poissons Ratio (z) = 0.38103 0.27727
#
# Static dielectric constant tensor:
#      x y z
#    x 3.299540 0.000000 0.000000 
#    y 0.000000 3.437840 0.000000 
#    z 0.000000 0.000000 3.511580 
# 
# 
# High freq. dielectric constant tensor:
#      x y z
#    x 1.739930 0.000000 0.000000 
#    y 0.000000 1.751030 0.000000 
#    z 0.000000 0.000000 1.748410 
# 
# From -- ./inp_files/22450.got.cif
#   From: 2010.03.12/outbox.cif.g09.slc.cpg/sg59_12_cif.got.tgz:22450.got - 2010.04.16 16:29:54.
