data_PCOD8245641
_publ_section_title
;
Structure prediction by ZEFSAII (Michael W. Deem and Ramdas Pophale) SiO2 
 PCOD8245641
Probable space group: P M M N
;
_chemical_formula_sum "Si O2"
_cell_formula_units_Z 64
_cell_length_a 8.810597
_cell_length_b 28.619398
_cell_length_c 12.684218
_cell_angle_alpha 90.000000
_cell_angle_beta 90.000000
_cell_angle_gamma 90.000000
_cell_volume 3198.376079
_symmetry_space_group_name_H-M "P M M N"
_symmetry_group_IT_number 59
_space_group.IT_coordinate_system_code '2'
_symmetry_cell_setting 'orthorhombic'
loop_
_space_group_symop_operation_xyz
x,y,z
1/2-x,1/2-y,z
1/2+x,-y,-z
-x,1/2+y,-z
-x,-y,-z
1/2+x,1/2+y,-z
1/2-x,y,z
x,1/2-y,z
loop_
_atom_site_type_symbol
_atom_site_label
_atom_site_fract_x
_atom_site_fract_y
_atom_site_fract_z
Si Si1 0.072266 0.064219 0.253395
Si Si2 0.931058 0.197291 0.081953
Si Si3 0.423948 0.546817 0.963216
Si Si4 0.930030 0.156488 0.304297
Si Si5 0.568688 0.376288 0.664611
Si Si6 0.576450 0.365777 0.897260
Si Si7 0.425892 0.196408 0.505631
Si Si8 0.927545 0.478843 0.603509
O O1 0.250000 0.074582 0.255411
O O2 0.011435 0.068245 0.135311
O O3 0.988012 0.103623 0.323050
O O4 0.034347 0.013091 0.299073
O O5 0.750000 0.194747 0.080120
O O6 0.991299 0.250000 0.076510
O O7 0.987404 0.173852 0.190134
O O8 0.000706 0.169821 0.980996
O O9 0.250000 0.538285 0.930876
O O10 0.500000 0.500000 0.000000
O O11 0.436638 0.581712 0.060888
O O12 0.750000 0.158292 0.316095
O O13 0.003377 0.190342 0.390237
O O14 0.750000 0.377276 0.666473
O O15 0.501932 0.364276 0.781035
O O16 0.512476 0.336560 0.586790
O O17 0.507124 0.427280 0.628989
O O18 0.750000 0.350423 0.885855
O O19 0.250000 0.182479 0.503156
O O20 0.448579 0.250000 0.540865
O O21 0.750000 0.475942 0.583519
O O22 0.000000 0.500000 0.500000
#
# Coordination Sequence:
#
# PCOD8245641 Si02
#       8
#     8   8   8   8   8   8   8   8
#     4  11  22  37  58  87 123 161 199 244 303 364
#     4   9  17  31  55  87 118 148 187 241 300 351
#     4  11  21  36  57  85 119 157 200 246 297 353
#     4  11  21  37  61  91 122 155 201 253 299 356
#     4  10  21  39  63  87 114 152 201 252 297 353
#     4   9  18  35  57  85 119 150 190 247 299 347
#     4  11  25  43  61  85 120 158 196 247 311 370
#     4  10  22  38  56  83 117 155 201 251 300 351
#
# _framework density 20.010154
#
# number of rings (size 3 to 8) (size 9 to 14) (size 15 to 20)
#    0.000    1.750    1.250    3.375    0.000    7.500 
#    0.000    3.750    0.000    0.000    0.000    0.000 
#    0.000    0.000    0.000    0.000    0.000    0.000 
#
# Total GULP energy -793683.975945 kJ/mol
# GULP energy per Si atom -12401.312124 kJ/mol
# Density = 1.996461 g / cm^3
# Si number density = 20.010154 Si / 1000 Ang^3
#
#
#
# Elastic Constant Matrix: (Units=GPa)
#
#
# Indices 1 2 3 4 5 6 
#
# 1 28.7119 22.0103 19.5732 0.0000 0.0000 0.0000
# 2 22.0103 129.3674 51.8682 0.0000 0.0000 0.0000
# 3 19.5732 51.8682 140.6362 0.0000 0.0000 0.0000
# 4 0.0000 0.0000 0.0000 34.1484 0.0000 0.0000
# 5 0.0000 0.0000 0.0000 0.0000 23.6684 0.0000
# 6 0.0000 0.0000 0.0000 0.0000 0.0000 28.0754
#
#
#
# Elastic Compliance Matrix: (Units=1/GPa)
#
#
# Indices 1 2 3 4 5 6 
#
# 1 0.041661 -0.005590 -0.003737 0.000000 0.000000 0.000000
# 2 -0.005590 0.009821 -0.002844 0.000000 0.000000 0.000000
# 3 -0.003737 -0.002844 0.008680 0.000000 0.000000 0.000000
# 4 0.000000 0.000000 0.000000 0.029284 0.000000 0.000000
# 5 0.000000 0.000000 0.000000 0.000000 0.042250 0.000000
# 6 0.000000 0.000000 0.000000 0.000000 0.000000 0.035618
#
#
# Mechanical properties :
#
#
# Convention : Reuss Voigt Hill
#
# Bulk Modulus (GPa) = 27.91693 53.95765 40.93729
# Shear Modulus (GPa) = 24.55833 30.86269 27.71051
#
# Velocity S-wave (km/s) = 3.50708 3.93154 3.72536
# Velocity P-wave (km/s) = 5.51191 6.90167 6.24556
#
# Compressibility (1/GPa) = 0.03582056
#
# Stress axis : x y z
#
# Youngs Moduli (GPa) = 24.00306 101.81890 115.21304
#
# Poissons Ratio (x) = 0.56917 0.43050
# Poissons Ratio (y) = 0.13418 0.32769
# Poissons Ratio (z) = 0.08969 0.28960
#
# Static dielectric constant tensor:
#      x y z
#    x 3.369710 0.000000 0.000000 
#    y 0.000000 3.899740 0.000000 
#    z 0.000000 0.000000 7.295910 
# 
# 
# High freq. dielectric constant tensor:
#      x y z
#    x 1.753160 0.000000 0.000000 
#    y 0.000000 1.793610 0.000000 
#    z 0.000000 0.000000 1.791260 
# 
# From -- ./inp_files/15011.got.cif
#   From: 2010.03.12/outbox.cif.g09.slc.cpg/sg59_8_cif.got.tgz:15011.got - 2010.04.16 16:29:54.
