data_PCOD8245870
_publ_section_title
;
Structure prediction by ZEFSAII (Michael W. Deem and Ramdas Pophale) SiO2 
 PCOD8245870
Probable space group: P M M N
;
_chemical_formula_sum "Si O2"
_cell_formula_units_Z 56
_cell_length_a 14.747640
_cell_length_b 14.633684
_cell_length_c 12.196822
_cell_angle_alpha 90.000000
_cell_angle_beta 90.000000
_cell_angle_gamma 90.000000
_cell_volume 2632.224251
_symmetry_space_group_name_H-M "P M M N"
_symmetry_group_IT_number 59
_space_group.IT_coordinate_system_code '2'
_symmetry_cell_setting 'orthorhombic'
loop_
_space_group_symop_operation_xyz
x,y,z
1/2-x,1/2-y,z
1/2+x,-y,-z
-x,1/2+y,-z
-x,-y,-z
1/2+x,1/2+y,-z
1/2-x,y,z
x,1/2-y,z
loop_
_atom_site_type_symbol
_atom_site_label
_atom_site_fract_x
_atom_site_fract_y
_atom_site_fract_z
Si Si1 0.153471 0.647248 0.925571
Si Si2 0.642404 0.148382 0.311024
Si Si3 0.355364 0.470119 0.570141
Si Si4 0.353846 0.351387 0.149644
Si Si5 0.011108 0.358284 0.715033
Si Si6 0.644815 0.003476 0.678183
Si Si7 0.016218 0.101219 0.960547
O O1 0.250000 0.598904 0.958387
O O2 0.176820 0.750000 0.895186
O O3 0.113093 0.609407 0.809953
O O4 0.083100 0.645618 0.024928
O O5 0.750000 0.155134 0.315864
O O6 0.601178 0.250000 0.337585
O O7 0.608541 0.071797 0.396704
O O8 0.250000 0.457117 0.602585
O O9 0.413449 0.392382 0.629761
O O10 0.370266 0.459749 0.440943
O O11 0.250000 0.371119 0.119648
O O12 0.365535 0.250000 0.201362
O O13 0.388728 0.426359 0.236236
O O14 0.408615 0.353183 0.036555
O O15 0.998876 0.250000 0.702585
O O16 0.914101 0.405411 0.693419
O O17 0.046737 0.385092 0.836107
O O18 0.750000 0.030281 0.695448
O O19 0.000000 0.000000 0.000000
#
# Coordination Sequence:
#
# PCOD8245870 Si02
#       7
#     8   8   8   8   8   8   8
#     4   9  18  33  54  84 119 155 202 251 298 363
#     4   8  15  30  55  88 121 154 201 259 314 371
#     4  10  22  42  66  92 128 168 212 263 319 383
#     4  10  22  42  67  93 121 160 215 270 317 372
#     4  12  26  42  62  96 136 172 215 262 322 390
#     4  10  23  45  68  91 124 168 218 269 320 376
#     4  12  23  39  63  89 130 172 206 256 317 380
#
# _framework density 21.274784
#
# number of rings (size 3 to 8) (size 9 to 14) (size 15 to 20)
#    0.000    1.857    1.429    3.429    0.000    3.429 
#    0.000    2.857    0.000    0.000    0.000    0.000 
#    0.000    0.000    0.000    0.000    0.000    0.000 
#
# Total GULP energy -694100.387131 kJ/mol
# GULP energy per Si atom -12394.649770 kJ/mol
# Density = 2.122636 g / cm^3
# Si number density = 21.274784 Si / 1000 Ang^3
#
#
#
# Elastic Constant Matrix: (Units=GPa)
#
#
# Indices 1 2 3 4 5 6 
#
# 1 93.6308 50.8518 52.7191 0.0000 0.0000 0.0000
# 2 50.8518 137.4430 42.4281 0.0000 0.0000 0.0000
# 3 52.7191 42.4281 117.1178 0.0000 0.0000 0.0000
# 4 0.0000 0.0000 0.0000 22.8779 0.0000 0.0000
# 5 0.0000 0.0000 0.0000 0.0000 7.7338 0.0000
# 6 0.0000 0.0000 0.0000 0.0000 0.0000 25.6447
#
#
#
# Elastic Compliance Matrix: (Units=1/GPa)
#
#
# Indices 1 2 3 4 5 6 
#
# 1 0.016223 -0.004220 -0.005774 0.000000 0.000000 0.000000
# 2 -0.004220 0.009290 -0.001466 0.000000 0.000000 0.000000
# 3 -0.005774 -0.001466 0.011668 0.000000 0.000000 0.000000
# 4 0.000000 0.000000 0.000000 0.043710 0.000000 0.000000
# 5 0.000000 0.000000 0.000000 0.000000 0.129302 0.000000
# 6 0.000000 0.000000 0.000000 0.000000 0.000000 0.038994
#
#
# Mechanical properties :
#
#
# Convention : Reuss Voigt Hill
#
# Bulk Modulus (GPa) = 70.11662 71.13221 70.62442
# Shear Modulus (GPa) = 18.05963 24.73080 21.39521
#
# Velocity S-wave (km/s) = 2.91671 3.41317 3.17466
# Velocity P-wave (km/s) = 6.66124 7.00289 6.83420
#
# Compressibility (1/GPa) = 0.01426195
#
# Stress axis : x y z
#
# Youngs Moduli (GPa) = 61.64029 107.64805 85.70117
#
# Poissons Ratio (x) = 0.45427 0.49483
# Poissons Ratio (y) = 0.26012 0.12562
# Poissons Ratio (z) = 0.35590 0.15779
#
# Static dielectric constant tensor:
#      x y z
#    x 3.753820 0.000000 0.000000 
#    y 0.000000 3.901480 0.000000 
#    z 0.000000 0.000000 3.819010 
# 
# 
# High freq. dielectric constant tensor:
#      x y z
#    x 1.835190 0.000000 0.000000 
#    y 0.000000 1.830430 0.000000 
#    z 0.000000 0.000000 1.830130 
# 
# From -- ./inp_files/16924.got.cif
#   From: 2010.03.12/outbox.cif.g09.slc.cpg/sg59_9_cif.got.tgz:16924.got - 2010.04.16 16:29:54.
