data_PCOD8245253
_publ_section_title
;
Structure prediction by ZEFSAII (Michael W. Deem and Ramdas Pophale) SiO2 
 PCOD8245253
Probable space group: P M M N
;
_chemical_formula_sum "Si O2"
_cell_formula_units_Z 64
_cell_length_a 9.208149
_cell_length_b 28.443008
_cell_length_c 12.644215
_cell_angle_alpha 90.000000
_cell_angle_beta 90.000000
_cell_angle_gamma 90.000000
_cell_volume 3311.614180
_symmetry_space_group_name_H-M "P M M N"
_symmetry_group_IT_number 59
_space_group.IT_coordinate_system_code '2'
_symmetry_cell_setting 'orthorhombic'
loop_
_space_group_symop_operation_xyz
x,y,z
1/2-x,1/2-y,z
1/2+x,-y,-z
-x,1/2+y,-z
-x,-y,-z
1/2+x,1/2+y,-z
1/2-x,y,z
x,1/2-y,z
loop_
_atom_site_type_symbol
_atom_site_label
_atom_site_fract_x
_atom_site_fract_y
_atom_site_fract_z
Si Si1 0.416125 0.302831 0.362815
Si Si2 0.920387 0.695695 0.049122
Si Si3 0.917054 0.456829 0.050694
Si Si4 0.083070 0.396451 0.464498
Si Si5 0.418128 0.438251 0.683115
Si Si6 0.583091 0.046791 0.289218
Si Si7 0.917972 0.113382 0.865761
Si Si8 0.088802 0.694634 0.840690
O O1 0.250000 0.302522 0.322766
O O2 0.461055 0.250000 0.399706
O O3 0.436404 0.339636 0.458846
O O4 0.514886 0.322110 0.267413
O O5 0.750000 0.685789 0.046210
O O6 0.953717 0.750000 0.076251
O O7 0.996658 0.663071 0.137146
O O8 0.988061 0.679938 0.937742
O O9 0.750000 0.472531 0.057492
O O10 0.974968 0.446391 0.169096
O O11 0.938387 0.410482 0.980312
O O12 0.000000 0.500000 0.000000
O O13 0.250000 0.411484 0.456508
O O14 0.021081 0.414050 0.576375
O O15 0.004633 0.419693 0.365909
O O16 0.250000 0.425083 0.704330
O O17 0.439598 0.493668 0.672184
O O18 0.515791 0.420782 0.778829
O O19 0.750000 0.061832 0.296218
O O20 0.750000 0.122679 0.840037
O O21 0.250000 0.671661 0.852013
O O22 0.104219 0.750000 0.837705
#
# Coordination Sequence:
#
# PCOD8245253 Si02
#       8
#     8   8   8   8   8   8   8   8
#     4   9  18  34  53  76 109 145 182 228 282 336
#     4  10  21  37  57  82 113 152 195 234 280 340
#     4  10  21  37  57  85 116 149 186 227 282 346
#     4  10  22  37  57  85 110 144 196 243 284 338
#     4  10  21  40  60  80 112 152 194 239 289 344
#     4  10  21  37  58  83 115 150 184 234 294 349
#     4  11  23  37  58  87 118 151 191 237 286 342
#     4   9  17  30  50  76 107 142 179 224 276 328
#
# _framework density 19.325925000000002
#
# number of rings (size 3 to 8) (size 9 to 14) (size 15 to 20)
#    0.000    2.125    1.250    1.500    1.750    4.750 
#    0.000    0.625    0.000    2.250    0.000    0.000 
#    0.000    0.000    0.000    0.000    0.000    0.000 
#
# Total GULP energy -793618.976215 kJ/mol
# GULP energy per Si atom -12400.296503 kJ/mol
# Density = 1.928194 g / cm^3
# Si number density = 19.325925 Si / 1000 Ang^3
#
#
#
# Elastic Constant Matrix: (Units=GPa)
#
#
# Indices 1 2 3 4 5 6 
#
# 1 82.2457 37.2536 28.7616 0.0000 0.0000 0.0000
# 2 37.2536 82.2044 31.5591 0.0000 0.0000 0.0000
# 3 28.7616 31.5591 89.1148 0.0000 0.0000 0.0000
# 4 0.0000 0.0000 0.0000 26.6280 0.0000 0.0000
# 5 0.0000 0.0000 0.0000 0.0000 27.3086 0.0000
# 6 0.0000 0.0000 0.0000 0.0000 0.0000 24.6130
#
#
#
# Elastic Compliance Matrix: (Units=1/GPa)
#
#
# Indices 1 2 3 4 5 6 
#
# 1 0.015962 -0.006083 -0.002998 0.000000 0.000000 0.000000
# 2 -0.006083 0.016397 -0.003844 0.000000 0.000000 0.000000
# 3 -0.002998 -0.003844 0.013550 0.000000 0.000000 0.000000
# 4 0.000000 0.000000 0.000000 0.037554 0.000000 0.000000
# 5 0.000000 0.000000 0.000000 0.000000 0.036618 0.000000
# 6 0.000000 0.000000 0.000000 0.000000 0.000000 0.040629
#
#
# Mechanical properties :
#
#
# Convention : Reuss Voigt Hill
#
# Bulk Modulus (GPa) = 49.84755 49.85705 49.85230
# Shear Modulus (GPa) = 25.87365 26.10929 25.99147
#
# Velocity S-wave (km/s) = 3.66294 3.67958 3.67127
# Velocity P-wave (km/s) = 6.61352 6.62619 6.61986
#
# Compressibility (1/GPa) = 0.02006116
#
# Stress axis : x y z
#
# Youngs Moduli (GPa) = 62.64771 60.98635 73.80019
#
# Poissons Ratio (x) = 0.37098 0.22122
# Poissons Ratio (y) = 0.38109 0.28366
# Poissons Ratio (z) = 0.18779 0.23441
#
# Static dielectric constant tensor:
#      x y z
#    x 3.611040 0.000000 0.000000 
#    y 0.000000 3.610960 0.000000 
#    z 0.000000 0.000000 3.512590 
# 
# 
# High freq. dielectric constant tensor:
#      x y z
#    x 1.751590 0.000000 0.000000 
#    y 0.000000 1.759300 0.000000 
#    z 0.000000 0.000000 1.736160 
# 
# From -- ./inp_files/15024.got.cif
#   From: 2010.03.12/outbox.cif.g09.slc.cpg/sg59_8_cif.got.tgz:15024.got - 2010.04.16 16:29:54.
