data_PCOD8245896
_publ_section_title
;
Structure prediction by ZEFSAII (Michael W. Deem and Ramdas Pophale) SiO2 
 PCOD8245896
Probable space group: P M M N
;
_chemical_formula_sum "Si O2"
_cell_formula_units_Z 48
_cell_length_a 8.513468
_cell_length_b 16.769022
_cell_length_c 16.211938
_cell_angle_alpha 90.000000
_cell_angle_beta 90.000000
_cell_angle_gamma 90.000000
_cell_volume 2314.457321
_symmetry_space_group_name_H-M "P M M N"
_symmetry_group_IT_number 59
_space_group.IT_coordinate_system_code '2'
_symmetry_cell_setting 'orthorhombic'
loop_
_space_group_symop_operation_xyz
x,y,z
1/2-x,1/2-y,z
1/2+x,-y,-z
-x,1/2+y,-z
-x,-y,-z
1/2+x,1/2+y,-z
1/2-x,y,z
x,1/2-y,z
loop_
_atom_site_type_symbol
_atom_site_label
_atom_site_fract_x
_atom_site_fract_y
_atom_site_fract_z
Si Si1 0.068780 0.250000 0.981751
Si Si2 0.933523 0.921086 0.954646
Si Si3 0.432120 0.555240 0.777823
Si Si4 0.427538 0.658955 0.625950
Si Si5 0.573601 0.250000 0.809538
Si Si6 0.069922 0.596308 0.297863
Si Si7 0.567040 0.915969 0.472874
O O1 0.250000 0.250000 0.006281
O O2 0.048427 0.250000 0.883857
O O3 0.995269 0.334439 0.015846
O O4 0.750000 0.921789 0.973261
O O5 0.965013 0.927899 0.857918
O O6 0.000000 0.000000 0.000000
O O7 0.250000 0.569778 0.799031
O O8 0.493425 0.612138 0.704834
O O9 0.456419 0.466315 0.745762
O O10 0.250000 0.630370 0.605428
O O11 0.431939 0.750000 0.651663
O O12 0.536334 0.645930 0.546498
O O13 0.750000 0.250000 0.846197
O O14 0.543204 0.324324 0.752140
O O15 0.250000 0.566793 0.295177
O O16 0.021367 0.613549 0.391579
O O17 0.750000 0.922408 0.453721
O O18 0.500000 0.000000 0.500000
#
# Coordination Sequence:
#
# PCOD8245896 Si02
#       7
#     4   8   8   8   4   8   8
#     4  10  24  44  66  93 128 167 208 259 317 374
#     4  11  24  43  66  95 129 167 210 263 319 381
#     4  11  23  40  65  95 125 164 209 257 312 376
#     4  10  23  42  63  89 126 168 211 260 311 369
#     4  10  24  42  64  93 124 161 206 255 311 372
#     4  11  23  41  64  92 126 167 210 259 313 372
#     4  12  24  40  62  90 122 164 212 260 314 373
#
# _framework density 20.739201000000001
#
# number of rings (size 3 to 8) (size 9 to 14) (size 15 to 20)
#    0.000    1.167    1.667    4.000    2.333    6.333 
#    0.000    0.000    0.000    0.000    0.000    0.000 
#    0.000    0.000    0.000    0.000    0.000    0.000 
#
# Total GULP energy -595279.509019 kJ/mol
# GULP energy per Si atom -12401.656438 kJ/mol
# Density = 2.069200 g / cm^3
# Si number density = 20.739201 Si / 1000 Ang^3
#
#
#
# Elastic Constant Matrix: (Units=GPa)
#
#
# Indices 1 2 3 4 5 6 
#
# 1 50.1764 25.2502 21.5670 0.0000 0.0000 0.0000
# 2 25.2502 146.3570 59.8537 0.0000 0.0000 0.0000
# 3 21.5670 59.8537 146.2932 0.0000 0.0000 0.0000
# 4 0.0000 0.0000 0.0000 -14.4548 0.0000 0.0000
# 5 0.0000 0.0000 0.0000 0.0000 35.0259 0.0000
# 6 0.0000 0.0000 0.0000 0.0000 0.0000 27.5948
#
#
#
# Elastic Compliance Matrix: (Units=1/GPa)
#
#
# Indices 1 2 3 4 5 6 
#
# 1 0.022330 -0.003010 -0.002061 0.000000 0.000000 0.000000
# 2 -0.003010 0.008611 -0.003079 0.000000 0.000000 0.000000
# 3 -0.002061 -0.003079 0.008399 0.000000 0.000000 0.000000
# 4 0.000000 0.000000 0.000000 -0.069181 0.000000 0.000000
# 5 0.000000 0.000000 0.000000 0.000000 0.028550 0.000000
# 6 0.000000 0.000000 0.000000 0.000000 0.000000 0.036239
#
#
# Mechanical properties :
#
#
# Convention : Reuss Voigt Hill
#
# Bulk Modulus (GPa) = 43.40108 61.79649 52.59878
# Shear Modulus (GPa) = 84.84890 25.37689 55.11289
#
# Velocity S-wave (km/s) = 6.40321 3.50182 5.16062
# Velocity P-wave (km/s) = 8.69717 6.79794 7.80553
#
# Compressibility (1/GPa) = 0.02304090
#
# Stress axis : x y z
#
# Youngs Moduli (GPa) = 44.78290 116.12744 119.05807
#
# Poissons Ratio (x) = 0.34952 0.24532
# Poissons Ratio (y) = 0.13479 0.36663
# Poissons Ratio (z) = 0.09228 0.35761
#
# Static dielectric constant tensor:
#      x y z
#    x 4.040060 0.000000 0.000000 
#    y 0.000000 3.768420 0.000000 
#    z 0.000000 0.000000 3.890720 
# 
# 
# High freq. dielectric constant tensor:
#      x y z
#    x 1.806790 0.000000 0.000000 
#    y 0.000000 1.824830 0.000000 
#    z 0.000000 0.000000 1.823350 
# 
# From -- ./inp_files/20618.got.cif
#   From: 2010.03.12/outbox.cif.g09.slc.cpg/sg59_11_cif.got.tgz:20618.got - 2010.04.16 16:29:54.
