data_PCOD8245426
_publ_section_title
;
Structure prediction by ZEFSAII (Michael W. Deem and Ramdas Pophale) SiO2 
 PCOD8245426
Probable space group: P M M N
;
_chemical_formula_sum "Si O2"
_cell_formula_units_Z 56
_cell_length_a 9.407934
_cell_length_b 14.625374
_cell_length_c 21.488867
_cell_angle_alpha 90.000000
_cell_angle_beta 90.000000
_cell_angle_gamma 90.000000
_cell_volume 2956.751056
_symmetry_space_group_name_H-M "P M M N"
_symmetry_group_IT_number 59
_space_group.IT_coordinate_system_code '2'
_symmetry_cell_setting 'orthorhombic'
loop_
_space_group_symop_operation_xyz
x,y,z
1/2-x,1/2-y,z
1/2+x,-y,-z
-x,1/2+y,-z
-x,-y,-z
1/2+x,1/2+y,-z
1/2-x,y,z
x,1/2-y,z
loop_
_atom_site_type_symbol
_atom_site_label
_atom_site_fract_x
_atom_site_fract_y
_atom_site_fract_z
Si Si1 0.914188 0.509053 0.088874
Si Si2 0.583021 0.498895 0.233000
Si Si3 0.916529 0.144329 0.991816
Si Si4 0.087618 0.353015 0.307900
Si Si5 0.091561 0.390891 0.444903
Si Si6 0.087407 0.853678 0.305058
Si Si7 0.591465 0.392532 0.557802
O O1 0.750000 0.533651 0.078370
O O2 0.950500 0.492335 0.160344
O O3 0.003393 0.596462 0.065634
O O4 0.954026 0.414675 0.053397
O O5 0.750000 0.500658 0.247049
O O6 0.514786 0.410806 0.264549
O O7 0.512756 0.590205 0.259431
O O8 0.750000 0.141371 0.977147
O O9 0.966741 0.250000 0.000461
O O10 0.250000 0.390741 0.305374
O O11 0.080751 0.250000 0.283114
O O12 0.030538 0.357367 0.378774
O O13 0.250000 0.352402 0.453653
O O14 0.089279 0.499283 0.446031
O O15 0.999647 0.349944 0.501519
O O16 0.250000 0.890575 0.302393
O O17 0.079530 0.750000 0.282005
O O18 0.028926 0.861841 0.375612
O O19 0.750000 0.353261 0.550755
#
# Coordination Sequence:
#
# PCOD8245426 Si02
#       7
#     8   8   8   8   8   8   8
#     4   9  20  37  56  82 115 150 180 217 268 316
#     4  11  23  38  57  81 114 150 185 226 272 321
#     4   9  18  35  60  87 113 143 181 221 260 310
#     4  10  21  38  58  79 107 145 187 229 276 331
#     4   9  17  31  51  75 103 135 173 223 281 335
#     4  10  21  38  58  78 105 145 189 231 278 331
#     4   9  17  31  51  75 102 134 175 225 280 335
#
# _framework density 18.939706999999999
#
# number of rings (size 3 to 8) (size 9 to 14) (size 15 to 20)
#    0.000    2.429    1.429    0.429    0.000    4.857 
#    0.000    4.286    0.000    0.000    0.000    0.000 
#    0.000    0.000    0.000    0.000    0.000    0.000 
#
# Total GULP energy -694369.482896 kJ/mol
# GULP energy per Si atom -12399.455052 kJ/mol
# Density = 1.889660 g / cm^3
# Si number density = 18.939707 Si / 1000 Ang^3
#
#
#
# Elastic Constant Matrix: (Units=GPa)
#
#
# Indices 1 2 3 4 5 6 
#
# 1 81.7016 44.1475 70.0032 0.0000 0.0000 0.0000
# 2 44.1475 106.0998 52.6336 0.0000 0.0000 0.0000
# 3 70.0032 52.6336 128.3706 0.0000 0.0000 0.0000
# 4 0.0000 0.0000 0.0000 -94.2577 0.0000 0.0000
# 5 0.0000 0.0000 0.0000 0.0000 34.9424 0.0000
# 6 0.0000 0.0000 0.0000 0.0000 0.0000 20.8443
#
#
#
# Elastic Compliance Matrix: (Units=1/GPa)
#
#
# Indices 1 2 3 4 5 6 
#
# 1 0.024567 -0.004489 -0.011556 0.000000 0.000000 0.000000
# 2 -0.004489 0.012652 -0.002739 0.000000 0.000000 0.000000
# 3 -0.011556 -0.002739 0.015215 0.000000 0.000000 0.000000
# 4 0.000000 0.000000 0.000000 -0.010609 0.000000 0.000000
# 5 0.000000 0.000000 0.000000 0.000000 0.028619 0.000000
# 6 0.000000 0.000000 0.000000 0.000000 0.000000 0.047975
#
#
# Mechanical properties :
#
#
# Convention : Reuss Voigt Hill
#
# Bulk Modulus (GPa) = 67.27614 72.19340 69.73477
# Shear Modulus (GPa) = 31.06696 2.26498 16.66597
#
# Velocity S-wave (km/s) = 4.05447 1.09475 2.96961
# Velocity P-wave (km/s) = 7.58397 6.30858 6.97549
#
# Compressibility (1/GPa) = 0.01486411
#
# Stress axis : x y z
#
# Youngs Moduli (GPa) = 40.70489 79.03871 65.72488
#
# Poissons Ratio (x) = 0.35484 0.75953
# Poissons Ratio (y) = 0.18274 0.18004
# Poissons Ratio (z) = 0.47039 0.21651
#
# Static dielectric constant tensor:
#      x y z
#    x 3.567090 0.000000 0.000000 
#    y 0.000000 3.462780 0.000000 
#    z 0.000000 0.000000 3.467260 
# 
# 
# High freq. dielectric constant tensor:
#      x y z
#    x 1.726460 0.000000 0.000000 
#    y 0.000000 1.741760 0.000000 
#    z 0.000000 0.000000 1.732110 
# 
# From -- ./inp_files/29029.got.cif
#   From: 2010.03.12/outbox.cif.g09.slc.cpg/sg59_15_cif.got.tgz:29029.got - 2010.04.16 16:29:54.
