data_PCOD8245206
_publ_section_title
;
Structure prediction by ZEFSAII (Michael W. Deem and Ramdas Pophale) SiO2 
 PCOD8245206
Probable space group: P M M N
;
_chemical_formula_sum "Si O2"
_cell_formula_units_Z 48
_cell_length_a 29.373209
_cell_length_b 16.314848
_cell_length_c 5.142427
_cell_angle_alpha 90.000000
_cell_angle_beta 90.000000
_cell_angle_gamma 90.000000
_cell_volume 2464.350988
_symmetry_space_group_name_H-M "P M M N"
_symmetry_group_IT_number 59
_space_group.IT_coordinate_system_code '2'
_symmetry_cell_setting 'orthorhombic'
loop_
_space_group_symop_operation_xyz
x,y,z
1/2-x,1/2-y,z
1/2+x,-y,-z
-x,1/2+y,-z
-x,-y,-z
1/2+x,1/2+y,-z
1/2-x,y,z
x,1/2-y,z
loop_
_atom_site_type_symbol
_atom_site_label
_atom_site_fract_x
_atom_site_fract_y
_atom_site_fract_z
Si Si1 0.303844 0.841333 0.474526
Si Si2 0.803752 0.058475 0.028776
Si Si3 0.484623 0.845555 0.484647
Si Si4 0.541180 0.437432 0.014972
Si Si5 0.590423 0.846064 0.473118
Si Si6 0.379348 0.437477 0.029534
O O1 0.250000 0.833745 0.489595
O O2 0.325329 0.750000 0.484270
O O3 0.321432 0.894703 0.715646
O O4 0.319021 0.885179 0.211187
O O5 0.750000 0.041588 0.032718
O O6 0.828108 0.970305 0.010752
O O7 0.477575 0.750000 0.530463
O O8 0.457621 0.894387 0.705298
O O9 0.537621 0.869785 0.500834
O O10 0.464414 0.868750 0.205476
O O11 0.500000 0.500000 0.000000
O O12 0.588315 0.483709 0.976202
O O13 0.598336 0.750000 0.504282
O O14 0.618520 0.892619 0.694113
O O15 0.608027 0.872502 0.191471
#
# Coordination Sequence:
#
# PCOD8245206 Si02
#       6
#     8   8   8   8   8   8
#     4   9  17  33  57  81 107 145 190 229 268 322
#     4  10  21  37  56  83 114 148 189 232 278 325
#     4  11  22  38  57  82 117 154 183 224 280 331
#     4  12  21  37  57  84 114 144 185 231 272 334
#     4  11  22  38  60  85 110 143 189 232 274 337
#     4  12  23  37  60  86 111 147 187 230 281 329
#
# _framework density 19.477746
#
# number of rings (size 3 to 8) (size 9 to 14) (size 15 to 20)
#    0.000    1.167    3.333    4.000    0.000    4.667 
#    0.000    5.000    0.000    3.000    0.000    0.000 
#    0.000    0.000    0.000    0.000    0.000    0.000 
#
# Total GULP energy -595477.178745 kJ/mol
# GULP energy per Si atom -12405.774557 kJ/mol
# Density = 1.943341 g / cm^3
# Si number density = 19.477746 Si / 1000 Ang^3
#
#
#
# Elastic Constant Matrix: (Units=GPa)
#
#
# Indices 1 2 3 4 5 6 
#
# 1 53.4668 33.2021 6.7277 0.0000 0.0000 0.0000
# 2 33.2021 76.3440 22.9348 0.0000 0.0000 0.0000
# 3 6.7277 22.9348 88.3186 0.0000 0.0000 0.0000
# 4 0.0000 0.0000 0.0000 38.8166 0.0000 0.0000
# 5 0.0000 0.0000 0.0000 0.0000 12.9455 0.0000
# 6 0.0000 0.0000 0.0000 0.0000 0.0000 25.5032
#
#
#
# Elastic Compliance Matrix: (Units=1/GPa)
#
#
# Indices 1 2 3 4 5 6 
#
# 1 0.025708 -0.011489 0.001025 0.000000 0.000000 0.000000
# 2 -0.011489 0.019341 -0.004147 0.000000 0.000000 0.000000
# 3 0.001025 -0.004147 0.012322 0.000000 0.000000 0.000000
# 4 0.000000 0.000000 0.000000 0.025762 0.000000 0.000000
# 5 0.000000 0.000000 0.000000 0.000000 0.077247 0.000000
# 6 0.000000 0.000000 0.000000 0.000000 0.000000 0.039211
#
#
# Mechanical properties :
#
#
# Convention : Reuss Voigt Hill
#
# Bulk Modulus (GPa) = 35.52508 38.20652 36.86580
# Shear Modulus (GPa) = 20.99114 25.80404 23.39759
#
# Velocity S-wave (km/s) = 3.28639 3.64372 3.46966
# Velocity P-wave (km/s) = 5.71655 6.11231 5.91774
#
# Compressibility (1/GPa) = 0.02814913
#
# Stress axis : x y z
#
# Youngs Moduli (GPa) = 38.89777 51.70386 81.15852
#
# Poissons Ratio (x) = 0.59400 -0.08319
# Poissons Ratio (y) = 0.44688 0.33659
# Poissons Ratio (z) = -0.03987 0.21443
#
# Static dielectric constant tensor:
#      x y z
#    x 3.419760 0.000000 0.000000 
#    y 0.000000 3.607200 0.000000 
#    z 0.000000 0.000000 3.827430 
# 
# 
# High freq. dielectric constant tensor:
#      x y z
#    x 1.730200 0.000000 0.000000 
#    y 0.000000 1.762370 0.000000 
#    z 0.000000 0.000000 1.780690 
# 
# From -- ./inp_files/2157.got.cif
#   From: 2010.03.12/outbox.cif.g09.slc.cpg/sg59_2_cif.got.tgz:2157.got - 2010.04.16 16:29:54.
