data_PCOD8245394
_publ_section_title
;
Structure prediction by ZEFSAII (Michael W. Deem and Ramdas Pophale) SiO2 
 PCOD8245394
Probable space group: P M M N
;
_chemical_formula_sum "Si O2"
_cell_formula_units_Z 40
_cell_length_a 14.213079
_cell_length_b 8.726467
_cell_length_c 16.949098
_cell_angle_alpha 90.000000
_cell_angle_beta 90.000000
_cell_angle_gamma 90.000000
_cell_volume 2102.196029
_symmetry_space_group_name_H-M "P M M N"
_symmetry_group_IT_number 59
_space_group.IT_coordinate_system_code '2'
_symmetry_cell_setting 'orthorhombic'
loop_
_space_group_symop_operation_xyz
x,y,z
1/2-x,1/2-y,z
1/2+x,-y,-z
-x,1/2+y,-z
-x,-y,-z
1/2+x,1/2+y,-z
1/2-x,y,z
x,1/2-y,z
loop_
_atom_site_type_symbol
_atom_site_label
_atom_site_fract_x
_atom_site_fract_y
_atom_site_fract_z
Si Si1 0.250000 0.928389 0.353496
Si Si2 0.430418 0.426705 0.284156
Si Si3 0.641583 0.427786 0.020600
Si Si4 0.250000 0.430730 0.525649
Si Si5 0.010553 0.573034 0.124588
Si Si6 0.939894 0.427958 0.430794
O O1 0.250000 0.750000 0.373688
O O2 0.159262 0.968651 0.301910
O O3 0.250000 0.020557 0.434690
O O4 0.399000 0.250000 0.285770
O O5 0.472787 0.468225 0.199991
O O6 0.510926 0.459113 0.347864
O O7 0.750000 0.479081 0.016953
O O8 0.631121 0.250000 0.043275
O O9 0.589311 0.527804 0.086598
O O10 0.595484 0.460185 0.935724
O O11 0.250000 0.250000 0.527743
O O12 0.339139 0.492827 0.572738
O O13 0.007298 0.750000 0.149633
O O14 0.927189 0.250000 0.449188
O O15 0.000000 0.500000 0.500000
#
# Coordination Sequence:
#
# PCOD8245394 Si02
#       6
#     4   8   8   4   8   8
#     4  12  24  38  62  90 121 156 199 248 300 354
#     4  11  24  41  61  89 123 158 198 246 301 355
#     4   9  19  38  62  86 117 158 197 238 293 355
#     4  12  24  40  62  88 119 156 205 252 302 362
#     4  10  21  37  60  90 121 153 196 245 296 352
#     4  11  23  40  63  87 119 160 204 249 300 356
#
# _framework density 19.027721
#
# number of rings (size 3 to 8) (size 9 to 14) (size 15 to 20)
#    0.000    1.400    2.000    3.600    1.400    3.600 
#    1.800    0.000    0.000    0.000    0.000    0.000 
#    0.000    0.000    0.000    0.000    0.000    0.000 
#
# Total GULP energy -496261.708738 kJ/mol
# GULP energy per Si atom -12406.542718 kJ/mol
# Density = 1.898441 g / cm^3
# Si number density = 19.027721 Si / 1000 Ang^3
#
#
#
# Elastic Constant Matrix: (Units=GPa)
#
#
# Indices 1 2 3 4 5 6 
#
# 1 158.4559 60.0852 50.4789 0.0000 0.0000 0.0000
# 2 60.0852 106.5397 46.4539 0.0000 0.0000 0.0000
# 3 50.4789 46.4539 100.0084 0.0000 0.0000 0.0000
# 4 0.0000 0.0000 0.0000 33.1819 0.0000 0.0000
# 5 0.0000 0.0000 0.0000 0.0000 17.4698 0.0000
# 6 0.0000 0.0000 0.0000 0.0000 0.0000 35.5753
#
#
#
# Elastic Compliance Matrix: (Units=1/GPa)
#
#
# Indices 1 2 3 4 5 6 
#
# 1 0.008534 -0.003680 -0.002598 0.000000 0.000000 0.000000
# 2 -0.003680 0.013357 -0.004347 0.000000 0.000000 0.000000
# 3 -0.002598 -0.004347 0.013330 0.000000 0.000000 0.000000
# 4 0.000000 0.000000 0.000000 0.030137 0.000000 0.000000
# 5 0.000000 0.000000 0.000000 0.000000 0.057242 0.000000
# 6 0.000000 0.000000 0.000000 0.000000 0.000000 0.028109
#
#
# Mechanical properties :
#
#
# Convention : Reuss Voigt Hill
#
# Bulk Modulus (GPa) = 71.57885 75.44891 73.51388
# Shear Modulus (GPa) = 28.31011 31.11115 29.71063
#
# Velocity S-wave (km/s) = 3.86143 4.04795 3.95579
# Velocity P-wave (km/s) = 7.58820 7.84768 7.71903
#
# Compressibility (1/GPa) = 0.01397061
#
# Stress axis : x y z
#
# Youngs Moduli (GPa) = 117.17769 74.86746 75.02085
#
# Poissons Ratio (x) = 0.27552 0.19491
# Poissons Ratio (y) = 0.43123 0.32610
# Poissons Ratio (z) = 0.30444 0.32543
#
# Static dielectric constant tensor:
#      x y z
#    x 3.620490 0.000000 0.000000 
#    y 0.000000 3.609850 0.000000 
#    z 0.000000 0.000000 3.358800 
# 
# 
# High freq. dielectric constant tensor:
#      x y z
#    x 1.749070 0.000000 0.000000 
#    y 0.000000 1.753120 0.000000 
#    z 0.000000 0.000000 1.736500 
# 
# From -- ./inp_files/19972.got.cif
#   From: 2010.03.12/outbox.cif.g09.slc.cpg/sg59_10_cif.got.tgz:19972.got - 2010.04.16 16:29:54.
