data_PCOD8245764
_publ_section_title
;
Structure prediction by ZEFSAII (Michael W. Deem and Ramdas Pophale) SiO2 
 PCOD8245764
Probable space group: P M M N
;
_chemical_formula_sum "Si O2"
_cell_formula_units_Z 64
_cell_length_a 31.063151
_cell_length_b 8.800330
_cell_length_c 12.059793
_cell_angle_alpha 90.000000
_cell_angle_beta 90.000000
_cell_angle_gamma 90.000000
_cell_volume 3296.737128
_symmetry_space_group_name_H-M "P M M N"
_symmetry_group_IT_number 59
_space_group.IT_coordinate_system_code '2'
_symmetry_cell_setting 'orthorhombic'
loop_
_space_group_symop_operation_xyz
x,y,z
1/2-x,1/2-y,z
1/2+x,-y,-z
-x,1/2+y,-z
-x,-y,-z
1/2+x,1/2+y,-z
1/2-x,y,z
x,1/2-y,z
loop_
_atom_site_type_symbol
_atom_site_label
_atom_site_fract_x
_atom_site_fract_y
_atom_site_fract_z
Si Si1 0.200056 0.077104 0.260931
Si Si2 0.870452 0.424100 0.605957
Si Si3 0.898289 0.077373 0.365050
Si Si4 0.453200 0.570813 0.020230
Si Si5 0.942430 0.929469 0.751501
Si Si6 0.986195 0.927632 0.385129
Si Si7 0.702334 0.570331 0.987687
Si Si8 0.627395 0.423845 0.123376
O O1 0.250000 0.067008 0.289902
O O2 0.183404 0.250000 0.272879
O O3 0.190878 0.015535 0.136830
O O4 0.175835 0.970354 0.347770
O O5 0.880704 0.250000 0.635417
O O6 0.869146 0.449609 0.473554
O O7 0.907057 0.527781 0.660468
O O8 0.916894 0.250000 0.364431
O O9 0.870182 0.048950 0.255261
O O10 0.936203 0.955348 0.365227
O O11 0.459305 0.750000 0.031054
O O12 0.431291 0.504111 0.130807
O O13 0.500000 0.500000 0.000000
O O14 0.419810 0.527306 0.922009
O O15 0.944674 0.750000 0.765114
O O16 0.988643 0.992072 0.714537
O O17 0.996787 0.750000 0.386807
O O18 0.000000 0.000000 0.500000
O O19 0.750000 0.508040 0.021372
O O20 0.704110 0.750000 0.986691
O O21 0.666231 0.518453 0.072574
O O22 0.635632 0.250000 0.091172
#
# Coordination Sequence:
#
# PCOD8245764 Si02
#       8
#     8   8   8   8   8   8   8   8
#     4   9  19  37  60  85 115 148 183 230 290 353
#     4  11  22  36  57  84 114 147 188 236 286 343
#     4  10  22  40  58  80 116 156 195 240 288 343
#     4  11  23  39  59  86 119 154 198 246 298 358
#     4  12  24  38  58  83 115 152 193 240 290 342
#     4  12  23  37  58  84 113 150 196 242 290 343
#     4   9  19  37  61  88 115 146 187 237 294 355
#     4  10  22  39  59  84 115 154 196 242 296 351
#
# _framework density 19.413132999999998
#
# number of rings (size 3 to 8) (size 9 to 14) (size 15 to 20)
#    0.000    1.500    1.250    5.250    0.000    6.000 
#    0.000    1.875    0.000    3.750    0.000    0.000 
#    0.000    0.000    0.000    0.000    0.000    0.000 
#
# Total GULP energy -793773.940897 kJ/mol
# GULP energy per Si atom -12402.717827 kJ/mol
# Density = 1.936895 g / cm^3
# Si number density = 19.413133 Si / 1000 Ang^3
#
#
#
# Elastic Constant Matrix: (Units=GPa)
#
#
# Indices 1 2 3 4 5 6 
#
# 1 104.0968 38.5778 55.1541 0.0000 0.0000 0.0000
# 2 38.5778 89.5058 45.8217 0.0000 0.0000 0.0000
# 3 55.1541 45.8217 134.1263 0.0000 0.0000 0.0000
# 4 0.0000 0.0000 0.0000 29.2932 0.0000 0.0000
# 5 0.0000 0.0000 0.0000 0.0000 30.4715 0.0000
# 6 0.0000 0.0000 0.0000 0.0000 0.0000 33.9821
#
#
#
# Elastic Compliance Matrix: (Units=1/GPa)
#
#
# Indices 1 2 3 4 5 6 
#
# 1 0.013133 -0.003510 -0.004202 0.000000 0.000000 0.000000
# 2 -0.003510 0.014479 -0.003503 0.000000 0.000000 0.000000
# 3 -0.004202 -0.003503 0.010380 0.000000 0.000000 0.000000
# 4 0.000000 0.000000 0.000000 0.034138 0.000000 0.000000
# 5 0.000000 0.000000 0.000000 0.000000 0.032818 0.000000
# 6 0.000000 0.000000 0.000000 0.000000 0.000000 0.029427
#
#
# Mechanical properties :
#
#
# Convention : Reuss Voigt Hill
#
# Bulk Modulus (GPa) = 64.25343 67.42624 65.83984
# Shear Modulus (GPa) = 30.86602 31.29441 31.08022
#
# Velocity S-wave (km/s) = 3.99175 4.01936 4.00558
# Velocity P-wave (km/s) = 7.37667 7.50653 7.44188
#
# Compressibility (1/GPa) = 0.01556337
#
# Stress axis : x y z
#
# Youngs Moduli (GPa) = 76.14299 69.06786 96.33789
#
# Poissons Ratio (x) = 0.24240 0.40476
# Poissons Ratio (y) = 0.26723 0.33748
# Poissons Ratio (z) = 0.31992 0.24195
#
# Static dielectric constant tensor:
#      x y z
#    x 2.767600 0.000000 0.000000 
#    y 0.000000 3.705930 0.000000 
#    z 0.000000 0.000000 3.703760 
# 
# 
# High freq. dielectric constant tensor:
#      x y z
#    x 1.747750 0.000000 0.000000 
#    y 0.000000 1.757160 0.000000 
#    z 0.000000 0.000000 1.761820 
# 
# From -- ./inp_files/19212.got.cif
#   From: 2010.03.12/outbox.cif.g09.slc.cpg/sg59_10_cif.got.tgz:19212.got - 2010.04.16 16:29:54.
