data_PCOD8245278
_publ_section_title
;
Structure prediction by ZEFSAII (Michael W. Deem and Ramdas Pophale) SiO2 
 PCOD8245278
Probable space group: P M M N
;
_chemical_formula_sum "Si O2"
_cell_formula_units_Z 40
_cell_length_a 8.660465
_cell_length_b 15.875862
_cell_length_c 13.571207
_cell_angle_alpha 90.000000
_cell_angle_beta 90.000000
_cell_angle_gamma 90.000000
_cell_volume 1865.937105
_symmetry_space_group_name_H-M "P M M N"
_symmetry_group_IT_number 59
_space_group.IT_coordinate_system_code '2'
_symmetry_cell_setting 'orthorhombic'
loop_
_space_group_symop_operation_xyz
x,y,z
1/2-x,1/2-y,z
1/2+x,-y,-z
-x,1/2+y,-z
-x,-y,-z
1/2+x,1/2+y,-z
1/2-x,y,z
x,1/2-y,z
loop_
_atom_site_type_symbol
_atom_site_label
_atom_site_fract_x
_atom_site_fract_y
_atom_site_fract_z
Si Si1 0.069259 0.845908 0.377334
Si Si2 0.421901 0.506469 0.254451
Si Si3 0.430591 0.928915 0.929951
Si Si4 0.077421 0.115910 0.423347
Si Si5 0.430130 0.250000 0.089999
Si Si6 0.074969 0.750000 0.702892
O O1 0.250000 0.849813 0.402941
O O2 0.012895 0.750000 0.363846
O O3 0.035452 0.895203 0.273677
O O4 0.973976 0.891283 0.464005
O O5 0.250000 0.497062 0.208152
O O6 0.537445 0.456798 0.182802
O O7 0.424087 0.472660 0.366743
O O8 0.250000 0.923588 0.947571
O O9 0.498281 0.836188 0.954744
O O10 0.500000 0.000000 0.000000
O O11 0.250000 0.155101 0.419115
O O12 0.952756 0.170764 0.365696
O O13 0.250000 0.250000 0.066650
O O14 0.456801 0.250000 0.206744
O O15 0.250000 0.750000 0.743977
#
# Coordination Sequence:
#
# PCOD8245278 Si02
#       6
#     8   8   8   8   4   4
#     4  10  21  37  57  84 124 172 217 260 312 380
#     4  10  22  40  61  88 126 168 211 266 326 379
#     4  12  26  46  72 101 132 171 216 267 327 394
#     4  11  21  34  57  87 123 166 210 262 317 372
#     4  12  24  44  72 101 132 165 210 270 332 392
#     4  12  22  34  58  91 124 163 210 256 310 374
#
# _framework density 21.43695
#
# number of rings (size 3 to 8) (size 9 to 14) (size 15 to 20)
#    0.000    1.000    3.000    4.800    0.000    1.600 
#    1.800    0.000    0.000    0.000    0.000    0.000 
#    0.000    0.000    0.000    0.000    0.000    0.000 
#
# Total GULP energy -495846.506105 kJ/mol
# GULP energy per Si atom -12396.162653 kJ/mol
# Density = 2.138816 g / cm^3
# Si number density = 21.436950 Si / 1000 Ang^3
#
#
#
# Elastic Constant Matrix: (Units=GPa)
#
#
# Indices 1 2 3 4 5 6 
#
# 1 133.6687 57.4982 31.7196 0.0000 0.0000 0.0000
# 2 57.4982 134.0929 55.9802 0.0000 0.0000 0.0000
# 3 31.7196 55.9802 55.0448 0.0000 0.0000 0.0000
# 4 0.0000 0.0000 0.0000 37.0646 0.0000 0.0000
# 5 0.0000 0.0000 0.0000 0.0000 32.1601 0.0000
# 6 0.0000 0.0000 0.0000 0.0000 0.0000 -93.7063
#
#
#
# Elastic Compliance Matrix: (Units=1/GPa)
#
#
# Indices 1 2 3 4 5 6 
#
# 1 0.009334 -0.003053 -0.002274 0.000000 0.000000 0.000000
# 2 -0.003053 0.013959 -0.012436 0.000000 0.000000 0.000000
# 3 -0.002274 -0.012436 0.032125 0.000000 0.000000 0.000000
# 4 0.000000 0.000000 0.000000 0.026980 0.000000 0.000000
# 5 0.000000 0.000000 0.000000 0.000000 0.031094 0.000000
# 6 0.000000 0.000000 0.000000 0.000000 0.000000 -0.010672
#
#
# Mechanical properties :
#
#
# Convention : Reuss Voigt Hill
#
# Bulk Modulus (GPa) = 50.27379 68.13361 59.20370
# Shear Modulus (GPa) = 34.48819 6.94423 20.71621
#
# Velocity S-wave (km/s) = 4.01536 1.80178 3.11204
# Velocity P-wave (km/s) = 6.70823 6.01505 6.37107
#
# Compressibility (1/GPa) = 0.01989108
#
# Stress axis : x y z
#
# Youngs Moduli (GPa) = 107.13433 71.64058 31.12849
#
# Poissons Ratio (x) = 0.21873 0.07078
# Poissons Ratio (y) = 0.32710 0.38713
# Poissons Ratio (z) = 0.24359 0.89095
#
# Static dielectric constant tensor:
#      x y z
#    x 3.824050 0.000000 0.000000 
#    y 0.000000 4.021620 0.000000 
#    z 0.000000 0.000000 3.572640 
# 
# 
# High freq. dielectric constant tensor:
#      x y z
#    x 1.839470 0.000000 0.000000 
#    y 0.000000 1.858740 0.000000 
#    z 0.000000 0.000000 1.814770 
# 
# From -- ./inp_files/19920.got.cif
#   From: 2010.03.12/outbox.cif.g09.slc.cpg/sg59_10_cif.got.tgz:19920.got - 2010.04.16 16:29:54.
