data_PCOD8245954
_publ_section_title
;
Structure prediction by ZEFSAII (Michael W. Deem and Ramdas Pophale) SiO2 
 PCOD8245954
Probable space group: P M M N
;
_chemical_formula_sum "Si O2"
_cell_formula_units_Z 48
_cell_length_a 20.197917
_cell_length_b 17.775593
_cell_length_c 7.695455
_cell_angle_alpha 90.000000
_cell_angle_beta 90.000000
_cell_angle_gamma 90.000000
_cell_volume 2762.898840
_symmetry_space_group_name_H-M "P M M N"
_symmetry_group_IT_number 59
_space_group.IT_coordinate_system_code '2'
_symmetry_cell_setting 'orthorhombic'
loop_
_space_group_symop_operation_xyz
x,y,z
1/2-x,1/2-y,z
1/2+x,-y,-z
-x,1/2+y,-z
-x,-y,-z
1/2+x,1/2+y,-z
1/2-x,y,z
x,1/2-y,z
loop_
_atom_site_type_symbol
_atom_site_label
_atom_site_fract_x
_atom_site_fract_y
_atom_site_fract_z
Si Si1 0.057269 0.556464 0.805125
Si Si2 0.557269 0.443536 0.805125
Si Si3 0.676345 0.534946 0.693496
Si Si4 0.875844 0.835107 0.500000
Si Si5 0.176345 0.465054 0.693496
Si Si6 0.467094 0.835282 0.500000
O O1 0.126943 0.512483 0.812569
O O2 0.061080 0.625876 0.673537
O O3 1.000000 0.500000 0.739567
O O4 0.041940 0.585813 1.000000
O O5 0.626943 0.487517 0.812569
O O6 0.561080 0.374124 0.673537
O O7 0.750000 0.533424 0.775887
O O8 0.651512 0.621909 0.672537
O O9 0.676777 0.498381 0.500000
O O10 0.849280 0.750000 0.500000
O O11 0.848488 0.878091 0.327463
O O12 0.954356 0.838424 0.500000
O O13 0.250000 0.466576 0.775887
O O14 0.441050 0.750000 0.500000
#
# Coordination Sequence:
#
# PCOD8245954 Si02
#       6
#     8   8   8   8   8   8
#     4  11  20  34  56  77 102 138 177 217 259 304
#     4  11  20  34  56  77 102 138 177 217 259 304
#     4   9  17  30  52  77 103 136 176 214 254 306
#     4   9  16  28  50  78 109 144 175 207 252 310
#     4   9  17  30  52  77 103 136 176 214 254 306
#     4  11  20  34  55  79 109 137 171 218 261 306
#
# _framework density 17.373058
#
# number of rings (size 3 to 8) (size 9 to 14) (size 15 to 20)
#    1.000    1.000    5.000    0.500    0.000    2.667 
#    0.000    0.000    0.000    3.000    0.000    4.667 
#    0.000    0.000    0.000    0.000    0.000    0.000 
#
# Total GULP energy -594862.647928 kJ/mol
# GULP energy per Si atom -12392.971832 kJ/mol
# Density = 1.733352 g / cm^3
# Si number density = 17.373058 Si / 1000 Ang^3
#
#
#
# Elastic Constant Matrix: (Units=GPa)
#
#
# Indices 1 2 3 4 5 6 
#
# 1 106.0507 47.7223 10.0854 0.0000 0.0000 0.0000
# 2 47.7223 125.0501 51.6222 0.0000 0.0000 0.0000
# 3 10.0854 51.6222 80.8231 0.0000 0.0000 0.0000
# 4 0.0000 0.0000 0.0000 5.8766 0.0000 0.0000
# 5 0.0000 0.0000 0.0000 0.0000 11.0818 0.0000
# 6 0.0000 0.0000 0.0000 0.0000 0.0000 20.7739
#
#
#
# Elastic Compliance Matrix: (Units=1/GPa)
#
#
# Indices 1 2 3 4 5 6 
#
# 1 0.011589 -0.005196 0.001872 0.000000 0.000000 0.000000
# 2 -0.005196 0.013190 -0.007776 0.000000 0.000000 0.000000
# 3 0.001872 -0.007776 0.017106 0.000000 0.000000 0.000000
# 4 0.000000 0.000000 0.000000 0.170166 0.000000 0.000000
# 5 0.000000 0.000000 0.000000 0.000000 0.090238 0.000000
# 6 0.000000 0.000000 0.000000 0.000000 0.000000 0.048137
#
#
# Mechanical properties :
#
#
# Convention : Reuss Voigt Hill
#
# Bulk Modulus (GPa) = 50.79739 58.97595 54.88667
# Shear Modulus (GPa) = 13.18608 21.04605 17.11607
#
# Velocity S-wave (km/s) = 2.75798 3.48432 3.14221
# Velocity P-wave (km/s) = 6.28049 7.08575 6.69524
#
# Compressibility (1/GPa) = 0.01968605
#
# Stress axis : x y z
#
# Youngs Moduli (GPa) = 86.28528 75.81704 58.46034
#
# Poissons Ratio (x) = 0.39393 -0.10946
# Poissons Ratio (y) = 0.44832 0.45459
# Poissons Ratio (z) = -0.16156 0.58955
#
# Static dielectric constant tensor:
#      x y z
#    x 3.186730 0.000000 0.000000 
#    y 0.000000 3.116350 0.000000 
#    z 0.000000 0.000000 2.915060 
# 
# 
# High freq. dielectric constant tensor:
#      x y z
#    x 1.673620 0.000000 0.000000 
#    y 0.000000 1.643960 0.000000 
#    z 0.000000 0.000000 1.649830 
# 
# From -- ./inp_files/12091.got.cif
#   From: 2010.03.12/outbox.cif.g09.slc.cpg/sg59_7_cif.got.tgz:12091.got - 2010.04.16 16:29:54.
