data_PCOD8245082
_publ_section_title
;
Structure prediction by ZEFSAII (Michael W. Deem and Ramdas Pophale) SiO2 
 PCOD8245082
Probable space group: P M M N
;
_chemical_formula_sum "Si O2"
_cell_formula_units_Z 56
_cell_length_a 14.290527
_cell_length_b 8.924725
_cell_length_c 21.920252
_cell_angle_alpha 90.000000
_cell_angle_beta 90.000000
_cell_angle_gamma 90.000000
_cell_volume 2795.687537
_symmetry_space_group_name_H-M "P M M N"
_symmetry_group_IT_number 59
_space_group.IT_coordinate_system_code '2'
_symmetry_cell_setting 'orthorhombic'
loop_
_space_group_symop_operation_xyz
x,y,z
1/2-x,1/2-y,z
1/2+x,-y,-z
-x,1/2+y,-z
-x,-y,-z
1/2+x,1/2+y,-z
1/2-x,y,z
x,1/2-y,z
loop_
_atom_site_type_symbol
_atom_site_label
_atom_site_fract_x
_atom_site_fract_y
_atom_site_fract_z
Si Si1 0.647152 0.086076 0.122379
Si Si2 0.141337 0.924762 0.171683
Si Si3 0.949489 0.570685 0.710865
Si Si4 0.848667 0.419934 0.266095
Si Si5 0.467473 0.574385 0.410011
Si Si6 0.009828 0.921844 0.064399
Si Si7 0.641312 0.074551 0.467333
O O1 0.750000 0.070726 0.093537
O O2 0.605050 0.250000 0.103888
O O3 0.652077 0.075289 0.194021
O O4 0.587710 0.947961 0.098160
O O5 0.250000 0.955694 0.162016
O O6 0.118718 0.750000 0.181696
O O7 0.090461 0.984577 0.110044
O O8 0.108507 0.013017 0.231530
O O9 0.945189 0.750000 0.711825
O O10 0.913506 0.503958 0.646914
O O11 0.055717 0.503272 0.712370
O O12 0.750000 0.494707 0.289814
O O13 0.849412 0.250000 0.289858
O O14 0.476669 0.750000 0.398347
O O15 0.398257 0.537711 0.465713
O O16 0.572765 0.508975 0.419621
O O17 0.028798 0.750000 0.051453
O O18 0.000000 0.000000 0.000000
O O19 0.750000 0.020285 0.461820
O O20 0.634838 0.250000 0.453188
#
# Coordination Sequence:
#
# PCOD8245082 Si02
#       7
#     8   8   8   8   8   8   8
#     4   9  17  33  57  81 107 141 179 221 277 341
#     4  10  23  43  62  81 112 155 198 241 292 346
#     4  11  21  35  59  88 119 153 194 240 286 343
#     4   8  15  29  51  78 107 141 178 218 272 337
#     4  10  21  36  56  86 121 155 194 240 294 350
#     4  11  23  38  59  85 114 148 191 240 292 347
#     4   9  19  38  61  82 110 154 203 247 292 343
#
# _framework density 20.030850000000001
#
# number of rings (size 3 to 8) (size 9 to 14) (size 15 to 20)
#    0.000    2.286    1.429    2.143    0.000    3.714 
#    0.000    4.286    0.000    1.286    0.000    0.000 
#    0.000    0.000    0.000    0.000    0.000    0.000 
#
# Total GULP energy -693856.181032 kJ/mol
# GULP energy per Si atom -12390.288947 kJ/mol
# Density = 1.998526 g / cm^3
# Si number density = 20.030850 Si / 1000 Ang^3
#
#
#
# Elastic Constant Matrix: (Units=GPa)
#
#
# Indices 1 2 3 4 5 6 
#
# 1 96.6032 32.6513 46.1840 0.0000 0.0000 0.0000
# 2 32.6513 60.3375 47.0811 0.0000 0.0000 0.0000
# 3 46.1840 47.0811 120.8713 0.0000 0.0000 0.0000
# 4 0.0000 0.0000 0.0000 31.4835 0.0000 0.0000
# 5 0.0000 0.0000 0.0000 0.0000 -106.0043 0.0000
# 6 0.0000 0.0000 0.0000 0.0000 0.0000 29.3505
#
#
#
# Elastic Compliance Matrix: (Units=1/GPa)
#
#
# Indices 1 2 3 4 5 6 
#
# 1 0.013543 -0.004728 -0.003333 0.000000 0.000000 0.000000
# 2 -0.004728 0.025461 -0.008111 0.000000 0.000000 0.000000
# 3 -0.003333 -0.008111 0.012706 0.000000 0.000000 0.000000
# 4 0.000000 0.000000 0.000000 0.031763 0.000000 0.000000
# 5 0.000000 0.000000 0.000000 0.000000 -0.009434 0.000000
# 6 0.000000 0.000000 0.000000 0.000000 0.000000 0.034071
#
#
# Mechanical properties :
#
#
# Convention : Reuss Voigt Hill
#
# Bulk Modulus (GPa) = 51.63635 58.84945 55.24290
# Shear Modulus (GPa) = 34.03457 1.09231 17.56344
#
# Velocity S-wave (km/s) = 4.12650 0.73925 2.96433
# Velocity P-wave (km/s) = 6.96695 5.49289 6.27336
#
# Compressibility (1/GPa) = 0.01936620
#
# Stress axis : x y z
#
# Youngs Moduli (GPa) = 73.83804 39.27604 78.70228
#
# Poissons Ratio (x) = 0.18570 0.26232
# Poissons Ratio (y) = 0.34911 0.63834
# Poissons Ratio (z) = 0.24611 0.31856
#
# Static dielectric constant tensor:
#      x y z
#    x 3.846090 0.000000 0.000000 
#    y 0.000000 3.444330 0.000000 
#    z 0.000000 0.000000 3.316510 
# 
# 
# High freq. dielectric constant tensor:
#      x y z
#    x 1.785280 0.000000 0.000000 
#    y 0.000000 1.758340 0.000000 
#    z 0.000000 0.000000 1.787210 
# 
# From -- ./inp_files/29061.got.cif
#   From: 2010.03.12/outbox.cif.g09.slc.cpg/sg59_15_cif.got.tgz:29061.got - 2010.04.16 16:29:54.
