data_PCOD8245996
_publ_section_title
;
Structure prediction by ZEFSAII (Michael W. Deem and Ramdas Pophale) SiO2 
 PCOD8245996
Probable space group: P M M N
;
_chemical_formula_sum "Si O2"
_cell_formula_units_Z 48
_cell_length_a 8.583909
_cell_length_b 14.559482
_cell_length_c 20.433509
_cell_angle_alpha 90.000000
_cell_angle_beta 90.000000
_cell_angle_gamma 90.000000
_cell_volume 2553.724142
_symmetry_space_group_name_H-M "P M M N"
_symmetry_group_IT_number 59
_space_group.IT_coordinate_system_code '2'
_symmetry_cell_setting 'orthorhombic'
loop_
_space_group_symop_operation_xyz
x,y,z
1/2-x,1/2-y,z
1/2+x,-y,-z
-x,1/2+y,-z
-x,-y,-z
1/2+x,1/2+y,-z
1/2-x,y,z
x,1/2-y,z
loop_
_atom_site_type_symbol
_atom_site_label
_atom_site_fract_x
_atom_site_fract_y
_atom_site_fract_z
Si Si1 0.934003 0.059335 0.826578
Si Si2 0.934558 0.250000 0.476153
Si Si3 0.933952 0.060795 0.679500
Si Si4 0.433130 0.941661 0.940563
Si Si5 0.934501 0.750000 0.127116
Si Si6 0.434800 0.058952 0.440386
Si Si7 0.432958 0.250000 0.024982
Si Si8 0.935753 0.250000 0.625123
O O1 0.750000 0.052507 0.838434
O O2 0.982943 0.032673 0.752719
O O3 0.989015 0.162228 0.839785
O O4 0.021818 0.987860 0.872444
O O5 0.750000 0.250000 0.472414
O O6 0.994728 0.250000 0.550550
O O7 0.000107 0.338677 0.439611
O O8 0.750000 0.069345 0.674675
O O9 0.004932 0.160438 0.661176
O O10 0.993565 0.985562 0.627749
O O11 0.250000 0.940017 0.948660
O O12 0.497363 0.838915 0.940124
O O13 0.500000 0.000000 0.000000
O O14 0.750000 0.750000 0.137650
O O15 0.978506 0.750000 0.050919
O O16 0.250000 0.059460 0.445491
O O17 0.500000 0.000000 0.500000
O O18 0.250000 0.250000 0.035335
O O19 0.750000 0.250000 0.626475
#
# Coordination Sequence:
#
# PCOD8245996 Si02
#       8
#     8   4   8   8   4   8   4   4
#     4  11  22  38  62  88 117 158 203 240 289 354
#     4  11  21  36  59  87 119 153 197 248 295 342
#     4   9  19  35  58  86 117 156 196 238 290 355
#     4  12  24  40  62  89 121 156 195 242 294 346
#     4  11  22  36  58  89 125 155 188 244 301 346
#     4  11  21  37  60  87 118 154 199 245 292 348
#     4  11  23  40  63  91 120 152 198 245 289 344
#     4   9  15  30  56  85 116 150 189 237 287 344
#
# _framework density 18.796078999999999
#
# number of rings (size 3 to 8) (size 9 to 14) (size 15 to 20)
#    0.000    1.333    3.333    3.750    0.000    2.000 
#    0.000    4.167    0.000    2.000    0.000    0.000 
#    0.000    0.000    0.000    0.000    0.000    0.000 
#
# Total GULP energy -595340.115629 kJ/mol
# GULP energy per Si atom -12402.919076 kJ/mol
# Density = 1.875330 g / cm^3
# Si number density = 18.796079 Si / 1000 Ang^3
#
#
#
# Elastic Constant Matrix: (Units=GPa)
#
#
# Indices 1 2 3 4 5 6 
#
# 1 75.9383 39.0407 39.0405 0.0000 0.0000 0.0000
# 2 39.0407 167.5614 79.4791 0.0000 0.0000 0.0000
# 3 39.0405 79.4791 147.7353 0.0000 0.0000 0.0000
# 4 0.0000 0.0000 0.0000 -37.2820 0.0000 0.0000
# 5 0.0000 0.0000 0.0000 0.0000 25.7800 0.0000
# 6 0.0000 0.0000 0.0000 0.0000 0.0000 29.6555
#
#
#
# Elastic Compliance Matrix: (Units=1/GPa)
#
#
# Indices 1 2 3 4 5 6 
#
# 1 0.015869 -0.002294 -0.002960 0.000000 0.000000 0.000000
# 2 -0.002294 0.008344 -0.003883 0.000000 0.000000 0.000000
# 3 -0.002960 -0.003883 0.009640 0.000000 0.000000 0.000000
# 4 0.000000 0.000000 0.000000 -0.026823 0.000000 0.000000
# 5 0.000000 0.000000 0.000000 0.000000 0.038790 0.000000
# 6 0.000000 0.000000 0.000000 0.000000 0.000000 0.033721
#
#
# Mechanical properties :
#
#
# Convention : Reuss Voigt Hill
#
# Bulk Modulus (GPa) = 64.18066 78.48395 71.33230
# Shear Modulus (GPa) = 48.54029 19.20902 33.87466
#
# Velocity S-wave (km/s) = 5.08731 3.20029 4.24986
# Velocity P-wave (km/s) = 8.29021 7.44996 7.88129
#
# Compressibility (1/GPa) = 0.01558102
#
# Stress axis : x y z
#
# Youngs Moduli (GPa) = 63.01448 119.84493 103.73522
#
# Poissons Ratio (x) = 0.27487 0.30703
# Poissons Ratio (y) = 0.14453 0.40279
# Poissons Ratio (z) = 0.18651 0.46534
#
# Static dielectric constant tensor:
#      x y z
#    x 3.390070 0.000000 0.000000 
#    y 0.000000 3.678410 0.000000 
#    z 0.000000 0.000000 3.754310 
# 
# 
# High freq. dielectric constant tensor:
#      x y z
#    x 1.723580 0.000000 0.000000 
#    y 0.000000 1.738380 0.000000 
#    z 0.000000 0.000000 1.732150 
# 
# From -- ./inp_files/25703.got.cif
#   From: 2010.03.12/outbox.cif.g09.slc.cpg/sg59_13_cif.got.tgz:25703.got - 2010.04.16 16:29:54.
