data_PCOD8245675
_publ_section_title
;
Structure prediction by ZEFSAII (Michael W. Deem and Ramdas Pophale) SiO2 
 PCOD8245675
Probable space group: P M M N
;
_chemical_formula_sum "Si O2"
_cell_formula_units_Z 36
_cell_length_a 14.848873
_cell_length_b 13.812942
_cell_length_c 8.091939
_cell_angle_alpha 90.000000
_cell_angle_beta 90.000000
_cell_angle_gamma 90.000000
_cell_volume 1659.710270
_symmetry_space_group_name_H-M "P M M N"
_symmetry_group_IT_number 59
_space_group.IT_coordinate_system_code '2'
_symmetry_cell_setting 'orthorhombic'
loop_
_space_group_symop_operation_xyz
x,y,z
1/2-x,1/2-y,z
1/2+x,-y,-z
-x,1/2+y,-z
-x,-y,-z
1/2+x,1/2+y,-z
1/2-x,y,z
x,1/2-y,z
loop_
_atom_site_type_symbol
_atom_site_label
_atom_site_fract_x
_atom_site_fract_y
_atom_site_fract_z
Si Si1 0.924755 0.636218 0.553179
Si Si2 0.092284 0.643697 0.334695
Si Si3 0.750000 0.638649 0.033967
Si Si4 0.080917 0.469906 0.119423
Si Si5 0.250000 0.435623 0.616363
Si Si6 0.750000 0.146781 0.407972
O O1 0.906633 0.750000 0.564963
O O2 0.955967 0.597888 0.732673
O O3 0.834749 0.579929 0.502546
O O4 0.998088 0.610588 0.415028
O O5 0.082747 0.750000 0.253099
O O6 0.121184 0.569445 0.192648
O O7 0.162921 0.646717 0.479855
O O8 0.750000 0.750000 0.972695
O O9 0.750000 0.639016 0.232830
O O10 0.659830 0.586000 0.974773
O O11 0.000000 0.500000 0.000000
O O12 0.250000 0.545821 0.693561
O O13 0.750000 0.250000 0.304966
#
# Coordination Sequence:
#
# PCOD8245675 Si02
#       6
#     8   8   4   8   4   4
#     4  11  23  41  68  99 130 174 229 278 327 399
#     4  10  22  42  67  94 128 174 224 272 325 394
#     4  12  28  47  67 101 142 183 224 279 347 406
#     4  12  25  41  66  99 141 179 217 277 345 412
#     4  12  23  42  73  95 128 174 229 279 330 394
#     4  10  21  39  66  92 120 163 219 274 321 380
#
# _framework density 21.690531
#
# number of rings (size 3 to 8) (size 9 to 14) (size 15 to 20)
#    0.000    0.889    2.222    5.000    3.111    3.556 
#    0.000    1.111    0.000    0.000    0.000    0.000 
#    0.000    0.000    0.000    0.000    0.000    0.000 
#
# Total GULP energy -446338.675939 kJ/mol
# GULP energy per Si atom -12398.296554 kJ/mol
# Density = 2.164116 g / cm^3
# Si number density = 21.690531 Si / 1000 Ang^3
#
#
#
# Elastic Constant Matrix: (Units=GPa)
#
#
# Indices 1 2 3 4 5 6 
#
# 1 120.7545 49.1252 19.2376 0.0000 0.0000 0.0000
# 2 49.1252 151.5529 43.9489 0.0000 0.0000 0.0000
# 3 19.2376 43.9489 77.7988 0.0000 0.0000 0.0000
# 4 0.0000 0.0000 0.0000 37.6063 0.0000 0.0000
# 5 0.0000 0.0000 0.0000 0.0000 21.8356 0.0000
# 6 0.0000 0.0000 0.0000 0.0000 0.0000 32.1041
#
#
#
# Elastic Compliance Matrix: (Units=1/GPa)
#
#
# Indices 1 2 3 4 5 6 
#
# 1 0.009574 -0.002890 -0.000735 0.000000 0.000000 0.000000
# 2 -0.002890 0.008764 -0.004236 0.000000 0.000000 0.000000
# 3 -0.000735 -0.004236 0.015428 0.000000 0.000000 0.000000
# 4 0.000000 0.000000 0.000000 0.026591 0.000000 0.000000
# 5 0.000000 0.000000 0.000000 0.000000 0.045797 0.000000
# 6 0.000000 0.000000 0.000000 0.000000 0.000000 0.031149
#
#
# Mechanical properties :
#
#
# Convention : Reuss Voigt Hill
#
# Bulk Modulus (GPa) = 55.41965 63.85884 59.63924
# Shear Modulus (GPa) = 31.43875 34.16216 32.80046
#
# Velocity S-wave (km/s) = 3.81126 3.97291 3.89292
# Velocity P-wave (km/s) = 6.70621 7.10986 6.91098
#
# Compressibility (1/GPa) = 0.01804414
#
# Stress axis : x y z
#
# Youngs Moduli (GPa) = 104.44772 114.10799 64.81638
#
# Poissons Ratio (x) = 0.32982 0.04762
# Poissons Ratio (y) = 0.30189 0.27456
# Poissons Ratio (z) = 0.07673 0.48335
#
# Static dielectric constant tensor:
#      x y z
#    x 3.894790 0.000000 0.000000 
#    y 0.000000 4.662670 0.000000 
#    z 0.000000 0.000000 3.686720 
# 
# 
# High freq. dielectric constant tensor:
#      x y z
#    x 1.861600 0.000000 0.000000 
#    y 0.000000 1.884780 0.000000 
#    z 0.000000 0.000000 1.825030 
# 
# From -- ./inp_files/8532.got.cif
#   From: 2010.03.12/outbox.cif.g09.slc.cpg/sg59_5_cif.got.tgz:8532.got - 2010.04.16 16:29:54.
