data_PCOD8245389
_publ_section_title
;
Structure prediction by ZEFSAII (Michael W. Deem and Ramdas Pophale) SiO2 
 PCOD8245389
Probable space group: P M M N
;
_chemical_formula_sum "Si O2"
_cell_formula_units_Z 40
_cell_length_a 15.631922
_cell_length_b 8.935796
_cell_length_c 14.348774
_cell_angle_alpha 90.000000
_cell_angle_beta 90.000000
_cell_angle_gamma 90.000000
_cell_volume 2004.289356
_symmetry_space_group_name_H-M "P M M N"
_symmetry_group_IT_number 59
_space_group.IT_coordinate_system_code '2'
_symmetry_cell_setting 'orthorhombic'
loop_
_space_group_symop_operation_xyz
x,y,z
1/2-x,1/2-y,z
1/2+x,-y,-z
-x,1/2+y,-z
-x,-y,-z
1/2+x,1/2+y,-z
1/2-x,y,z
x,1/2-y,z
loop_
_atom_site_type_symbol
_atom_site_label
_atom_site_fract_x
_atom_site_fract_y
_atom_site_fract_z
Si Si1 0.250000 0.072981 0.575241
Si Si2 0.151796 0.579549 0.285859
Si Si3 0.914878 0.927264 0.538544
Si Si4 0.603536 0.422419 0.084184
Si Si5 0.750000 0.075687 0.225805
Si Si6 0.906890 0.577120 0.894287
O O1 0.250000 0.250000 0.576217
O O2 0.334587 0.014521 0.522308
O O3 0.250000 0.015993 0.679902
O O4 0.250000 0.568626 0.316351
O O5 0.118977 0.750000 0.289875
O O6 0.095874 0.478904 0.355064
O O7 0.142740 0.518384 0.181862
O O8 0.923670 0.750000 0.535967
O O9 0.000000 0.000000 0.500000
O O10 0.617400 0.250000 0.055443
O O11 0.666027 0.469288 0.167603
O O12 0.507643 0.451701 0.118827
O O13 0.624963 0.523653 0.995202
O O14 0.750000 0.250000 0.250840
O O15 0.882869 0.750000 0.882490
#
# Coordination Sequence:
#
# PCOD8245389 Si02
#       6
#     4   8   8   8   4   8
#     4  10  24  44  63  90 125 158 201 256 306 360
#     4  11  24  41  63  91 122 161 204 251 305 365
#     4  11  24  44  67  93 125 162 205 257 311 368
#     4   9  20  39  58  85 120 159 201 245 294 353
#     4  10  22  38  61  86 117 158 203 246 292 354
#     4  10  21  37  60  88 121 159 199 248 303 358
#
# _framework density 19.9572
#
# number of rings (size 3 to 8) (size 9 to 14) (size 15 to 20)
#    0.000    1.800    1.000    1.800    4.200    4.400 
#    0.000    0.000    0.000    0.000    0.000    0.000 
#    0.000    0.000    0.000    0.000    0.000    0.000 
#
# Total GULP energy -496234.643426 kJ/mol
# GULP energy per Si atom -12405.866086 kJ/mol
# Density = 1.991178 g / cm^3
# Si number density = 19.957200 Si / 1000 Ang^3
#
#
#
# Elastic Constant Matrix: (Units=GPa)
#
#
# Indices 1 2 3 4 5 6 
#
# 1 93.1712 42.1294 42.1845 0.0000 0.0000 0.0000
# 2 42.1294 81.3533 37.8091 0.0000 0.0000 0.0000
# 3 42.1845 37.8091 104.5455 0.0000 0.0000 0.0000
# 4 0.0000 0.0000 0.0000 43.4036 0.0000 0.0000
# 5 0.0000 0.0000 0.0000 0.0000 34.8851 0.0000
# 6 0.0000 0.0000 0.0000 0.0000 0.0000 30.4744
#
#
#
# Elastic Compliance Matrix: (Units=1/GPa)
#
#
# Indices 1 2 3 4 5 6 
#
# 1 0.015272 -0.006064 -0.003969 0.000000 0.000000 0.000000
# 2 -0.006064 0.017183 -0.003768 0.000000 0.000000 0.000000
# 3 -0.003969 -0.003768 0.012529 0.000000 0.000000 0.000000
# 4 0.000000 0.000000 0.000000 0.023040 0.000000 0.000000
# 5 0.000000 0.000000 0.000000 0.000000 0.028666 0.000000
# 6 0.000000 0.000000 0.000000 0.000000 0.000000 0.032814
#
#
# Mechanical properties :
#
#
# Convention : Reuss Voigt Hill
#
# Bulk Modulus (GPa) = 57.52714 58.14625 57.83669
# Shear Modulus (GPa) = 30.69363 32.21576 31.45470
#
# Velocity S-wave (km/s) = 3.92595 4.02212 3.97433
# Velocity P-wave (km/s) = 7.03126 7.12521 7.07839
#
# Compressibility (1/GPa) = 0.01738310
#
# Stress axis : x y z
#
# Youngs Moduli (GPa) = 65.47909 58.19593 79.81254
#
# Poissons Ratio (x) = 0.35290 0.31680
# Poissons Ratio (y) = 0.39707 0.30070
# Poissons Ratio (z) = 0.25990 0.21926
#
# Static dielectric constant tensor:
#      x y z
#    x 3.773260 0.000000 0.000000 
#    y 0.000000 3.737070 0.000000 
#    z 0.000000 0.000000 3.536940 
# 
# 
# High freq. dielectric constant tensor:
#      x y z
#    x 1.784730 0.000000 0.000000 
#    y 0.000000 1.781410 0.000000 
#    z 0.000000 0.000000 1.784540 
# 
# From -- ./inp_files/19975.got.cif
#   From: 2010.03.12/outbox.cif.g09.slc.cpg/sg59_10_cif.got.tgz:19975.got - 2010.04.16 16:29:54.
