data_PCOD8245250
_publ_section_title
;
Structure prediction by ZEFSAII (Michael W. Deem and Ramdas Pophale) SiO2 
 PCOD8245250
Probable space group: P M M N
;
_chemical_formula_sum "Si O2"
_cell_formula_units_Z 64
_cell_length_a 8.865433
_cell_length_b 31.209455
_cell_length_c 11.435715
_cell_angle_alpha 90.000000
_cell_angle_beta 90.000000
_cell_angle_gamma 90.000000
_cell_volume 3164.094605
_symmetry_space_group_name_H-M "P M M N"
_symmetry_group_IT_number 59
_space_group.IT_coordinate_system_code '2'
_symmetry_cell_setting 'orthorhombic'
loop_
_space_group_symop_operation_xyz
x,y,z
1/2-x,1/2-y,z
1/2+x,-y,-z
-x,1/2+y,-z
-x,-y,-z
1/2+x,1/2+y,-z
1/2-x,y,z
x,1/2-y,z
loop_
_atom_site_type_symbol
_atom_site_label
_atom_site_fract_x
_atom_site_fract_y
_atom_site_fract_z
Si Si1 0.418945 0.300833 0.671302
Si Si2 0.575282 0.021024 0.681734
Si Si3 0.075677 0.373452 0.042176
Si Si4 0.424263 0.557305 0.565232
Si Si5 0.576596 0.631334 0.689112
Si Si6 0.427716 0.799072 0.091134
Si Si7 0.077210 0.699692 0.562078
Si Si8 0.071609 0.038167 0.925378
O O1 0.250000 0.319898 0.665778
O O2 0.414926 0.250000 0.669459
O O3 0.498059 0.316412 0.789727
O O4 0.514368 0.317732 0.561604
O O5 0.750000 0.019866 0.718079
O O6 0.543721 0.052628 0.572995
O O7 0.478716 0.036711 0.791198
O O8 0.527024 0.973707 0.643242
O O9 0.250000 0.363819 0.014543
O O10 0.049130 0.382455 0.178327
O O11 0.018484 0.415887 0.975564
O O12 0.980714 0.331254 0.009798
O O13 0.250000 0.547595 0.592752
O O14 0.470376 0.604640 0.602029
O O15 0.750000 0.625876 0.653535
O O16 0.521584 0.679934 0.667512
O O17 0.250000 0.801446 0.106017
O O18 0.477397 0.750000 0.061987
O O19 0.250000 0.685586 0.573055
O O20 0.057502 0.750000 0.572933
O O21 0.250000 0.033378 0.934594
O O22 0.000000 0.000000 0.000000
#
# Coordination Sequence:
#
# PCOD8245250 Si02
#       8
#     8   8   8   8   8   8   8   8
#     4   9  17  32  56  83 111 145 185 230 284 345
#     4  10  21  38  61  90 121 152 190 234 282 340
#     4  10  24  42  58  82 115 154 200 243 286 345
#     4  10  21  38  61  88 119 154 191 233 284 341
#     4  11  23  39  59  82 113 152 194 242 292 343
#     4  10  21  37  59  87 118 153 193 240 294 348
#     4  10  21  37  57  82 113 148 189 238 290 346
#     4  11  23  40  63  89 119 156 197 241 292 347
#
# _framework density 20.226956000000001
#
# number of rings (size 3 to 8) (size 9 to 14) (size 15 to 20)
#    0.000    1.875    0.000    3.375    0.000    9.000 
#    0.000    5.000    0.000    0.000    0.000    0.000 
#    0.000    0.000    0.000    0.000    0.000    0.000 
#
# Total GULP energy -793803.297708 kJ/mol
# GULP energy per Si atom -12403.176527 kJ/mol
# Density = 2.018092 g / cm^3
# Si number density = 20.226956 Si / 1000 Ang^3
#
#
#
# Elastic Constant Matrix: (Units=GPa)
#
#
# Indices 1 2 3 4 5 6 
#
# 1 81.6792 42.4013 46.8729 0.0000 0.0000 0.0000
# 2 42.4013 89.1947 50.7061 0.0000 0.0000 0.0000
# 3 46.8729 50.7061 104.0631 0.0000 0.0000 0.0000
# 4 0.0000 0.0000 0.0000 32.1137 0.0000 0.0000
# 5 0.0000 0.0000 0.0000 0.0000 37.7777 0.0000
# 6 0.0000 0.0000 0.0000 0.0000 0.0000 33.8191
#
#
#
# Elastic Compliance Matrix: (Units=1/GPa)
#
#
# Indices 1 2 3 4 5 6 
#
# 1 0.018304 -0.005552 -0.005539 0.000000 0.000000 0.000000
# 2 -0.005552 0.017191 -0.005876 0.000000 0.000000 0.000000
# 3 -0.005539 -0.005876 0.014968 0.000000 0.000000 0.000000
# 4 0.000000 0.000000 0.000000 0.031139 0.000000 0.000000
# 5 0.000000 0.000000 0.000000 0.000000 0.026471 0.000000
# 6 0.000000 0.000000 0.000000 0.000000 0.000000 0.029569
#
#
# Mechanical properties :
#
#
# Convention : Reuss Voigt Hill
#
# Bulk Modulus (GPa) = 60.50229 61.65528 61.07878
# Shear Modulus (GPa) = 28.23487 29.73921 28.98704
#
# Velocity S-wave (km/s) = 3.74023 3.83858 3.78972
# Velocity P-wave (km/s) = 6.97346 7.08478 7.02934
#
# Compressibility (1/GPa) = 0.01652830
#
# Stress axis : x y z
#
# Youngs Moduli (GPa) = 54.63243 58.16942 66.81119
#
# Poissons Ratio (x) = 0.32298 0.37008
# Poissons Ratio (y) = 0.30334 0.39256
# Poissons Ratio (z) = 0.30262 0.34178
#
# Static dielectric constant tensor:
#      x y z
#    x 3.751870 0.000000 0.000000 
#    y 0.000000 3.548190 0.000000 
#    z 0.000000 0.000000 3.692510 
# 
# 
# High freq. dielectric constant tensor:
#      x y z
#    x 1.800590 0.000000 0.000000 
#    y 0.000000 1.783460 0.000000 
#    z 0.000000 0.000000 1.792970 
# 
# From -- ./inp_files/15046.got.cif
#   From: 2010.03.12/outbox.cif.g09.slc.cpg/sg59_8_cif.got.tgz:15046.got - 2010.04.16 16:29:54.
