data_PCOD8245473
_publ_section_title
;
Structure prediction by ZEFSAII (Michael W. Deem and Ramdas Pophale) SiO2 
 PCOD8245473
Probable space group: P M M N
;
_chemical_formula_sum "Si O2"
_cell_formula_units_Z 40
_cell_length_a 15.606074
_cell_length_b 8.810541
_cell_length_c 14.494418
_cell_angle_alpha 90.000000
_cell_angle_beta 90.000000
_cell_angle_gamma 90.000000
_cell_volume 1992.952831
_symmetry_space_group_name_H-M "P M M N"
_symmetry_group_IT_number 59
_space_group.IT_coordinate_system_code '2'
_symmetry_cell_setting 'orthorhombic'
loop_
_space_group_symop_operation_xyz
x,y,z
1/2-x,1/2-y,z
1/2+x,-y,-z
-x,1/2+y,-z
-x,-y,-z
1/2+x,1/2+y,-z
1/2-x,y,z
x,1/2-y,z
loop_
_atom_site_type_symbol
_atom_site_label
_atom_site_fract_x
_atom_site_fract_y
_atom_site_fract_z
Si Si1 0.250000 0.070539 0.574083
Si Si2 0.150989 0.422359 0.295130
Si Si3 0.089104 0.928967 0.470619
Si Si4 0.608222 0.426834 0.088851
Si Si5 0.750000 0.927818 0.211656
Si Si6 0.910839 0.573149 0.902036
O O1 0.250000 0.250000 0.556947
O O2 0.250000 0.027191 0.681366
O O3 0.165169 0.001584 0.529425
O O4 0.250000 0.430324 0.321509
O O5 0.116331 0.250000 0.306362
O O6 0.100351 0.534014 0.362611
O O7 0.137398 0.477599 0.190584
O O8 0.088178 0.750000 0.486353
O O9 0.000000 0.000000 0.500000
O O10 0.626719 0.250000 0.094798
O O11 0.664738 0.507225 0.165722
O O12 0.510258 0.469450 0.109939
O O13 0.632319 0.483126 0.986312
O O14 0.750000 0.750000 0.197453
O O15 0.898578 0.750000 0.922934
#
# Coordination Sequence:
#
# PCOD8245473 Si02
#       6
#     4   8   8   8   4   8
#     4  11  25  47  68  95 128 165 213 266 320 379
#     4  10  21  39  64  93 126 163 206 257 312 374
#     4  12  26  44  68  96 128 168 211 262 320 380
#     4  10  21  38  59  89 125 161 205 253 299 361
#     4  11  25  41  62  87 120 161 205 254 308 365
#     4   9  20  38  61  90 124 164 203 247 306 364
#
# _framework density 20.070722
#
# number of rings (size 3 to 8) (size 9 to 14) (size 15 to 20)
#    0.000    1.600    1.000    3.000    4.200    3.200 
#    0.000    0.000    0.000    0.000    0.000    0.000 
#    0.000    0.000    0.000    0.000    0.000    0.000 
#
# Total GULP energy -496192.864134 kJ/mol
# GULP energy per Si atom -12404.821603 kJ/mol
# Density = 2.002504 g / cm^3
# Si number density = 20.070722 Si / 1000 Ang^3
#
#
#
# Elastic Constant Matrix: (Units=GPa)
#
#
# Indices 1 2 3 4 5 6 
#
# 1 101.8088 48.8995 50.0076 0.0000 0.0000 0.0000
# 2 48.8995 103.7632 64.4174 0.0000 0.0000 0.0000
# 3 50.0076 64.4174 128.9805 0.0000 0.0000 0.0000
# 4 0.0000 0.0000 0.0000 36.2329 0.0000 0.0000
# 5 0.0000 0.0000 0.0000 0.0000 34.9640 0.0000
# 6 0.0000 0.0000 0.0000 0.0000 0.0000 33.6918
#
#
#
# Elastic Compliance Matrix: (Units=1/GPa)
#
#
# Indices 1 2 3 4 5 6 
#
# 1 0.013436 -0.004490 -0.002967 0.000000 0.000000 0.000000
# 2 -0.004490 0.015469 -0.005985 0.000000 0.000000 0.000000
# 3 -0.002967 -0.005985 0.011892 0.000000 0.000000 0.000000
# 4 0.000000 0.000000 0.000000 0.027599 0.000000 0.000000
# 5 0.000000 0.000000 0.000000 0.000000 0.028601 0.000000
# 6 0.000000 0.000000 0.000000 0.000000 0.000000 0.029681
#
#
# Mechanical properties :
#
#
# Convention : Reuss Voigt Hill
#
# Bulk Modulus (GPa) = 71.87061 73.46684 72.66872
# Shear Modulus (GPa) = 31.60559 32.39294 31.99927
#
# Velocity S-wave (km/s) = 3.97257 4.02175 3.99723
# Velocity P-wave (km/s) = 7.54507 7.63213 7.58873
#
# Compressibility (1/GPa) = 0.01391389
#
# Stress axis : x y z
#
# Youngs Moduli (GPa) = 74.42533 64.64653 84.08713
#
# Poissons Ratio (x) = 0.29027 0.24948
# Poissons Ratio (y) = 0.33418 0.50324
# Poissons Ratio (z) = 0.22081 0.38689
#
# Static dielectric constant tensor:
#      x y z
#    x 3.617830 0.000000 0.000000 
#    y 0.000000 3.697560 0.000000 
#    z 0.000000 0.000000 3.835030 
# 
# 
# High freq. dielectric constant tensor:
#      x y z
#    x 1.788690 0.000000 0.000000 
#    y 0.000000 1.784370 0.000000 
#    z 0.000000 0.000000 1.797530 
# 
# From -- ./inp_files/19980.got.cif
#   From: 2010.03.12/outbox.cif.g09.slc.cpg/sg59_10_cif.got.tgz:19980.got - 2010.04.16 16:29:54.
