data_PCOD8245134
_publ_section_title
;
Structure prediction by ZEFSAII (Michael W. Deem and Ramdas Pophale) SiO2 
 PCOD8245134
Probable space group: P M M N
;
_chemical_formula_sum "Si O2"
_cell_formula_units_Z 56
_cell_length_a 14.344065
_cell_length_b 9.042149
_cell_length_c 22.845093
_cell_angle_alpha 90.000000
_cell_angle_beta 90.000000
_cell_angle_gamma 90.000000
_cell_volume 2963.035359
_symmetry_space_group_name_H-M "P M M N"
_symmetry_group_IT_number 59
_space_group.IT_coordinate_system_code '2'
_symmetry_cell_setting 'orthorhombic'
loop_
_space_group_symop_operation_xyz
x,y,z
1/2-x,1/2-y,z
1/2+x,-y,-z
-x,1/2+y,-z
-x,-y,-z
1/2+x,1/2+y,-z
1/2-x,y,z
x,1/2-y,z
loop_
_atom_site_type_symbol
_atom_site_label
_atom_site_fract_x
_atom_site_fract_y
_atom_site_fract_z
Si Si1 0.044171 0.922465 0.360447
Si Si2 0.647504 0.925309 0.968429
Si Si3 0.143040 0.076780 0.900260
Si Si4 0.649891 0.579452 0.407682
Si Si5 0.595414 0.077138 0.514463
Si Si6 0.858447 0.425381 0.755595
Si Si7 0.969778 0.574395 0.859292
O O1 0.033513 0.750000 0.349252
O O2 0.112609 0.951984 0.416187
O O3 0.092432 0.990426 0.303075
O O4 0.938400 0.986737 0.371239
O O5 0.750000 0.986249 0.950980
O O6 0.651186 0.750000 0.969479
O O7 0.573380 0.981476 0.920987
O O8 0.622207 0.980301 0.033686
O O9 0.250000 0.042392 0.883086
O O10 0.122310 0.250000 0.893839
O O11 0.075208 0.987712 0.856443
O O12 0.750000 0.562974 0.373857
O O13 0.627680 0.750000 0.421605
O O14 0.667720 0.497446 0.469974
O O15 0.592043 0.250000 0.501330
O O16 0.500000 0.000000 0.500000
O O17 0.750000 0.468574 0.753812
O O18 0.871299 0.250000 0.761970
O O19 0.906934 0.506819 0.808919
O O20 0.970403 0.750000 0.853151
#
# Coordination Sequence:
#
# PCOD8245134 Si02
#       7
#     8   8   8   8   8   8   8
#     4   8  16  32  51  70  95 130 172 214 251 291
#     4   8  15  29  50  76 105 136 168 203 247 299
#     4   9  18  34  55  77 102 134 172 210 247 296
#     4   9  17  30  49  74 103 132 163 204 255 308
#     4   9  16  28  48  73 101 131 163 201 246 295
#     4  10  21  37  55  73  96 131 177 222 255 292
#     4  11  21  33  52  77 107 138 166 206 259 309
#
# _framework density 18.899538
#
# number of rings (size 3 to 8) (size 9 to 14) (size 15 to 20)
#    0.000    2.857    0.000    3.429    0.000    2.000 
#    0.000    6.429    0.000    4.286    0.000    0.000 
#    0.000    0.000    0.000    0.000    0.000    0.000 
#
# Total GULP energy -693760.694430 kJ/mol
# GULP energy per Si atom -12388.583829 kJ/mol
# Density = 1.885652 g / cm^3
# Si number density = 18.899538 Si / 1000 Ang^3
#
#
#
# Elastic Constant Matrix: (Units=GPa)
#
#
# Indices 1 2 3 4 5 6 
#
# 1 142.6663 40.6278 69.1986 0.0000 0.0000 0.0000
# 2 40.6278 50.7474 35.1933 0.0000 0.0000 0.0000
# 3 69.1986 35.1933 89.3215 0.0000 0.0000 0.0000
# 4 0.0000 0.0000 0.0000 24.3719 0.0000 0.0000
# 5 0.0000 0.0000 0.0000 0.0000 26.5283 0.0000
# 6 0.0000 0.0000 0.0000 0.0000 0.0000 20.5034
#
#
#
# Elastic Compliance Matrix: (Units=1/GPa)
#
#
# Indices 1 2 3 4 5 6 
#
# 1 0.011874 -0.004302 -0.007504 0.000000 0.000000 0.000000
# 2 -0.004302 0.028673 -0.007964 0.000000 0.000000 0.000000
# 3 -0.007504 -0.007964 0.020147 0.000000 0.000000 0.000000
# 4 0.000000 0.000000 0.000000 0.041031 0.000000 0.000000
# 5 0.000000 0.000000 0.000000 0.000000 0.037696 0.000000
# 6 0.000000 0.000000 0.000000 0.000000 0.000000 0.048772
#
#
# Mechanical properties :
#
#
# Convention : Reuss Voigt Hill
#
# Bulk Modulus (GPa) = 47.27460 63.64162 55.45811
# Shear Modulus (GPa) = 21.29602 23.46175 22.37889
#
# Velocity S-wave (km/s) = 3.36043 3.52716 3.44480
# Velocity P-wave (km/s) = 6.33440 7.09469 6.72529
#
# Compressibility (1/GPa) = 0.02115301
#
# Stress axis : x y z
#
# Youngs Moduli (GPa) = 84.21530 34.87585 49.63523
#
# Poissons Ratio (x) = 0.15005 0.37246
# Poissons Ratio (y) = 0.36233 0.39531
# Poissons Ratio (z) = 0.63195 0.27776
#
# Static dielectric constant tensor:
#      x y z
#    x 3.786390 0.000000 0.000000 
#    y 0.000000 3.300070 0.000000 
#    z 0.000000 0.000000 3.710340 
# 
# 
# High freq. dielectric constant tensor:
#      x y z
#    x 1.745670 0.000000 0.000000 
#    y 0.000000 1.703260 0.000000 
#    z 0.000000 0.000000 1.717390 
# 
# From -- ./inp_files/30405.got.cif
#   From: 2010.03.12/outbox.cif.g09.slc.cpg/sg59_16_cif.got.tgz:30405.got - 2010.04.16 16:29:54.
