data_PCOD8245688
_publ_section_title
;
Structure prediction by ZEFSAII (Michael W. Deem and Ramdas Pophale) SiO2 
 PCOD8245688
Probable space group: P M M N
;
_chemical_formula_sum "Si O2"
_cell_formula_units_Z 48
_cell_length_a 13.691427
_cell_length_b 17.707397
_cell_length_c 9.914514
_cell_angle_alpha 90.000000
_cell_angle_beta 90.000000
_cell_angle_gamma 90.000000
_cell_volume 2403.670148
_symmetry_space_group_name_H-M "P M M N"
_symmetry_group_IT_number 59
_space_group.IT_coordinate_system_code '2'
_symmetry_cell_setting 'orthorhombic'
loop_
_space_group_symop_operation_xyz
x,y,z
1/2-x,1/2-y,z
1/2+x,-y,-z
-x,1/2+y,-z
-x,-y,-z
1/2+x,1/2+y,-z
1/2-x,y,z
x,1/2-y,z
loop_
_atom_site_type_symbol
_atom_site_label
_atom_site_fract_x
_atom_site_fract_y
_atom_site_fract_z
Si Si1 0.961862 0.160795 0.615744
Si Si2 0.026126 0.664817 0.887721
Si Si3 0.361281 0.428760 0.713755
Si Si4 0.863034 0.107047 0.874213
Si Si5 0.862583 0.401950 0.356579
Si Si6 0.636654 0.559091 0.973073
O O1 0.956480 0.250000 0.633140
O O2 0.888059 0.119854 0.718212
O O3 0.930163 0.137412 0.466806
O O4 0.072286 0.133663 0.641849
O O5 0.002970 0.750000 0.843800
O O6 0.104152 0.627233 0.788597
O O7 0.923833 0.620250 0.888123
O O8 0.074439 0.664688 0.035831
O O9 0.250000 0.400702 0.702309
O O10 0.375080 0.507994 0.637226
O O11 0.391808 0.437409 0.869725
O O12 0.750000 0.122964 0.898946
O O13 0.892195 0.022628 0.917064
O O14 0.750000 0.378768 0.378120
O O15 0.750000 0.576796 0.949425
#
# Coordination Sequence:
#
# PCOD8245688 Si02
#       6
#     8   8   8   8   8   8
#     4  12  25  40  60  92 129 161 196 251 312 359
#     4  12  23  37  61  91 122 159 201 248 306 365
#     4  10  21  41  67  91 117 159 210 252 297 360
#     4  11  22  38  61  87 118 159 205 250 296 355
#     4  11  24  43  64  87 122 167 207 246 298 361
#     4  10  21  40  65  91 122 157 203 260 304 349
#
# _framework density 19.969462
#
# number of rings (size 3 to 8) (size 9 to 14) (size 15 to 20)
#    0.000    1.000    3.333    4.000    0.000    4.667 
#    0.000    4.167    0.000    2.000    0.000    0.000 
#    0.000    0.000    0.000    0.000    0.000    0.000 
#
# Total GULP energy -595536.074355 kJ/mol
# GULP energy per Si atom -12407.001549 kJ/mol
# Density = 1.992401 g / cm^3
# Si number density = 19.969462 Si / 1000 Ang^3
#
#
#
# Elastic Constant Matrix: (Units=GPa)
#
#
# Indices 1 2 3 4 5 6 
#
# 1 107.3982 56.2948 33.8420 0.0000 0.0000 0.0000
# 2 56.2948 85.0836 19.1569 0.0000 0.0000 0.0000
# 3 33.8420 19.1569 66.8552 0.0000 0.0000 0.0000
# 4 0.0000 0.0000 0.0000 16.8481 0.0000 0.0000
# 5 0.0000 0.0000 0.0000 0.0000 37.9872 0.0000
# 6 0.0000 0.0000 0.0000 0.0000 0.0000 16.6444
#
#
#
# Elastic Compliance Matrix: (Units=1/GPa)
#
#
# Indices 1 2 3 4 5 6 
#
# 1 0.015876 -0.009295 -0.005373 0.000000 0.000000 0.000000
# 2 -0.009295 0.018005 -0.000454 0.000000 0.000000 0.000000
# 3 -0.005373 -0.000454 0.017808 0.000000 0.000000 0.000000
# 4 0.000000 0.000000 0.000000 0.059354 0.000000 0.000000
# 5 0.000000 0.000000 0.000000 0.000000 0.026325 0.000000
# 6 0.000000 0.000000 0.000000 0.000000 0.000000 0.060080
#
#
# Mechanical properties :
#
#
# Convention : Reuss Voigt Hill
#
# Bulk Modulus (GPa) = 46.63120 53.10273 49.86697
# Shear Modulus (GPa) = 21.29103 24.29882 22.79492
#
# Velocity S-wave (km/s) = 3.26878 3.49205 3.38226
# Velocity P-wave (km/s) = 6.13584 6.55049 6.34655
#
# Compressibility (1/GPa) = 0.02144487
#
# Stress axis : x y z
#
# Youngs Moduli (GPa) = 62.98734 55.53983 56.15510
#
# Poissons Ratio (x) = 0.51622 0.30173
# Poissons Ratio (y) = 0.58544 0.02551
# Poissons Ratio (z) = 0.33845 0.02523
#
# Static dielectric constant tensor:
#      x y z
#    x 3.696420 0.000000 0.000000 
#    y 0.000000 3.538940 0.000000 
#    z 0.000000 0.000000 3.541240 
# 
# 
# High freq. dielectric constant tensor:
#      x y z
#    x 1.792590 0.000000 0.000000 
#    y 0.000000 1.775680 0.000000 
#    z 0.000000 0.000000 1.774740 
# 
# From -- ./inp_files/9000.got.cif
#   From: 2010.03.12/outbox.cif.g09.slc.cpg/sg59_5_cif.got.tgz:9000.got - 2010.04.16 16:29:54.
