data_PCOD8245227
_publ_section_title
;
Structure prediction by ZEFSAII (Michael W. Deem and Ramdas Pophale) SiO2 
 PCOD8245227
Probable space group: P M M N
;
_chemical_formula_sum "Si O2"
_cell_formula_units_Z 64
_cell_length_a 14.580575
_cell_length_b 8.886099
_cell_length_c 26.185595
_cell_angle_alpha 90.000000
_cell_angle_beta 90.000000
_cell_angle_gamma 90.000000
_cell_volume 3392.721767
_symmetry_space_group_name_H-M "P M M N"
_symmetry_group_IT_number 59
_space_group.IT_coordinate_system_code '2'
_symmetry_cell_setting 'orthorhombic'
loop_
_space_group_symop_operation_xyz
x,y,z
1/2-x,1/2-y,z
1/2+x,-y,-z
-x,1/2+y,-z
-x,-y,-z
1/2+x,1/2+y,-z
1/2-x,y,z
x,1/2-y,z
loop_
_atom_site_type_symbol
_atom_site_label
_atom_site_fract_x
_atom_site_fract_y
_atom_site_fract_z
Si Si1 0.649060 0.928633 0.130046
Si Si2 0.991889 0.573464 0.692477
Si Si3 0.007942 0.928688 0.055079
Si Si4 0.354405 0.427786 0.504748
Si Si5 0.143843 0.574875 0.232002
Si Si6 0.495131 0.926597 0.575709
Si Si7 0.143318 0.077288 0.755165
Si Si8 0.141915 0.077738 0.128073
O O1 0.750000 0.992263 0.115765
O O2 0.652142 0.750000 0.128852
O O3 0.576259 0.990581 0.089378
O O4 0.621981 0.978893 0.187277
O O5 0.975258 0.750000 0.698669
O O6 0.909623 0.485187 0.719214
O O7 0.990714 0.523137 0.633762
O O8 0.089112 0.528876 0.716545
O O9 0.007615 0.750000 0.050526
O O10 0.101243 0.983932 0.081118
O O11 0.000000 0.000000 0.000000
O O12 0.250000 0.489642 0.499671
O O13 0.352677 0.250000 0.510510
O O14 0.413796 0.477295 0.455275
O O15 0.403316 0.494602 0.554776
O O16 0.250000 0.540343 0.241729
O O17 0.124316 0.750000 0.223900
O O18 0.107406 0.490934 0.181523
O O19 0.479141 0.750000 0.570714
O O20 0.250000 0.060664 0.742521
O O21 0.111430 0.250000 0.748332
O O22 0.250000 0.061749 0.123265
O O23 0.109597 0.250000 0.124944
#
# Coordination Sequence:
#
# PCOD8245227 Si02
#       8
#     8   8   8   8   8   8   8   8
#     4   8  16  33  55  75  96 129 173 215 257 308
#     4  11  22  34  52  79 113 148 177 214 264 318
#     4  11  22  35  54  80 109 141 178 223 274 325
#     4   9  18  35  58  78  98 132 179 226 268 312
#     4  10  21  37  57  81 109 142 180 221 267 321
#     4   9  20  36  52  76 108 140 175 216 264 316
#     4   9  18  34  56  79 103 136 179 223 267 316
#     4  10  21  38  59  81 107 141 181 225 274 327
#
# _framework density 18.863910000000001
#
# number of rings (size 3 to 8) (size 9 to 14) (size 15 to 20)
#    0.000    2.375    0.000    3.000    0.000    5.500 
#    0.000    5.625    0.000    2.625    0.000    0.000 
#    0.000    0.000    0.000    0.000    0.000    0.000 
#
# Total GULP energy -793703.155371 kJ/mol
# GULP energy per Si atom -12401.611803 kJ/mol
# Density = 1.882098 g / cm^3
# Si number density = 18.863910 Si / 1000 Ang^3
#
#
#
# Elastic Constant Matrix: (Units=GPa)
#
#
# Indices 1 2 3 4 5 6 
#
# 1 107.4660 37.9706 64.6829 0.0000 0.0000 0.0000
# 2 37.9706 57.5546 44.8093 0.0000 0.0000 0.0000
# 3 64.6829 44.8093 148.5212 0.0000 0.0000 0.0000
# 4 0.0000 0.0000 0.0000 33.3373 0.0000 0.0000
# 5 0.0000 0.0000 0.0000 0.0000 17.2893 0.0000
# 6 0.0000 0.0000 0.0000 0.0000 0.0000 29.0396
#
#
#
# Elastic Compliance Matrix: (Units=1/GPa)
#
#
# Indices 1 2 3 4 5 6 
#
# 1 0.013974 -0.005857 -0.004319 0.000000 0.000000 0.000000
# 2 -0.005857 0.025164 -0.005041 0.000000 0.000000 0.000000
# 3 -0.004319 -0.005041 0.010135 0.000000 0.000000 0.000000
# 4 0.000000 0.000000 0.000000 0.029996 0.000000 0.000000
# 5 0.000000 0.000000 0.000000 0.000000 0.057839 0.000000
# 6 0.000000 0.000000 0.000000 0.000000 0.000000 0.034436
#
#
# Mechanical properties :
#
#
# Convention : Reuss Voigt Hill
#
# Bulk Modulus (GPa) = 53.08166 67.60748 60.34457
# Shear Modulus (GPa) = 24.00875 27.00517 25.50696
#
# Velocity S-wave (km/s) = 3.57141 3.78773 3.68116
# Velocity P-wave (km/s) = 6.72361 7.41934 7.08003
#
# Compressibility (1/GPa) = 0.01883890
#
# Stress axis : x y z
#
# Youngs Moduli (GPa) = 71.56093 39.74008 98.66835
#
# Poissons Ratio (x) = 0.23274 0.42614
# Poissons Ratio (y) = 0.41911 0.49741
# Poissons Ratio (z) = 0.30907 0.20034
#
# Static dielectric constant tensor:
#      x y z
#    x 3.719560 0.000000 0.000000 
#    y 0.000000 3.363750 0.000000 
#    z 0.000000 0.000000 3.514460 
# 
# 
# High freq. dielectric constant tensor:
#      x y z
#    x 1.741930 0.000000 0.000000 
#    y 0.000000 1.722880 0.000000 
#    z 0.000000 0.000000 1.732180 
# 
# From -- ./inp_files/31623.got.cif
#   From: 2010.03.12/outbox.cif.g09.slc.cpg/sg59_16_cif.got.tgz:31623.got - 2010.04.16 16:29:54.
