data_PCOD8245404
_publ_section_title
;
Structure prediction by ZEFSAII (Michael W. Deem and Ramdas Pophale) SiO2 
 PCOD8245404
Probable space group: P M M N
;
_chemical_formula_sum "Si O2"
_cell_formula_units_Z 40
_cell_length_a 15.860400
_cell_length_b 14.056115
_cell_length_c 7.881578
_cell_angle_alpha 90.000000
_cell_angle_beta 90.000000
_cell_angle_gamma 90.000000
_cell_volume 1757.084370
_symmetry_space_group_name_H-M "P M M N"
_symmetry_group_IT_number 59
_space_group.IT_coordinate_system_code '2'
_symmetry_cell_setting 'orthorhombic'
loop_
_space_group_symop_operation_xyz
x,y,z
1/2-x,1/2-y,z
1/2+x,-y,-z
-x,1/2+y,-z
-x,-y,-z
1/2+x,1/2+y,-z
1/2-x,y,z
x,1/2-y,z
loop_
_atom_site_type_symbol
_atom_site_label
_atom_site_fract_x
_atom_site_fract_y
_atom_site_fract_z
Si Si1 0.846866 0.357552 0.639985
Si Si2 0.909614 0.856485 0.744636
Si Si3 0.089293 0.950129 0.694009
Si Si4 0.594672 0.474958 0.948139
Si Si5 0.654371 0.855195 0.383357
O O1 0.750000 0.363240 0.695917
O O2 0.877932 0.250000 0.614689
O O3 0.855892 0.410216 0.460188
O O4 0.901270 0.402559 0.791229
O O5 0.927358 0.750000 0.815192
O O6 0.846843 0.853143 0.587438
O O7 0.996025 0.907167 0.682337
O O8 0.865940 0.923079 0.888916
O O9 0.088832 0.065789 0.683973
O O10 0.133688 0.929181 0.878962
O O11 0.500000 0.500000 0.000000
O O12 0.750000 0.879449 0.327448
O O13 0.627643 0.750000 0.315692
#
# Coordination Sequence:
#
# PCOD8245404 Si02
#       5
#     8   8   8   8   8
#     4  11  25  44  67  97 137 181 222 274 337 397
#     4  10  21  39  63  93 129 170 219 273 329 392
#     4  11  22  41  66  97 127 171 224 274 331 398
#     4  10  24  40  65  96 133 171 222 273 333 393
#     4  10  21  37  61  92 126 168 215 266 329 394
#
# _framework density 22.764983999999998
#
# number of rings (size 3 to 8) (size 9 to 14) (size 15 to 20)
#    0.000    1.600    2.000    1.800    2.800    6.400 
#    0.000    2.000    0.000    2.400    0.000    0.000 
#    0.000    0.000    0.000    0.000    0.000    0.000 
#
# Total GULP energy -495566.507642 kJ/mol
# GULP energy per Si atom -12389.162691 kJ/mol
# Density = 2.271317 g / cm^3
# Si number density = 22.764984 Si / 1000 Ang^3
#
#
#
# Elastic Constant Matrix: (Units=GPa)
#
#
# Indices 1 2 3 4 5 6 
#
# 1 47.2351 24.7718 14.8433 0.0000 0.0000 0.0000
# 2 24.7718 168.4554 54.5736 0.0000 0.0000 0.0000
# 3 14.8433 54.5736 156.3128 0.0000 0.0000 0.0000
# 4 0.0000 0.0000 0.0000 17.6820 0.0000 0.0000
# 5 0.0000 0.0000 0.0000 0.0000 17.7984 0.0000
# 6 0.0000 0.0000 0.0000 0.0000 0.0000 26.2143
#
#
#
# Elastic Compliance Matrix: (Units=1/GPa)
#
#
# Indices 1 2 3 4 5 6 
#
# 1 0.023118 -0.003031 -0.001137 0.000000 0.000000 0.000000
# 2 -0.003031 0.007091 -0.002188 0.000000 0.000000 0.000000
# 3 -0.001137 -0.002188 0.007269 0.000000 0.000000 0.000000
# 4 0.000000 0.000000 0.000000 0.056555 0.000000 0.000000
# 5 0.000000 0.000000 0.000000 0.000000 0.056185 0.000000
# 6 0.000000 0.000000 0.000000 0.000000 0.000000 0.038147
#
#
# Mechanical properties :
#
#
# Convention : Reuss Voigt Hill
#
# Bulk Modulus (GPa) = 40.37820 62.26450 51.32135
# Shear Modulus (GPa) = 23.88558 30.85992 27.37275
#
# Velocity S-wave (km/s) = 3.24269 3.68582 3.47133
# Velocity P-wave (km/s) = 5.63875 6.74716 6.21770
#
# Compressibility (1/GPa) = 0.02476584
#
# Stress axis : x y z
#
# Youngs Moduli (GPa) = 43.25705 141.02791 137.56645
#
# Poissons Ratio (x) = 0.42748 0.15641
# Poissons Ratio (y) = 0.13112 0.30096
# Poissons Ratio (z) = 0.04918 0.30854
#
# Static dielectric constant tensor:
#      x y z
#    x 3.674170 0.000000 0.000000 
#    y 0.000000 4.549010 0.000000 
#    z 0.000000 0.000000 4.949850 
# 
# 
# High freq. dielectric constant tensor:
#      x y z
#    x 1.868390 0.000000 0.000000 
#    y 0.000000 1.910190 0.000000 
#    z 0.000000 0.000000 1.903980 
# 
# From -- ./inp_files/10126.got.cif
#   From: 2010.03.12/outbox.cif.g09.slc.cpg/sg59_6_cif.got.tgz:10126.got - 2010.04.16 16:29:54.
