data_PCOD8245838
_publ_section_title
;
Structure prediction by ZEFSAII (Michael W. Deem and Ramdas Pophale) SiO2 
 PCOD8245838
Probable space group: P M M N
;
_chemical_formula_sum "Si O2"
_cell_formula_units_Z 40
_cell_length_a 16.458961
_cell_length_b 21.448828
_cell_length_c 5.179404
_cell_angle_alpha 90.000000
_cell_angle_beta 90.000000
_cell_angle_gamma 90.000000
_cell_volume 1828.461291
_symmetry_space_group_name_H-M "P M M N"
_symmetry_group_IT_number 59
_space_group.IT_coordinate_system_code '2'
_symmetry_cell_setting 'orthorhombic'
loop_
_space_group_symop_operation_xyz
x,y,z
1/2-x,1/2-y,z
1/2+x,-y,-z
-x,1/2+y,-z
-x,-y,-z
1/2+x,1/2+y,-z
1/2-x,y,z
x,1/2-y,z
loop_
_atom_site_type_symbol
_atom_site_label
_atom_site_fract_x
_atom_site_fract_y
_atom_site_fract_z
Si Si1 0.502835 0.819741 0.243071
Si Si2 0.845007 0.033756 0.961926
Si Si3 0.933720 0.585405 0.864907
Si Si4 0.159643 0.181468 0.435722
Si Si5 0.919933 0.086851 0.444272
O O1 0.478382 0.750000 0.149947
O O2 0.596252 0.820738 0.331842
O O3 0.439447 0.841382 0.467144
O O4 0.500395 0.872385 0.021253
O O5 0.750000 0.020442 0.942905
O O6 0.861332 0.082944 0.192815
O O7 0.876061 0.052847 0.680074
O O8 0.894355 0.970268 0.031476
O O9 0.859839 0.628447 0.771739
O O10 0.990446 0.558669 0.631242
O O11 0.250000 0.169609 0.546696
O O12 0.154178 0.250000 0.302077
#
# Coordination Sequence:
#
# PCOD8245838 Si02
#       5
#     8   8   8   8   8
#     4  10  22  40  67  95 127 172 221 266 321 384
#     4  12  26  42  66  98 132 172 215 268 329 388
#     4  11  22  38  66  94 130 170 219 262 326 387
#     4   9  19  34  53  87 133 174 212 259 316 386
#     4  11  24  45  66  95 132 170 217 268 320 386
#
# _framework density 21.876318999999999
#
# number of rings (size 3 to 8) (size 9 to 14) (size 15 to 20)
#    0.000    1.400    2.000    3.000    5.600    2.400 
#    0.000    2.000    0.000    3.600    0.000    0.000 
#    0.000    0.000    0.000    0.000    0.000    0.000 
#
# Total GULP energy -495551.168856 kJ/mol
# GULP energy per Si atom -12388.779221 kJ/mol
# Density = 2.182653 g / cm^3
# Si number density = 21.876319 Si / 1000 Ang^3
#
#
#
# Elastic Constant Matrix: (Units=GPa)
#
#
# Indices 1 2 3 4 5 6 
#
# 1 103.5992 54.8084 40.7558 0.0000 0.0000 0.0000
# 2 54.8084 90.6925 44.6883 0.0000 0.0000 0.0000
# 3 40.7558 44.6883 107.8947 0.0000 0.0000 0.0000
# 4 0.0000 0.0000 0.0000 31.4516 0.0000 0.0000
# 5 0.0000 0.0000 0.0000 0.0000 27.1485 0.0000
# 6 0.0000 0.0000 0.0000 0.0000 0.0000 25.9227
#
#
#
# Elastic Compliance Matrix: (Units=1/GPa)
#
#
# Indices 1 2 3 4 5 6 
#
# 1 0.014647 -0.007696 -0.002345 0.000000 0.000000 0.000000
# 2 -0.007696 0.017897 -0.004506 0.000000 0.000000 0.000000
# 3 -0.002345 -0.004506 0.012020 0.000000 0.000000 0.000000
# 4 0.000000 0.000000 0.000000 0.031795 0.000000 0.000000
# 5 0.000000 0.000000 0.000000 0.000000 0.036834 0.000000
# 6 0.000000 0.000000 0.000000 0.000000 0.000000 0.038576
#
#
# Mechanical properties :
#
#
# Convention : Reuss Voigt Hill
#
# Bulk Modulus (GPa) = 64.63774 64.74349 64.69062
# Shear Modulus (GPa) = 26.87879 27.70014 27.28946
#
# Velocity S-wave (km/s) = 3.50904 3.56225 3.53575
# Velocity P-wave (km/s) = 6.78446 6.82488 6.80470
#
# Compressibility (1/GPa) = 0.01547084
#
# Stress axis : x y z
#
# Youngs Moduli (GPa) = 68.27543 55.87420 83.19235
#
# Poissons Ratio (x) = 0.43000 0.19509
# Poissons Ratio (y) = 0.52544 0.37485
# Poissons Ratio (z) = 0.16011 0.25176
#
# Static dielectric constant tensor:
#      x y z
#    x 3.877730 0.000000 0.000000 
#    y 0.000000 4.116540 0.000000 
#    z 0.000000 0.000000 3.894980 
# 
# 
# High freq. dielectric constant tensor:
#      x y z
#    x 1.847190 0.000000 0.000000 
#    y 0.000000 1.852870 0.000000 
#    z 0.000000 0.000000 1.854830 
# 
# From -- ./inp_files/2028.got.cif
#   From: 2010.03.12/outbox.cif.g09.slc.cpg/sg59_2_cif.got.tgz:2028.got - 2010.04.16 16:29:54.
