data_PCOD8245696
_publ_section_title
;
Structure prediction by ZEFSAII (Michael W. Deem and Ramdas Pophale) SiO2 
 PCOD8245696
Probable space group: P M M N
;
_chemical_formula_sum "Si O2"
_cell_formula_units_Z 48
_cell_length_a 18.213612
_cell_length_b 8.442209
_cell_length_c 14.504568
_cell_angle_alpha 90.000000
_cell_angle_beta 90.000000
_cell_angle_gamma 90.000000
_cell_volume 2230.267618
_symmetry_space_group_name_H-M "P M M N"
_symmetry_group_IT_number 59
_space_group.IT_coordinate_system_code '2'
_symmetry_cell_setting 'orthorhombic'
loop_
_space_group_symop_operation_xyz
x,y,z
1/2-x,1/2-y,z
1/2+x,-y,-z
-x,1/2+y,-z
-x,-y,-z
1/2+x,1/2+y,-z
1/2-x,y,z
x,1/2-y,z
loop_
_atom_site_type_symbol
_atom_site_label
_atom_site_fract_x
_atom_site_fract_y
_atom_site_fract_z
Si Si1 0.250000 0.063666 0.504806
Si Si2 0.100797 0.065317 0.756956
Si Si3 0.750000 0.065482 0.291054
Si Si4 0.136927 0.566374 0.365242
Si Si5 0.988443 0.066826 0.399284
Si Si6 0.828851 0.567229 0.819072
Si Si7 0.481880 0.063003 0.099902
O O1 0.250000 0.250000 0.486725
O O2 0.250000 0.030871 0.613303
O O3 0.321754 0.987185 0.457933
O O4 0.111700 0.250000 0.772335
O O5 0.179161 0.980147 0.770495
O O6 0.075326 0.029209 0.652494
O O7 0.040593 0.002580 0.827993
O O8 0.750000 0.250000 0.313864
O O9 0.116332 0.750000 0.376566
O O10 0.064611 0.461353 0.346767
O O11 0.183241 0.535339 0.273593
O O12 0.966426 0.250000 0.400540
O O13 0.000000 0.000000 0.500000
O O14 0.750000 0.547820 0.872745
O O15 0.841288 0.750000 0.792211
O O16 0.898659 0.505101 0.877321
O O17 0.487091 0.250000 0.101098
O O18 0.500000 0.000000 0.000000
#
# Coordination Sequence:
#
# PCOD8245696 Si02
#       7
#     4   8   4   8   8   8   8
#     4  12  24  40  60  89 134 183 228 278 338 398
#     4  12  25  45  70  98 134 177 226 283 346 408
#     4  12  26  46  68  95 132 177 232 284 338 404
#     4  12  23  36  58  91 128 170 220 271 327 392
#     4  12  24  40  61  90 127 173 223 275 333 399
#     4  10  21  40  67  97 132 173 217 268 332 401
#     4  11  24  45  73 103 138 179 226 283 349 411
#
# _framework density 21.522079999999999
#
# number of rings (size 3 to 8) (size 9 to 14) (size 15 to 20)
#    0.000    0.500    2.500    7.500    0.000    0.667 
#    1.500    0.000    0.000    0.000    0.000    0.000 
#    0.000    0.000    0.000    0.000    0.000    0.000 
#
# Total GULP energy -595258.602253 kJ/mol
# GULP energy per Si atom -12401.220880 kJ/mol
# Density = 2.147310 g / cm^3
# Si number density = 21.522080 Si / 1000 Ang^3
#
#
#
# Elastic Constant Matrix: (Units=GPa)
#
#
# Indices 1 2 3 4 5 6 
#
# 1 169.5285 32.3700 49.0871 0.0000 0.0000 0.0000
# 2 32.3700 101.9076 26.1102 0.0000 0.0000 0.0000
# 3 49.0871 26.1102 102.9347 0.0000 0.0000 0.0000
# 4 0.0000 0.0000 0.0000 35.7931 0.0000 0.0000
# 5 0.0000 0.0000 0.0000 0.0000 24.0125 0.0000
# 6 0.0000 0.0000 0.0000 0.0000 0.0000 30.3223
#
#
#
# Elastic Compliance Matrix: (Units=1/GPa)
#
#
# Indices 1 2 3 4 5 6 
#
# 1 0.007044 -0.001473 -0.002986 0.000000 0.000000 0.000000
# 2 -0.001473 0.010803 -0.002038 0.000000 0.000000 0.000000
# 3 -0.002986 -0.002038 0.011656 0.000000 0.000000 0.000000
# 4 0.000000 0.000000 0.000000 0.027938 0.000000 0.000000
# 5 0.000000 0.000000 0.000000 0.000000 0.041645 0.000000
# 6 0.000000 0.000000 0.000000 0.000000 0.000000 0.032979
#
#
# Mechanical properties :
#
#
# Convention : Reuss Voigt Hill
#
# Bulk Modulus (GPa) = 60.56870 65.50059 63.03465
# Shear Modulus (GPa) = 33.20909 35.81248 34.51078
#
# Velocity S-wave (km/s) = 3.93240 4.08363 4.00872
# Velocity P-wave (km/s) = 6.98727 7.26188 7.12590
#
# Compressibility (1/GPa) = 0.01651018
#
# Stress axis : x y z
#
# Youngs Moduli (GPa) = 141.95615 92.56928 85.79507
#
# Poissons Ratio (x) = 0.13632 0.25617
# Poissons Ratio (y) = 0.20904 0.17485
# Poissons Ratio (z) = 0.42385 0.18865
#
# Static dielectric constant tensor:
#      x y z
#    x 4.358780 0.000000 0.000000 
#    y 0.000000 4.149590 0.000000 
#    z 0.000000 0.000000 3.717210 
# 
# 
# High freq. dielectric constant tensor:
#      x y z
#    x 1.870330 0.000000 0.000000 
#    y 0.000000 1.851940 0.000000 
#    z 0.000000 0.000000 1.820650 
# 
# From -- ./inp_files/23738.got.cif
#   From: 2010.03.12/outbox.cif.g09.slc.cpg/sg59_12_cif.got.tgz:23738.got - 2010.04.16 16:29:54.
