data_PCOD8245252
_publ_section_title
;
Structure prediction by ZEFSAII (Michael W. Deem and Ramdas Pophale) SiO2 
 PCOD8245252
Probable space group: P M M N
;
_chemical_formula_sum "Si O2"
_cell_formula_units_Z 64
_cell_length_a 8.979458
_cell_length_b 15.084857
_cell_length_c 24.082649
_cell_angle_alpha 90.000000
_cell_angle_beta 90.000000
_cell_angle_gamma 90.000000
_cell_volume 3262.087281
_symmetry_space_group_name_H-M "P M M N"
_symmetry_group_IT_number 59
_space_group.IT_coordinate_system_code '2'
_symmetry_cell_setting 'orthorhombic'
loop_
_space_group_symop_operation_xyz
x,y,z
1/2-x,1/2-y,z
1/2+x,-y,-z
-x,1/2+y,-z
-x,-y,-z
1/2+x,1/2+y,-z
1/2-x,y,z
x,1/2-y,z
loop_
_atom_site_type_symbol
_atom_site_label
_atom_site_fract_x
_atom_site_fract_y
_atom_site_fract_z
Si Si1 0.419260 0.650315 0.110083
Si Si2 0.074884 0.352377 0.386397
Si Si3 0.080772 0.848423 0.893045
Si Si4 0.075932 0.009154 0.815576
Si Si5 0.917117 0.355254 0.497255
Si Si6 0.076178 0.149192 0.607696
Si Si7 0.075921 0.992880 0.688488
Si Si8 0.073741 0.095162 0.999107
O O1 0.250000 0.621271 0.096573
O O2 0.424904 0.750000 0.133274
O O3 0.484529 0.588432 0.157621
O O4 0.516301 0.647105 0.054415
O O5 0.250000 0.363606 0.390895
O O6 0.029915 0.250000 0.376071
O O7 0.004710 0.389881 0.443408
O O8 0.013463 0.410096 0.335880
O O9 0.250000 0.867560 0.912869
O O10 0.067217 0.750000 0.867269
O O11 0.972086 0.853225 0.945551
O O12 0.032933 0.917603 0.845884
O O13 0.250000 0.030607 0.821331
O O14 0.026878 0.001765 0.752039
O O15 0.750000 0.392919 0.494744
O O16 0.919851 0.250000 0.497668
O O17 0.994306 0.389430 0.553390
O O18 0.250000 0.147272 0.594458
O O19 0.025351 0.250000 0.622204
O O20 0.034049 0.085465 0.658741
O O21 0.250000 0.971804 0.682541
O O22 0.250000 0.086481 0.995748
O O23 0.000000 0.000000 0.000000
#
# Coordination Sequence:
#
# PCOD8245252 Si02
#       8
#     8   8   8   8   8   8   8   8
#     4  11  24  41  62  89 121 157 194 237 290 344
#     4  10  21  37  57  82 113 150 189 232 286 343
#     4  10  21  38  60  87 119 154 192 237 290 346
#     4  10  22  40  61  85 115 154 198 243 288 337
#     4   9  17  31  54  83 112 143 183 232 284 342
#     4   9  18  34  55  80 113 149 184 230 286 342
#     4  10  22  38  58  85 113 148 196 240 283 336
#     4  12  23  37  61  91 122 155 191 236 290 346
#
# _framework density 19.619340999999999
#
# number of rings (size 3 to 8) (size 9 to 14) (size 15 to 20)
#    0.000    1.875    1.250    2.625    0.000    7.500 
#    0.000    2.500    0.000    1.500    0.000    0.000 
#    0.000    0.000    0.000    0.000    0.000    0.000 
#
# Total GULP energy -793810.115279 kJ/mol
# GULP energy per Si atom -12403.283051 kJ/mol
# Density = 1.957469 g / cm^3
# Si number density = 19.619341 Si / 1000 Ang^3
#
#
#
# Elastic Constant Matrix: (Units=GPa)
#
#
# Indices 1 2 3 4 5 6 
#
# 1 107.4562 53.0275 69.9622 0.0000 0.0000 0.0000
# 2 53.0275 114.0430 69.9573 0.0000 0.0000 0.0000
# 3 69.9622 69.9573 166.3550 0.0000 0.0000 0.0000
# 4 0.0000 0.0000 0.0000 4.8474 0.0000 0.0000
# 5 0.0000 0.0000 0.0000 0.0000 29.1377 0.0000
# 6 0.0000 0.0000 0.0000 0.0000 0.0000 27.9037
#
#
#
# Elastic Compliance Matrix: (Units=1/GPa)
#
#
# Indices 1 2 3 4 5 6 
#
# 1 0.013996 -0.003904 -0.004244 0.000000 0.000000 0.000000
# 2 -0.003904 0.012906 -0.003785 0.000000 0.000000 0.000000
# 3 -0.004244 -0.003785 0.009388 0.000000 0.000000 0.000000
# 4 0.000000 0.000000 0.000000 0.206298 0.000000 0.000000
# 5 0.000000 0.000000 0.000000 0.000000 0.034320 0.000000
# 6 0.000000 0.000000 0.000000 0.000000 0.000000 0.035838
#
#
# Mechanical properties :
#
#
# Convention : Reuss Voigt Hill
#
# Bulk Modulus (GPa) = 80.50051 85.97203 83.23627
# Shear Modulus (GPa) = 14.67329 25.37155 20.02242
#
# Velocity S-wave (km/s) = 2.73774 3.60000 3.19806
# Velocity P-wave (km/s) = 7.14940 7.82273 7.49363
#
# Compressibility (1/GPa) = 0.01242228
#
# Stress axis : x y z
#
# Youngs Moduli (GPa) = 71.44782 77.48258 106.51748
#
# Poissons Ratio (x) = 0.30252 0.45210
# Poissons Ratio (y) = 0.27896 0.40321
# Poissons Ratio (z) = 0.30325 0.29330
#
# Static dielectric constant tensor:
#      x y z
#    x 3.628190 0.000000 0.000000 
#    y 0.000000 3.613700 0.000000 
#    z 0.000000 0.000000 3.596390 
# 
# 
# High freq. dielectric constant tensor:
#      x y z
#    x 1.764560 0.000000 0.000000 
#    y 0.000000 1.769830 0.000000 
#    z 0.000000 0.000000 1.758280 
# 
# From -- ./inp_files/31465.got.cif
#   From: 2010.03.12/outbox.cif.g09.slc.cpg/sg59_16_cif.got.tgz:31465.got - 2010.04.16 16:29:54.
