data_PCOD8245883
_publ_section_title
;
Structure prediction by ZEFSAII (Michael W. Deem and Ramdas Pophale) SiO2 
 PCOD8245883
Probable space group: P M M N
;
_chemical_formula_sum "Si O2"
_cell_formula_units_Z 48
_cell_length_a 33.680411
_cell_length_b 14.662306
_cell_length_c 5.070313
_cell_angle_alpha 90.000000
_cell_angle_beta 90.000000
_cell_angle_gamma 90.000000
_cell_volume 2503.885305
_symmetry_space_group_name_H-M "P M M N"
_symmetry_group_IT_number 59
_space_group.IT_coordinate_system_code '2'
_symmetry_cell_setting 'orthorhombic'
loop_
_space_group_symop_operation_xyz
x,y,z
1/2-x,1/2-y,z
1/2+x,-y,-z
-x,1/2+y,-z
-x,-y,-z
1/2+x,1/2+y,-z
1/2-x,y,z
x,1/2-y,z
loop_
_atom_site_type_symbol
_atom_site_label
_atom_site_fract_x
_atom_site_fract_y
_atom_site_fract_z
Si Si1 0.105226 0.750000 0.588744
Si Si2 0.911366 0.539277 0.218376
Si Si3 0.795659 0.143523 0.736426
Si Si4 0.560915 0.644463 0.705782
Si Si5 0.980320 0.085125 0.131442
Si Si6 0.659828 0.414287 0.259047
Si Si7 0.554159 0.250000 0.912921
O O1 0.130642 0.661318 0.631724
O O2 0.067684 0.750000 0.780562
O O3 0.090433 0.750000 0.287142
O O4 0.918051 0.616389 0.435651
O O5 0.940012 0.450797 0.273231
O O6 0.865389 0.507308 0.229138
O O7 0.920335 0.582719 0.935225
O O8 0.750000 0.127905 0.811449
O O9 0.803961 0.250000 0.672215
O O10 0.805746 0.080821 0.481389
O O11 0.822278 0.111972 0.979034
O O12 0.569903 0.750000 0.762578
O O13 0.513212 0.628964 0.673371
O O14 0.971357 0.157368 0.894415
O O15 0.000000 0.000000 0.000000
#
# Coordination Sequence:
#
# PCOD8245883 Si02
#       7
#     4   8   8   8   8   8   4
#     4  12  24  34  55  80 114 152 194 238 274 326
#     4  11  24  37  60  83 113 147 195 248 287 341
#     4  11  22  37  57  85 121 161 192 219 267 340
#     4  11  23  42  58  80 111 152 195 244 306 351
#     4  10  23  39  55  80 113 151 201 252 294 341
#     4  12  22  38  57  84 119 152 195 233 277 325
#     4  12  24  38  54  78 109 158 204 246 287 344
#
# _framework density 19.170206
#
# number of rings (size 3 to 8) (size 9 to 14) (size 15 to 20)
#    0.000    0.833    4.167    3.500    4.667    4.000 
#    0.000    0.000    0.000    0.000    0.000    0.000 
#    0.000   46.667    0.000    0.000    0.000    0.000 
#
# Total GULP energy -595137.719602 kJ/mol
# GULP energy per Si atom -12398.702492 kJ/mol
# Density = 1.912657 g / cm^3
# Si number density = 19.170206 Si / 1000 Ang^3
#
#
#
# Elastic Constant Matrix: (Units=GPa)
#
#
# Indices 1 2 3 4 5 6 
#
# 1 85.5683 34.2788 22.2982 0.0000 0.0000 0.0000
# 2 34.2788 89.7434 16.7440 0.0000 0.0000 0.0000
# 3 22.2982 16.7440 80.3812 0.0000 0.0000 0.0000
# 4 0.0000 0.0000 0.0000 22.9932 0.0000 0.0000
# 5 0.0000 0.0000 0.0000 0.0000 31.4395 0.0000
# 6 0.0000 0.0000 0.0000 0.0000 0.0000 25.1861
#
#
#
# Elastic Compliance Matrix: (Units=1/GPa)
#
#
# Indices 1 2 3 4 5 6 
#
# 1 0.014451 -0.004965 -0.002974 0.000000 0.000000 0.000000
# 2 -0.004965 0.013299 -0.001393 0.000000 0.000000 0.000000
# 3 -0.002974 -0.001393 0.013556 0.000000 0.000000 0.000000
# 4 0.000000 0.000000 0.000000 0.043491 0.000000 0.000000
# 5 0.000000 0.000000 0.000000 0.000000 0.031807 0.000000
# 6 0.000000 0.000000 0.000000 0.000000 0.000000 0.039704
#
#
# Mechanical properties :
#
#
# Convention : Reuss Voigt Hill
#
# Bulk Modulus (GPa) = 44.16711 44.70388 44.43550
# Shear Modulus (GPa) = 27.39430 28.08190 27.73810
#
# Velocity S-wave (km/s) = 3.78432 3.83152 3.80799
# Velocity P-wave (km/s) = 6.49494 6.55318 6.52412
#
# Compressibility (1/GPa) = 0.02264128
#
# Stress axis : x y z
#
# Youngs Moduli (GPa) = 69.20161 75.19304 73.76775
#
# Poissons Ratio (x) = 0.37330 0.21942
# Poissons Ratio (y) = 0.34356 0.10277
# Poissons Ratio (z) = 0.20584 0.10475
#
# Static dielectric constant tensor:
#      x y z
#    x 3.811610 0.000000 0.000000 
#    y 0.000000 3.566320 0.000000 
#    z 0.000000 0.000000 3.515450 
# 
# 
# High freq. dielectric constant tensor:
#      x y z
#    x 1.736010 0.000000 0.000000 
#    y 0.000000 1.730230 0.000000 
#    z 0.000000 0.000000 1.750750 
# 
# From -- ./inp_files/4548.got.cif
#   From: 2010.03.12/outbox.cif.g09.slc.cpg/sg59_3_cif.got.tgz:4548.got - 2010.04.16 16:29:54.
