data_PCOD8245985
_publ_section_title
;
Structure prediction by ZEFSAII (Michael W. Deem and Ramdas Pophale) SiO2 
 PCOD8245985
Probable space group: P M M N
;
_chemical_formula_sum "Si O2"
_cell_formula_units_Z 48
_cell_length_a 8.665153
_cell_length_b 25.291881
_cell_length_c 11.718513
_cell_angle_alpha 90.000000
_cell_angle_beta 90.000000
_cell_angle_gamma 90.000000
_cell_volume 2568.206089
_symmetry_space_group_name_H-M "P M M N"
_symmetry_group_IT_number 59
_space_group.IT_coordinate_system_code '2'
_symmetry_cell_setting 'orthorhombic'
loop_
_space_group_symop_operation_xyz
x,y,z
1/2-x,1/2-y,z
1/2+x,-y,-z
-x,1/2+y,-z
-x,-y,-z
1/2+x,1/2+y,-z
1/2-x,y,z
x,1/2-y,z
loop_
_atom_site_type_symbol
_atom_site_label
_atom_site_fract_x
_atom_site_fract_y
_atom_site_fract_z
Si Si1 0.572227 0.595242 0.254340
Si Si2 0.071610 0.810933 0.135340
Si Si3 0.929566 0.557958 0.504662
Si Si4 0.569217 0.000951 0.875087
Si Si5 0.933384 0.308281 0.122575
Si Si6 0.566925 0.094159 0.268331
O O1 0.750000 0.582079 0.227404
O O2 0.532563 0.655225 0.221290
O O3 0.537175 0.588272 0.387591
O O4 0.463147 0.557583 0.180312
O O5 0.250000 0.827000 0.148971
O O6 0.046669 0.750000 0.167600
O O7 0.014328 0.821924 0.006104
O O8 0.750000 0.552067 0.531393
O O9 0.000000 0.500000 0.500000
O O10 0.007428 0.593112 0.602641
O O11 0.750000 0.990460 0.881234
O O12 0.490690 0.956828 0.798149
O O13 0.500000 0.000000 0.000000
O O14 0.750000 0.307140 0.125525
O O15 0.996397 0.250000 0.158115
O O16 0.998484 0.352690 0.208353
O O17 0.750000 0.093517 0.267641
#
# Coordination Sequence:
#
# PCOD8245985 Si02
#       6
#     8   8   8   8   8   8
#     4  11  23  38  57  82 113 149 194 238 289 346
#     4   9  18  35  60  87 115 150 191 234 287 347
#     4  11  23  39  58  79 110 153 196 238 287 344
#     4  12  24  37  56  82 116 149 185 234 289 347
#     4   8  16  33  57  84 113 146 183 227 279 337
#     4  11  21  35  58  86 115 147 190 236 287 343
#
# _framework density 18.690089
#
# number of rings (size 3 to 8) (size 9 to 14) (size 15 to 20)
#    0.000    1.667    1.667    5.000    0.000    3.667 
#    0.000    1.667    0.000    7.000    0.000    0.000 
#    0.000    0.000    0.000    0.000    0.000    0.000 
#
# Total GULP energy -595338.405336 kJ/mol
# GULP energy per Si atom -12402.883444 kJ/mol
# Density = 1.864755 g / cm^3
# Si number density = 18.690089 Si / 1000 Ang^3
#
#
#
# Elastic Constant Matrix: (Units=GPa)
#
#
# Indices 1 2 3 4 5 6 
#
# 1 73.9455 30.9353 46.2913 0.0000 0.0000 0.0000
# 2 30.9353 119.4648 67.8052 0.0000 0.0000 0.0000
# 3 46.2913 67.8052 131.3002 0.0000 0.0000 0.0000
# 4 0.0000 0.0000 0.0000 29.0254 0.0000 0.0000
# 5 0.0000 0.0000 0.0000 0.0000 33.2545 0.0000
# 6 0.0000 0.0000 0.0000 0.0000 0.0000 25.3250
#
#
#
# Elastic Compliance Matrix: (Units=1/GPa)
#
#
# Indices 1 2 3 4 5 6 
#
# 1 0.017532 -0.001459 -0.005427 0.000000 0.000000 0.000000
# 2 -0.001459 0.011963 -0.005663 0.000000 0.000000 0.000000
# 3 -0.005427 -0.005663 0.012454 0.000000 0.000000 0.000000
# 4 0.000000 0.000000 0.000000 0.034453 0.000000 0.000000
# 5 0.000000 0.000000 0.000000 0.000000 0.030071 0.000000
# 6 0.000000 0.000000 0.000000 0.000000 0.000000 0.039487
#
#
# Mechanical properties :
#
#
# Convention : Reuss Voigt Hill
#
# Bulk Modulus (GPa) = 59.35162 68.30824 63.82993
# Shear Modulus (GPa) = 28.30051 29.49956 28.90004
#
# Velocity S-wave (km/s) = 3.89549 3.97716 3.93654
# Velocity P-wave (km/s) = 7.21511 7.59721 7.40862
#
# Compressibility (1/GPa) = 0.01684874
#
# Stress axis : x y z
#
# Youngs Moduli (GPa) = 57.03989 83.59169 80.29432
#
# Poissons Ratio (x) = 0.12199 0.43578
# Poissons Ratio (y) = 0.08324 0.45473
# Poissons Ratio (z) = 0.30957 0.47340
#
# Static dielectric constant tensor:
#      x y z
#    x 3.347550 0.000000 0.000000 
#    y 0.000000 3.638140 0.000000 
#    z 0.000000 0.000000 3.135440 
# 
# 
# High freq. dielectric constant tensor:
#      x y z
#    x 1.719890 0.000000 0.000000 
#    y 0.000000 1.728500 0.000000 
#    z 0.000000 0.000000 1.728550 
# 
# From -- ./inp_files/14371.got.cif
#   From: 2010.03.12/outbox.cif.g09.slc.cpg/sg59_8_cif.got.tgz:14371.got - 2010.04.16 16:29:54.
