data_PCOD8245024
_publ_section_title
;
Structure prediction by ZEFSAII (Michael W. Deem and Ramdas Pophale) SiO2 
 PCOD8245024
Probable space group: P M M N
;
_chemical_formula_sum "Si O2"
_cell_formula_units_Z 48
_cell_length_a 9.238225
_cell_length_b 8.945676
_cell_length_c 30.361159
_cell_angle_alpha 90.000000
_cell_angle_beta 90.000000
_cell_angle_gamma 90.000000
_cell_volume 2509.111993
_symmetry_space_group_name_H-M "P M M N"
_symmetry_group_IT_number 59
_space_group.IT_coordinate_system_code '2'
_symmetry_cell_setting 'orthorhombic'
loop_
_space_group_symop_operation_xyz
x,y,z
1/2-x,1/2-y,z
1/2+x,-y,-z
-x,1/2+y,-z
-x,-y,-z
1/2+x,1/2+y,-z
1/2-x,y,z
x,1/2-y,z
loop_
_atom_site_type_symbol
_atom_site_label
_atom_site_fract_x
_atom_site_fract_y
_atom_site_fract_z
Si Si1 0.081828 0.924686 0.119201
Si Si2 0.580472 0.582186 0.283427
Si Si3 0.081975 0.926140 0.959659
Si Si4 0.417104 0.079142 0.208653
Si Si5 0.084015 0.425816 0.460194
Si Si6 0.083564 0.423600 0.615952
O O1 0.250000 0.962364 0.110229
O O2 0.050780 0.750000 0.113886
O O3 0.035488 0.975663 0.167908
O O4 0.983706 0.015026 0.085581
O O5 0.750000 0.573367 0.274902
O O6 0.524539 0.750000 0.273455
O O7 0.503885 0.464571 0.252009
O O8 0.544669 0.539212 0.333629
O O9 0.250000 0.970412 0.962019
O O10 0.059879 0.750000 0.962411
O O11 0.000000 0.000000 0.000000
O O12 0.250000 0.054965 0.219649
O O13 0.451461 0.250000 0.196261
O O14 0.250000 0.477096 0.462335
O O15 0.068372 0.250000 0.464811
O O16 0.000000 0.500000 0.500000
O O17 0.019010 0.475873 0.413746
O O18 0.250000 0.463876 0.605921
O O19 0.055858 0.250000 0.605638
#
# Coordination Sequence:
#
# PCOD8245024 Si02
#       6
#     8   8   8   8   8   8
#     4  10  21  38  60  84 110 144 187 231 276 327
#     4   9  19  36  57  81 110 145 184 226 272 322
#     4  11  24  40  59  85 115 147 184 225 272 327
#     4  10  21  36  55  81 113 148 185 227 275 325
#     4  11  24  39  56  81 111 142 179 223 270 323
#     4   9  19  37  59  82 109 142 182 226 271 322
#
# _framework density 19.130274
#
# number of rings (size 3 to 8) (size 9 to 14) (size 15 to 20)
#    0.000    2.000    0.000    4.000    0.000   11.333 
#    0.000    5.000    0.000    0.000    0.000    0.000 
#    0.000    0.000    0.000    0.000    0.000    0.000 
#
# Total GULP energy -595404.777479 kJ/mol
# GULP energy per Si atom -12404.266197 kJ/mol
# Density = 1.908673 g / cm^3
# Si number density = 19.130274 Si / 1000 Ang^3
#
#
#
# Elastic Constant Matrix: (Units=GPa)
#
#
# Indices 1 2 3 4 5 6 
#
# 1 109.7018 59.5566 76.7843 0.0000 0.0000 0.0000
# 2 59.5566 72.0869 49.2679 0.0000 0.0000 0.0000
# 3 76.7843 49.2679 124.7791 0.0000 0.0000 0.0000
# 4 0.0000 0.0000 0.0000 41.1897 0.0000 0.0000
# 5 0.0000 0.0000 0.0000 0.0000 40.9704 0.0000
# 6 0.0000 0.0000 0.0000 0.0000 0.0000 33.8282
#
#
#
# Elastic Compliance Matrix: (Units=1/GPa)
#
#
# Indices 1 2 3 4 5 6 
#
# 1 0.021641 -0.012022 -0.008570 0.000000 0.000000 0.000000
# 2 -0.012022 0.025678 -0.002741 0.000000 0.000000 0.000000
# 3 -0.008570 -0.002741 0.014370 0.000000 0.000000 0.000000
# 4 0.000000 0.000000 0.000000 0.024278 0.000000 0.000000
# 5 0.000000 0.000000 0.000000 0.000000 0.024408 0.000000
# 6 0.000000 0.000000 0.000000 0.000000 0.000000 0.029561
#
#
# Mechanical properties :
#
#
# Convention : Reuss Voigt Hill
#
# Bulk Modulus (GPa) = 66.56546 75.30951 70.93748
# Shear Modulus (GPa) = 26.09483 31.26156 28.67820
#
# Velocity S-wave (km/s) = 3.69732 4.04684 3.87602
# Velocity P-wave (km/s) = 7.28686 7.82866 7.56262
#
# Compressibility (1/GPa) = 0.01502281
#
# Stress axis : x y z
#
# Youngs Moduli (GPa) = 46.20886 38.94457 69.58884
#
# Poissons Ratio (x) = 0.46819 0.59639
# Poissons Ratio (y) = 0.55552 0.19073
# Poissons Ratio (z) = 0.39602 0.10674
#
# Static dielectric constant tensor:
#      x y z
#    x 3.498170 0.000000 0.000000 
#    y 0.000000 3.546300 0.000000 
#    z 0.000000 0.000000 3.599660 
# 
# 
# High freq. dielectric constant tensor:
#      x y z
#    x 1.743210 0.000000 0.000000 
#    y 0.000000 1.750480 0.000000 
#    z 0.000000 0.000000 1.757190 
# 
# From -- ./inp_files/32893.got.cif
#   From: 2010.03.12/outbox.cif.g09.slc.cpg/sg59_17_cif.got.tgz:32893.got - 2010.04.16 16:29:54.
