data_PCOD8245231
_publ_section_title
;
Structure prediction by ZEFSAII (Michael W. Deem and Ramdas Pophale) SiO2 
 PCOD8245231
Probable space group: P M M N
;
_chemical_formula_sum "Si O2"
_cell_formula_units_Z 48
_cell_length_a 15.286965
_cell_length_b 8.870080
_cell_length_c 18.566392
_cell_angle_alpha 90.000000
_cell_angle_beta 90.000000
_cell_angle_gamma 90.000000
_cell_volume 2517.539676
_symmetry_space_group_name_H-M "P M M N"
_symmetry_group_IT_number 59
_space_group.IT_coordinate_system_code '2'
_symmetry_cell_setting 'orthorhombic'
loop_
_space_group_symop_operation_xyz
x,y,z
1/2-x,1/2-y,z
1/2+x,-y,-z
-x,1/2+y,-z
-x,-y,-z
1/2+x,1/2+y,-z
1/2-x,y,z
x,1/2-y,z
loop_
_atom_site_type_symbol
_atom_site_label
_atom_site_fract_x
_atom_site_fract_y
_atom_site_fract_z
Si Si1 0.350017 0.427112 0.908243
Si Si2 0.980488 0.572857 0.670249
Si Si3 0.842554 0.074785 0.395997
Si Si4 0.009898 0.428018 0.165960
Si Si5 0.920516 0.423123 0.540036
Si Si6 0.649267 0.426310 0.938718
O O1 0.250000 0.460782 0.884106
O O2 0.366247 0.250000 0.917307
O O3 0.416524 0.494886 0.849961
O O4 0.371333 0.506870 0.983375
O O5 0.978087 0.750000 0.657725
O O6 0.963296 0.530222 0.752685
O O7 0.905741 0.500891 0.618386
O O8 0.074512 0.502408 0.645212
O O9 0.750000 0.003940 0.368813
O O10 0.844332 0.250000 0.376337
O O11 0.841834 0.055155 0.483312
O O12 0.000055 0.250000 0.154659
O O13 0.087600 0.490595 0.117494
O O14 0.941512 0.250000 0.554549
O O15 0.000000 0.500000 0.500000
O O16 0.750000 0.456098 0.917081
O O17 0.627036 0.250000 0.939728
#
# Coordination Sequence:
#
# PCOD8245231 Si02
#       6
#     8   8   8   8   8   8
#     4  10  21  37  57  81 110 143 179 221 268 320
#     4   9  19  33  49  71  99 133 169 205 252 308
#     4   8  14  27  48  72  95 122 161 205 246 293
#     4  11  22  35  54  80 111 145 180 222 272 325
#     4   9  16  28  48  69  92 124 160 200 243 291
#     4  10  21  38  59  80 103 136 182 231 274 322
#
# _framework density 19.066234999999999
#
# number of rings (size 3 to 8) (size 9 to 14) (size 15 to 20)
#    0.000    2.500    0.000    3.500    0.000    4.000 
#    0.000    2.500    0.000   15.500    0.000    0.000 
#    0.000    0.000    0.000    0.000    0.000    0.000 
#
# Total GULP energy -594807.352647 kJ/mol
# GULP energy per Si atom -12391.819847 kJ/mol
# Density = 1.902284 g / cm^3
# Si number density = 19.066235 Si / 1000 Ang^3
#
#
#
# Elastic Constant Matrix: (Units=GPa)
#
#
# Indices 1 2 3 4 5 6 
#
# 1 45.3571 29.2295 11.4241 0.0000 0.0000 0.0000
# 2 29.2295 -383.7447 -123.9541 0.0000 0.0000 0.0000
# 3 11.4241 -123.9541 20.1526 0.0000 0.0000 0.0000
# 4 0.0000 0.0000 0.0000 32.5795 0.0000 0.0000
# 5 0.0000 0.0000 0.0000 0.0000 14.4761 0.0000
# 6 0.0000 0.0000 0.0000 0.0000 0.0000 23.9753
#
#
#
# Elastic Compliance Matrix: (Units=1/GPa)
#
#
# Indices 1 2 3 4 5 6 
#
# 1 0.021045 0.001827 -0.000693 0.000000 0.000000 0.000000
# 2 0.001827 -0.000714 -0.005427 0.000000 0.000000 0.000000
# 3 -0.000693 -0.005427 0.016637 0.000000 0.000000 0.000000
# 4 0.000000 0.000000 0.000000 0.030694 0.000000 0.000000
# 5 0.000000 0.000000 0.000000 0.000000 0.069080 0.000000
# 6 0.000000 0.000000 0.000000 0.000000 0.000000 0.041710
#
#
# Mechanical properties :
#
#
# Convention : Reuss Voigt Hill
#
# Bulk Modulus (GPa) = 35.23438 -53.87066 -9.31814
# Shear Modulus (GPa) = 25.44570 -1.45614 11.99478
#
# Velocity S-wave (km/s) = 3.65717 -0.87486 2.51093
# Velocity P-wave (km/s) = 6.02937 5.41630 1.87310
#
# Compressibility (1/GPa) = 0.02838137
#
# Stress axis : x y z
#
# Youngs Moduli (GPa) = 47.51819 -1400.77270 60.10859
#
# Poissons Ratio (x) = 2.55901 0.04167
# Poissons Ratio (y) = -0.08681 0.32619
# Poissons Ratio (z) = 0.03294 -7.60144
#
# Static dielectric constant tensor:
#      x y z
#    x 3.646510 0.000000 0.000000 
#    y 0.000000 3.520840 0.000000 
#    z 0.000000 0.000000 3.671880 
# 
# 
# High freq. dielectric constant tensor:
#      x y z
#    x 1.731800 0.000000 0.000000 
#    y 0.000000 1.735050 0.000000 
#    z 0.000000 0.000000 1.738370 
# 
# From -- ./inp_files/27371.got.cif
#   From: 2010.03.12/outbox.cif.g09.slc.cpg/sg59_14_cif.got.tgz:27371.got - 2010.04.16 16:29:54.
