data_PCOD8245196
_publ_section_title
;
Structure prediction by ZEFSAII (Michael W. Deem and Ramdas Pophale) SiO2 
 PCOD8245196
Probable space group: P M M N
;
_chemical_formula_sum "Si O2"
_cell_formula_units_Z 48
_cell_length_a 14.812279
_cell_length_b 8.928884
_cell_length_c 19.011872
_cell_angle_alpha 90.000000
_cell_angle_beta 90.000000
_cell_angle_gamma 90.000000
_cell_volume 2514.455455
_symmetry_space_group_name_H-M "P M M N"
_symmetry_group_IT_number 59
_space_group.IT_coordinate_system_code '2'
_symmetry_cell_setting 'orthorhombic'
loop_
_space_group_symop_operation_xyz
x,y,z
1/2-x,1/2-y,z
1/2+x,-y,-z
-x,1/2+y,-z
-x,-y,-z
1/2+x,1/2+y,-z
1/2-x,y,z
x,1/2-y,z
loop_
_atom_site_type_symbol
_atom_site_label
_atom_site_fract_x
_atom_site_fract_y
_atom_site_fract_z
Si Si1 0.509991 0.573737 0.896879
Si Si2 0.351394 0.418164 0.642422
Si Si3 0.993093 0.426467 0.262633
Si Si4 0.849653 0.919523 0.634532
Si Si5 0.596873 0.426968 0.497204
Si Si6 0.646105 0.073281 0.998175
O O1 0.525207 0.750000 0.901799
O O2 0.504028 0.517618 0.816925
O O3 0.598672 0.497757 0.929988
O O4 0.415891 0.527108 0.934864
O O5 0.250000 0.414199 0.670872
O O6 0.386993 0.250000 0.626840
O O7 0.408021 0.492129 0.704221
O O8 0.352613 0.514206 0.571417
O O9 0.976323 0.250000 0.265685
O O10 0.081498 0.474973 0.306129
O O11 0.750000 0.926501 0.668082
O O12 0.873680 0.750000 0.610576
O O13 0.850102 0.026657 0.567076
O O14 0.500000 0.500000 0.500000
O O15 0.589429 0.250000 0.492434
O O16 0.750000 0.015055 0.007256
O O17 0.646905 0.250000 0.988152
#
# Coordination Sequence:
#
# PCOD8245196 Si02
#       6
#     8   8   8   8   8   8
#     4   9  19  35  56  84 114 145 186 231 274 325
#     4  11  24  40  58  82 113 149 187 232 284 334
#     4  10  21  37  58  83 113 150 187 228 279 333
#     4  10  21  37  56  80 111 146 185 232 285 337
#     4  12  23  37  59  83 108 143 189 239 287 334
#     4   9  18  34  56  82 113 149 186 227 275 325
#
# _framework density 19.089618999999999
#
# number of rings (size 3 to 8) (size 9 to 14) (size 15 to 20)
#    0.000    1.833    1.667    2.500    0.000    6.000 
#    0.000    3.333    0.000    0.000    0.000    0.000 
#    0.000    0.000    0.000    0.000    0.000    0.000 
#
# Total GULP energy -595233.504678 kJ/mol
# GULP energy per Si atom -12400.698014 kJ/mol
# Density = 1.904617 g / cm^3
# Si number density = 19.089619 Si / 1000 Ang^3
#
#
#
# Elastic Constant Matrix: (Units=GPa)
#
#
# Indices 1 2 3 4 5 6 
#
# 1 134.6136 31.3182 60.7081 0.0000 0.0000 0.0000
# 2 31.3182 69.4660 46.1793 0.0000 0.0000 0.0000
# 3 60.7081 46.1793 155.4142 0.0000 0.0000 0.0000
# 4 0.0000 0.0000 0.0000 24.9355 0.0000 0.0000
# 5 0.0000 0.0000 0.0000 0.0000 0.0081 0.0000
# 6 0.0000 0.0000 0.0000 0.0000 0.0000 29.3217
#
#
#
# Elastic Compliance Matrix: (Units=1/GPa)
#
#
# Indices 1 2 3 4 5 6 
#
# 1 0.009282 -0.002211 -0.002969 0.000000 0.000000 0.000000
# 2 -0.002211 0.018466 -0.004623 0.000000 0.000000 0.000000
# 3 -0.002969 -0.004623 0.008968 0.000000 0.000000 0.000000
# 4 0.000000 0.000000 0.000000 0.040103 0.000000 0.000000
# 5 0.000000 0.000000 0.000000 0.000000123.361536 0.000000
# 6 0.000000 0.000000 0.000000 0.000000 0.000000 0.034104
#
#
# Mechanical properties :
#
#
# Convention : Reuss Voigt Hill
#
# Bulk Modulus (GPa) = 58.44721 70.65612 64.55166
# Shear Modulus (GPa) = 0.04049 25.60563 12.82306
#
# Velocity S-wave (km/s) = 0.14579 3.66640 2.59459
# Velocity P-wave (km/s) = 5.54185 7.41731 6.54708
#
# Compressibility (1/GPa) = 0.01710946
#
# Stress axis : x y z
#
# Youngs Moduli (GPa) = 107.73621 54.15430 111.51062
#
# Poissons Ratio (x) = 0.11974 0.33104
# Poissons Ratio (y) = 0.23822 0.51553
# Poissons Ratio (z) = 0.31984 0.25036
#
# Static dielectric constant tensor:
#      x y z
#    x 3.592920 0.000000 0.000000 
#    y 0.000000 3.505380 0.000000 
#    z 0.000000 0.000000 3.545360 
# 
# 
# High freq. dielectric constant tensor:
#      x y z
#    x 1.753710 0.000000 0.000000 
#    y 0.000000 1.738320 0.000000 
#    z 0.000000 0.000000 1.735080 
# 
# From -- ./inp_files/25419.got.cif
#   From: 2010.03.12/outbox.cif.g09.slc.cpg/sg59_13_cif.got.tgz:25419.got - 2010.04.16 16:29:54.
