data_PCOD8245963
_publ_section_title
;
Structure prediction by ZEFSAII (Michael W. Deem and Ramdas Pophale) SiO2 
 PCOD8245963
Probable space group: P M M N
;
_chemical_formula_sum "Si O2"
_cell_formula_units_Z 48
_cell_length_a 13.967617
_cell_length_b 15.795687
_cell_length_c 10.135868
_cell_angle_alpha 90.000000
_cell_angle_beta 90.000000
_cell_angle_gamma 90.000000
_cell_volume 2236.257362
_symmetry_space_group_name_H-M "P M M N"
_symmetry_group_IT_number 59
_space_group.IT_coordinate_system_code '2'
_symmetry_cell_setting 'orthorhombic'
loop_
_space_group_symop_operation_xyz
x,y,z
1/2-x,1/2-y,z
1/2+x,-y,-z
-x,1/2+y,-z
-x,-y,-z
1/2+x,1/2+y,-z
1/2-x,y,z
x,1/2-y,z
loop_
_atom_site_type_symbol
_atom_site_label
_atom_site_fract_x
_atom_site_fract_y
_atom_site_fract_z
Si Si1 0.363487 0.652327 0.226952
Si Si2 0.960340 0.344032 0.509699
Si Si3 0.355200 0.126384 0.651009
Si Si4 0.355717 0.934779 0.712510
Si Si5 0.136713 0.525371 0.004708
Si Si6 0.364099 0.342293 0.942719
O O1 0.250000 0.645553 0.234057
O O2 0.394491 0.750000 0.197834
O O3 0.406072 0.616275 0.363793
O O4 0.405833 0.589523 0.114080
O O5 0.921639 0.250000 0.493746
O O6 0.935821 0.388866 0.373338
O O7 0.074449 0.345815 0.533337
O O8 0.250000 0.166211 0.624467
O O9 0.399033 0.158389 0.790452
O O10 0.345671 0.026734 0.652213
O O11 0.250000 0.891119 0.703902
O O12 0.392138 0.936774 0.862903
O O13 0.250000 0.522219 0.017954
O O14 0.096258 0.427505 0.017704
O O15 0.250000 0.351014 0.939583
O O16 0.394226 0.250000 0.005864
#
# Coordination Sequence:
#
# PCOD8245963 Si02
#       6
#     8   8   8   8   8   8
#     4   9  18  32  48  70 105 144 177 211 256 312
#     4  11  21  31  49  79 109 136 171 218 268 313
#     4   9  18  33  52  73  99 133 174 218 262 311
#     4   9  18  33  52  75 104 136 173 216 261 314
#     4   8  15  29  49  73 101 137 176 211 257 314
#     4   8  13  24  45  71  95 121 163 218 261 296
#
# _framework density 21.464435000000002
#
# number of rings (size 3 to 8) (size 9 to 14) (size 15 to 20)
#    0.000    3.000    0.000    3.500    0.000    2.667 
#    0.000    5.000    0.000    0.000    0.000   10.500 
#    0.000   48.000    0.000    0.000    0.000    0.000 
#
# Total GULP energy -594732.678838 kJ/mol
# GULP energy per Si atom -12390.264142 kJ/mol
# Density = 2.141558 g / cm^3
# Si number density = 21.464435 Si / 1000 Ang^3
#
#
#
# Elastic Constant Matrix: (Units=GPa)
#
#
# Indices 1 2 3 4 5 6 
#
# 1 44.5497 20.7275 23.4489 0.0000 0.0000 0.0000
# 2 20.7275 116.0995 64.5633 0.0000 0.0000 0.0000
# 3 23.4489 64.5633 90.5587 0.0000 0.0000 0.0000
# 4 0.0000 0.0000 0.0000 14.2537 0.0000 0.0000
# 5 0.0000 0.0000 0.0000 0.0000 17.1268 0.0000
# 6 0.0000 0.0000 0.0000 0.0000 0.0000 11.5371
#
#
#
# Elastic Compliance Matrix: (Units=1/GPa)
#
#
# Indices 1 2 3 4 5 6 
#
# 1 0.026145 -0.001496 -0.005703 0.000000 0.000000 0.000000
# 2 -0.001496 0.014357 -0.009848 0.000000 0.000000 0.000000
# 3 -0.005703 -0.009848 0.019541 0.000000 0.000000 0.000000
# 4 0.000000 0.000000 0.000000 0.070157 0.000000 0.000000
# 5 0.000000 0.000000 0.000000 0.000000 0.058388 0.000000
# 6 0.000000 0.000000 0.000000 0.000000 0.000000 0.086677
#
#
# Mechanical properties :
#
#
# Convention : Reuss Voigt Hill
#
# Bulk Modulus (GPa) = 38.53985 52.07638 45.30811
# Shear Modulus (GPa) = 15.72283 18.08142 16.90213
#
# Velocity S-wave (km/s) = 2.70942 2.90554 2.80919
# Velocity P-wave (km/s) = 5.27088 5.96411 5.62818
#
# Compressibility (1/GPa) = 0.02594717
#
# Stress axis : x y z
#
# Youngs Moduli (GPa) = 38.24849 69.65155 51.17514
#
# Poissons Ratio (x) = 0.10421 0.29186
# Poissons Ratio (y) = 0.05722 0.50400
# Poissons Ratio (z) = 0.21814 0.68596
#
# Static dielectric constant tensor:
#      x y z
#    x 3.912740 0.000000 0.000000 
#    y 0.000000 4.178170 0.000000 
#    z 0.000000 0.000000 3.643190 
# 
# 
# High freq. dielectric constant tensor:
#      x y z
#    x 1.840930 0.000000 0.000000 
#    y 0.000000 1.845160 0.000000 
#    z 0.000000 0.000000 1.801660 
# 
# From -- ./inp_files/9051.got.cif
#   From: 2010.03.12/outbox.cif.g09.slc.cpg/sg59_5_cif.got.tgz:9051.got - 2010.04.16 16:29:54.
