data_PCOD8245285
_publ_section_title
;
Structure prediction by ZEFSAII (Michael W. Deem and Ramdas Pophale) SiO2 
 PCOD8245285
Probable space group: P M M N
;
_chemical_formula_sum "Si O2"
_cell_formula_units_Z 40
_cell_length_a 8.770593
_cell_length_b 29.209556
_cell_length_c 7.683270
_cell_angle_alpha 90.000000
_cell_angle_beta 90.000000
_cell_angle_gamma 90.000000
_cell_volume 1968.339504
_symmetry_space_group_name_H-M "P M M N"
_symmetry_group_IT_number 59
_space_group.IT_coordinate_system_code '2'
_symmetry_cell_setting 'orthorhombic'
loop_
_space_group_symop_operation_xyz
x,y,z
1/2-x,1/2-y,z
1/2+x,-y,-z
-x,1/2+y,-z
-x,-y,-z
1/2+x,1/2+y,-z
1/2-x,y,z
x,1/2-y,z
loop_
_atom_site_type_symbol
_atom_site_label
_atom_site_fract_x
_atom_site_fract_y
_atom_site_fract_z
Si Si1 0.926613 0.047405 0.052862
Si Si2 0.077350 0.356483 0.445043
Si Si3 0.575276 0.542719 0.591823
Si Si4 0.073666 0.803112 0.249156
Si Si5 0.429230 0.139009 0.043343
O O1 0.750000 0.045380 0.009642
O O2 0.961855 0.053724 0.253328
O O3 0.997150 0.092521 0.962410
O O4 0.000000 0.000000 0.000000
O O5 0.250000 0.337936 0.460130
O O6 0.073789 0.409460 0.513494
O O7 0.021053 0.351284 0.243846
O O8 0.970605 0.327357 0.570511
O O9 0.500000 0.500000 0.500000
O O10 0.750000 0.530926 0.647658
O O11 0.250000 0.812701 0.211381
O O12 0.037851 0.750000 0.273027
O O13 0.978852 0.819887 0.081832
O O14 0.250000 0.131769 0.037246
#
# Coordination Sequence:
#
# PCOD8245285 Si02
#       5
#     8   8   8   8   8
#     4  11  22  37  58  86 121 161 203 249 303 367
#     4   9  21  41  63  88 121 160 205 255 307 367
#     4  10  21  37  57  86 121 160 204 250 304 366
#     4  11  25  42  63  93 125 162 208 256 313 375
#     4  10  22  42  65  90 123 161 207 259 312 371
#
# _framework density 20.321695999999999
#
# number of rings (size 3 to 8) (size 9 to 14) (size 15 to 20)
#    0.000    1.800    0.000    4.800    2.800    7.200 
#    0.000    4.000    0.000    0.000    0.000    0.000 
#    0.000    0.000    0.000    0.000    0.000    0.000 
#
# Total GULP energy -495764.510680 kJ/mol
# GULP energy per Si atom -12394.112767 kJ/mol
# Density = 2.027544 g / cm^3
# Si number density = 20.321696 Si / 1000 Ang^3
#
#
#
# Elastic Constant Matrix: (Units=GPa)
#
#
# Indices 1 2 3 4 5 6 
#
# 1 108.6971 54.4057 39.8616 0.0000 0.0000 0.0000
# 2 54.4057 126.5512 53.1534 0.0000 0.0000 0.0000
# 3 39.8616 53.1534 89.5410 0.0000 0.0000 0.0000
# 4 0.0000 0.0000 0.0000 34.4893 0.0000 0.0000
# 5 0.0000 0.0000 0.0000 0.0000 33.8649 0.0000
# 6 0.0000 0.0000 0.0000 0.0000 0.0000 37.4383
#
#
#
# Elastic Compliance Matrix: (Units=1/GPa)
#
#
# Indices 1 2 3 4 5 6 
#
# 1 0.012345 -0.003995 -0.003124 0.000000 0.000000 0.000000
# 2 -0.003995 0.011819 -0.005238 0.000000 0.000000 0.000000
# 3 -0.003124 -0.005238 0.015668 0.000000 0.000000 0.000000
# 4 0.000000 0.000000 0.000000 0.028995 0.000000 0.000000
# 5 0.000000 0.000000 0.000000 0.000000 0.029529 0.000000
# 6 0.000000 0.000000 0.000000 0.000000 0.000000 0.026711
#
#
# Mechanical properties :
#
#
# Convention : Reuss Voigt Hill
#
# Bulk Modulus (GPa) = 66.14350 68.84784 67.49567
# Shear Modulus (GPa) = 32.29543 32.98308 32.63925
#
# Velocity S-wave (km/s) = 3.99081 4.03308 4.01200
# Velocity P-wave (km/s) = 7.33855 7.45923 7.39914
#
# Compressibility (1/GPa) = 0.01511864
#
# Stress axis : x y z
#
# Youngs Moduli (GPa) = 81.00265 84.60673 63.82395
#
# Poissons Ratio (x) = 0.33802 0.19940
# Poissons Ratio (y) = 0.32362 0.33429
# Poissons Ratio (z) = 0.25307 0.44314
#
# Static dielectric constant tensor:
#      x y z
#    x 3.018230 0.000000 0.000000 
#    y 0.000000 3.702790 0.000000 
#    z 0.000000 0.000000 1.883970 
# 
# 
# High freq. dielectric constant tensor:
#      x y z
#    x 1.801420 0.000000 0.000000 
#    y 0.000000 1.802320 0.000000 
#    z 0.000000 0.000000 1.783760 
# 
# From -- ./inp_files/5686.got.cif
#   From: 2010.03.12/outbox.cif.g09.slc.cpg/sg59_3_cif.got.tgz:5686.got - 2010.04.16 16:29:54.
