data_PCOD8245898
_publ_section_title
;
Structure prediction by ZEFSAII (Michael W. Deem and Ramdas Pophale) SiO2 
 PCOD8245898
Probable space group: P M M N
;
_chemical_formula_sum "Si O2"
_cell_formula_units_Z 48
_cell_length_a 22.676056
_cell_length_b 15.159051
_cell_length_c 7.023591
_cell_angle_alpha 90.000000
_cell_angle_beta 90.000000
_cell_angle_gamma 90.000000
_cell_volume 2414.341773
_symmetry_space_group_name_H-M "P M M N"
_symmetry_group_IT_number 59
_space_group.IT_coordinate_system_code '2'
_symmetry_cell_setting 'orthorhombic'
loop_
_space_group_symop_operation_xyz
x,y,z
1/2-x,1/2-y,z
1/2+x,-y,-z
-x,1/2+y,-z
-x,-y,-z
1/2+x,1/2+y,-z
1/2-x,y,z
x,1/2-y,z
loop_
_atom_site_type_symbol
_atom_site_label
_atom_site_fract_x
_atom_site_fract_y
_atom_site_fract_z
Si Si1 0.616400 0.055829 0.680623
Si Si2 0.404360 0.150552 0.755964
Si Si3 0.681565 0.149377 0.007538
Si Si4 0.508678 0.148177 0.477239
Si Si5 0.318654 0.994892 0.685399
Si Si6 0.961267 0.572424 0.895051
O O1 0.559820 0.091924 0.571370
O O2 0.666255 0.027669 0.531633
O O3 0.596502 0.970756 0.800384
O O4 0.643571 0.128842 0.820317
O O5 0.380257 0.250000 0.733222
O O6 0.447580 0.125752 0.582553
O O7 0.350341 0.083361 0.755536
O O8 0.439802 0.144711 0.953800
O O9 0.750000 0.134707 0.957461
O O10 0.669207 0.250000 0.069940
O O11 0.661937 0.087047 0.181864
O O12 0.525350 0.250000 0.495674
O O13 0.502418 0.121405 0.257611
O O14 0.250000 0.013884 0.702137
O O15 0.000000 0.500000 0.000000
#
# Coordination Sequence:
#
# PCOD8245898 Si02
#       6
#     8   8   8   8   8   8
#     4  12  22  39  64  92 126 163 204 256 317 377
#     4  11  23  42  65  93 128 170 211 258 314 372
#     4  10  23  42  63  90 125 165 212 263 314 375
#     4  11  24  39  61  96 131 163 205 255 316 382
#     4  11  24  43  66  91 123 168 215 263 313 366
#     4  12  22  39  62  91 127 165 205 253 311 377
#
# _framework density 19.881195000000002
#
# number of rings (size 3 to 8) (size 9 to 14) (size 15 to 20)
#    0.000    0.833    5.000    3.000    0.000    1.667 
#    0.000    1.667    0.000    0.000    0.000    0.000 
#    0.000    0.000    0.000    0.000    0.000    0.000 
#
# Total GULP energy -595518.480416 kJ/mol
# GULP energy per Si atom -12406.635009 kJ/mol
# Density = 1.983594 g / cm^3
# Si number density = 19.881195 Si / 1000 Ang^3
#
#
#
# Elastic Constant Matrix: (Units=GPa)
#
#
# Indices 1 2 3 4 5 6 
#
# 1 70.1400 41.5697 31.8085 0.0000 0.0000 0.0000
# 2 41.5697 94.7529 35.6753 0.0000 0.0000 0.0000
# 3 31.8085 35.6753 115.4643 0.0000 0.0000 0.0000
# 4 0.0000 0.0000 0.0000 33.1944 0.0000 0.0000
# 5 0.0000 0.0000 0.0000 0.0000 40.4466 0.0000
# 6 0.0000 0.0000 0.0000 0.0000 0.0000 34.2612
#
#
#
# Elastic Compliance Matrix: (Units=1/GPa)
#
#
# Indices 1 2 3 4 5 6 
#
# 1 0.020266 -0.007683 -0.003209 0.000000 0.000000 0.000000
# 2 -0.007683 0.014856 -0.002474 0.000000 0.000000 0.000000
# 3 -0.003209 -0.002474 0.010309 0.000000 0.000000 0.000000
# 4 0.000000 0.000000 0.000000 0.030126 0.000000 0.000000
# 5 0.000000 0.000000 0.000000 0.000000 0.024724 0.000000
# 6 0.000000 0.000000 0.000000 0.000000 0.000000 0.029188
#
#
# Mechanical properties :
#
#
# Convention : Reuss Voigt Hill
#
# Bulk Modulus (GPa) = 53.47680 55.38492 54.43086
# Shear Modulus (GPa) = 30.78221 33.00069 31.89145
#
# Velocity S-wave (km/s) = 3.93912 4.07860 4.00947
# Velocity P-wave (km/s) = 6.90257 7.07802 6.99085
#
# Compressibility (1/GPa) = 0.01869970
#
# Stress axis : x y z
#
# Youngs Moduli (GPa) = 49.34412 67.31473 97.00261
#
# Poissons Ratio (x) = 0.51716 0.31130
# Poissons Ratio (y) = 0.37910 0.23994
# Poissons Ratio (z) = 0.15835 0.16650
#
# Static dielectric constant tensor:
#      x y z
#    x 3.511240 0.000000 0.000000 
#    y 0.000000 3.609280 0.000000 
#    z 0.000000 0.000000 4.007540 
# 
# 
# High freq. dielectric constant tensor:
#      x y z
#    x 1.769440 0.000000 0.000000 
#    y 0.000000 1.778990 0.000000 
#    z 0.000000 0.000000 1.791500 
# 
# From -- ./inp_files/3805.got.cif
#   From: 2010.03.12/outbox.cif.g09.slc.cpg/sg59_2_cif.got.tgz:3805.got - 2010.04.16 16:29:54.
