data_PCOD8245587
_publ_section_title
;
Structure prediction by ZEFSAII (Michael W. Deem and Ramdas Pophale) SiO2 
 PCOD8245587
Probable space group: P M M N
;
_chemical_formula_sum "Si O2"
_cell_formula_units_Z 56
_cell_length_a 8.197123
_cell_length_b 20.778495
_cell_length_c 15.297052
_cell_angle_alpha 90.000000
_cell_angle_beta 90.000000
_cell_angle_gamma 90.000000
_cell_volume 2605.453238
_symmetry_space_group_name_H-M "P M M N"
_symmetry_group_IT_number 59
_space_group.IT_coordinate_system_code '2'
_symmetry_cell_setting 'orthorhombic'
loop_
_space_group_symop_operation_xyz
x,y,z
1/2-x,1/2-y,z
1/2+x,-y,-z
-x,1/2+y,-z
-x,-y,-z
1/2+x,1/2+y,-z
1/2-x,y,z
x,1/2-y,z
loop_
_atom_site_type_symbol
_atom_site_label
_atom_site_fract_x
_atom_site_fract_y
_atom_site_fract_z
Si Si1 0.437880 0.529255 0.672324
Si Si2 0.056090 0.824343 0.152123
Si Si3 0.943869 0.073979 0.998671
Si Si4 0.928169 0.750000 0.777435
Si Si5 0.939545 0.382340 0.483651
Si Si6 0.070427 0.250000 0.425797
Si Si7 0.562336 0.392871 0.675629
Si Si8 0.059558 0.384034 0.180231
O O1 0.250000 0.510273 0.657276
O O2 0.511516 0.565601 0.585973
O O3 0.544490 0.467660 0.698069
O O4 0.450562 0.572110 0.758143
O O5 0.250000 0.824096 0.154037
O O6 0.994856 0.750000 0.132965
O O7 0.999960 0.879323 0.082078
O O8 0.986736 0.847957 0.247231
O O9 0.750000 0.076956 0.009033
O O10 0.040187 0.101343 0.079864
O O11 0.000000 0.000000 0.000000
O O12 0.750000 0.750000 0.822987
O O13 0.903708 0.750000 0.675466
O O14 0.020619 0.813668 0.807797
O O15 0.750000 0.397708 0.491489
O O16 0.022999 0.385306 0.579993
O O17 0.964789 0.311136 0.450211
O O18 0.250000 0.250000 0.471152
O O19 0.750000 0.373263 0.668152
O O20 0.250000 0.387672 0.208658
#
# Coordination Sequence:
#
# PCOD8245587 Si02
#       8
#     8   8   8   4   8   4   8   8
#     4  11  22  37  57  88 126 157 195 250 305 358
#     4   9  20  39  62  88 117 153 201 252 298 355
#     4  11  23  40  64  94 124 157 200 251 309 367
#     4   9  20  37  57  84 115 154 198 245 301 361
#     4  10  22  37  57  88 121 158 203 251 300 357
#     4  11  21  37  59  84 117 160 202 249 303 361
#     4  10  21  38  63  87 114 159 206 246 299 359
#     4  11  22  39  62  87 119 157 200 243 299 368
#
# _framework density 21.493382
#
# number of rings (size 3 to 8) (size 9 to 14) (size 15 to 20)
#    0.000    1.714    1.429    2.786    2.000    2.286 
#    0.000    1.786    0.000    1.714    0.000    0.000 
#    0.000    0.000    0.000    0.000    0.000    0.000 
#
# Total GULP energy -693798.498281 kJ/mol
# GULP energy per Si atom -12389.258898 kJ/mol
# Density = 2.144446 g / cm^3
# Si number density = 21.493382 Si / 1000 Ang^3
#
#
#
# Elastic Constant Matrix: (Units=GPa)
#
#
# Indices 1 2 3 4 5 6 
#
# 1 25.7189 1.6115 7.1565 0.0000 0.0000 0.0000
# 2 1.6115 164.1973 64.1561 0.0000 0.0000 0.0000
# 3 7.1565 64.1561 146.7554 0.0000 0.0000 0.0000
# 4 0.0000 0.0000 0.0000 22.5662 0.0000 0.0000
# 5 0.0000 0.0000 0.0000 0.0000 18.3610 0.0000
# 6 0.0000 0.0000 0.0000 0.0000 0.0000 23.4163
#
#
#
# Elastic Compliance Matrix: (Units=1/GPa)
#
#
# Indices 1 2 3 4 5 6 
#
# 1 0.039443 0.000439 -0.002116 0.000000 0.000000 0.000000
# 2 0.000439 0.007350 -0.003234 0.000000 0.000000 0.000000
# 3 -0.002116 -0.003234 0.008331 0.000000 0.000000 0.000000
# 4 0.000000 0.000000 0.000000 0.044314 0.000000 0.000000
# 5 0.000000 0.000000 0.000000 0.000000 0.054463 0.000000
# 6 0.000000 0.000000 0.000000 0.000000 0.000000 0.042705
#
#
# Mechanical properties :
#
#
# Convention : Reuss Voigt Hill
#
# Bulk Modulus (GPa) = 22.07364 53.61331 37.84347
# Shear Modulus (GPa) = 22.57045 30.45187 26.51116
#
# Velocity S-wave (km/s) = 3.24406 3.76813 3.51587
# Velocity P-wave (km/s) = 4.93195 6.62797 5.84184
#
# Compressibility (1/GPa) = 0.04530291
#
# Stress axis : x y z
#
# Youngs Moduli (GPa) = 25.35301 136.05986 120.03063
#
# Poissons Ratio (x) = -0.05979 0.25393
# Poissons Ratio (y) = -0.01114 0.38823
# Poissons Ratio (z) = 0.05364 0.44008
#
# Static dielectric constant tensor:
#      x y z
#    x 3.440280 0.000000 0.000000 
#    y 0.000000 4.074120 0.000000 
#    z 0.000000 0.000000 4.175630 
# 
# 
# High freq. dielectric constant tensor:
#      x y z
#    x 1.808910 0.000000 0.000000 
#    y 0.000000 1.858950 0.000000 
#    z 0.000000 0.000000 1.853530 
# 
# From -- ./inp_files/21128.got.cif
#   From: 2010.03.12/outbox.cif.g09.slc.cpg/sg59_11_cif.got.tgz:21128.got - 2010.04.16 16:29:54.
