data_PCOD8245045
_publ_section_title
;
Structure prediction by ZEFSAII (Michael W. Deem and Ramdas Pophale) SiO2 
 PCOD8245045
Probable space group: P M M N
;
_chemical_formula_sum "Si O2"
_cell_formula_units_Z 64
_cell_length_a 30.754858
_cell_length_b 8.916974
_cell_length_c 12.035336
_cell_angle_alpha 90.000000
_cell_angle_beta 90.000000
_cell_angle_gamma 90.000000
_cell_volume 3300.573784
_symmetry_space_group_name_H-M "P M M N"
_symmetry_group_IT_number 59
_space_group.IT_coordinate_system_code '2'
_symmetry_cell_setting 'orthorhombic'
loop_
_space_group_symop_operation_xyz
x,y,z
1/2-x,1/2-y,z
1/2+x,-y,-z
-x,1/2+y,-z
-x,-y,-z
1/2+x,1/2+y,-z
1/2-x,y,z
x,1/2-y,z
loop_
_atom_site_type_symbol
_atom_site_label
_atom_site_fract_x
_atom_site_fract_y
_atom_site_fract_z
Si Si1 0.200072 0.926021 0.524288
Si Si2 0.434803 0.418918 0.761730
Si Si3 0.480641 0.920055 0.106090
Si Si4 0.199196 0.078284 0.752093
Si Si5 0.392202 0.077171 0.130964
Si Si6 0.046790 0.073840 0.516534
Si Si7 0.365191 0.573117 0.910582
Si Si8 0.370423 0.077505 0.379220
O O1 0.250000 0.970009 0.496184
O O2 0.195333 0.750000 0.542075
O O3 0.184075 0.006176 0.636448
O O4 0.169024 0.978912 0.425555
O O5 0.416169 0.250000 0.774668
O O6 0.485126 0.423047 0.794535
O O7 0.432341 0.473873 0.634758
O O8 0.407826 0.527834 0.841260
O O9 0.467373 0.750000 0.074692
O O10 0.439666 0.010514 0.149332
O O11 0.500000 0.000000 0.000000
O O12 0.250000 0.060435 0.769570
O O13 0.184078 0.250000 0.751562
O O14 0.177553 0.992329 0.853800
O O15 0.396492 0.250000 0.095474
O O16 0.367174 0.058533 0.246883
O O17 0.366629 0.989705 0.035297
O O18 0.038452 0.250000 0.512106
O O19 0.082320 0.022855 0.424464
O O20 0.000000 0.000000 0.500000
O O21 0.361940 0.750000 0.915903
O O22 0.363460 0.250000 0.414785
#
# Coordination Sequence:
#
# PCOD8245045 Si02
#       8
#     8   8   8   8   8   8   8   8
#     4  10  21  38  63  95 125 152 190 242 296 352
#     4  10  21  36  56  81 113 149 188 236 289 346
#     4  11  21  34  54  80 111 153 198 244 292 345
#     4  10  21  39  64  90 118 151 184 226 284 349
#     4  11  23  39  57  80 115 157 202 250 293 349
#     4  10  21  37  56  82 114 150 191 238 289 345
#     4  12  24  37  58  86 114 147 189 238 291 346
#     4  10  22  39  60  85 116 159 204 246 297 355
#
# _framework density 19.390567000000001
#
# number of rings (size 3 to 8) (size 9 to 14) (size 15 to 20)
#    0.000    1.500    1.250    4.125    0.000    5.000 
#    0.000    0.625    0.000    0.750    0.000    0.000 
#    0.000    0.000    0.000    0.000    0.000    0.000 
#
# Total GULP energy -793845.471689 kJ/mol
# GULP energy per Si atom -12403.835495 kJ/mol
# Density = 1.934643 g / cm^3
# Si number density = 19.390567 Si / 1000 Ang^3
#
#
#
# Elastic Constant Matrix: (Units=GPa)
#
#
# Indices 1 2 3 4 5 6 
#
# 1 89.2773 49.6589 45.9996 0.0000 0.0000 0.0000
# 2 49.6589 130.4177 60.8522 0.0000 0.0000 0.0000
# 3 45.9996 60.8522 121.6990 0.0000 0.0000 0.0000
# 4 0.0000 0.0000 0.0000 27.1590 0.0000 0.0000
# 5 0.0000 0.0000 0.0000 0.0000 32.5230 0.0000
# 6 0.0000 0.0000 0.0000 0.0000 0.0000 35.2839
#
#
#
# Elastic Compliance Matrix: (Units=1/GPa)
#
#
# Indices 1 2 3 4 5 6 
#
# 1 0.015436 -0.004115 -0.003777 0.000000 0.000000 0.000000
# 2 -0.004115 0.011098 -0.003994 0.000000 0.000000 0.000000
# 3 -0.003777 -0.003994 0.011642 0.000000 0.000000 0.000000
# 4 0.000000 0.000000 0.000000 0.036820 0.000000 0.000000
# 5 0.000000 0.000000 0.000000 0.000000 0.030748 0.000000
# 6 0.000000 0.000000 0.000000 0.000000 0.000000 0.028342
#
#
# Mechanical properties :
#
#
# Convention : Reuss Voigt Hill
#
# Bulk Modulus (GPa) = 69.42541 72.71283 71.06912
# Shear Modulus (GPa) = 30.73932 31.31873 31.02902
#
# Velocity S-wave (km/s) = 3.98587 4.02326 4.00460
# Velocity P-wave (km/s) = 7.55409 7.69172 7.62322
#
# Compressibility (1/GPa) = 0.01440395
#
# Stress axis : x y z
#
# Youngs Moduli (GPa) = 64.78316 90.10499 85.89941
#
# Poissons Ratio (x) = 0.37082 0.32442
# Poissons Ratio (y) = 0.26661 0.34307
# Poissons Ratio (z) = 0.24467 0.35986
#
# Static dielectric constant tensor:
#      x y z
#    x 3.521760 0.000000 0.000000 
#    y 0.000000 4.170010 0.000000 
#    z 0.000000 0.000000 3.564190 
# 
# 
# High freq. dielectric constant tensor:
#      x y z
#    x 1.751540 0.000000 0.000000 
#    y 0.000000 1.761140 0.000000 
#    z 0.000000 0.000000 1.759700 
# 
# From -- ./inp_files/15041.got.cif
#   From: 2010.03.12/outbox.cif.g09.slc.cpg/sg59_8_cif.got.tgz:15041.got - 2010.04.16 16:29:54.
