data_PCOD8245727
_publ_section_title
;
Structure prediction by ZEFSAII (Michael W. Deem and Ramdas Pophale) SiO2 
 PCOD8245727
Probable space group: P M M N
;
_chemical_formula_sum "Si O2"
_cell_formula_units_Z 48
_cell_length_a 28.255231
_cell_length_b 8.765133
_cell_length_c 10.226997
_cell_angle_alpha 90.000000
_cell_angle_beta 90.000000
_cell_angle_gamma 90.000000
_cell_volume 2532.826848
_symmetry_space_group_name_H-M "P M M N"
_symmetry_group_IT_number 59
_space_group.IT_coordinate_system_code '2'
_symmetry_cell_setting 'orthorhombic'
loop_
_space_group_symop_operation_xyz
x,y,z
1/2-x,1/2-y,z
1/2+x,-y,-z
-x,1/2+y,-z
-x,-y,-z
1/2+x,1/2+y,-z
1/2-x,y,z
x,1/2-y,z
loop_
_atom_site_type_symbol
_atom_site_label
_atom_site_fract_x
_atom_site_fract_y
_atom_site_fract_z
Si Si1 0.551686 0.431087 0.016095
Si Si2 0.698349 0.569096 0.649058
Si Si3 0.050510 0.568810 0.471611
Si Si4 0.102453 0.431561 0.227270
Si Si5 0.802795 0.570845 0.355134
Si Si6 0.893868 0.071355 0.271004
O O1 0.547825 0.250000 0.007610
O O2 0.572665 0.487990 0.154379
O O3 0.500000 0.500000 0.000000
O O4 0.587300 0.491916 0.906974
O O5 0.750000 0.512635 0.701120
O O6 0.698237 0.750000 0.640769
O O7 0.656365 0.513582 0.743967
O O8 0.690106 0.505805 0.502364
O O9 0.047703 0.750000 0.453349
O O10 0.068612 0.490052 0.340962
O O11 0.084092 0.520904 0.591221
O O12 0.000000 0.500000 0.500000
O O13 0.098001 0.250000 0.217037
O O14 0.750000 0.528937 0.305236
O O15 0.810569 0.750000 0.353728
O O16 0.841267 0.497511 0.258559
O O17 0.888924 0.250000 0.259346
#
# Coordination Sequence:
#
# PCOD8245727 Si02
#       6
#     8   8   8   8   8   8
#     4  11  24  42  60  81 113 154 196 239 285 342
#     4   8  15  30  54  84 115 146 183 230 280 332
#     4  11  22  36  56  83 112 144 190 243 290 342
#     4  11  21  36  59  86 115 151 190 233 288 343
#     4   9  17  32  57  87 115 146 187 232 279 334
#     4  10  22  38  56  81 114 149 188 233 286 339
#
# _framework density 18.951156999999998
#
# number of rings (size 3 to 8) (size 9 to 14) (size 15 to 20)
#    0.000    2.000    1.667    3.500    0.000    3.667 
#    0.000    0.833    0.000    5.000    0.000    0.000 
#    0.000    0.000    0.000    0.000    0.000    0.000 
#
# Total GULP energy -595145.711301 kJ/mol
# GULP energy per Si atom -12398.868985 kJ/mol
# Density = 1.890802 g / cm^3
# Si number density = 18.951157 Si / 1000 Ang^3
#
#
#
# Elastic Constant Matrix: (Units=GPa)
#
#
# Indices 1 2 3 4 5 6 
#
# 1 143.1548 32.7570 28.0863 0.0000 0.0000 0.0000
# 2 32.7570 41.8025 30.0157 0.0000 0.0000 0.0000
# 3 28.0863 30.0157 64.2828 0.0000 0.0000 0.0000
# 4 0.0000 0.0000 0.0000 27.7946 0.0000 0.0000
# 5 0.0000 0.0000 0.0000 0.0000 35.4540 0.0000
# 6 0.0000 0.0000 0.0000 0.0000 0.0000 31.3034
#
#
#
# Elastic Compliance Matrix: (Units=1/GPa)
#
#
# Indices 1 2 3 4 5 6 
#
# 1 0.008547 -0.006042 -0.000913 0.000000 0.000000 0.000000
# 2 -0.006042 0.040259 -0.016158 0.000000 0.000000 0.000000
# 3 -0.000913 -0.016158 0.023500 0.000000 0.000000 0.000000
# 4 0.000000 0.000000 0.000000 0.035978 0.000000 0.000000
# 5 0.000000 0.000000 0.000000 0.000000 0.028206 0.000000
# 6 0.000000 0.000000 0.000000 0.000000 0.000000 0.031945
#
#
# Mechanical properties :
#
#
# Convention : Reuss Voigt Hill
#
# Bulk Modulus (GPa) = 38.34483 47.88423 43.11453
# Shear Modulus (GPa) = 22.38589 29.46914 25.92751
#
# Velocity S-wave (km/s) = 3.44065 3.94763 3.70283
# Velocity P-wave (km/s) = 6.00512 6.78973 6.40944
#
# Compressibility (1/GPa) = 0.02607913
#
# Stress axis : x y z
#
# Youngs Moduli (GPa) = 116.99817 24.83934 42.55306
#
# Poissons Ratio (x) = 0.15008 0.03886
# Poissons Ratio (y) = 0.70689 0.68758
# Poissons Ratio (z) = 0.10685 0.40136
#
# Static dielectric constant tensor:
#      x y z
#    x 3.914430 0.000000 0.000000 
#    y 0.000000 3.329200 0.000000 
#    z 0.000000 0.000000 3.601650 
# 
# 
# High freq. dielectric constant tensor:
#      x y z
#    x 1.757170 0.000000 0.000000 
#    y 0.000000 1.723810 0.000000 
#    z 0.000000 0.000000 1.721500 
# 
# From -- ./inp_files/12940.got.cif
#   From: 2010.03.12/outbox.cif.g09.slc.cpg/sg59_7_cif.got.tgz:12940.got - 2010.04.16 16:29:54.
