data_PCOD8245792
_publ_section_title
;
Structure prediction by ZEFSAII (Michael W. Deem and Ramdas Pophale) SiO2 
 PCOD8245792
Probable space group: P M M N
;
_chemical_formula_sum "Si O2"
_cell_formula_units_Z 32
_cell_length_a 13.252200
_cell_length_b 8.908554
_cell_length_c 13.250113
_cell_angle_alpha 90.000000
_cell_angle_beta 90.000000
_cell_angle_gamma 90.000000
_cell_volume 1564.281037
_symmetry_space_group_name_H-M "P M M N"
_symmetry_group_IT_number 59
_space_group.IT_coordinate_system_code '2'
_symmetry_cell_setting 'orthorhombic'
loop_
_space_group_symop_operation_xyz
x,y,z
1/2-x,1/2-y,z
1/2+x,-y,-z
-x,1/2+y,-z
-x,-y,-z
1/2+x,1/2+y,-z
1/2-x,y,z
x,1/2-y,z
loop_
_atom_site_type_symbol
_atom_site_label
_atom_site_fract_x
_atom_site_fract_y
_atom_site_fract_z
Si Si1 0.461533 0.429903 0.602811
Si Si2 0.750000 0.587480 0.130083
Si Si3 0.750000 0.072605 0.330493
Si Si4 0.138433 0.923696 0.245928
Si Si5 0.406951 0.082280 0.042575
O O1 0.500000 0.500000 0.500000
O O2 0.454775 0.250000 0.595541
O O3 0.351249 0.497349 0.625250
O O4 0.545440 0.481362 0.685476
O O5 0.750000 0.750000 0.187411
O O6 0.750000 0.453519 0.210540
O O7 0.656785 0.576917 0.057730
O O8 0.750000 0.250000 0.354376
O O9 0.250000 0.951033 0.296607
O O10 0.121292 0.750000 0.224497
O O11 0.142038 0.003507 0.138346
O O12 0.431861 0.250000 0.077469
O O13 0.500000 0.000000 0.000000
#
# Coordination Sequence:
#
# PCOD8245792 Si02
#       5
#     8   4   4   8   8
#     4  11  25  45  70  99 131 171 216 272 334 393
#     4  10  22  40  59  86 127 168 207 256 316 374
#     4  12  26  44  67  96 131 172 223 274 322 390
#     4  10  22  41  65  95 132 170 211 265 326 390
#     4  11  22  37  59  90 127 169 213 259 311 375
#
# _framework density 20.456682000000001
#
# number of rings (size 3 to 8) (size 9 to 14) (size 15 to 20)
#    0.000    1.250    1.250    4.125    1.750   10.000 
#    0.000    0.000    0.000    0.000    0.000    0.000 
#    0.000    0.000    0.000    0.000    0.000    0.000 
#
# Total GULP energy -396523.827785 kJ/mol
# GULP energy per Si atom -12391.369618 kJ/mol
# Density = 2.041012 g / cm^3
# Si number density = 20.456682 Si / 1000 Ang^3
#
#
#
# Elastic Constant Matrix: (Units=GPa)
#
#
# Indices 1 2 3 4 5 6 
#
# 1 179.5684 67.7228 54.4873 0.0000 0.0000 0.0000
# 2 67.7228 98.5434 49.5705 0.0000 0.0000 0.0000
# 3 54.4873 49.5705 111.1785 0.0000 0.0000 0.0000
# 4 0.0000 0.0000 0.0000 39.2092 0.0000 0.0000
# 5 0.0000 0.0000 0.0000 0.0000 -150.0977 0.0000
# 6 0.0000 0.0000 0.0000 0.0000 0.0000 27.3320
#
#
#
# Elastic Compliance Matrix: (Units=1/GPa)
#
#
# Indices 1 2 3 4 5 6 
#
# 1 0.007801 -0.004432 -0.001847 0.000000 0.000000 0.000000
# 2 -0.004432 0.015600 -0.004783 0.000000 0.000000 0.000000
# 3 -0.001847 -0.004783 0.012032 0.000000 0.000000 0.000000
# 4 0.000000 0.000000 0.000000 0.025504 0.000000 0.000000
# 5 0.000000 0.000000 0.000000 0.000000 -0.006662 0.000000
# 6 0.000000 0.000000 0.000000 0.000000 0.000000 0.036587
#
#
# Mechanical properties :
#
#
# Convention : Reuss Voigt Hill
#
# Bulk Modulus (GPa) = 75.14023 81.42793 78.28408
# Shear Modulus (GPa) = 42.58114 -2.21065 20.18525
#
# Velocity S-wave (km/s) = 4.56733 -1.04067 3.14464
# Velocity P-wave (km/s) = 8.03897 6.20060 7.17888
#
# Compressibility (1/GPa) = 0.01330845
#
# Stress axis : x y z
#
# Youngs Moduli (GPa) = 128.19162 64.10363 83.10830
#
# Poissons Ratio (x) = 0.28410 0.15351
# Poissons Ratio (y) = 0.56813 0.39754
# Poissons Ratio (z) = 0.23678 0.30663
#
# Static dielectric constant tensor:
#      x y z
#    x 6.035390 0.000000 0.000000 
#    y 0.000000 3.948550 0.000000 
#    z 0.000000 0.000000 1.858280 
# 
# 
# High freq. dielectric constant tensor:
#      x y z
#    x 1.827940 0.000000 0.000000 
#    y 0.000000 1.805200 0.000000 
#    z 0.000000 0.000000 1.799340 
# 
# From -- ./inp_files/16475.got.cif
#   From: 2010.03.12/outbox.cif.g09.slc.cpg/sg59_9_cif.got.tgz:16475.got - 2010.04.16 16:29:54.
