data_PCOD8245258
_publ_section_title
;
Structure prediction by ZEFSAII (Michael W. Deem and Ramdas Pophale) SiO2 
 PCOD8245258
Probable space group: P M M N
;
_chemical_formula_sum "Si O2"
_cell_formula_units_Z 64
_cell_length_a 29.139287
_cell_length_b 8.663343
_cell_length_c 12.431355
_cell_angle_alpha 90.000000
_cell_angle_beta 90.000000
_cell_angle_gamma 90.000000
_cell_volume 3138.216482
_symmetry_space_group_name_H-M "P M M N"
_symmetry_group_IT_number 59
_space_group.IT_coordinate_system_code '2'
_symmetry_cell_setting 'orthorhombic'
loop_
_space_group_symop_operation_xyz
x,y,z
1/2-x,1/2-y,z
1/2+x,-y,-z
-x,1/2+y,-z
-x,-y,-z
1/2+x,1/2+y,-z
1/2-x,y,z
x,1/2-y,z
loop_
_atom_site_type_symbol
_atom_site_label
_atom_site_fract_x
_atom_site_fract_y
_atom_site_fract_z
Si Si1 0.630715 0.431432 0.876716
Si Si2 0.803213 0.569946 0.046994
Si Si3 0.700162 0.568647 0.286399
Si Si4 0.437742 0.572667 0.484259
Si Si5 0.843823 0.569134 0.500326
Si Si6 0.004345 0.927496 0.680493
Si Si7 0.973854 0.067963 0.896989
Si Si8 0.801215 0.069952 0.693573
O O1 0.626755 0.250000 0.867507
O O2 0.578602 0.498676 0.885617
O O3 0.659344 0.494367 0.774128
O O4 0.660930 0.472498 0.979471
O O5 0.750000 0.520335 0.028178
O O6 0.808657 0.750000 0.020355
O O7 0.819210 0.531657 0.168466
O O8 0.750000 0.490213 0.299066
O O9 0.706196 0.750000 0.300660
O O10 0.667910 0.507598 0.381049
O O11 0.449350 0.750000 0.456637
O O12 0.385350 0.537234 0.462503
O O13 0.450162 0.535285 0.609411
O O14 0.463193 0.463115 0.400550
O O15 0.855849 0.750000 0.501380
O O16 0.803516 0.529867 0.584193
O O17 0.002271 0.750000 0.716090
O O18 0.002314 0.027681 0.789102
O O19 0.972590 0.250000 0.911612
O O20 0.000000 0.000000 0.000000
O O21 0.750000 0.043472 0.742551
O O22 0.808816 0.250000 0.668754
#
# Coordination Sequence:
#
# PCOD8245258 Si02
#       8
#     8   8   8   8   8   8   8   8
#     4  10  22  39  58  81 110 146 188 235 288 342
#     4   9  18  34  57  83 110 143 185 232 282 340
#     4   8  16  32  51  73 105 141 175 218 271 319
#     4  10  21  37  58  84 115 148 182 229 286 342
#     4  11  21  33  54  83 113 147 189 231 272 328
#     4  10  21  39  62  86 111 142 186 235 284 342
#     4  11  24  41  61  85 117 156 196 243 298 353
#     4  10  21  37  57  82 116 155 190 232 291 350
#
# _framework density 20.393749
#
# number of rings (size 3 to 8) (size 9 to 14) (size 15 to 20)
#    0.000    2.125    0.000    3.750    0.000    6.500 
#    0.000    3.750    0.000    1.500    0.000    0.000 
#    0.000    0.000    0.000    0.000    0.000    0.000 
#
# Total GULP energy -793270.185226 kJ/mol
# GULP energy per Si atom -12394.846644 kJ/mol
# Density = 2.034733 g / cm^3
# Si number density = 20.393749 Si / 1000 Ang^3
#
#
#
# Elastic Constant Matrix: (Units=GPa)
#
#
# Indices 1 2 3 4 5 6 
#
# 1 90.0442 19.9790 39.3979 0.0000 0.0000 0.0000
# 2 19.9790 30.2089 23.2801 0.0000 0.0000 0.0000
# 3 39.3979 23.2801 126.6185 0.0000 0.0000 0.0000
# 4 0.0000 0.0000 0.0000 29.5225 0.0000 0.0000
# 5 0.0000 0.0000 0.0000 0.0000 21.8814 0.0000
# 6 0.0000 0.0000 0.0000 0.0000 0.0000 25.7694
#
#
#
# Elastic Compliance Matrix: (Units=1/GPa)
#
#
# Indices 1 2 3 4 5 6 
#
# 1 0.013980 -0.006867 -0.003087 0.000000 0.000000 0.000000
# 2 -0.006867 0.041940 -0.005575 0.000000 0.000000 0.000000
# 3 -0.003087 -0.005575 0.009883 0.000000 0.000000 0.000000
# 4 0.000000 0.000000 0.000000 0.033872 0.000000 0.000000
# 5 0.000000 0.000000 0.000000 0.000000 0.045701 0.000000
# 6 0.000000 0.000000 0.000000 0.000000 0.000000 0.038806
#
#
# Mechanical properties :
#
#
# Convention : Reuss Voigt Hill
#
# Bulk Modulus (GPa) = 28.78004 45.79841 37.28923
# Shear Modulus (GPa) = 22.04374 26.38232 24.21303
#
# Velocity S-wave (km/s) = 3.29128 3.60063 3.44943
# Velocity P-wave (km/s) = 5.34661 6.30808 5.84714
#
# Compressibility (1/GPa) = 0.03474630
#
# Stress axis : x y z
#
# Youngs Moduli (GPa) = 71.53026 23.84356 101.18014
#
# Poissons Ratio (x) = 0.16372 0.31239
# Poissons Ratio (y) = 0.49117 0.56403
# Poissons Ratio (z) = 0.22085 0.13292
#
# Static dielectric constant tensor:
#      x y z
#    x 3.928840 0.000000 0.000000 
#    y 0.000000 3.411870 0.000000 
#    z 0.000000 0.000000 3.873910 
# 
# 
# High freq. dielectric constant tensor:
#      x y z
#    x 1.795620 0.000000 0.000000 
#    y 0.000000 1.777700 0.000000 
#    z 0.000000 0.000000 1.806270 
# 
# From -- ./inp_files/19337.got.cif
#   From: 2010.03.12/outbox.cif.g09.slc.cpg/sg59_10_cif.got.tgz:19337.got - 2010.04.16 16:29:54.
