data_PCOD8245034
_publ_section_title
;
Structure prediction by ZEFSAII (Michael W. Deem and Ramdas Pophale) SiO2 
 PCOD8245034
Probable space group: P M M N
;
_chemical_formula_sum "Si O2"
_cell_formula_units_Z 64
_cell_length_a 23.421369
_cell_length_b 8.778383
_cell_length_c 15.138958
_cell_angle_alpha 90.000000
_cell_angle_beta 90.000000
_cell_angle_gamma 90.000000
_cell_volume 3112.596220
_symmetry_space_group_name_H-M "P M M N"
_symmetry_group_IT_number 59
_space_group.IT_coordinate_system_code '2'
_symmetry_cell_setting 'orthorhombic'
loop_
_space_group_symop_operation_xyz
x,y,z
1/2-x,1/2-y,z
1/2+x,-y,-z
-x,1/2+y,-z
-x,-y,-z
1/2+x,1/2+y,-z
1/2-x,y,z
x,1/2-y,z
loop_
_atom_site_type_symbol
_atom_site_label
_atom_site_fract_x
_atom_site_fract_y
_atom_site_fract_z
Si Si1 0.995027 0.070385 0.722662
Si Si2 0.813235 0.930774 0.799902
Si Si3 0.359005 0.579990 0.853201
Si Si4 0.624106 0.573104 0.320801
Si Si5 0.683511 0.070818 0.484985
Si Si6 0.184758 0.085058 0.011491
Si Si7 0.511403 0.423085 0.094233
Si Si8 0.611420 0.569006 0.641226
O O1 0.988401 0.250000 0.728876
O O2 0.057583 0.025333 0.685633
O O3 0.951600 0.002478 0.650135
O O4 0.982461 0.003983 0.820855
O O5 0.750000 0.001832 0.786713
O O6 0.810208 0.750000 0.791011
O O7 0.853327 0.997261 0.723922
O O8 0.841507 0.974643 0.895307
O O9 0.344603 0.750000 0.820577
O O10 0.347760 0.462812 0.773989
O O11 0.318513 0.536689 0.934115
O O12 0.421634 0.567916 0.892183
O O13 0.631843 0.750000 0.344045
O O14 0.658123 0.471019 0.389991
O O15 0.750000 0.019265 0.492026
O O16 0.678099 0.250000 0.500472
O O17 0.644019 0.982579 0.553901
O O18 0.250000 0.112694 0.036290
O O19 0.157530 0.250000 0.984165
O O20 0.488788 0.250000 0.091237
O O21 0.500000 0.500000 0.000000
O O22 0.605618 0.750000 0.639769
#
# Coordination Sequence:
#
# PCOD8245034 Si02
#       8
#     8   8   8   8   8   8   8   8
#     4  10  22  40  60  88 124 160 201 250 306 362
#     4   8  16  32  53  79 112 150 194 244 292 343
#     4  10  21  36  55  82 115 150 190 242 297 348
#     4  10  22  42  66  88 115 156 202 249 301 361
#     4  11  25  44  66  93 123 156 195 248 312 367
#     4   9  18  33  53  78 110 151 197 240 286 346
#     4  10  21  36  55  82 116 157 202 246 293 349
#     4  11  22  37  62  93 122 159 203 249 299 363
#
# _framework density 20.561613999999999
#
# number of rings (size 3 to 8) (size 9 to 14) (size 15 to 20)
#    0.000    2.125    0.000    3.375    1.750    5.750 
#    0.000    0.625    0.000    1.500    0.000    0.000 
#    0.000    0.000    0.000    0.000    0.000    0.000 
#
# Total GULP energy -793393.336496 kJ/mol
# GULP energy per Si atom -12396.770883 kJ/mol
# Density = 2.051481 g / cm^3
# Si number density = 20.561614 Si / 1000 Ang^3
#
#
#
# Elastic Constant Matrix: (Units=GPa)
#
#
# Indices 1 2 3 4 5 6 
#
# 1 52.4446 26.8371 30.5640 0.0000 0.0000 0.0000
# 2 26.8371 78.9500 27.1875 0.0000 0.0000 0.0000
# 3 30.5640 27.1875 104.8373 0.0000 0.0000 0.0000
# 4 0.0000 0.0000 0.0000 35.8129 0.0000 0.0000
# 5 0.0000 0.0000 0.0000 0.0000 34.7717 0.0000
# 6 0.0000 0.0000 0.0000 0.0000 0.0000 26.1187
#
#
#
# Elastic Compliance Matrix: (Units=1/GPa)
#
#
# Indices 1 2 3 4 5 6 
#
# 1 0.025934 -0.006821 -0.005792 0.000000 0.000000 0.000000
# 2 -0.006821 0.015702 -0.002084 0.000000 0.000000 0.000000
# 3 -0.005792 -0.002084 0.011767 0.000000 0.000000 0.000000
# 4 0.000000 0.000000 0.000000 0.027923 0.000000 0.000000
# 5 0.000000 0.000000 0.000000 0.000000 0.028759 0.000000
# 6 0.000000 0.000000 0.000000 0.000000 0.000000 0.038287
#
#
# Mechanical properties :
#
#
# Convention : Reuss Voigt Hill
#
# Bulk Modulus (GPa) = 41.64785 45.04547 43.34666
# Shear Modulus (GPa) = 26.91530 29.45022 28.18276
#
# Velocity S-wave (km/s) = 3.62195 3.78867 3.70624
# Velocity P-wave (km/s) = 6.14739 6.41044 6.28030
#
# Compressibility (1/GPa) = 0.02401084
#
# Stress axis : x y z
#
# Youngs Moduli (GPa) = 38.56014 63.68470 84.98047
#
# Poissons Ratio (x) = 0.43439 0.49218
# Poissons Ratio (y) = 0.26302 0.17706
# Poissons Ratio (z) = 0.22333 0.13269
#
# Static dielectric constant tensor:
#      x y z
#    x 3.770220 0.000000 0.000000 
#    y 0.000000 3.617440 0.000000 
#    z 0.000000 0.000000 3.785660 
# 
# 
# High freq. dielectric constant tensor:
#      x y z
#    x 1.800030 0.000000 0.000000 
#    y 0.000000 1.795320 0.000000 
#    z 0.000000 0.000000 1.811720 
# 
# From -- ./inp_files/24746.got.cif
#   From: 2010.03.12/outbox.cif.g09.slc.cpg/sg59_13_cif.got.tgz:24746.got - 2010.04.16 16:29:54.
