data_PCOD8245761
_publ_section_title
;
Structure prediction by ZEFSAII (Michael W. Deem and Ramdas Pophale) SiO2 
 PCOD8245761
Probable space group: P M M N
;
_chemical_formula_sum "Si O2"
_cell_formula_units_Z 48
_cell_length_a 28.566189
_cell_length_b 8.751497
_cell_length_c 9.979429
_cell_angle_alpha 90.000000
_cell_angle_beta 90.000000
_cell_angle_gamma 90.000000
_cell_volume 2494.826487
_symmetry_space_group_name_H-M "P M M N"
_symmetry_group_IT_number 59
_space_group.IT_coordinate_system_code '2'
_symmetry_cell_setting 'orthorhombic'
loop_
_space_group_symop_operation_xyz
x,y,z
1/2-x,1/2-y,z
1/2+x,-y,-z
-x,1/2+y,-z
-x,-y,-z
1/2+x,1/2+y,-z
1/2-x,y,z
x,1/2-y,z
loop_
_atom_site_type_symbol
_atom_site_label
_atom_site_fract_x
_atom_site_fract_y
_atom_site_fract_z
Si Si1 0.303053 0.569652 0.505270
Si Si2 0.623337 0.928507 0.988497
Si Si3 0.302585 0.073144 0.231593
Si Si4 0.017702 0.930339 0.636667
Si Si5 0.878003 0.430809 0.276677
Si Si6 0.468682 0.569989 0.114464
O O1 0.250000 0.507499 0.531208
O O2 0.303114 0.750000 0.504030
O O3 0.322581 0.513948 0.361792
O O4 0.338230 0.511429 0.620385
O O5 0.609555 0.750000 0.986056
O O6 0.669622 0.963699 0.903509
O O7 0.584391 0.030030 0.917208
O O8 0.631859 0.981075 0.139597
O O9 0.250000 0.017879 0.202747
O O10 0.305188 0.250000 0.268032
O O11 0.012534 0.750000 0.632458
O O12 0.071227 0.977978 0.666316
O O13 0.000000 0.000000 0.500000
O O14 0.982922 0.996853 0.746232
O O15 0.875487 0.250000 0.250751
O O16 0.475942 0.750000 0.119699
O O17 0.500000 0.500000 0.000000
#
# Coordination Sequence:
#
# PCOD8245761 Si02
#       6
#     8   8   8   8   8   8
#     4   9  19  37  60  86 116 151 193 240 293 351
#     4  11  23  38  60  89 118 156 199 240 292 353
#     4   9  20  39  60  86 119 152 192 241 290 346
#     4  11  24  41  60  87 121 158 199 244 292 350
#     4  10  22  39  58  84 118 155 194 242 293 346
#     4  12  24  41  63  87 119 157 197 244 295 350
#
# _framework density 19.239816000000001
#
# number of rings (size 3 to 8) (size 9 to 14) (size 15 to 20)
#    0.000    1.667    1.667    2.500    2.333    3.333 
#    0.000    0.000    0.000    0.000    0.000    0.000 
#    0.000    0.000    0.000    0.000    0.000    0.000 
#
# Total GULP energy -595316.120192 kJ/mol
# GULP energy per Si atom -12402.419171 kJ/mol
# Density = 1.919603 g / cm^3
# Si number density = 19.239816 Si / 1000 Ang^3
#
#
#
# Elastic Constant Matrix: (Units=GPa)
#
#
# Indices 1 2 3 4 5 6 
#
# 1 102.7370 31.5691 79.1752 0.0000 0.0000 0.0000
# 2 31.5691 52.2627 49.1610 0.0000 0.0000 0.0000
# 3 79.1752 49.1610 185.2322 0.0000 0.0000 0.0000
# 4 0.0000 0.0000 0.0000 40.1675 0.0000 0.0000
# 5 0.0000 0.0000 0.0000 0.0000 41.2339 0.0000
# 6 0.0000 0.0000 0.0000 0.0000 0.0000 24.4076
#
#
#
# Elastic Compliance Matrix: (Units=1/GPa)
#
#
# Indices 1 2 3 4 5 6 
#
# 1 0.015139 -0.004075 -0.005390 0.000000 0.000000 0.000000
# 2 -0.004075 0.026597 -0.005317 0.000000 0.000000 0.000000
# 3 -0.005390 -0.005317 0.009114 0.000000 0.000000 0.000000
# 4 0.000000 0.000000 0.000000 0.024896 0.000000 0.000000
# 5 0.000000 0.000000 0.000000 0.000000 0.024252 0.000000
# 6 0.000000 0.000000 0.000000 0.000000 0.000000 0.040971
#
#
# Mechanical properties :
#
#
# Convention : Reuss Voigt Hill
#
# Bulk Modulus (GPa) = 46.97824 73.33806 60.15815
# Shear Modulus (GPa) = 28.14878 33.18357 30.66618
#
# Velocity S-wave (km/s) = 3.82913 4.15750 3.99669
# Velocity P-wave (km/s) = 6.63475 7.82605 7.25489
#
# Compressibility (1/GPa) = 0.02128645
#
# Stress axis : x y z
#
# Youngs Moduli (GPa) = 66.05320 37.59790 109.72729
#
# Poissons Ratio (x) = 0.15322 0.59138
# Poissons Ratio (y) = 0.26918 0.58343
# Poissons Ratio (z) = 0.35600 0.19991
#
# Static dielectric constant tensor:
#      x y z
#    x 3.773940 0.000000 0.000000 
#    y 0.000000 3.516000 0.000000 
#    z 0.000000 0.000000 3.656630 
# 
# 
# High freq. dielectric constant tensor:
#      x y z
#    x 1.755140 0.000000 0.000000 
#    y 0.000000 1.750340 0.000000 
#    z 0.000000 0.000000 1.760270 
# 
# From -- ./inp_files/6277.got.cif
#   From: 2010.03.12/outbox.cif.g09.slc.cpg/sg59_4_cif.got.tgz:6277.got - 2010.04.16 16:29:54.
