data_PCOD8245895
_publ_section_title
;
Structure prediction by ZEFSAII (Michael W. Deem and Ramdas Pophale) SiO2 
 PCOD8245895
Probable space group: P M M N
;
_chemical_formula_sum "Si O2"
_cell_formula_units_Z 48
_cell_length_a 28.944216
_cell_length_b 7.628633
_cell_length_c 10.311452
_cell_angle_alpha 90.000000
_cell_angle_beta 90.000000
_cell_angle_gamma 90.000000
_cell_volume 2276.818110
_symmetry_space_group_name_H-M "P M M N"
_symmetry_group_IT_number 59
_space_group.IT_coordinate_system_code '2'
_symmetry_cell_setting 'orthorhombic'
loop_
_space_group_symop_operation_xyz
x,y,z
1/2-x,1/2-y,z
1/2+x,-y,-z
-x,1/2+y,-z
-x,-y,-z
1/2+x,1/2+y,-z
1/2-x,y,z
x,1/2-y,z
loop_
_atom_site_type_symbol
_atom_site_label
_atom_site_fract_x
_atom_site_fract_y
_atom_site_fract_z
Si Si1 0.304917 0.250000 0.239087
Si Si2 0.388468 0.548783 0.880187
Si Si3 0.195517 0.250000 0.530071
Si Si4 0.048236 0.549274 0.658364
Si Si5 0.870854 0.041835 0.837235
Si Si6 0.552849 0.043144 0.629431
Si Si7 0.802550 0.448811 0.282786
O O1 0.250000 0.250000 0.224576
O O2 0.323719 0.250000 0.385973
O O3 0.324163 0.429001 0.175785
O O4 0.402560 0.750000 0.881348
O O5 0.422195 0.455589 0.773996
O O6 0.334765 0.521055 0.841846
O O7 0.394559 0.480698 0.027082
O O8 0.250000 0.250000 0.523589
O O9 0.179010 0.425891 0.603121
O O10 0.063859 0.750000 0.651726
O O11 0.059728 0.465267 0.516498
O O12 0.994114 0.533391 0.690406
O O13 0.858914 0.250000 0.836825
O O14 0.905103 0.987843 0.721370
O O15 0.547184 0.250000 0.623340
O O16 0.750000 0.493483 0.241204
O O17 0.806679 0.250000 0.335149
#
# Coordination Sequence:
#
# PCOD8245895 Si02
#       7
#     4   8   4   8   8   8   8
#     4  11  26  43  61  93 125 159 211 255 304 378
#     4   9  19  36  57  87 118 155 207 248 299 363
#     4   9  20  37  55  85 117 147 195 247 299 354
#     4   9  18  34  58  85 118 157 201 256 302 361
#     4  10  23  42  63  87 123 165 202 252 307 364
#     4   9  19  36  56  87 121 156 204 246 305 369
#     4   9  18  34  57  83 115 152 193 245 299 354
#
# _framework density 21.082052000000001
#
# number of rings (size 3 to 8) (size 9 to 14) (size 15 to 20)
#    0.000    2.667    0.000    0.000    3.500    3.000 
#    3.000    4.167    0.000    0.000    0.000    0.000 
#    0.000    0.000    0.000    0.000    0.000    0.000 
#
# Total GULP energy -594886.619262 kJ/mol
# GULP energy per Si atom -12393.471235 kJ/mol
# Density = 2.103407 g / cm^3
# Si number density = 21.082052 Si / 1000 Ang^3
#
#
#
# Elastic Constant Matrix: (Units=GPa)
#
#
# Indices 1 2 3 4 5 6 
#
# 1 113.2151 30.1919 67.4328 0.0000 0.0000 0.0000
# 2 30.1919 66.9348 37.1074 0.0000 0.0000 0.0000
# 3 67.4328 37.1074 143.7409 0.0000 0.0000 0.0000
# 4 0.0000 0.0000 0.0000 16.3056 0.0000 0.0000
# 5 0.0000 0.0000 0.0000 0.0000 27.8111 0.0000
# 6 0.0000 0.0000 0.0000 0.0000 0.0000 25.0542
#
#
#
# Elastic Compliance Matrix: (Units=1/GPa)
#
#
# Indices 1 2 3 4 5 6 
#
# 1 0.012701 -0.002831 -0.005228 0.000000 0.000000 0.000000
# 2 -0.002831 0.018066 -0.003336 0.000000 0.000000 0.000000
# 3 -0.005228 -0.003336 0.010271 0.000000 0.000000 0.000000
# 4 0.000000 0.000000 0.000000 0.061328 0.000000 0.000000
# 5 0.000000 0.000000 0.000000 0.000000 0.035957 0.000000
# 6 0.000000 0.000000 0.000000 0.000000 0.000000 0.039913
#
#
# Mechanical properties :
#
#
# Convention : Reuss Voigt Hill
#
# Bulk Modulus (GPa) = 54.79709 65.92832 60.36271
# Shear Modulus (GPa) = 24.14187 26.44477 25.29332
#
# Velocity S-wave (km/s) = 3.38766 3.54556 3.46751
# Velocity P-wave (km/s) = 6.43043 6.93552 6.68774
#
# Compressibility (1/GPa) = 0.01824914
#
# Stress axis : x y z
#
# Youngs Moduli (GPa) = 78.73115 55.35215 97.36536
#
# Poissons Ratio (x) = 0.15670 0.50900
# Poissons Ratio (y) = 0.22289 0.32479
# Poissons Ratio (z) = 0.41159 0.18464
#
# Static dielectric constant tensor:
#      x y z
#    x 3.670280 0.000000 0.000000 
#    y 0.000000 3.740650 0.000000 
#    z 0.000000 0.000000 4.199640 
# 
# 
# High freq. dielectric constant tensor:
#      x y z
#    x 1.817730 0.000000 0.000000 
#    y 0.000000 1.813580 0.000000 
#    z 0.000000 0.000000 1.826380 
# 
# From -- ./inp_files/12987.got.cif
#   From: 2010.03.12/outbox.cif.g09.slc.cpg/sg59_7_cif.got.tgz:12987.got - 2010.04.16 16:29:54.
