data_PCOD8245632
_publ_section_title
;
Structure prediction by ZEFSAII (Michael W. Deem and Ramdas Pophale) SiO2 
 PCOD8245632
Probable space group: P M M N
;
_chemical_formula_sum "Si O2"
_cell_formula_units_Z 40
_cell_length_a 8.956824
_cell_length_b 22.505696
_cell_length_c 9.718255
_cell_angle_alpha 90.000000
_cell_angle_beta 90.000000
_cell_angle_gamma 90.000000
_cell_volume 1959.001548
_symmetry_space_group_name_H-M "P M M N"
_symmetry_group_IT_number 59
_space_group.IT_coordinate_system_code '2'
_symmetry_cell_setting 'orthorhombic'
loop_
_space_group_symop_operation_xyz
x,y,z
1/2-x,1/2-y,z
1/2+x,-y,-z
-x,1/2+y,-z
-x,-y,-z
1/2+x,1/2+y,-z
1/2-x,y,z
x,1/2-y,z
loop_
_atom_site_type_symbol
_atom_site_label
_atom_site_fract_x
_atom_site_fract_y
_atom_site_fract_z
Si Si1 0.072454 0.250000 0.649725
Si Si2 0.920046 0.057839 0.447697
Si Si3 0.577745 0.368900 0.714422
Si Si4 0.076482 0.440281 0.947672
Si Si5 0.422019 0.373326 0.219571
Si Si6 0.572999 0.750000 0.665560
O O1 0.250000 0.250000 0.660199
O O2 0.015733 0.250000 0.491729
O O3 0.009156 0.192971 0.729599
O O4 0.750000 0.041071 0.420891
O O5 0.937676 0.110686 0.557062
O O6 0.990144 0.077079 0.303894
O O7 0.000000 0.000000 0.500000
O O8 0.750000 0.360775 0.757111
O O9 0.503336 0.418987 0.809262
O O10 0.250000 0.453147 0.918205
O O11 0.057437 0.387586 0.059119
O O12 0.000000 0.500000 0.000000
O O13 0.250000 0.377230 0.264971
O O14 0.487489 0.307937 0.253631
O O15 0.750000 0.750000 0.667585
#
# Coordination Sequence:
#
# PCOD8245632 Si02
#       6
#     4   8   8   8   8   4
#     4  11  21  38  67  94 120 160 203 251 308 367
#     4  11  23  37  58  87 118 157 204 253 303 362
#     4  11  24  41  61  89 127 164 202 253 308 365
#     4  11  24  41  63  90 125 166 210 257 310 371
#     4  10  21  39  62  89 119 155 199 253 307 361
#     4   9  18  36  63  90 118 150 193 249 304 359
#
# _framework density 20.418562999999999
#
# number of rings (size 3 to 8) (size 9 to 14) (size 15 to 20)
#    0.000    1.400    2.000    3.300    0.000    9.600 
#    0.000    2.500    0.000    0.000    0.000    0.000 
#    0.000    0.000    0.000    0.000    0.000    0.000 
#
# Total GULP energy -496218.171110 kJ/mol
# GULP energy per Si atom -12405.454278 kJ/mol
# Density = 2.037209 g / cm^3
# Si number density = 20.418563 Si / 1000 Ang^3
#
#
#
# Elastic Constant Matrix: (Units=GPa)
#
#
# Indices 1 2 3 4 5 6 
#
# 1 119.9513 34.0785 26.8108 0.0000 0.0000 0.0000
# 2 34.0785 96.9488 0.4713 0.0000 0.0000 0.0000
# 3 26.8108 0.4713 57.9821 0.0000 0.0000 0.0000
# 4 0.0000 0.0000 0.0000 39.6503 0.0000 0.0000
# 5 0.0000 0.0000 0.0000 0.0000 31.4348 0.0000
# 6 0.0000 0.0000 0.0000 0.0000 0.0000 36.6535
#
#
#
# Elastic Compliance Matrix: (Units=1/GPa)
#
#
# Indices 1 2 3 4 5 6 
#
# 1 0.010446 -0.003649 -0.004801 0.000000 0.000000 0.000000
# 2 -0.003649 0.011590 0.001593 0.000000 0.000000 0.000000
# 3 -0.004801 0.001593 0.019454 0.000000 0.000000 0.000000
# 4 0.000000 0.000000 0.000000 0.025220 0.000000 0.000000
# 5 0.000000 0.000000 0.000000 0.000000 0.031812 0.000000
# 6 0.000000 0.000000 0.000000 0.000000 0.000000 0.027283
#
#
# Mechanical properties :
#
#
# Convention : Reuss Voigt Hill
#
# Bulk Modulus (GPa) = 36.00156 44.17816 40.08986
# Shear Modulus (GPa) = 33.60755 35.78249 34.69502
#
# Velocity S-wave (km/s) = 4.06141 4.19077 4.12660
# Velocity P-wave (km/s) = 6.29789 6.71565 6.51012
#
# Compressibility (1/GPa) = 0.02777657
#
# Stress axis : x y z
#
# Youngs Moduli (GPa) = 95.72732 86.28492 51.40434
#
# Poissons Ratio (x) = 0.31482 0.24678
# Poissons Ratio (y) = 0.34928 -0.08188
# Poissons Ratio (z) = 0.45956 -0.13744
#
# Static dielectric constant tensor:
#      x y z
#    x 3.692760 0.000000 0.000000 
#    y 0.000000 3.742310 0.000000 
#    z 0.000000 0.000000 3.646800 
# 
# 
# High freq. dielectric constant tensor:
#      x y z
#    x 1.796390 0.000000 0.000000 
#    y 0.000000 1.810140 0.000000 
#    z 0.000000 0.000000 1.795230 
# 
# From -- ./inp_files/5902.got.cif
#   From: 2010.03.12/outbox.cif.g09.slc.cpg/sg59_3_cif.got.tgz:5902.got - 2010.04.16 16:29:54.
