data_PCOD8245526
_publ_section_title
;
Structure prediction by ZEFSAII (Michael W. Deem and Ramdas Pophale) SiO2 
 PCOD8245526
Probable space group: P M M N
;
_chemical_formula_sum "Si O2"
_cell_formula_units_Z 48
_cell_length_a 18.576426
_cell_length_b 8.941778
_cell_length_c 15.109514
_cell_angle_alpha 90.000000
_cell_angle_beta 90.000000
_cell_angle_gamma 90.000000
_cell_volume 2509.785123
_symmetry_space_group_name_H-M "P M M N"
_symmetry_group_IT_number 59
_space_group.IT_coordinate_system_code '2'
_symmetry_cell_setting 'orthorhombic'
loop_
_space_group_symop_operation_xyz
x,y,z
1/2-x,1/2-y,z
1/2+x,-y,-z
-x,1/2+y,-z
-x,-y,-z
1/2+x,1/2+y,-z
1/2-x,y,z
x,1/2-y,z
loop_
_atom_site_type_symbol
_atom_site_label
_atom_site_fract_x
_atom_site_fract_y
_atom_site_fract_z
Si Si1 0.665446 0.577715 0.096198
Si Si2 0.420235 0.926331 0.747806
Si Si3 0.667541 0.578068 0.400493
Si Si4 0.332769 0.078472 0.394808
Si Si5 0.574082 0.425396 0.748445
Si Si6 0.332632 0.576522 0.083177
O O1 0.750000 0.553379 0.109313
O O2 0.643235 0.750000 0.104161
O O3 0.625988 0.485444 0.171042
O O4 0.640654 0.518538 0.000590
O O5 0.423157 0.750000 0.752472
O O6 0.384635 0.973886 0.655567
O O7 0.500007 0.988263 0.753662
O O8 0.750000 0.532732 0.381876
O O9 0.655337 0.750000 0.372742
O O10 0.648245 0.554023 0.502741
O O11 0.250000 0.036138 0.376741
O O12 0.347195 0.250000 0.367679
O O13 0.383197 0.969313 0.339607
O O14 0.558814 0.250000 0.746289
O O15 0.620619 0.473074 0.833249
O O16 0.250000 0.540044 0.106216
O O17 0.343089 0.750000 0.060133
#
# Coordination Sequence:
#
# PCOD8245526 Si02
#       6
#     8   8   8   8   8   8
#     4  10  21  38  61  86 111 143 183 227 277 333
#     4  12  25  38  55  81 114 151 188 230 280 332
#     4   9  19  38  62  85 111 145 185 230 279 331
#     4   9  19  37  61  87 114 145 183 229 279 331
#     4  11  23  38  57  82 115 153 189 229 277 329
#     4   9  19  37  60  85 111 141 182 230 276 324
#
# _framework density 19.125142
#
# number of rings (size 3 to 8) (size 9 to 14) (size 15 to 20)
#    0.000    2.000    0.000    4.500    0.000    7.667 
#    0.000    3.333    0.000    0.000    0.000    0.000 
#    0.000    0.000    0.000    0.000    0.000    0.000 
#
# Total GULP energy -595420.844670 kJ/mol
# GULP energy per Si atom -12404.600931 kJ/mol
# Density = 1.908161 g / cm^3
# Si number density = 19.125142 Si / 1000 Ang^3
#
#
#
# Elastic Constant Matrix: (Units=GPa)
#
#
# Indices 1 2 3 4 5 6 
#
# 1 67.3665 51.8145 51.8704 0.0000 0.0000 0.0000
# 2 51.8145 116.2426 63.0358 0.0000 0.0000 0.0000
# 3 51.8704 63.0358 111.0566 0.0000 0.0000 0.0000
# 4 0.0000 0.0000 0.0000 37.8126 0.0000 0.0000
# 5 0.0000 0.0000 0.0000 0.0000 -2.8805 0.0000
# 6 0.0000 0.0000 0.0000 0.0000 0.0000-2798.7895
#
#
#
# Elastic Compliance Matrix: (Units=1/GPa)
#
#
# Indices 1 2 3 4 5 6 
#
# 1 0.027086 -0.007531 -0.008376 0.000000 0.000000 0.000000
# 2 -0.007531 0.014522 -0.004725 0.000000 0.000000 0.000000
# 3 -0.008376 -0.004725 0.015599 0.000000 0.000000 0.000000
# 4 0.000000 0.000000 0.000000 0.026446 0.000000 0.000000
# 5 0.000000 0.000000 0.000000 0.000000 -0.347168 0.000000
# 6 0.000000 0.000000 0.000000 0.000000 0.000000 -0.000357
#
#
# Mechanical properties :
#
#
# Convention : Reuss Voigt Hill
#
# Bulk Modulus (GPa) = 62.72878 69.78967 66.25922
# Shear Modulus (GPa) = -23.01047 -544.24181 -283.62614
#
# Velocity S-wave (km/s) = -3.47241 -16.88747 -12.19107
# Velocity P-wave (km/s) = 4.09798 18.53857 12.78446
#
# Compressibility (1/GPa) = 0.01594165
#
# Stress axis : x y z
#
# Youngs Moduli (GPa) = 36.91899 68.86056 64.10814
#
# Poissons Ratio (x) = 0.51861 0.53698
# Poissons Ratio (y) = 0.27805 0.30292
# Poissons Ratio (z) = 0.30924 0.32538
#
# Static dielectric constant tensor:
#      x y z
#    x 3.461020 0.000000 0.000000 
#    y 0.000000 3.509960 0.000000 
#    z 0.000000 0.000000 3.576460 
# 
# 
# High freq. dielectric constant tensor:
#      x y z
#    x 1.743310 0.000000 0.000000 
#    y 0.000000 1.745890 0.000000 
#    z 0.000000 0.000000 1.756200 
# 
# From -- ./inp_files/20307.got.cif
#   From: 2010.03.12/outbox.cif.g09.slc.cpg/sg59_11_cif.got.tgz:20307.got - 2010.04.16 16:29:54.
