data_PCOD8245266
_publ_section_title
;
Structure prediction by ZEFSAII (Michael W. Deem and Ramdas Pophale) SiO2 
 PCOD8245266
Probable space group: P M M N
;
_chemical_formula_sum "Si O2"
_cell_formula_units_Z 40
_cell_length_a 8.875496
_cell_length_b 9.947563
_cell_length_c 23.700458
_cell_angle_alpha 90.000000
_cell_angle_beta 90.000000
_cell_angle_gamma 90.000000
_cell_volume 2092.502905
_symmetry_space_group_name_H-M "P M M N"
_symmetry_group_IT_number 59
_space_group.IT_coordinate_system_code '2'
_symmetry_cell_setting 'orthorhombic'
loop_
_space_group_symop_operation_xyz
x,y,z
1/2-x,1/2-y,z
1/2+x,-y,-z
-x,1/2+y,-z
-x,-y,-z
1/2+x,1/2+y,-z
1/2-x,y,z
x,1/2-y,z
loop_
_atom_site_type_symbol
_atom_site_label
_atom_site_fract_x
_atom_site_fract_y
_atom_site_fract_z
Si Si1 0.422581 0.402756 0.237877
Si Si2 0.571362 0.250000 0.916652
Si Si3 0.572823 0.903457 0.454589
Si Si4 0.071408 0.750000 0.956305
Si Si5 0.075122 0.595984 0.337936
Si Si6 0.072225 0.516371 0.875299
O O1 0.250000 0.436070 0.220946
O O2 0.436900 0.250000 0.259660
O O3 0.478956 0.501520 0.287056
O O4 0.530702 0.421886 0.184792
O O5 0.750000 0.250000 0.917166
O O6 0.513340 0.377557 0.882864
O O7 0.505590 0.250000 0.980412
O O8 0.750000 0.920436 0.457472
O O9 0.523331 0.750000 0.467160
O O10 0.517997 0.946765 0.392781
O O11 0.500000 0.000000 0.500000
O O12 0.250000 0.750000 0.956820
O O13 0.014004 0.617493 0.923933
O O14 0.250000 0.572962 0.351633
O O15 0.042232 0.750000 0.320646
O O16 0.250000 0.493271 0.878739
#
# Coordination Sequence:
#
# PCOD8245266 Si02
#       6
#     8   4   8   4   8   8
#     4  10  21  37  57  83 114 151 193 235 284 343
#     4  11  23  39  59  85 113 149 192 235 284 347
#     4  10  21  37  58  86 119 155 195 238 285 337
#     4   9  20  39  61  83 115 149 186 235 288 343
#     4   9  19  36  57  81 113 153 194 237 282 332
#     4  11  22  39  59  85 116 149 188 237 291 343
#
# _framework density 19.115864999999999
#
# number of rings (size 3 to 8) (size 9 to 14) (size 15 to 20)
#    0.000    2.000    1.000    2.100    1.400    2.800 
#    0.000    5.000    0.000    0.000    0.000    0.000 
#    0.000    0.000    0.000    0.000    0.000    0.000 
#
# Total GULP energy -496173.892663 kJ/mol
# GULP energy per Si atom -12404.347317 kJ/mol
# Density = 1.907236 g / cm^3
# Si number density = 19.115865 Si / 1000 Ang^3
#
#
#
# Elastic Constant Matrix: (Units=GPa)
#
#
# Indices 1 2 3 4 5 6 
#
# 1 57.1245 29.4207 31.4775 0.0000 0.0000 0.0000
# 2 29.4207 113.7034 53.2143 0.0000 0.0000 0.0000
# 3 31.4775 53.2143 110.3035 0.0000 0.0000 0.0000
# 4 0.0000 0.0000 0.0000 43.3658 0.0000 0.0000
# 5 0.0000 0.0000 0.0000 0.0000 35.2123 0.0000
# 6 0.0000 0.0000 0.0000 0.0000 0.0000 20.6191
#
#
#
# Elastic Compliance Matrix: (Units=1/GPa)
#
#
# Indices 1 2 3 4 5 6 
#
# 1 0.021815 -0.003528 -0.004524 0.000000 0.000000 0.000000
# 2 -0.003528 0.011930 -0.004749 0.000000 0.000000 0.000000
# 3 -0.004524 -0.004749 0.012648 0.000000 0.000000 0.000000
# 4 0.000000 0.000000 0.000000 0.023060 0.000000 0.000000
# 5 0.000000 0.000000 0.000000 0.000000 0.028399 0.000000
# 6 0.000000 0.000000 0.000000 0.000000 0.000000 0.048499
#
#
# Mechanical properties :
#
#
# Convention : Reuss Voigt Hill
#
# Bulk Modulus (GPa) = 48.09310 56.59516 52.34413
# Shear Modulus (GPa) = 27.95148 30.97403 29.46276
#
# Velocity S-wave (km/s) = 3.82804 4.02970 3.93016
# Velocity P-wave (km/s) = 6.68968 7.16394 6.93087
#
# Compressibility (1/GPa) = 0.02079300
#
# Stress axis : x y z
#
# Youngs Moduli (GPa) = 45.83988 83.82189 79.06511
#
# Poissons Ratio (x) = 0.29569 0.35766
# Poissons Ratio (y) = 0.16170 0.37547
# Poissons Ratio (z) = 0.20736 0.39806
#
# Static dielectric constant tensor:
#      x y z
#    x 3.395640 0.000000 0.000000 
#    y 0.000000 3.669560 0.000000 
#    z 0.000000 0.000000 3.543880 
# 
# 
# High freq. dielectric constant tensor:
#      x y z
#    x 1.735870 0.000000 0.000000 
#    y 0.000000 1.754590 0.000000 
#    z 0.000000 0.000000 1.745760 
# 
# From -- ./inp_files/32388.got.cif
#   From: 2010.03.12/outbox.cif.g09.slc.cpg/sg59_17_cif.got.tgz:32388.got - 2010.04.16 16:29:54.
