data_PCOD8245697
_publ_section_title
;
Structure prediction by ZEFSAII (Michael W. Deem and Ramdas Pophale) SiO2 
 PCOD8245697
Probable space group: P M M N
;
_chemical_formula_sum "Si O2"
_cell_formula_units_Z 48
_cell_length_a 15.342799
_cell_length_b 16.434465
_cell_length_c 9.959570
_cell_angle_alpha 90.000000
_cell_angle_beta 90.000000
_cell_angle_gamma 90.000000
_cell_volume 2511.312479
_symmetry_space_group_name_H-M "P M M N"
_symmetry_group_IT_number 59
_space_group.IT_coordinate_system_code '2'
_symmetry_cell_setting 'orthorhombic'
loop_
_space_group_symop_operation_xyz
x,y,z
1/2-x,1/2-y,z
1/2+x,-y,-z
-x,1/2+y,-z
-x,-y,-z
1/2+x,1/2+y,-z
1/2-x,y,z
x,1/2-y,z
loop_
_atom_site_type_symbol
_atom_site_label
_atom_site_fract_x
_atom_site_fract_y
_atom_site_fract_z
Si Si1 0.750000 0.154252 0.540043
Si Si2 0.250000 0.653164 0.767182
Si Si3 0.465074 0.395890 0.870319
Si Si4 0.927864 0.415211 0.610542
Si Si5 0.853193 0.750000 0.025743
Si Si6 0.148423 0.250000 0.288857
Si Si7 0.422023 0.922923 0.883673
Si Si8 0.458564 0.400427 0.359935
O O1 0.750000 0.250000 0.536822
O O2 0.750000 0.120822 0.386499
O O3 0.666922 0.123916 0.623730
O O4 0.250000 0.750000 0.771924
O O5 0.167383 0.619892 0.846726
O O6 0.505965 0.383165 0.723517
O O7 0.394470 0.327865 0.902585
O O8 0.411279 0.479826 0.879237
O O9 0.548032 0.394401 0.969412
O O10 0.913937 0.512386 0.615677
O O11 0.966982 0.385486 0.469690
O O12 0.750000 0.750000 0.050692
O O13 0.875790 0.750000 0.868266
O O14 0.250000 0.250000 0.311315
O O15 0.112813 0.170285 0.364601
O O16 0.498205 0.895139 0.785021
#
# Coordination Sequence:
#
# PCOD8245697 Si02
#       8
#     4   4   8   8   4   4   8   8
#     4  11  24  39  63  96 127 160 206 255 309 369
#     4  11  24  37  67  98 121 162 214 255 299 361
#     4  10  23  41  63  90 124 168 203 253 319 366
#     4  10  23  41  63  91 128 167 200 251 319 370
#     4  11  24  41  65  92 123 163 210 264 313 363
#     4  11  24  39  67  96 119 159 216 266 301 359
#     4  10  21  41  62  91 124 164 208 250 304 373
#     4  10  21  41  65  89 123 166 207 251 308 371
#
# _framework density 19.113512
#
# number of rings (size 3 to 8) (size 9 to 14) (size 15 to 20)
#    0.000    1.667    3.333    0.000    7.000    0.667 
#    0.000    2.500    0.000    0.000    0.000    0.000 
#    0.000    0.000    0.000    0.000    0.000    0.000 
#
# Total GULP energy -595368.753215 kJ/mol
# GULP energy per Si atom -12403.515692 kJ/mol
# Density = 1.907001 g / cm^3
# Si number density = 19.113512 Si / 1000 Ang^3
#
#
#
# Elastic Constant Matrix: (Units=GPa)
#
#
# Indices 1 2 3 4 5 6 
#
# 1 95.8829 74.0329 13.5647 0.0000 0.0000 0.0000
# 2 74.0329 116.0199 40.3383 0.0000 0.0000 0.0000
# 3 13.5647 40.3383 57.9220 0.0000 0.0000 0.0000
# 4 0.0000 0.0000 0.0000 25.9552 0.0000 0.0000
# 5 0.0000 0.0000 0.0000 0.0000 25.3630 0.0000
# 6 0.0000 0.0000 0.0000 0.0000 0.0000 27.1916
#
#
#
# Elastic Compliance Matrix: (Units=1/GPa)
#
#
# Indices 1 2 3 4 5 6 
#
# 1 0.022092 -0.016227 0.006127 0.000000 0.000000 0.000000
# 2 -0.016227 0.023293 -0.012421 0.000000 0.000000 0.000000
# 3 0.006127 -0.012421 0.024480 0.000000 0.000000 0.000000
# 4 0.000000 0.000000 0.000000 0.038528 0.000000 0.000000
# 5 0.000000 0.000000 0.000000 0.000000 0.039427 0.000000
# 6 0.000000 0.000000 0.000000 0.000000 0.000000 0.036776
#
#
# Mechanical properties :
#
#
# Convention : Reuss Voigt Hill
#
# Bulk Modulus (GPa) = 40.28642 58.41075 49.34858
# Shear Modulus (GPa) = 21.01609 25.16125 23.08867
#
# Velocity S-wave (km/s) = 3.31953 3.63217 3.47937
# Velocity P-wave (km/s) = 5.98461 6.94381 6.48198
#
# Compressibility (1/GPa) = 0.02482226
#
# Stress axis : x y z
#
# Youngs Moduli (GPa) = 45.26513 42.93179 40.84951
#
# Poissons Ratio (x) = 0.69668 -0.25031
# Poissons Ratio (y) = 0.73454 0.50741
# Poissons Ratio (z) = -0.27736 0.53327
#
# Static dielectric constant tensor:
#      x y z
#    x 2.699540 0.000000 0.000000 
#    y 0.000000 3.629940 0.000000 
#    z 0.000000 0.000000 3.608190 
# 
# 
# High freq. dielectric constant tensor:
#      x y z
#    x 1.738040 0.000000 0.000000 
#    y 0.000000 1.750630 0.000000 
#    z 0.000000 0.000000 1.748660 
# 
# From -- ./inp_files/9085.got.cif
#   From: 2010.03.12/outbox.cif.g09.slc.cpg/sg59_5_cif.got.tgz:9085.got - 2010.04.16 16:29:54.
