data_PCOD8245335
_publ_section_title
;
Structure prediction by ZEFSAII (Michael W. Deem and Ramdas Pophale) SiO2 
 PCOD8245335
Probable space group: P M M N
;
_chemical_formula_sum "Si O2"
_cell_formula_units_Z 32
_cell_length_a 16.693232
_cell_length_b 16.590304
_cell_length_c 4.997295
_cell_angle_alpha 90.000000
_cell_angle_beta 90.000000
_cell_angle_gamma 90.000000
_cell_volume 1383.979830
_symmetry_space_group_name_H-M "P M M N"
_symmetry_group_IT_number 59
_space_group.IT_coordinate_system_code '2'
_symmetry_cell_setting 'orthorhombic'
loop_
_space_group_symop_operation_xyz
x,y,z
1/2-x,1/2-y,z
1/2+x,-y,-z
-x,1/2+y,-z
-x,-y,-z
1/2+x,1/2+y,-z
1/2-x,y,z
x,1/2-y,z
loop_
_atom_site_type_symbol
_atom_site_label
_atom_site_fract_x
_atom_site_fract_y
_atom_site_fract_z
Si Si1 0.008497 0.155426 0.816758
Si Si2 0.750000 0.441019 0.309778
Si Si3 0.909967 0.344949 0.308437
Si Si4 0.750000 0.548162 0.810725
Si Si5 0.162291 0.159077 0.529527
O O1 0.019927 0.250000 0.836394
O O2 0.940372 0.132663 0.602094
O O3 0.095037 0.120369 0.724541
O O4 0.977978 0.122368 0.101637
O O5 0.826942 0.387710 0.246620
O O6 0.750000 0.470352 0.615043
O O7 0.750000 0.519532 0.116609
O O8 0.896152 0.250000 0.269923
O O9 0.828752 0.603188 0.737333
O O10 0.250000 0.160536 0.677556
O O11 0.137685 0.250000 0.438076
#
# Coordination Sequence:
#
# PCOD8245335 Si02
#       5
#     8   4   8   4   8
#     4   9  18  35  59  88 109 137 188 240 274 324
#     4  12  23  40  55  80 116 156 186 230 281 326
#     4  10  21  37  59  82 111 147 192 234 275 327
#     4  10  23  38  57  84 116 150 186 228 271 338
#     4   8  17  39  64  85 112 148 184 226 282 337
#
# _framework density 23.121722999999999
#
# number of rings (size 3 to 8) (size 9 to 14) (size 15 to 20)
#    0.750    1.750    0.000    1.875    0.000    2.000 
#    0.000   17.500    0.000    0.000    0.000    0.000 
#    0.000    0.000    0.000    0.000    0.000    0.000 
#
# Total GULP energy -396526.568848 kJ/mol
# GULP energy per Si atom -12391.455277 kJ/mol
# Density = 2.306910 g / cm^3
# Si number density = 23.121723 Si / 1000 Ang^3
#
#
#
# Elastic Constant Matrix: (Units=GPa)
#
#
# Indices 1 2 3 4 5 6 
#
# 1 78.0531 18.1675 -28.5431 0.0000 0.0000 0.0000
# 2 18.1675 55.4569 5.2145 0.0000 0.0000 0.0000
# 3 -28.5431 5.2145 37.8841 0.0000 0.0000 0.0000
# 4 0.0000 0.0000 0.0000 21.9893 0.0000 0.0000
# 5 0.0000 0.0000 0.0000 0.0000 8.2957 0.0000
# 6 0.0000 0.0000 0.0000 0.0000 0.0000 10.9148
#
#
#
# Elastic Compliance Matrix: (Units=1/GPa)
#
#
# Indices 1 2 3 4 5 6 
#
# 1 0.020996 -0.008475 0.016986 0.000000 0.000000 0.000000
# 2 -0.008475 0.021690 -0.009371 0.000000 0.000000 0.000000
# 3 0.016986 -0.009371 0.040484 0.000000 0.000000 0.000000
# 4 0.000000 0.000000 0.000000 0.045477 0.000000 0.000000
# 5 0.000000 0.000000 0.000000 0.000000 0.120545 0.000000
# 6 0.000000 0.000000 0.000000 0.000000 0.000000 0.091619
#
#
# Mechanical properties :
#
#
# Convention : Reuss Voigt Hill
#
# Bulk Modulus (GPa) = 12.27780 17.89687 15.08734
# Shear Modulus (GPa) = 13.52519 20.01028 16.76774
#
# Velocity S-wave (km/s) = 2.42121 2.94501 2.69586
# Velocity P-wave (km/s) = 3.62463 4.39559 4.02860
#
# Compressibility (1/GPa) = 0.08144782
#
# Stress axis : x y z
#
# Youngs Moduli (GPa) = 47.62824 46.10495 24.70127
#
# Poissons Ratio (x) = 0.39075 -0.41957
# Poissons Ratio (y) = 0.40366 0.23148
# Poissons Ratio (z) = -0.80900 0.43205
#
# Static dielectric constant tensor:
#      x y z
#    x 4.282910 0.000000 0.000000 
#    y 0.000000 3.899130 0.000000 
#    z 0.000000 0.000000 3.997700 
# 
# 
# High freq. dielectric constant tensor:
#      x y z
#    x 1.918290 0.000000 0.000000 
#    y 0.000000 1.887570 0.000000 
#    z 0.000000 0.000000 1.903630 
# 
# From -- ./inp_files/2521.got.cif
#   From: 2010.03.12/outbox.cif.g09.slc.cpg/sg59_2_cif.got.tgz:2521.got - 2010.04.16 16:29:54.
