data_PCOD8245259
_publ_section_title
;
Structure prediction by ZEFSAII (Michael W. Deem and Ramdas Pophale) SiO2 
 PCOD8245259
Probable space group: P M M N
;
_chemical_formula_sum "Si O2"
_cell_formula_units_Z 64
_cell_length_a 9.036883
_cell_length_b 14.607857
_cell_length_c 24.288956
_cell_angle_alpha 90.000000
_cell_angle_beta 90.000000
_cell_angle_gamma 90.000000
_cell_volume 3206.372806
_symmetry_space_group_name_H-M "P M M N"
_symmetry_group_IT_number 59
_space_group.IT_coordinate_system_code '2'
_symmetry_cell_setting 'orthorhombic'
loop_
_space_group_symop_operation_xyz
x,y,z
1/2-x,1/2-y,z
1/2+x,-y,-z
-x,1/2+y,-z
-x,-y,-z
1/2+x,1/2+y,-z
1/2-x,y,z
x,1/2-y,z
loop_
_atom_site_type_symbol
_atom_site_label
_atom_site_fract_x
_atom_site_fract_y
_atom_site_fract_z
Si Si1 0.585595 0.349728 0.238281
Si Si2 0.078872 0.143701 0.533663
Si Si3 0.426474 0.853426 0.151085
Si Si4 0.587716 0.350870 0.108488
Si Si5 0.422045 0.508773 0.058070
Si Si6 0.575263 0.144705 0.419539
Si Si7 0.918946 0.468909 0.746877
Si Si8 0.422371 0.976305 0.375371
O O1 0.750000 0.368699 0.261976
O O2 0.530469 0.250000 0.260065
O O3 0.591677 0.346747 0.173243
O O4 0.478852 0.428932 0.257141
O O5 0.250000 0.116065 0.525603
O O6 0.061898 0.250000 0.547790
O O7 0.989057 0.118098 0.479063
O O8 0.009690 0.088550 0.583651
O O9 0.250000 0.851284 0.153939
O O10 0.489850 0.750000 0.149456
O O11 0.492410 0.904371 0.205907
O O12 0.479173 0.906235 0.095698
O O13 0.750000 0.384603 0.087001
O O14 0.555644 0.250000 0.084077
O O15 0.455437 0.416148 0.090581
O O16 0.250000 0.518828 0.047466
O O17 0.500000 0.500000 0.000000
O O18 0.750000 0.127504 0.419875
O O19 0.537661 0.250000 0.404488
O O20 0.495825 0.077868 0.375788
O O21 0.750000 0.478103 0.763865
O O22 0.939328 0.429801 0.685174
O O23 0.250000 0.983816 0.391587
#
# Coordination Sequence:
#
# PCOD8245259 Si02
#       8
#     8   8   8   8   8   8   8   8
#     4   9  18  33  55  81 109 143 179 221 279 340
#     4  10  21  38  60  84 113 149 191 241 293 346
#     4   9  19  38  61  82 108 147 192 234 279 331
#     4   9  18  34  56  81 110 144 180 221 276 337
#     4  11  22  36  58  86 116 149 188 236 286 338
#     4  10  21  38  60  84 113 152 195 238 287 345
#     4  10  21  37  57  83 111 146 193 240 281 329
#     4  11  23  36  55  84 118 152 189 238 292 343
#
# _framework density 19.960249000000001
#
# number of rings (size 3 to 8) (size 9 to 14) (size 15 to 20)
#    0.000    2.125    1.250    2.625    0.000    4.500 
#    0.000    6.250    0.000    3.000    0.000    0.000 
#    0.000    0.000    0.000    0.000    0.000    0.000 
#
# Total GULP energy -793305.507504 kJ/mol
# GULP energy per Si atom -12395.398555 kJ/mol
# Density = 1.991482 g / cm^3
# Si number density = 19.960249 Si / 1000 Ang^3
#
#
#
# Elastic Constant Matrix: (Units=GPa)
#
#
# Indices 1 2 3 4 5 6 
#
# 1 67.0525 31.5859 34.2361 0.0000 0.0000 0.0000
# 2 31.5859 107.3251 49.5926 0.0000 0.0000 0.0000
# 3 34.2361 49.5926 96.0916 0.0000 0.0000 0.0000
# 4 0.0000 0.0000 0.0000 13.8596 0.0000 0.0000
# 5 0.0000 0.0000 0.0000 0.0000 27.2575 0.0000
# 6 0.0000 0.0000 0.0000 0.0000 0.0000 31.8843
#
#
#
# Elastic Compliance Matrix: (Units=1/GPa)
#
#
# Indices 1 2 3 4 5 6 
#
# 1 0.019053 -0.003244 -0.005114 0.000000 0.000000 0.000000
# 2 -0.003244 0.012788 -0.005444 0.000000 0.000000 0.000000
# 3 -0.005114 -0.005444 0.015038 0.000000 0.000000 0.000000
# 4 0.000000 0.000000 0.000000 0.072152 0.000000 0.000000
# 5 0.000000 0.000000 0.000000 0.000000 0.036687 0.000000
# 6 0.000000 0.000000 0.000000 0.000000 0.000000 0.031363
#
#
# Mechanical properties :
#
#
# Convention : Reuss Voigt Hill
#
# Bulk Modulus (GPa) = 51.88076 55.69981 53.79029
# Shear Modulus (GPa) = 22.61309 24.93726 23.77517
#
# Velocity S-wave (km/s) = 3.36952 3.53844 3.45501
# Velocity P-wave (km/s) = 6.41768 6.68282 6.55159
#
# Compressibility (1/GPa) = 0.01927497
#
# Stress axis : x y z
#
# Youngs Moduli (GPa) = 52.48498 78.19984 66.49674
#
# Poissons Ratio (x) = 0.25370 0.34006
# Poissons Ratio (y) = 0.17028 0.36200
# Poissons Ratio (z) = 0.26841 0.42571
#
# Static dielectric constant tensor:
#      x y z
#    x 3.279760 0.000000 0.000000 
#    y 0.000000 3.193490 0.000000 
#    z 0.000000 0.000000 3.870250 
# 
# 
# High freq. dielectric constant tensor:
#      x y z
#    x 1.764350 0.000000 0.000000 
#    y 0.000000 1.781430 0.000000 
#    z 0.000000 0.000000 1.781190 
# 
# From -- ./inp_files/31492.got.cif
#   From: 2010.03.12/outbox.cif.g09.slc.cpg/sg59_16_cif.got.tgz:31492.got - 2010.04.16 16:29:54.
