data_PCOD8245339
_publ_section_title
;
Structure prediction by ZEFSAII (Michael W. Deem and Ramdas Pophale) SiO2 
 PCOD8245339
Probable space group: P M M N
;
_chemical_formula_sum "Si O2"
_cell_formula_units_Z 64
_cell_length_a 9.188737
_cell_length_b 18.183594
_cell_length_c 20.538932
_cell_angle_alpha 90.000000
_cell_angle_beta 90.000000
_cell_angle_gamma 90.000000
_cell_volume 3431.732316
_symmetry_space_group_name_H-M "P M M N"
_symmetry_group_IT_number 59
_space_group.IT_coordinate_system_code '2'
_symmetry_cell_setting 'orthorhombic'
loop_
_space_group_symop_operation_xyz
x,y,z
1/2-x,1/2-y,z
1/2+x,-y,-z
-x,1/2+y,-z
-x,-y,-z
1/2+x,1/2+y,-z
1/2-x,y,z
x,1/2-y,z
loop_
_atom_site_type_symbol
_atom_site_label
_atom_site_fract_x
_atom_site_fract_y
_atom_site_fract_z
Si Si1 0.589095 0.662726 0.941990
Si Si2 0.583633 0.585903 0.320456
Si Si3 0.082705 0.912328 0.682154
Si Si4 0.919743 0.664375 0.796173
Si Si5 0.580702 0.664311 0.565525
Si Si6 0.580183 0.164906 0.565790
Si Si7 0.919460 0.665467 0.189739
Si Si8 0.912756 0.162307 0.936535
O O1 0.750000 0.630385 0.954215
O O2 0.595906 0.750000 0.947126
O O3 0.535535 0.641461 0.869632
O O4 0.483601 0.630012 0.997363
O O5 0.750000 0.610134 0.334852
O O6 0.567829 0.499251 0.317937
O O7 0.478672 0.616578 0.375546
O O8 0.530887 0.618668 0.251838
O O9 0.250000 0.887478 0.674329
O O10 0.021237 0.883138 0.749936
O O11 0.988332 0.880867 0.623717
O O12 0.750000 0.647386 0.783190
O O13 0.950782 0.750000 0.783347
O O14 0.750000 0.644555 0.559562
O O15 0.556432 0.750000 0.580035
O O16 0.502530 0.640186 0.499253
O O17 0.750000 0.149218 0.555807
O O18 0.549194 0.250000 0.581480
O O19 0.750000 0.656619 0.175130
O O20 0.961346 0.750000 0.203300
O O21 0.002200 0.633738 0.126836
O O22 0.750000 0.131590 0.932704
O O23 0.916605 0.250000 0.938389
#
# Coordination Sequence:
#
# PCOD8245339 Si02
#       8
#     8   8   8   8   8   8   8   8
#     4   8  14  26  45  69  97 129 166 207 251 304
#     4  10  22  38  54  75 105 142 179 211 251 307
#     4  11  23  36  52  77 108 139 173 216 260 301
#     4   9  18  33  53  76 102 135 175 215 257 310
#     4  10  21  38  60  82 105 137 174 209 250 306
#     4  10  21  37  59  86 110 132 165 212 261 304
#     4   9  17  31  52  73  95 130 173 211 248 298
#     4   9  16  25  41  70 104 130 157 203 260 308
#
# _framework density 18.649471999999999
#
# number of rings (size 3 to 8) (size 9 to 14) (size 15 to 20)
#    0.000    2.500    0.000    3.000    0.000    7.750 
#    0.000    2.500    0.000    0.750    0.000    0.000 
#    0.000    0.000    0.000    0.000    0.000    0.000 
#
# Total GULP energy -793668.062333 kJ/mol
# GULP energy per Si atom -12401.063474 kJ/mol
# Density = 1.860702 g / cm^3
# Si number density = 18.649472 Si / 1000 Ang^3
#
#
#
# Elastic Constant Matrix: (Units=GPa)
#
#
# Indices 1 2 3 4 5 6 
#
# 1 118.3149 41.1942 88.1048 0.0000 0.0000 0.0000
# 2 41.1942 45.8969 48.8282 0.0000 0.0000 0.0000
# 3 88.1048 48.8282 167.8004 0.0000 0.0000 0.0000
# 4 0.0000 0.0000 0.0000 -7.1487 0.0000 0.0000
# 5 0.0000 0.0000 0.0000 0.0000 29.7784 0.0000
# 6 0.0000 0.0000 0.0000 0.0000 0.0000 21.4381
#
#
#
# Elastic Compliance Matrix: (Units=1/GPa)
#
#
# Indices 1 2 3 4 5 6 
#
# 1 0.015524 -0.007621 -0.005933 0.000000 0.000000 0.000000
# 2 -0.007621 0.035299 -0.006270 0.000000 0.000000 0.000000
# 3 -0.005933 -0.006270 0.010899 0.000000 0.000000 0.000000
# 4 0.000000 0.000000 0.000000 -0.139886 0.000000 0.000000
# 5 0.000000 0.000000 0.000000 0.000000 0.033581 0.000000
# 6 0.000000 0.000000 0.000000 0.000000 0.000000 0.046646
#
#
# Mechanical properties :
#
#
# Convention : Reuss Voigt Hill
#
# Bulk Modulus (GPa) = 45.30412 76.47407 60.88910
# Shear Modulus (GPa) = 101.89599 19.07255 60.48427
#
# Velocity S-wave (km/s) = 7.39973 3.20142 5.70110
# Velocity P-wave (km/s) = 9.86678 7.40003 8.72106
#
# Compressibility (1/GPa) = 0.02207305
#
# Stress axis : x y z
#
# Youngs Moduli (GPa) = 64.41767 28.32971 91.74940
#
# Poissons Ratio (x) = 0.21590 0.54437
# Poissons Ratio (y) = 0.49093 0.57528
# Poissons Ratio (z) = 0.38220 0.17763
#
# Static dielectric constant tensor:
#      x y z
#    x 3.557160 0.000000 0.000000 
#    y 0.000000 3.075740 0.000000 
#    z 0.000000 0.000000 3.632290 
# 
# 
# High freq. dielectric constant tensor:
#      x y z
#    x 1.729340 0.000000 0.000000 
#    y 0.000000 1.687430 0.000000 
#    z 0.000000 0.000000 1.740760 
# 
# From -- ./inp_files/29461.got.cif
#   From: 2010.03.12/outbox.cif.g09.slc.cpg/sg59_15_cif.got.tgz:29461.got - 2010.04.16 16:29:54.
