data_PCOD8245447
_publ_section_title
;
Structure prediction by ZEFSAII (Michael W. Deem and Ramdas Pophale) SiO2 
 PCOD8245447
Probable space group: P M M N
;
_chemical_formula_sum "Si O2"
_cell_formula_units_Z 64
_cell_length_a 14.926545
_cell_length_b 9.028348
_cell_length_c 24.457168
_cell_angle_alpha 90.000000
_cell_angle_beta 90.000000
_cell_angle_gamma 90.000000
_cell_volume 3295.897918
_symmetry_space_group_name_H-M "P M M N"
_symmetry_group_IT_number 59
_space_group.IT_coordinate_system_code '2'
_symmetry_cell_setting 'orthorhombic'
loop_
_space_group_symop_operation_xyz
x,y,z
1/2-x,1/2-y,z
1/2+x,-y,-z
-x,1/2+y,-z
-x,-y,-z
1/2+x,1/2+y,-z
1/2-x,y,z
x,1/2-y,z
loop_
_atom_site_type_symbol
_atom_site_label
_atom_site_fract_x
_atom_site_fract_y
_atom_site_fract_z
Si Si1 0.850873 0.924390 0.360501
Si Si2 0.352922 0.923124 0.355253
Si Si3 0.349513 0.573895 0.864465
Si Si4 0.990971 0.573015 0.941488
Si Si5 0.501193 0.075983 0.557996
Si Si6 0.143914 0.913213 0.745379
Si Si7 0.644255 0.422521 0.863045
Si Si8 0.643802 0.583022 0.753741
O O1 0.750000 0.982303 0.371673
O O2 0.853266 0.750000 0.355165
O O3 0.912986 0.978990 0.409918
O O4 0.891584 0.985342 0.303766
O O5 0.250000 0.964653 0.367927
O O6 0.363920 0.750000 0.342558
O O7 0.410646 0.970758 0.407919
O O8 0.390567 0.009158 0.302293
O O9 0.250000 0.511852 0.879211
O O10 0.344781 0.750000 0.861704
O O11 0.420601 0.520152 0.908959
O O12 0.382054 0.517482 0.804477
O O13 0.983975 0.750000 0.945823
O O14 0.902856 0.509603 0.912301
O O15 0.000000 0.500000 0.000000
O O16 0.499284 0.250000 0.548562
O O17 0.500000 0.000000 0.500000
O O18 0.250000 0.902136 0.742927
O O19 0.101296 0.750000 0.738172
O O20 0.750000 0.446606 0.870236
O O21 0.618875 0.250000 0.865037
O O22 0.609365 0.489741 0.805661
O O23 0.750000 0.582117 0.753250
O O24 0.606112 0.750000 0.758186
#
# Coordination Sequence:
#
# PCOD8245447 Si02
#       8
#     8   8   8   8   8   8   8   8
#     4   9  18  33  51  72 101 132 158 194 249 303
#     4   9  18  34  54  75 103 137 169 207 259 316
#     4   8  16  33  56  80 107 139 173 212 262 319
#     4  11  23  38  56  80 110 145 188 233 273 320
#     4  10  22  37  51  71  98 131 174 216 252 298
#     4   8  14  28  52  79 102 126 162 204 245 298
#     4  10  21  38  59  81 109 147 185 224 276 331
#     4   9  17  31  54  84 112 136 169 215 266 322
#
# _framework density 19.418078000000001
#
# number of rings (size 3 to 8) (size 9 to 14) (size 15 to 20)
#    0.000    2.750    0.000    1.875    0.000    5.250 
#    0.000    5.000    0.000    2.625    0.000    0.000 
#    0.000    0.000    0.000    0.000    0.000    0.000 
#
# Total GULP energy -793432.615172 kJ/mol
# GULP energy per Si atom -12397.384612 kJ/mol
# Density = 1.937388 g / cm^3
# Si number density = 19.418078 Si / 1000 Ang^3
#
#
#
# Elastic Constant Matrix: (Units=GPa)
#
#
# Indices 1 2 3 4 5 6 
#
# 1 91.5688 38.3207 73.1526 0.0000 0.0000 0.0000
# 2 38.3207 73.6724 65.1935 0.0000 0.0000 0.0000
# 3 73.1526 65.1935 197.0647 0.0000 0.0000 0.0000
# 4 0.0000 0.0000 0.0000 39.1447 0.0000 0.0000
# 5 0.0000 0.0000 0.0000 0.0000 30.1763 0.0000
# 6 0.0000 0.0000 0.0000 0.0000 0.0000 16.3837
#
#
#
# Elastic Compliance Matrix: (Units=1/GPa)
#
#
# Indices 1 2 3 4 5 6 
#
# 1 0.016505 -0.004473 -0.004647 0.000000 0.000000 0.000000
# 2 -0.004473 0.020404 -0.005090 0.000000 0.000000 0.000000
# 3 -0.004647 -0.005090 0.008483 0.000000 0.000000 0.000000
# 4 0.000000 0.000000 0.000000 0.025546 0.000000 0.000000
# 5 0.000000 0.000000 0.000000 0.000000 0.033139 0.000000
# 6 0.000000 0.000000 0.000000 0.000000 0.000000 0.061036
#
#
# Mechanical properties :
#
#
# Convention : Reuss Voigt Hill
#
# Bulk Modulus (GPa) = 58.91679 79.51548 69.21613
# Shear Modulus (GPa) = 25.10153 29.51689 27.30921
#
# Velocity S-wave (km/s) = 3.59930 3.90304 3.75424
# Velocity P-wave (km/s) = 6.90510 7.83261 7.38343
#
# Compressibility (1/GPa) = 0.01697309
#
# Stress axis : x y z
#
# Youngs Moduli (GPa) = 60.58731 49.00965 117.87749
#
# Poissons Ratio (x) = 0.21921 0.54780
# Poissons Ratio (y) = 0.27099 0.59997
# Poissons Ratio (z) = 0.28156 0.24945
#
# Static dielectric constant tensor:
#      x y z
#    x 3.695070 0.000000 0.000000 
#    y 0.000000 3.463870 0.000000 
#    z 0.000000 0.000000 3.669860 
# 
# 
# High freq. dielectric constant tensor:
#      x y z
#    x 1.755270 0.000000 0.000000 
#    y 0.000000 1.740030 0.000000 
#    z 0.000000 0.000000 1.757560 
# 
# From -- ./inp_files/32124.got.cif
#   From: 2010.03.12/outbox.cif.g09.slc.cpg/sg59_17_cif.got.tgz:32124.got - 2010.04.16 16:29:54.
