data_PCOD8245659
_publ_section_title
;
Structure prediction by ZEFSAII (Michael W. Deem and Ramdas Pophale) SiO2 
 PCOD8245659
Probable space group: P M M N
;
_chemical_formula_sum "Si O2"
_cell_formula_units_Z 56
_cell_length_a 21.781931
_cell_length_b 8.404953
_cell_length_c 14.777097
_cell_angle_alpha 90.000000
_cell_angle_beta 90.000000
_cell_angle_gamma 90.000000
_cell_volume 2705.333381
_symmetry_space_group_name_H-M "P M M N"
_symmetry_group_IT_number 59
_space_group.IT_coordinate_system_code '2'
_symmetry_cell_setting 'orthorhombic'
loop_
_space_group_symop_operation_xyz
x,y,z
1/2-x,1/2-y,z
1/2+x,-y,-z
-x,1/2+y,-z
-x,-y,-z
1/2+x,1/2+y,-z
1/2-x,y,z
x,1/2-y,z
loop_
_atom_site_type_symbol
_atom_site_label
_atom_site_fract_x
_atom_site_fract_y
_atom_site_fract_z
Si Si1 0.937998 0.066735 0.039075
Si Si2 0.635815 0.433942 0.554139
Si Si3 0.377379 0.065856 0.127470
Si Si4 0.250000 0.070893 0.355002
Si Si5 0.678441 0.563776 0.375650
Si Si6 0.250000 0.932021 0.173345
Si Si7 0.453250 0.063106 0.302936
Si Si8 0.912816 0.062116 0.238272
O O1 0.948231 0.250000 0.057408
O O2 0.919616 0.993042 0.136187
O O3 0.887591 0.034007 0.963441
O O4 0.000000 0.000000 0.000000
O O5 0.650728 0.250000 0.571603
O O6 0.689697 0.550414 0.585813
O O7 0.635011 0.468245 0.446851
O O8 0.573031 0.477464 0.607042
O O9 0.392325 0.250000 0.110078
O O10 0.417134 0.003117 0.212932
O O11 0.306753 0.036688 0.143541
O O12 0.250000 0.250000 0.314238
O O13 0.250000 0.931294 0.281556
O O14 0.750000 0.506212 0.375556
O O15 0.675655 0.750000 0.395925
O O16 0.646452 0.525573 0.279814
O O17 0.250000 0.750000 0.137736
O O18 0.442650 0.250000 0.314075
O O19 0.524817 0.019867 0.293141
O O20 0.900780 0.250000 0.238921
#
# Coordination Sequence:
#
# PCOD8245659 Si02
#       8
#     8   8   8   4   8   4   8   8
#     4  11  22  40  66  95 126 165 213 263 318 383
#     4  12  24  38  63  96 126 165 212 256 306 375
#     4  11  22  39  62  91 129 172 211 260 322 384
#     4  12  22  36  58  87 126 169 208 256 310 370
#     4  11  25  45  68  92 123 166 213 263 316 373
#     4  12  24  38  58  91 128 167 214 264 318 382
#     4  10  21  39  63  93 132 169 204 256 318 376
#     4  10  23  44  67  93 125 164 210 262 317 372
#
# _framework density 20.699852
#
# number of rings (size 3 to 8) (size 9 to 14) (size 15 to 20)
#    0.000    1.000    3.571    3.857    0.000    3.714 
#    1.286    0.000    0.000    0.000    0.000    0.000 
#    0.000    0.000    0.000    0.000    0.000    0.000 
#
# Total GULP energy -694350.550113 kJ/mol
# GULP energy per Si atom -12399.116966 kJ/mol
# Density = 2.065274 g / cm^3
# Si number density = 20.699852 Si / 1000 Ang^3
#
#
#
# Elastic Constant Matrix: (Units=GPa)
#
#
# Indices 1 2 3 4 5 6 
#
# 1 103.0344 23.8763 52.3031 0.0000 0.0000 0.0000
# 2 23.8763 72.4468 28.0019 0.0000 0.0000 0.0000
# 3 52.3031 28.0019 135.9253 0.0000 0.0000 0.0000
# 4 0.0000 0.0000 0.0000 32.8767 0.0000 0.0000
# 5 0.0000 0.0000 0.0000 0.0000 42.7069 0.0000
# 6 0.0000 0.0000 0.0000 0.0000 0.0000 32.8850
#
#
#
# Elastic Compliance Matrix: (Units=1/GPa)
#
#
# Indices 1 2 3 4 5 6 
#
# 1 0.012448 -0.002446 -0.004286 0.000000 0.000000 0.000000
# 2 -0.002446 0.015478 -0.002247 0.000000 0.000000 0.000000
# 3 -0.004286 -0.002247 0.009469 0.000000 0.000000 0.000000
# 4 0.000000 0.000000 0.000000 0.030417 0.000000 0.000000
# 5 0.000000 0.000000 0.000000 0.000000 0.023415 0.000000
# 6 0.000000 0.000000 0.000000 0.000000 0.000000 0.030409
#
#
# Mechanical properties :
#
#
# Convention : Reuss Voigt Hill
#
# Bulk Modulus (GPa) = 51.44961 57.75211 54.60086
# Shear Modulus (GPa) = 34.22924 35.50871 34.86898
#
# Velocity S-wave (km/s) = 4.07086 4.14624 4.10872
# Velocity P-wave (km/s) = 6.85601 7.13317 6.99596
#
# Compressibility (1/GPa) = 0.01943649
#
# Stress axis : x y z
#
# Youngs Moduli (GPa) = 80.33425 64.60779 105.60535
#
# Poissons Ratio (x) = 0.15802 0.45263
# Poissons Ratio (y) = 0.19649 0.23734
# Poissons Ratio (z) = 0.34431 0.14520
#
# Static dielectric constant tensor:
#      x y z
#    x 3.791910 0.000000 0.000000 
#    y 0.000000 1.112480 0.000000 
#    z 0.000000 0.000000 4.144620 
# 
# 
# High freq. dielectric constant tensor:
#      x y z
#    x 1.808260 0.000000 0.000000 
#    y 0.000000 1.805720 0.000000 
#    z 0.000000 0.000000 1.813060 
# 
# From -- ./inp_files/24364.got.cif
#   From: 2010.03.12/outbox.cif.g09.slc.cpg/sg59_13_cif.got.tgz:24364.got - 2010.04.16 16:29:54.
