data_PCOD8245802
_publ_section_title
;
Structure prediction by ZEFSAII (Michael W. Deem and Ramdas Pophale) SiO2 
 PCOD8245802
Probable space group: P M M N
;
_chemical_formula_sum "Si O2"
_cell_formula_units_Z 64
_cell_length_a 15.366571
_cell_length_b 8.734890
_cell_length_c 23.936606
_cell_angle_alpha 90.000000
_cell_angle_beta 90.000000
_cell_angle_gamma 90.000000
_cell_volume 3212.898298
_symmetry_space_group_name_H-M "P M M N"
_symmetry_group_IT_number 59
_space_group.IT_coordinate_system_code '2'
_symmetry_cell_setting 'orthorhombic'
loop_
_space_group_symop_operation_xyz
x,y,z
1/2-x,1/2-y,z
1/2+x,-y,-z
-x,1/2+y,-z
-x,-y,-z
1/2+x,1/2+y,-z
1/2-x,y,z
x,1/2-y,z
loop_
_atom_site_type_symbol
_atom_site_label
_atom_site_fract_x
_atom_site_fract_y
_atom_site_fract_z
Si Si1 0.498668 0.929716 0.939302
Si Si2 0.900703 0.429987 0.242170
Si Si3 0.151791 0.425178 0.869578
Si Si4 0.914371 0.072150 0.754291
Si Si5 0.498173 0.069587 0.439172
Si Si6 0.849546 0.427086 0.631982
Si Si7 0.346925 0.426573 0.139646
Si Si8 0.346296 0.931698 0.636622
O O1 0.502426 0.750000 0.945965
O O2 0.582848 0.988464 0.904982
O O3 0.410657 0.974234 0.907826
O O4 0.500000 0.000000 0.000000
O O5 0.885263 0.250000 0.234779
O O6 0.849516 0.517553 0.193963
O O7 0.864005 0.492009 0.300959
O O8 0.002284 0.465279 0.238690
O O9 0.250000 0.441444 0.892412
O O10 0.120267 0.250000 0.871943
O O11 0.940672 0.250000 0.757560
O O12 0.866987 0.033276 0.696412
O O13 0.850184 0.028596 0.804505
O O14 0.505449 0.250000 0.444269
O O15 0.580882 0.001274 0.405138
O O16 0.500000 0.000000 0.500000
O O17 0.409378 0.028370 0.407877
O O18 0.750000 0.467623 0.617973
O O19 0.869399 0.250000 0.619687
O O20 0.250000 0.444637 0.114073
O O21 0.366483 0.250000 0.154840
O O22 0.250000 0.985566 0.617253
O O23 0.352938 0.750000 0.637040
#
# Coordination Sequence:
#
# PCOD8245802 Si02
#       8
#     8   8   8   8   8   8   8   8
#     4  11  24  42  64  89 121 162 206 253 304 355
#     4  11  20  35  61  91 122 157 198 244 299 364
#     4  11  24  41  62  91 126 162 200 248 305 359
#     4  11  21  35  60  91 125 159 196 243 299 361
#     4  11  23  40  61  86 117 155 204 252 299 354
#     4  10  22  40  61  87 121 160 199 244 300 357
#     4  10  22  40  62  89 121 158 199 244 299 361
#     4   9  19  36  59  86 116 152 193 239 294 356
#
# _framework density 19.919709999999998
#
# number of rings (size 3 to 8) (size 9 to 14) (size 15 to 20)
#    0.000    1.500    2.500    2.625    0.000    4.500 
#    0.000    2.500    0.000    3.375    0.000    0.000 
#    0.000    0.000    0.000    0.000    0.000    0.000 
#
# Total GULP energy -793821.272457 kJ/mol
# GULP energy per Si atom -12403.457382 kJ/mol
# Density = 1.987437 g / cm^3
# Si number density = 19.919710 Si / 1000 Ang^3
#
#
#
# Elastic Constant Matrix: (Units=GPa)
#
#
# Indices 1 2 3 4 5 6 
#
# 1 134.1106 24.9166 60.0672 0.0000 0.0000 0.0000
# 2 24.9166 49.6063 34.8586 0.0000 0.0000 0.0000
# 3 60.0672 34.8586 152.4223 0.0000 0.0000 0.0000
# 4 0.0000 0.0000 0.0000 35.7353 0.0000 0.0000
# 5 0.0000 0.0000 0.0000 0.0000 13.4469 0.0000
# 6 0.0000 0.0000 0.0000 0.0000 0.0000 28.3434
#
#
#
# Elastic Compliance Matrix: (Units=1/GPa)
#
#
# Indices 1 2 3 4 5 6 
#
# 1 0.009308 -0.002499 -0.003096 0.000000 0.000000 0.000000
# 2 -0.002499 0.024690 -0.004662 0.000000 0.000000 0.000000
# 3 -0.003096 -0.004662 0.008847 0.000000 0.000000 0.000000
# 4 0.000000 0.000000 0.000000 0.027984 0.000000 0.000000
# 5 0.000000 0.000000 0.000000 0.000000 0.074366 0.000000
# 6 0.000000 0.000000 0.000000 0.000000 0.000000 0.035282
#
#
# Mechanical properties :
#
#
# Convention : Reuss Voigt Hill
#
# Bulk Modulus (GPa) = 44.78273 63.98043 54.38158
# Shear Modulus (GPa) = 23.98839 29.92490 26.95665
#
# Velocity S-wave (km/s) = 3.47400 3.88013 3.68267
# Velocity P-wave (km/s) = 6.21466 7.22930 6.74109
#
# Compressibility (1/GPa) = 0.02233004
#
# Stress axis : x y z
#
# Youngs Moduli (GPa) = 107.43722 40.50254 113.03163
#
# Poissons Ratio (x) = 0.10123 0.35000
# Poissons Ratio (y) = 0.26851 0.52691
# Poissons Ratio (z) = 0.33268 0.18881
#
# Static dielectric constant tensor:
#      x y z
#    x 3.973590 0.000000 0.000000 
#    y 0.000000 3.492350 0.000000 
#    z 0.000000 0.000000 3.674530 
# 
# 
# High freq. dielectric constant tensor:
#      x y z
#    x 1.790640 0.000000 0.000000 
#    y 0.000000 1.767650 0.000000 
#    z 0.000000 0.000000 1.775710 
# 
# From -- ./inp_files/31481.got.cif
#   From: 2010.03.12/outbox.cif.g09.slc.cpg/sg59_16_cif.got.tgz:31481.got - 2010.04.16 16:29:54.
