data_PCOD8245826
_publ_section_title
;
Structure prediction by ZEFSAII (Michael W. Deem and Ramdas Pophale) SiO2 
 PCOD8245826
Probable space group: P M M N
;
_chemical_formula_sum "Si O2"
_cell_formula_units_Z 64
_cell_length_a 30.840909
_cell_length_b 8.564308
_cell_length_c 12.001623
_cell_angle_alpha 90.000000
_cell_angle_beta 90.000000
_cell_angle_gamma 90.000000
_cell_volume 3170.001209
_symmetry_space_group_name_H-M "P M M N"
_symmetry_group_IT_number 59
_space_group.IT_coordinate_system_code '2'
_symmetry_cell_setting 'orthorhombic'
loop_
_space_group_symop_operation_xyz
x,y,z
1/2-x,1/2-y,z
1/2+x,-y,-z
-x,1/2+y,-z
-x,-y,-z
1/2+x,1/2+y,-z
1/2-x,y,z
x,1/2-y,z
loop_
_atom_site_type_symbol
_atom_site_label
_atom_site_fract_x
_atom_site_fract_y
_atom_site_fract_z
Si Si1 0.298101 0.564573 0.997959
Si Si2 0.078721 0.068768 0.232282
Si Si3 0.547529 0.068157 0.993103
Si Si4 0.169972 0.567331 0.238982
Si Si5 0.126115 0.934491 0.596885
Si Si6 0.798169 0.571619 0.546259
Si Si7 0.456248 0.934994 0.450420
Si Si8 0.377082 0.936074 0.849975
O O1 0.250000 0.500862 0.966682
O O2 0.297958 0.750000 0.994137
O O3 0.309342 0.509857 0.123201
O O4 0.333907 0.497959 0.911896
O O5 0.071492 0.250000 0.205705
O O6 0.068374 0.966228 0.125227
O O7 0.127546 0.032570 0.267651
O O8 0.047382 0.017029 0.331295
O O9 0.543198 0.250000 0.011414
O O10 0.579821 0.999500 0.087897
O O11 0.500000 0.000000 0.000000
O O12 0.158285 0.750000 0.235112
O O13 0.201765 0.531497 0.341166
O O14 0.132262 0.750000 0.593298
O O15 0.083455 0.985745 0.529632
O O16 0.121748 0.995994 0.723392
O O17 0.168503 0.011446 0.545453
O O18 0.750000 0.556038 0.494813
O O19 0.809123 0.750000 0.576571
O O20 0.458052 0.750000 0.435769
O O21 0.500000 0.000000 0.500000
O O22 0.376440 0.750000 0.855799
#
# Coordination Sequence:
#
# PCOD8245826 Si02
#       8
#     8   8   8   8   8   8   8   8
#     4   9  17  31  56  89 120 151 190 242 303 362
#     4  12  24  40  64  92 125 165 207 253 307 366
#     4  11  23  41  64  93 126 161 204 254 311 368
#     4  11  20  36  61  91 123 157 202 256 308 364
#     4  10  22  40  63  88 118 161 208 253 303 365
#     4  11  24  40  59  87 124 164 205 253 311 371
#     4  11  24  41  63  93 126 161 207 257 309 370
#     4   9  19  37  59  87 122 155 195 251 303 355
#
# _framework density 20.189266
#
# number of rings (size 3 to 8) (size 9 to 14) (size 15 to 20)
#    0.000    1.500    2.500    3.000    1.750    2.500 
#    0.000    2.500    0.000    0.000    0.000    0.000 
#    0.000    0.000    0.000    0.000    0.000    0.000 
#
# Total GULP energy -793735.817729 kJ/mol
# GULP energy per Si atom -12402.122152 kJ/mol
# Density = 2.014331 g / cm^3
# Si number density = 20.189266 Si / 1000 Ang^3
#
#
#
# Elastic Constant Matrix: (Units=GPa)
#
#
# Indices 1 2 3 4 5 6 
#
# 1 136.2039 30.3891 50.5513 0.0000 0.0000 0.0000
# 2 30.3891 44.0182 21.1241 0.0000 0.0000 0.0000
# 3 50.5513 21.1241 137.7602 0.0000 0.0000 0.0000
# 4 0.0000 0.0000 0.0000 19.2667 0.0000 0.0000
# 5 0.0000 0.0000 0.0000 0.0000 31.0900 0.0000
# 6 0.0000 0.0000 0.0000 0.0000 0.0000 27.7947
#
#
#
# Elastic Compliance Matrix: (Units=1/GPa)
#
#
# Indices 1 2 3 4 5 6 
#
# 1 0.009516 -0.005283 -0.002682 0.000000 0.000000 0.000000
# 2 -0.005283 0.027455 -0.002271 0.000000 0.000000 0.000000
# 3 -0.002682 -0.002271 0.008591 0.000000 0.000000 0.000000
# 4 0.000000 0.000000 0.000000 0.051903 0.000000 0.000000
# 5 0.000000 0.000000 0.000000 0.000000 0.032165 0.000000
# 6 0.000000 0.000000 0.000000 0.000000 0.000000 0.035978
#
#
# Mechanical properties :
#
#
# Convention : Reuss Voigt Hill
#
# Bulk Modulus (GPa) = 39.85582 58.01237 48.93409
# Shear Modulus (GPa) = 25.71444 30.02479 27.86961
#
# Velocity S-wave (km/s) = 3.57272 3.86056 3.71943
# Velocity P-wave (km/s) = 6.06655 6.97629 6.53726
#
# Compressibility (1/GPa) = 0.02509044
#
# Stress axis : x y z
#
# Youngs Moduli (GPa) = 105.08734 36.42338 116.39535
#
# Poissons Ratio (x) = 0.19241 0.31215
# Poissons Ratio (y) = 0.55513 0.26439
# Poissons Ratio (z) = 0.28183 0.08274
#
# Static dielectric constant tensor:
#      x y z
#    x 3.427940 0.000000 0.000000 
#    y 0.000000 3.408410 0.000000 
#    z 0.000000 0.000000 4.285890 
# 
# 
# High freq. dielectric constant tensor:
#      x y z
#    x 1.803020 0.000000 0.000000 
#    y 0.000000 1.765420 0.000000 
#    z 0.000000 0.000000 1.793940 
# 
# From -- ./inp_files/15013.got.cif
#   From: 2010.03.12/outbox.cif.g09.slc.cpg/sg59_8_cif.got.tgz:15013.got - 2010.04.16 16:29:54.
