data_PCOD8245532
_publ_section_title
;
Structure prediction by ZEFSAII (Michael W. Deem and Ramdas Pophale) SiO2 
 PCOD8245532
Probable space group: P M M N
;
_chemical_formula_sum "Si O2"
_cell_formula_units_Z 56
_cell_length_a 19.551335
_cell_length_b 9.029700
_cell_length_c 15.921175
_cell_angle_alpha 90.000000
_cell_angle_beta 90.000000
_cell_angle_gamma 90.000000
_cell_volume 2810.767057
_symmetry_space_group_name_H-M "P M M N"
_symmetry_group_IT_number 59
_space_group.IT_coordinate_system_code '2'
_symmetry_cell_setting 'orthorhombic'
loop_
_space_group_symop_operation_xyz
x,y,z
1/2-x,1/2-y,z
1/2+x,-y,-z
-x,1/2+y,-z
-x,-y,-z
1/2+x,1/2+y,-z
1/2-x,y,z
x,1/2-y,z
loop_
_atom_site_type_symbol
_atom_site_label
_atom_site_fract_x
_atom_site_fract_y
_atom_site_fract_z
Si Si1 0.829285 0.917620 0.192990
Si Si2 0.414174 0.924350 0.671247
Si Si3 0.327821 0.419526 0.000391
Si Si4 0.047789 0.576546 0.067963
Si Si5 0.826685 0.079841 0.644309
Si Si6 0.328404 0.076941 0.528372
Si Si7 0.040095 0.578082 0.258872
O O1 0.750000 0.951956 0.206936
O O2 0.845953 0.750000 0.222823
O O3 0.872455 0.033775 0.245561
O O4 0.849740 0.936367 0.096362
O O5 0.416018 0.750000 0.660407
O O6 0.379204 0.993259 0.589980
O O7 0.491264 0.984132 0.680297
O O8 0.250000 0.470358 0.013386
O O9 0.337709 0.250000 0.028675
O O10 0.374252 0.525166 0.056493
O O11 0.042781 0.750000 0.053505
O O12 0.026065 0.533083 0.162328
O O13 0.000000 0.500000 0.000000
O O14 0.750000 0.047007 0.678752
O O15 0.832803 0.250000 0.614948
O O16 0.881029 0.043714 0.717516
O O17 0.843401 0.976975 0.565373
O O18 0.250000 0.041959 0.554066
O O19 0.343772 0.250000 0.533666
O O20 0.023133 0.750000 0.272444
#
# Coordination Sequence:
#
# PCOD8245532 Si02
#       7
#     8   8   8   8   8   8   8
#     4   9  18  34  55  78 109 150 190 229 280 339
#     4  12  24  35  53  83 116 149 189 234 275 323
#     4   9  19  36  57  81 110 145 185 232 287 342
#     4  11  23  38  58  83 113 151 193 236 284 340
#     4   9  19  39  65  88 110 139 182 235 282 326
#     4  10  21  38  61  87 116 151 185 219 270 334
#     4  10  23  41  59  81 112 151 188 227 283 341
#
# _framework density 19.923387999999999
#
# number of rings (size 3 to 8) (size 9 to 14) (size 15 to 20)
#    0.000    2.000    0.000    4.286    0.000   10.000 
#    0.000    2.857    0.000    1.714    0.000    0.000 
#    0.000    0.000    0.000    0.000    0.000    0.000 
#
# Total GULP energy -694546.022254 kJ/mol
# GULP energy per Si atom -12402.607540 kJ/mol
# Density = 1.987804 g / cm^3
# Si number density = 19.923388 Si / 1000 Ang^3
#
#
#
# Elastic Constant Matrix: (Units=GPa)
#
#
# Indices 1 2 3 4 5 6 
#
# 1 114.3610 58.0831 57.9059 0.0000 0.0000 0.0000
# 2 58.0831 103.2713 58.4914 0.0000 0.0000 0.0000
# 3 57.9059 58.4914 86.0856 0.0000 0.0000 0.0000
# 4 0.0000 0.0000 0.0000 31.3285 0.0000 0.0000
# 5 0.0000 0.0000 0.0000 0.0000 38.1384 0.0000
# 6 0.0000 0.0000 0.0000 0.0000 0.0000 34.1825
#
#
#
# Elastic Compliance Matrix: (Units=1/GPa)
#
#
# Indices 1 2 3 4 5 6 
#
# 1 0.014310 -0.004221 -0.006758 0.000000 0.000000 0.000000
# 2 -0.004221 0.016986 -0.008702 0.000000 0.000000 0.000000
# 3 -0.006758 -0.008702 0.022074 0.000000 0.000000 0.000000
# 4 0.000000 0.000000 0.000000 0.031920 0.000000 0.000000
# 5 0.000000 0.000000 0.000000 0.000000 0.026220 0.000000
# 6 0.000000 0.000000 0.000000 0.000000 0.000000 0.029255
#
#
# Mechanical properties :
#
#
# Convention : Reuss Voigt Hill
#
# Bulk Modulus (GPa) = 71.38171 72.51985 71.95078
# Shear Modulus (GPa) = 27.05698 29.34572 28.20135
#
# Velocity S-wave (km/s) = 3.68917 3.84204 3.76638
# Velocity P-wave (km/s) = 7.35204 7.49400 7.42336
#
# Compressibility (1/GPa) = 0.01400919
#
# Stress axis : x y z
#
# Youngs Moduli (GPa) = 69.88315 58.87261 45.30115
#
# Poissons Ratio (x) = 0.24849 0.30613
# Poissons Ratio (y) = 0.29496 0.39421
# Poissons Ratio (z) = 0.47224 0.51231
#
# Static dielectric constant tensor:
#      x y z
#    x 3.774620 0.000000 0.000000 
#    y 0.000000 3.616200 0.000000 
#    z 0.000000 0.000000 3.545680 
# 
# 
# High freq. dielectric constant tensor:
#      x y z
#    x 1.789390 0.000000 0.000000 
#    y 0.000000 1.771510 0.000000 
#    z 0.000000 0.000000 1.770000 
# 
# From -- ./inp_files/24209.got.cif
#   From: 2010.03.12/outbox.cif.g09.slc.cpg/sg59_13_cif.got.tgz:24209.got - 2010.04.16 16:29:54.
