data_PCOD8245974
_publ_section_title
;
Structure prediction by ZEFSAII (Michael W. Deem and Ramdas Pophale) SiO2 
 PCOD8245974
Probable space group: P M M N
;
_chemical_formula_sum "Si O2"
_cell_formula_units_Z 64
_cell_length_a 8.883618
_cell_length_b 19.827888
_cell_length_c 19.252737
_cell_angle_alpha 90.000000
_cell_angle_beta 90.000000
_cell_angle_gamma 90.000000
_cell_volume 3391.242222
_symmetry_space_group_name_H-M "P M M N"
_symmetry_group_IT_number 59
_space_group.IT_coordinate_system_code '2'
_symmetry_cell_setting 'orthorhombic'
loop_
_space_group_symop_operation_xyz
x,y,z
1/2-x,1/2-y,z
1/2+x,-y,-z
-x,1/2+y,-z
-x,-y,-z
1/2+x,1/2+y,-z
1/2-x,y,z
x,1/2-y,z
loop_
_atom_site_type_symbol
_atom_site_label
_atom_site_fract_x
_atom_site_fract_y
_atom_site_fract_z
Si Si1 0.573770 0.913091 0.569552
Si Si2 0.428940 0.173809 0.304183
Si Si3 0.579387 0.171195 0.827155
Si Si4 0.428031 0.822965 0.018905
Si Si5 0.071628 0.952605 0.942057
Si Si6 0.421505 0.445719 0.577935
Si Si7 0.572661 0.946534 0.793666
Si Si8 0.921979 0.929190 0.270510
O O1 0.750000 0.911167 0.582051
O O2 0.505493 0.857834 0.623382
O O3 0.530163 0.899010 0.488300
O O4 0.520249 0.987874 0.586434
O O5 0.250000 0.177211 0.307200
O O6 0.494161 0.250000 0.294161
O O7 0.477798 0.125428 0.239668
O O8 0.750000 0.144190 0.818381
O O9 0.572464 0.250000 0.811184
O O10 0.516502 0.155577 0.904397
O O11 0.469910 0.133900 0.774975
O O12 0.250000 0.816918 0.024169
O O13 0.496238 0.750000 0.997686
O O14 0.477427 0.876651 0.961709
O O15 0.250000 0.963279 0.942658
O O16 0.008611 0.964501 0.865696
O O17 0.000000 0.000000 0.000000
O O18 0.250000 0.469467 0.566032
O O19 0.439253 0.404671 0.649512
O O20 0.750000 0.948007 0.806258
O O21 0.525937 0.005542 0.741190
O O22 0.750000 0.948722 0.253458
#
# Coordination Sequence:
#
# PCOD8245974 Si02
#       8
#     8   8   8   8   8   8   8   8
#     4   9  16  31  53  76 100 135 180 221 268 323
#     4   9  18  33  54  79 107 142 188 236 276 322
#     4   9  18  34  56  79 103 136 177 217 262 322
#     4   8  16  33  55  75  96 128 171 213 255 311
#     4  11  22  36  56  82 110 139 173 221 275 327
#     4   9  18  30  49  77 107 134 171 223 273 317
#     4  11  22  36  54  77 107 143 185 226 272 326
#     4  11  21  33  51  78 111 142 177 225 273 322
#
# _framework density 18.872140999999999
#
# number of rings (size 3 to 8) (size 9 to 14) (size 15 to 20)
#    0.000    2.375    1.250    2.625    0.000    2.250 
#    0.000    1.250    0.000    7.875    0.000    0.000 
#    0.000    0.000    0.000    0.000    0.000    0.000 
#
# Total GULP energy -793135.974205 kJ/mol
# GULP energy per Si atom -12392.749597 kJ/mol
# Density = 1.882919 g / cm^3
# Si number density = 18.872141 Si / 1000 Ang^3
#
#
#
# Elastic Constant Matrix: (Units=GPa)
#
#
# Indices 1 2 3 4 5 6 
#
# 1 44.3428 22.5318 31.4768 0.0000 0.0000 0.0000
# 2 22.5318 68.4698 41.8683 0.0000 0.0000 0.0000
# 3 31.4768 41.8683 122.4277 0.0000 0.0000 0.0000
# 4 0.0000 0.0000 0.0000 29.3452 0.0000 0.0000
# 5 0.0000 0.0000 0.0000 0.0000 22.6204 0.0000
# 6 0.0000 0.0000 0.0000 0.0000 0.0000 20.3082
#
#
#
# Elastic Compliance Matrix: (Units=1/GPa)
#
#
# Indices 1 2 3 4 5 6 
#
# 1 0.029680 -0.006449 -0.005425 0.000000 0.000000 0.000000
# 2 -0.006449 0.019868 -0.005136 0.000000 0.000000 0.000000
# 3 -0.005425 -0.005136 0.011320 0.000000 0.000000 0.000000
# 4 0.000000 0.000000 0.000000 0.034077 0.000000 0.000000
# 5 0.000000 0.000000 0.000000 0.000000 0.044208 0.000000
# 6 0.000000 0.000000 0.000000 0.000000 0.000000 0.049241
#
#
# Mechanical properties :
#
#
# Convention : Reuss Voigt Hill
#
# Bulk Modulus (GPa) = 37.25049 47.44380 42.34714
# Shear Modulus (GPa) = 21.61095 23.74567 22.67831
#
# Velocity S-wave (km/s) = 3.38764 3.55102 3.47029
# Velocity P-wave (km/s) = 5.92306 6.48129 6.20845
#
# Compressibility (1/GPa) = 0.02684529
#
# Stress axis : x y z
#
# Youngs Moduli (GPa) = 33.69295 50.33170 88.34312
#
# Poissons Ratio (x) = 0.32461 0.47928
# Poissons Ratio (y) = 0.21730 0.45377
# Poissons Ratio (z) = 0.18279 0.25852
#
# Static dielectric constant tensor:
#      x y z
#    x 3.254100 0.000000 0.000000 
#    y 0.000000 2.824810 0.000000 
#    z 0.000000 0.000000 3.741500 
# 
# 
# High freq. dielectric constant tensor:
#      x y z
#    x 1.709110 0.000000 0.000000 
#    y 0.000000 1.718570 0.000000 
#    z 0.000000 0.000000 1.747860 
# 
# From -- ./inp_files/26213.got.cif
#   From: 2010.03.12/outbox.cif.g09.slc.cpg/sg59_14_cif.got.tgz:26213.got - 2010.04.16 16:29:54.
