data_PCOD8245740
_publ_section_title
;
Structure prediction by ZEFSAII (Michael W. Deem and Ramdas Pophale) SiO2 
 PCOD8245740
Probable space group: P M M N
;
_chemical_formula_sum "Si O2"
_cell_formula_units_Z 48
_cell_length_a 18.758630
_cell_length_b 7.687387
_cell_length_c 16.133892
_cell_angle_alpha 90.000000
_cell_angle_beta 90.000000
_cell_angle_gamma 90.000000
_cell_volume 2326.585450
_symmetry_space_group_name_H-M "P M M N"
_symmetry_group_IT_number 59
_space_group.IT_coordinate_system_code '2'
_symmetry_cell_setting 'orthorhombic'
loop_
_space_group_symop_operation_xyz
x,y,z
1/2-x,1/2-y,z
1/2+x,-y,-z
-x,1/2+y,-z
-x,-y,-z
1/2+x,1/2+y,-z
1/2-x,y,z
x,1/2-y,z
loop_
_atom_site_type_symbol
_atom_site_label
_atom_site_fract_x
_atom_site_fract_y
_atom_site_fract_z
Si Si1 0.568089 0.955033 0.554800
Si Si2 0.900692 0.554095 0.196042
Si Si3 0.667888 0.250000 0.296366
Si Si4 0.830256 0.052933 0.849047
Si Si5 0.830763 0.953095 0.028592
Si Si6 0.667444 0.250000 0.490819
Si Si7 0.956559 0.944827 0.742217
O O1 0.587644 0.750000 0.547795
O O2 0.551812 0.011872 0.648776
O O3 0.500000 0.000000 0.500000
O O4 0.634075 0.072466 0.526205
O O5 0.870329 0.750000 0.208561
O O6 0.866517 0.426862 0.262934
O O7 0.881699 0.487145 0.103718
O O8 0.986036 0.560000 0.208048
O O9 0.750000 0.250000 0.271388
O O10 0.654881 0.250000 0.393406
O O11 0.750000 0.975654 0.842619
O O12 0.832073 0.250000 0.817815
O O13 0.881235 0.944561 0.789261
O O14 0.856131 0.046403 0.944510
O O15 0.750000 0.007642 0.051617
O O16 0.836968 0.750000 0.011831
O O17 0.750000 0.250000 0.515445
O O18 0.986932 0.750000 0.740216
#
# Coordination Sequence:
#
# PCOD8245740 Si02
#       7
#     8   8   4   8   8   4   8
#     4  11  24  43  70  97 127 174 222 268 329 404
#     4  11  23  39  64  95 130 167 212 266 311 377
#     4  11  24  42  64  95 132 166 205 259 322 384
#     4  10  22  38  60  90 123 166 216 263 316 379
#     4   9  19  37  59  86 122 168 212 254 314 377
#     4  11  26  44  66  99 134 168 213 275 336 390
#     4  11  24  41  62  92 126 165 215 266 325 379
#
# _framework density 20.631091999999999
#
# number of rings (size 3 to 8) (size 9 to 14) (size 15 to 20)
#    0.000    1.500    1.667    2.500    3.500    5.667 
#    0.000    3.333    0.000    0.000    0.000    0.000 
#    0.000    0.000    0.000    0.000    0.000    0.000 
#
# Total GULP energy -595330.535156 kJ/mol
# GULP energy per Si atom -12402.719482 kJ/mol
# Density = 2.058413 g / cm^3
# Si number density = 20.631092 Si / 1000 Ang^3
#
#
#
# Elastic Constant Matrix: (Units=GPa)
#
#
# Indices 1 2 3 4 5 6 
#
# 1 120.8710 36.4101 86.1905 0.0000 0.0000 0.0000
# 2 36.4101 91.3734 32.3202 0.0000 0.0000 0.0000
# 3 86.1905 32.3202 140.6941 0.0000 0.0000 0.0000
# 4 0.0000 0.0000 0.0000 33.6839 0.0000 0.0000
# 5 0.0000 0.0000 0.0000 0.0000 41.0460 0.0000
# 6 0.0000 0.0000 0.0000 0.0000 0.0000 29.5801
#
#
#
# Elastic Compliance Matrix: (Units=1/GPa)
#
#
# Indices 1 2 3 4 5 6 
#
# 1 0.015436 -0.003054 -0.008755 0.000000 0.000000 0.000000
# 2 -0.003054 0.012516 -0.001004 0.000000 0.000000 0.000000
# 3 -0.008755 -0.001004 0.012701 0.000000 0.000000 0.000000
# 4 0.000000 0.000000 0.000000 0.029688 0.000000 0.000000
# 5 0.000000 0.000000 0.000000 0.000000 0.024363 0.000000
# 6 0.000000 0.000000 0.000000 0.000000 0.000000 0.033806
#
#
# Mechanical properties :
#
#
# Convention : Reuss Voigt Hill
#
# Bulk Modulus (GPa) = 66.54371 73.64222 70.09297
# Shear Modulus (GPa) = 31.41760 34.06320 32.74040
#
# Velocity S-wave (km/s) = 3.90658 4.06773 3.98797
# Velocity P-wave (km/s) = 7.25759 7.60488 7.43326
#
# Compressibility (1/GPa) = 0.01502772
#
# Stress axis : x y z
#
# Youngs Moduli (GPa) = 64.78330 79.89554 78.73093
#
# Poissons Ratio (x) = 0.24402 0.68926
# Poissons Ratio (y) = 0.19786 0.07906
# Poissons Ratio (z) = 0.56716 0.08023
#
# Static dielectric constant tensor:
#      x y z
#    x 3.745730 0.000000 0.000000 
#    y 0.000000 3.740680 0.000000 
#    z 0.000000 0.000000 3.785540 
# 
# 
# High freq. dielectric constant tensor:
#      x y z
#    x 1.802050 0.000000 0.000000 
#    y 0.000000 1.814670 0.000000 
#    z 0.000000 0.000000 1.813340 
# 
# From -- ./inp_files/23732.got.cif
#   From: 2010.03.12/outbox.cif.g09.slc.cpg/sg59_12_cif.got.tgz:23732.got - 2010.04.16 16:29:54.
