data_PCOD8245109
_publ_section_title
;
Structure prediction by ZEFSAII (Michael W. Deem and Ramdas Pophale) SiO2 
 PCOD8245109
Probable space group: P M M N
;
_chemical_formula_sum "Si O2"
_cell_formula_units_Z 40
_cell_length_a 9.408493
_cell_length_b 7.408882
_cell_length_c 27.922487
_cell_angle_alpha 90.000000
_cell_angle_beta 90.000000
_cell_angle_gamma 90.000000
_cell_volume 1946.376451
_symmetry_space_group_name_H-M "P M M N"
_symmetry_group_IT_number 59
_space_group.IT_coordinate_system_code '2'
_symmetry_cell_setting 'orthorhombic'
loop_
_space_group_symop_operation_xyz
x,y,z
1/2-x,1/2-y,z
1/2+x,-y,-z
-x,1/2+y,-z
-x,-y,-z
1/2+x,1/2+y,-z
1/2-x,y,z
x,1/2-y,z
loop_
_atom_site_type_symbol
_atom_site_label
_atom_site_fract_x
_atom_site_fract_y
_atom_site_fract_z
Si Si1 0.418030 0.963474 0.860418
Si Si2 0.750000 0.964175 0.544918
Si Si3 0.978568 0.548771 0.617179
Si Si4 0.414966 0.750000 0.311810
Si Si5 0.750000 0.965899 0.437055
Si Si6 0.589739 0.959704 0.953010
Si Si7 0.419807 0.750000 0.199897
O O1 0.250000 0.013226 0.862226
O O2 0.437587 0.750000 0.851719
O O3 0.494461 0.031595 0.909105
O O4 0.501152 0.070640 0.819101
O O5 0.750000 0.750000 0.540953
O O6 0.617799 0.036961 0.575324
O O7 0.750000 0.042451 0.491303
O O8 0.928364 0.750000 0.632283
O O9 0.982112 0.428536 0.664866
O O10 0.127257 0.557008 0.592313
O O11 0.250000 0.750000 0.322891
O O12 0.447735 0.750000 0.256075
O O13 0.750000 0.750000 0.434662
O O14 0.750000 0.047632 0.954443
O O15 0.610687 0.750000 0.946761
O O16 0.500000 0.000000 0.000000
O O17 0.250000 0.750000 0.187711
#
# Coordination Sequence:
#
# PCOD8245109 Si02
#       7
#     8   4   8   4   4   8   4
#     4  10  22  43  67  94 132 170 216 273 330 393
#     4   9  20  36  62  90 120 164 208 244 306 375
#     4  11  22  41  61  88 125 162 204 256 309 376
#     4  11  24  44  68  92 120 164 212 264 323 376
#     4  11  21  37  59  92 127 163 204 251 305 373
#     4  10  21  36  58  91 131 177 221 262 317 379
#     4  11  25  43  69  97 121 165 223 277 336 391
#
# _framework density 20.551009000000001
#
# number of rings (size 3 to 8) (size 9 to 14) (size 15 to 20)
#    0.000    1.600    2.000    2.400    1.400    3.200 
#    7.200    2.000    0.000    0.000    0.000    0.000 
#    0.000    0.000    0.000    0.000    0.000    0.000 
#
# Total GULP energy -495756.768085 kJ/mol
# GULP energy per Si atom -12393.919202 kJ/mol
# Density = 2.050423 g / cm^3
# Si number density = 20.551009 Si / 1000 Ang^3
#
#
#
# Elastic Constant Matrix: (Units=GPa)
#
#
# Indices 1 2 3 4 5 6 
#
# 1 179.5472 29.9148 80.6570 0.0000 0.0000 0.0000
# 2 29.9148 89.3776 49.8569 0.0000 0.0000 0.0000
# 3 80.6570 49.8569 165.1453 0.0000 0.0000 0.0000
# 4 0.0000 0.0000 0.0000 37.7237 0.0000 0.0000
# 5 0.0000 0.0000 0.0000 0.0000 28.7333 0.0000
# 6 0.0000 0.0000 0.0000 0.0000 0.0000 374.3964
#
#
#
# Elastic Compliance Matrix: (Units=1/GPa)
#
#
# Indices 1 2 3 4 5 6 
#
# 1 0.007156 -0.000536 -0.003333 0.000000 0.000000 0.000000
# 2 -0.000536 0.013494 -0.003812 0.000000 0.000000 0.000000
# 3 -0.003333 -0.003812 0.008834 0.000000 0.000000 0.000000
# 4 0.000000 0.000000 0.000000 0.026509 0.000000 0.000000
# 5 0.000000 0.000000 0.000000 0.000000 0.034803 0.000000
# 6 0.000000 0.000000 0.000000 0.000000 0.000000 0.002671
#
#
# Mechanical properties :
#
#
# Convention : Reuss Voigt Hill
#
# Bulk Modulus (GPa) = 70.81122 83.88083 77.34602
# Shear Modulus (GPa) = 44.03838 106.41344 75.22591
#
# Velocity S-wave (km/s) = 4.63415 7.20365 6.05673
# Velocity P-wave (km/s) = 7.94764 10.49260 9.30751
#
# Compressibility (1/GPa) = 0.01412206
#
# Stress axis : x y z
#
# Youngs Moduli (GPa) = 139.73765 74.10498 113.19640
#
# Poissons Ratio (x) = 0.03970 0.37733
# Poissons Ratio (y) = 0.07487 0.43153
# Poissons Ratio (z) = 0.46580 0.28251
#
# Static dielectric constant tensor:
#      x y z
#    x 3.999850 0.000000 0.000000 
#    y 0.000000 3.260390 0.000000 
#    z 0.000000 0.000000 4.014270 
# 
# 
# High freq. dielectric constant tensor:
#      x y z
#    x 1.820650 0.000000 0.000000 
#    y 0.000000 1.806470 0.000000 
#    z 0.000000 0.000000 1.795250 
# 
# From -- ./inp_files/32454.got.cif
#   From: 2010.03.12/outbox.cif.g09.slc.cpg/sg59_17_cif.got.tgz:32454.got - 2010.04.16 16:29:54.
