data_PCOD8245956
_publ_section_title
;
Structure prediction by ZEFSAII (Michael W. Deem and Ramdas Pophale) SiO2 
 PCOD8245956
Probable space group: P M M N
;
_chemical_formula_sum "Si O2"
_cell_formula_units_Z 64
_cell_length_a 30.916552
_cell_length_b 8.702502
_cell_length_c 11.914056
_cell_angle_alpha 90.000000
_cell_angle_beta 90.000000
_cell_angle_gamma 90.000000
_cell_volume 3205.492918
_symmetry_space_group_name_H-M "P M M N"
_symmetry_group_IT_number 59
_space_group.IT_coordinate_system_code '2'
_symmetry_cell_setting 'orthorhombic'
loop_
_space_group_symop_operation_xyz
x,y,z
1/2-x,1/2-y,z
1/2+x,-y,-z
-x,1/2+y,-z
-x,-y,-z
1/2+x,1/2+y,-z
1/2-x,y,z
x,1/2-y,z
loop_
_atom_site_type_symbol
_atom_site_label
_atom_site_fract_x
_atom_site_fract_y
_atom_site_fract_z
Si Si1 0.297816 0.567462 0.004803
Si Si2 0.081150 0.075957 0.234020
Si Si3 0.546610 0.070539 0.984385
Si Si4 0.171765 0.568711 0.248700
Si Si5 0.125119 0.932019 0.603593
Si Si6 0.798220 0.573960 0.534107
Si Si7 0.454527 0.074539 0.474035
Si Si8 0.377103 0.932859 0.859076
O O1 0.250000 0.505536 0.971486
O O2 0.298113 0.750000 0.001090
O O3 0.308400 0.512947 0.130969
O O4 0.333729 0.501209 0.919106
O O5 0.083125 0.250000 0.187990
O O6 0.049936 0.065565 0.340422
O O7 0.063603 0.963413 0.139299
O O8 0.127695 0.020033 0.273537
O O9 0.542113 0.250000 0.001446
O O10 0.580681 0.003806 0.075406
O O11 0.500000 0.000000 0.000000
O O12 0.163412 0.750000 0.249064
O O13 0.203005 0.521014 0.349833
O O14 0.129329 0.750000 0.597452
O O15 0.120900 0.990636 0.731534
O O16 0.168536 0.004003 0.554311
O O17 0.083114 0.981878 0.535585
O O18 0.750000 0.562715 0.482264
O O19 0.811242 0.750000 0.558577
O O20 0.453180 0.250000 0.516130
O O21 0.500000 0.000000 0.500000
O O22 0.376344 0.750000 0.865935
#
# Coordination Sequence:
#
# PCOD8245956 Si02
#       8
#     8   8   8   8   8   8   8   8
#     4   9  17  32  57  89 121 152 190 241 299 352
#     4  11  23  40  63  91 124 162 200 248 307 363
#     4  11  23  41  63  91 124 159 203 250 305 363
#     4  11  20  35  62  93 123 157 201 253 302 361
#     4  11  23  40  64  90 120 160 208 255 302 363
#     4  11  24  41  60  86 125 166 202 251 312 367
#     4  11  25  43  64  90 124 161 203 253 308 364
#     4   9  20  38  58  86 122 156 194 249 302 348
#
# _framework density 19.965727000000001
#
# number of rings (size 3 to 8) (size 9 to 14) (size 15 to 20)
#    0.000    1.500    2.500    2.625    1.750    3.500 
#    0.000    3.125    0.000    0.000    0.000    0.000 
#    0.000    0.000    0.000    0.000    0.000    0.000 
#
# Total GULP energy -793741.999653 kJ/mol
# GULP energy per Si atom -12402.218745 kJ/mol
# Density = 1.992028 g / cm^3
# Si number density = 19.965727 Si / 1000 Ang^3
#
#
#
# Elastic Constant Matrix: (Units=GPa)
#
#
# Indices 1 2 3 4 5 6 
#
# 1 150.4616 32.6090 54.4851 0.0000 0.0000 0.0000
# 2 32.6090 48.0009 25.6526 0.0000 0.0000 0.0000
# 3 54.4851 25.6526 126.2941 0.0000 0.0000 0.0000
# 4 0.0000 0.0000 0.0000 23.4125 0.0000 0.0000
# 5 0.0000 0.0000 0.0000 0.0000 28.1923 0.0000
# 6 0.0000 0.0000 0.0000 0.0000 0.0000 28.2013
#
#
#
# Elastic Compliance Matrix: (Units=1/GPa)
#
#
# Indices 1 2 3 4 5 6 
#
# 1 0.008612 -0.004336 -0.002835 0.000000 0.000000 0.000000
# 2 -0.004336 0.025553 -0.003320 0.000000 0.000000 0.000000
# 3 -0.002835 -0.003320 0.009815 0.000000 0.000000 0.000000
# 4 0.000000 0.000000 0.000000 0.042712 0.000000 0.000000
# 5 0.000000 0.000000 0.000000 0.000000 0.035471 0.000000
# 6 0.000000 0.000000 0.000000 0.000000 0.000000 0.035459
#
#
# Mechanical properties :
#
#
# Convention : Reuss Voigt Hill
#
# Bulk Modulus (GPa) = 43.47887 61.13888 52.30887
# Shear Modulus (GPa) = 26.84277 30.09520 28.46898
#
# Velocity S-wave (km/s) = 3.67064 3.88666 3.78020
# Velocity P-wave (km/s) = 6.30784 7.12951 6.73122
#
# Compressibility (1/GPa) = 0.02299968
#
# Stress axis : x y z
#
# Youngs Moduli (GPa) = 116.11094 39.13504 101.88173
#
# Poissons Ratio (x) = 0.16968 0.28882
# Poissons Ratio (y) = 0.50343 0.33821
# Poissons Ratio (z) = 0.32916 0.12991
#
# Static dielectric constant tensor:
#      x y z
#    x 3.688610 0.000000 0.000000 
#    y 0.000000 3.508550 0.000000 
#    z 0.000000 0.000000 2.994920 
# 
# 
# High freq. dielectric constant tensor:
#      x y z
#    x 1.794520 0.000000 0.000000 
#    y 0.000000 1.764650 0.000000 
#    z 0.000000 0.000000 1.781910 
# 
# From -- ./inp_files/19372.got.cif
#   From: 2010.03.12/outbox.cif.g09.slc.cpg/sg59_10_cif.got.tgz:19372.got - 2010.04.16 16:29:54.
