data_PCOD8245686
_publ_section_title
;
Structure prediction by ZEFSAII (Michael W. Deem and Ramdas Pophale) SiO2 
 PCOD8245686
Probable space group: P M M N
;
_chemical_formula_sum "Si O2"
_cell_formula_units_Z 56
_cell_length_a 20.651161
_cell_length_b 9.342774
_cell_length_c 13.334797
_cell_angle_alpha 90.000000
_cell_angle_beta 90.000000
_cell_angle_gamma 90.000000
_cell_volume 2572.804133
_symmetry_space_group_name_H-M "P M M N"
_symmetry_group_IT_number 59
_space_group.IT_coordinate_system_code '2'
_symmetry_cell_setting 'orthorhombic'
loop_
_space_group_symop_operation_xyz
x,y,z
1/2-x,1/2-y,z
1/2+x,-y,-z
-x,1/2+y,-z
-x,-y,-z
1/2+x,1/2+y,-z
1/2-x,y,z
x,1/2-y,z
loop_
_atom_site_type_symbol
_atom_site_label
_atom_site_fract_x
_atom_site_fract_y
_atom_site_fract_z
Si Si1 0.862262 0.911080 0.359610
Si Si2 0.321532 0.915057 0.227731
Si Si3 0.003973 0.588626 0.399898
Si Si4 0.177811 0.592045 0.460514
Si Si5 0.322982 0.916986 0.829927
Si Si6 0.063924 0.088358 0.236695
Si Si7 0.543479 0.089258 0.076240
O O1 0.833756 0.750000 0.361203
O O2 0.938319 0.909059 0.335270
O O3 0.859132 0.978323 0.470698
O O4 0.825086 0.000664 0.275409
O O5 0.250000 0.946818 0.182481
O O6 0.339613 0.750000 0.208251
O O7 0.320572 0.954356 0.345006
O O8 0.375814 0.016614 0.174822
O O9 0.026492 0.750000 0.424130
O O10 0.000000 0.500000 0.500000
O O11 0.058885 0.511281 0.334666
O O12 0.250000 0.597375 0.503282
O O13 0.146100 0.750000 0.472037
O O14 0.250000 0.942112 0.875985
O O15 0.334143 0.750000 0.807029
O O16 0.382429 0.968380 0.903344
O O17 0.082316 0.250000 0.266528
O O18 0.996028 0.086722 0.179474
O O19 0.548108 0.250000 0.033256
O O20 0.500000 0.000000 0.000000
#
# Coordination Sequence:
#
# PCOD8245686 Si02
#       7
#     8   8   8   8   8   8   8
#     4  11  22  33  49  80 118 155 199 250 303 354
#     4   9  19  36  57  82 114 157 207 254 301 354
#     4  11  23  36  53  81 119 164 209 255 303 359
#     4   9  18  32  49  71 106 155 203 243 289 347
#     4  10  21  40  65  90 119 156 197 243 299 367
#     4  11  22  38  60  87 119 155 197 248 306 365
#     4  10  23  43  67  94 121 155 198 247 306 371
#
# _framework density 21.766134999999998
#
# number of rings (size 3 to 8) (size 9 to 14) (size 15 to 20)
#    0.000    1.857    1.429    3.429    0.000    8.857 
#    0.000    2.143    0.000    2.571    0.000    0.000 
#    0.000    0.000    0.000    0.000    0.000    0.000 
#
# Total GULP energy -693915.934229 kJ/mol
# GULP energy per Si atom -12391.355968 kJ/mol
# Density = 2.171659 g / cm^3
# Si number density = 21.766135 Si / 1000 Ang^3
#
#
#
# Elastic Constant Matrix: (Units=GPa)
#
#
# Indices 1 2 3 4 5 6 
#
# 1 161.3154 43.4426 9.5943 0.0000 0.0000 0.0000
# 2 43.4426 117.3472 16.1103 0.0000 0.0000 0.0000
# 3 9.5943 16.1103 27.7857 0.0000 0.0000 0.0000
# 4 0.0000 0.0000 0.0000 27.1455 0.0000 0.0000
# 5 0.0000 0.0000 0.0000 0.0000 25.4886 0.0000
# 6 0.0000 0.0000 0.0000 0.0000 0.0000 32.0407
#
#
#
# Elastic Compliance Matrix: (Units=1/GPa)
#
#
# Indices 1 2 3 4 5 6 
#
# 1 0.006910 -0.002423 -0.000981 0.000000 0.000000 0.000000
# 2 -0.002423 0.010109 -0.005024 0.000000 0.000000 0.000000
# 3 -0.000981 -0.005024 0.039241 0.000000 0.000000 0.000000
# 4 0.000000 0.000000 0.000000 0.036839 0.000000 0.000000
# 5 0.000000 0.000000 0.000000 0.000000 0.039233 0.000000
# 6 0.000000 0.000000 0.000000 0.000000 0.000000 0.031210
#
#
# Mechanical properties :
#
#
# Convention : Reuss Voigt Hill
#
# Bulk Modulus (GPa) = 25.37878 49.41584 37.39731
# Shear Modulus (GPa) = 25.83531 32.75505 29.29518
#
# Velocity S-wave (km/s) = 3.44895 3.88346 3.67264
# Velocity P-wave (km/s) = 5.24837 6.54681 5.93322
#
# Compressibility (1/GPa) = 0.03940300
#
# Stress axis : x y z
#
# Youngs Moduli (GPa) = 144.71747 98.92506 25.48328
#
# Poissons Ratio (x) = 0.23974 0.02500
# Poissons Ratio (y) = 0.35072 0.12803
# Poissons Ratio (z) = 0.14195 0.49702
#
# Static dielectric constant tensor:
#      x y z
#    x 4.598120 0.000000 0.000000 
#    y 0.000000 3.899500 0.000000 
#    z 0.000000 0.000000 3.374590 
# 
# 
# High freq. dielectric constant tensor:
#      x y z
#    x 1.886590 0.000000 0.000000 
#    y 0.000000 1.848640 0.000000 
#    z 0.000000 0.000000 1.809480 
# 
# From -- ./inp_files/24305.got.cif
#   From: 2010.03.12/outbox.cif.g09.slc.cpg/sg59_13_cif.got.tgz:24305.got - 2010.04.16 16:29:54.
