data_PCOD8245457
_publ_section_title
;
Structure prediction by ZEFSAII (Michael W. Deem and Ramdas Pophale) SiO2 
 PCOD8245457
Probable space group: P M M N
;
_chemical_formula_sum "Si O2"
_cell_formula_units_Z 64
_cell_length_a 8.758971
_cell_length_b 25.219681
_cell_length_c 14.605883
_cell_angle_alpha 90.000000
_cell_angle_beta 90.000000
_cell_angle_gamma 90.000000
_cell_volume 3226.416981
_symmetry_space_group_name_H-M "P M M N"
_symmetry_group_IT_number 59
_space_group.IT_coordinate_system_code '2'
_symmetry_cell_setting 'orthorhombic'
loop_
_space_group_symop_operation_xyz
x,y,z
1/2-x,1/2-y,z
1/2+x,-y,-z
-x,1/2+y,-z
-x,-y,-z
1/2+x,1/2+y,-z
1/2-x,y,z
x,1/2-y,z
loop_
_atom_site_type_symbol
_atom_site_label
_atom_site_fract_x
_atom_site_fract_y
_atom_site_fract_z
Si Si1 0.428498 0.343542 0.517981
Si Si2 0.426600 0.809809 0.293634
Si Si3 0.073941 0.944477 0.970380
Si Si4 0.570359 0.692747 0.679387
Si Si5 0.071216 0.949841 0.453244
Si Si6 0.928208 0.515685 0.277014
Si Si7 0.575691 0.096444 0.838647
Si Si8 0.068129 0.410597 0.217389
O O1 0.250000 0.355130 0.526534
O O2 0.482108 0.316680 0.612037
O O3 0.468208 0.308822 0.428965
O O4 0.516374 0.397624 0.495813
O O5 0.250000 0.819993 0.316852
O O6 0.454288 0.750000 0.257544
O O7 0.480307 0.849694 0.212296
O O8 0.250000 0.955173 0.942605
O O9 0.986878 0.917535 0.886212
O O10 0.063901 0.900352 0.051317
O O11 0.000000 0.000000 0.000000
O O12 0.750000 0.689994 0.692150
O O13 0.508117 0.750000 0.715005
O O14 0.502880 0.644475 0.740003
O O15 0.250000 0.954677 0.456532
O O16 0.010751 0.946352 0.349993
O O17 0.000000 0.000000 0.500000
O O18 0.750000 0.511677 0.296654
O O19 0.966307 0.546207 0.183360
O O20 0.998929 0.457217 0.279814
O O21 0.750000 0.083381 0.809951
O O22 0.250000 0.413911 0.221685
#
# Coordination Sequence:
#
# PCOD8245457 Si02
#       8
#     8   8   8   8   8   8   8   8
#     4  11  21  36  60  89 118 155 203 253 302 354
#     4  10  21  38  60  86 118 159 203 248 301 361
#     4  11  22  37  60  89 121 156 198 245 302 362
#     4   9  20  39  61  85 116 157 203 248 295 348
#     4  12  24  38  55  81 121 162 202 246 300 363
#     4  12  23  36  58  87 120 156 196 243 297 359
#     4  10  21  38  59  83 118 158 194 241 300 361
#     4  11  22  38  62  89 120 158 199 248 305 360
#
# _framework density 19.836245999999999
#
# number of rings (size 3 to 8) (size 9 to 14) (size 15 to 20)
#    0.000    1.250    2.500    4.500    0.000    2.250 
#    0.000    2.500    0.000    5.250    0.000    0.000 
#    0.000    0.000    0.000    0.000    0.000    0.000 
#
# Total GULP energy -793448.447326 kJ/mol
# GULP energy per Si atom -12397.631989 kJ/mol
# Density = 1.979110 g / cm^3
# Si number density = 19.836246 Si / 1000 Ang^3
#
#
#
# Elastic Constant Matrix: (Units=GPa)
#
#
# Indices 1 2 3 4 5 6 
#
# 1 108.5058 44.8669 25.7221 0.0000 0.0000 0.0000
# 2 44.8669 137.7205 44.8236 0.0000 0.0000 0.0000
# 3 25.7221 44.8236 78.1803 0.0000 0.0000 0.0000
# 4 0.0000 0.0000 0.0000 24.4605 0.0000 0.0000
# 5 0.0000 0.0000 0.0000 0.0000 31.3885 0.0000
# 6 0.0000 0.0000 0.0000 0.0000 0.0000 20.4860
#
#
#
# Elastic Compliance Matrix: (Units=1/GPa)
#
#
# Indices 1 2 3 4 5 6 
#
# 1 0.010876 -0.002924 -0.001902 0.000000 0.000000 0.000000
# 2 -0.002924 0.009713 -0.004607 0.000000 0.000000 0.000000
# 3 -0.001902 -0.004607 0.016058 0.000000 0.000000 0.000000
# 4 0.000000 0.000000 0.000000 0.040882 0.000000 0.000000
# 5 0.000000 0.000000 0.000000 0.000000 0.031859 0.000000
# 6 0.000000 0.000000 0.000000 0.000000 0.000000 0.048814
#
#
# Mechanical properties :
#
#
# Convention : Reuss Voigt Hill
#
# Bulk Modulus (GPa) = 56.23825 61.69243 58.96534
# Shear Modulus (GPa) = 27.32320 29.19995 28.26158
#
# Velocity S-wave (km/s) = 3.71541 3.84089 3.77867
# Velocity P-wave (km/s) = 6.84241 7.13010 6.98773
#
# Compressibility (1/GPa) = 0.01778149
#
# Stress axis : x y z
#
# Youngs Moduli (GPa) = 91.94470 102.95359 62.27477
#
# Poissons Ratio (x) = 0.30106 0.11843
# Poissons Ratio (y) = 0.26887 0.28689
# Poissons Ratio (z) = 0.17486 0.47428
#
# Static dielectric constant tensor:
#      x y z
#    x 3.544050 0.000000 0.000000 
#    y 0.000000 3.768130 0.000000 
#    z 0.000000 0.000000 3.636610 
# 
# 
# High freq. dielectric constant tensor:
#      x y z
#    x 1.767300 0.000000 0.000000 
#    y 0.000000 1.774990 0.000000 
#    z 0.000000 0.000000 1.774100 
# 
# From -- ./inp_files/21586.got.cif
#   From: 2010.03.12/outbox.cif.g09.slc.cpg/sg59_11_cif.got.tgz:21586.got - 2010.04.16 16:29:54.
