data_PCOD8245274
_publ_section_title
;
Structure prediction by ZEFSAII (Michael W. Deem and Ramdas Pophale) SiO2 
 PCOD8245274
Probable space group: P M M N
;
_chemical_formula_sum "Si O2"
_cell_formula_units_Z 56
_cell_length_a 19.118022
_cell_length_b 8.788080
_cell_length_c 16.519307
_cell_angle_alpha 90.000000
_cell_angle_beta 90.000000
_cell_angle_gamma 90.000000
_cell_volume 2775.420445
_symmetry_space_group_name_H-M "P M M N"
_symmetry_group_IT_number 59
_space_group.IT_coordinate_system_code '2'
_symmetry_cell_setting 'orthorhombic'
loop_
_space_group_symop_operation_xyz
x,y,z
1/2-x,1/2-y,z
1/2+x,-y,-z
-x,1/2+y,-z
-x,-y,-z
1/2+x,1/2+y,-z
1/2-x,y,z
x,1/2-y,z
loop_
_atom_site_type_symbol
_atom_site_label
_atom_site_fract_x
_atom_site_fract_y
_atom_site_fract_z
Si Si1 0.076591 0.569880 0.508439
Si Si2 0.455256 0.076438 0.069801
Si Si3 0.922765 0.571257 0.328062
Si Si4 0.944213 0.568568 0.748970
Si Si5 0.167654 0.577067 0.804399
Si Si6 0.671887 0.577071 0.033843
Si Si7 0.330845 0.570460 0.355381
O O1 0.070143 0.750000 0.513101
O O2 0.109213 0.504227 0.591267
O O3 0.128856 0.519712 0.436924
O O4 0.000000 0.500000 0.500000
O O5 0.478973 0.250000 0.071799
O O6 0.462485 0.007850 0.160181
O O7 0.374182 0.056349 0.046004
O O8 0.500000 0.000000 0.000000
O O9 0.931789 0.750000 0.339954
O O10 0.869516 0.536622 0.256433
O O11 0.998940 0.500588 0.311708
O O12 0.945808 0.750000 0.746457
O O13 0.867903 0.511042 0.720966
O O14 0.250000 0.556056 0.794194
O O15 0.143620 0.750000 0.787789
O O16 0.144096 0.532062 0.894753
O O17 0.750000 0.530887 0.008419
O O18 0.668421 0.750000 0.066387
O O19 0.250000 0.517518 0.360523
O O20 0.335921 0.750000 0.342653
#
# Coordination Sequence:
#
# PCOD8245274 Si02
#       7
#     8   8   8   8   8   8   8
#     4  11  22  39  64  91 121 158 199 246 298 355
#     4  10  22  37  56  85 117 152 196 248 301 354
#     4  12  24  38  60  88 120 158 200 245 297 358
#     4  11  23  39  61  89 121 158 202 251 302 357
#     4  10  21  37  57  84 118 153 194 247 303 357
#     4   9  18  35  57  79 109 150 193 238 294 358
#     4  10  23  43  65  91 124 161 201 246 301 363
#
# _framework density 20.177123999999999
#
# number of rings (size 3 to 8) (size 9 to 14) (size 15 to 20)
#    0.000    1.571    1.429    3.429    0.000    6.857 
#    0.000    2.857    0.000    1.714    0.000    0.000 
#    0.000    0.000    0.000    0.000    0.000    0.000 
#
# Total GULP energy -694495.516219 kJ/mol
# GULP energy per Si atom -12401.705647 kJ/mol
# Density = 2.013120 g / cm^3
# Si number density = 20.177124 Si / 1000 Ang^3
#
#
#
# Elastic Constant Matrix: (Units=GPa)
#
#
# Indices 1 2 3 4 5 6 
#
# 1 80.3956 36.8014 50.9222 0.0000 0.0000 0.0000
# 2 36.8014 76.1810 43.0800 0.0000 0.0000 0.0000
# 3 50.9222 43.0800 121.2338 0.0000 0.0000 0.0000
# 4 0.0000 0.0000 0.0000 33.2758 0.0000 0.0000
# 5 0.0000 0.0000 0.0000 0.0000 33.9967 0.0000
# 6 0.0000 0.0000 0.0000 0.0000 0.0000 31.2820
#
#
#
# Elastic Compliance Matrix: (Units=1/GPa)
#
#
# Indices 1 2 3 4 5 6 
#
# 1 0.018777 -0.005770 -0.005836 0.000000 0.000000 0.000000
# 2 -0.005770 0.018201 -0.004044 0.000000 0.000000 0.000000
# 3 -0.005836 -0.004044 0.012137 0.000000 0.000000 0.000000
# 4 0.000000 0.000000 0.000000 0.030052 0.000000 0.000000
# 5 0.000000 0.000000 0.000000 0.000000 0.029415 0.000000
# 6 0.000000 0.000000 0.000000 0.000000 0.000000 0.031967
#
#
# Mechanical properties :
#
#
# Convention : Reuss Voigt Hill
#
# Bulk Modulus (GPa) = 56.13716 59.93529 58.03622
# Shear Modulus (GPa) = 28.12354 29.51134 28.81744
#
# Velocity S-wave (km/s) = 3.73746 3.82856 3.78328
# Velocity P-wave (km/s) = 6.81963 7.02232 6.92171
#
# Compressibility (1/GPa) = 0.01781351
#
# Stress axis : x y z
#
# Youngs Moduli (GPa) = 53.25803 54.94231 82.39256
#
# Poissons Ratio (x) = 0.31702 0.48087
# Poissons Ratio (y) = 0.30730 0.33320
# Poissons Ratio (z) = 0.31083 0.22219
#
# Static dielectric constant tensor:
#      x y z
#    x 3.755780 0.000000 0.000000 
#    y 0.000000 3.645850 0.000000 
#    z 0.000000 0.000000 3.848770 
# 
# 
# High freq. dielectric constant tensor:
#      x y z
#    x 1.790340 0.000000 0.000000 
#    y 0.000000 1.786260 0.000000 
#    z 0.000000 0.000000 1.794500 
# 
# From -- ./inp_files/24236.got.cif
#   From: 2010.03.12/outbox.cif.g09.slc.cpg/sg59_13_cif.got.tgz:24236.got - 2010.04.16 16:29:54.
