data_PCOD8245063
_publ_section_title
;
Structure prediction by ZEFSAII (Michael W. Deem and Ramdas Pophale) SiO2 
 PCOD8245063
Probable space group: P M M N
;
_chemical_formula_sum "Si O2"
_cell_formula_units_Z 48
_cell_length_a 8.764331
_cell_length_b 15.503150
_cell_length_c 17.764549
_cell_angle_alpha 90.000000
_cell_angle_beta 90.000000
_cell_angle_gamma 90.000000
_cell_volume 2413.753444
_symmetry_space_group_name_H-M "P M M N"
_symmetry_group_IT_number 59
_space_group.IT_coordinate_system_code '2'
_symmetry_cell_setting 'orthorhombic'
loop_
_space_group_symop_operation_xyz
x,y,z
1/2-x,1/2-y,z
1/2+x,-y,-z
-x,1/2+y,-z
-x,-y,-z
1/2+x,1/2+y,-z
1/2-x,y,z
x,1/2-y,z
loop_
_atom_site_type_symbol
_atom_site_label
_atom_site_fract_x
_atom_site_fract_y
_atom_site_fract_z
Si Si1 0.073560 0.250000 0.208044
Si Si2 0.070343 0.581372 0.541187
Si Si3 0.926165 0.580166 0.699967
Si Si4 0.427082 0.907868 0.209815
Si Si5 0.929889 0.250000 0.047148
Si Si6 0.568919 0.417158 0.961242
Si Si7 0.929612 0.750000 0.296197
Si Si8 0.068557 0.250000 0.532352
O O1 0.250000 0.250000 0.184602
O O2 0.030487 0.166585 0.256121
O O3 0.974420 0.250000 0.133573
O O4 0.250000 0.584105 0.527042
O O5 0.000000 0.500000 0.500000
O O6 0.036671 0.572815 0.629221
O O7 0.994681 0.666915 0.509372
O O8 0.750000 0.581656 0.673397
O O9 0.959699 0.500514 0.754412
O O10 0.250000 0.883395 0.212056
O O11 0.487988 0.910453 0.124601
O O12 0.515160 0.835589 0.255461
O O13 0.750000 0.250000 0.039970
O O14 0.995349 0.165759 0.005516
O O15 0.750000 0.424118 0.964444
O O16 0.500000 0.500000 0.000000
O O17 0.750000 0.750000 0.295962
O O18 0.990300 0.750000 0.381810
O O19 0.250000 0.250000 0.526788
#
# Coordination Sequence:
#
# PCOD8245063 Si02
#       8
#     4   8   8   8   4   8   4   4
#     4  10  21  38  61  87 117 152 193 238 286 344
#     4  12  25  41  63  91 122 158 198 243 296 356
#     4  10  21  38  61  88 117 154 196 241 291 345
#     4  10  21  38  60  84 116 157 197 235 286 351
#     4  10  21  36  56  83 118 154 189 234 288 342
#     4  10  21  38  59  85 115 151 193 237 285 339
#     4  11  24  39  59  87 115 147 192 245 296 338
#     4  11  24  43  64  89 122 157 198 249 296 350
#
# _framework density 19.886040999999999
#
# number of rings (size 3 to 8) (size 9 to 14) (size 15 to 20)
#    0.000    1.500    0.000    5.000    0.000   10.000 
#    0.000    0.833    0.000    0.000    0.000    0.000 
#    0.000    0.000    0.000    0.000    0.000    0.000 
#
# Total GULP energy -595472.067195 kJ/mol
# GULP energy per Si atom -12405.668067 kJ/mol
# Density = 1.984078 g / cm^3
# Si number density = 19.886041 Si / 1000 Ang^3
#
#
#
# Elastic Constant Matrix: (Units=GPa)
#
#
# Indices 1 2 3 4 5 6 
#
# 1 58.0808 33.9905 31.7696 0.0000 0.0000 0.0000
# 2 33.9905 160.6694 55.0631 0.0000 0.0000 0.0000
# 3 31.7696 55.0631 131.1742 0.0000 0.0000 0.0000
# 4 0.0000 0.0000 0.0000 34.6270 0.0000 0.0000
# 5 0.0000 0.0000 0.0000 0.0000 33.3508 0.0000
# 6 0.0000 0.0000 0.0000 0.0000 0.0000 37.0446
#
#
#
# Elastic Compliance Matrix: (Units=1/GPa)
#
#
# Indices 1 2 3 4 5 6 
#
# 1 0.021148 -0.003176 -0.003789 0.000000 0.000000 0.000000
# 2 -0.003176 0.007747 -0.002483 0.000000 0.000000 0.000000
# 3 -0.003789 -0.002483 0.009583 0.000000 0.000000 0.000000
# 4 0.000000 0.000000 0.000000 0.028879 0.000000 0.000000
# 5 0.000000 0.000000 0.000000 0.000000 0.029984 0.000000
# 6 0.000000 0.000000 0.000000 0.000000 0.000000 0.026994
#
#
# Mechanical properties :
#
#
# Convention : Reuss Voigt Hill
#
# Bulk Modulus (GPa) = 51.06267 65.73009 58.39638
# Shear Modulus (GPa) = 33.38705 36.27789 34.83247
#
# Velocity S-wave (km/s) = 4.10191 4.27580 4.18976
# Velocity P-wave (km/s) = 6.94029 7.58299 7.26875
#
# Compressibility (1/GPa) = 0.01958378
#
# Stress axis : x y z
#
# Youngs Moduli (GPa) = 47.28495 129.08874 104.34825
#
# Poissons Ratio (x) = 0.40992 0.39538
# Poissons Ratio (y) = 0.15015 0.25907
# Poissons Ratio (z) = 0.17916 0.32049
#
# Static dielectric constant tensor:
#      x y z
#    x 3.552350 0.000000 0.000000 
#    y 0.000000 3.786290 0.000000 
#    z 0.000000 0.000000 3.917710 
# 
# 
# High freq. dielectric constant tensor:
#      x y z
#    x 1.766410 0.000000 0.000000 
#    y 0.000000 1.799260 0.000000 
#    z 0.000000 0.000000 1.793910 
# 
# From -- ./inp_files/25673.got.cif
#   From: 2010.03.12/outbox.cif.g09.slc.cpg/sg59_13_cif.got.tgz:25673.got - 2010.04.16 16:29:54.
