data_PCOD8245270
_publ_section_title
;
Structure prediction by ZEFSAII (Michael W. Deem and Ramdas Pophale) SiO2 
 PCOD8245270
Probable space group: P M M N
;
_chemical_formula_sum "Si O2"
_cell_formula_units_Z 64
_cell_length_a 25.139509
_cell_length_b 9.158707
_cell_length_c 14.384047
_cell_angle_alpha 90.000000
_cell_angle_beta 90.000000
_cell_angle_gamma 90.000000
_cell_volume 3311.860613
_symmetry_space_group_name_H-M "P M M N"
_symmetry_group_IT_number 59
_space_group.IT_coordinate_system_code '2'
_symmetry_cell_setting 'orthorhombic'
loop_
_space_group_symop_operation_xyz
x,y,z
1/2-x,1/2-y,z
1/2+x,-y,-z
-x,1/2+y,-z
-x,-y,-z
1/2+x,1/2+y,-z
1/2-x,y,z
x,1/2-y,z
loop_
_atom_site_type_symbol
_atom_site_label
_atom_site_fract_x
_atom_site_fract_y
_atom_site_fract_z
Si Si1 0.607240 0.078426 0.403545
Si Si2 0.312050 0.919491 0.905404
Si Si3 0.003286 0.921632 0.709127
Si Si4 0.905133 0.420094 0.616218
Si Si5 0.644268 0.919316 0.919882
Si Si6 0.310228 0.917658 0.251166
Si Si7 0.478764 0.417090 0.088682
Si Si8 0.311988 0.418628 0.717886
O O1 0.618930 0.250000 0.393535
O O2 0.556262 0.029465 0.343842
O O3 0.597906 0.032117 0.509425
O O4 0.657820 0.988158 0.369083
O O5 0.250000 0.942445 0.926029
O O6 0.327341 0.750000 0.898870
O O7 0.329286 0.995107 0.809930
O O8 0.345386 0.993930 0.986042
O O9 0.993556 0.750000 0.701396
O O10 0.008636 0.968949 0.817305
O O11 0.952865 0.996051 0.663493
O O12 0.917396 0.250000 0.625432
O O13 0.849507 0.461921 0.665304
O O14 0.658379 0.750000 0.934851
O O15 0.583279 0.944291 0.893149
O O16 0.680577 0.981565 0.837983
O O17 0.250000 0.941470 0.286772
O O18 0.319580 0.750000 0.220760
O O19 0.491020 0.250000 0.067891
O O20 0.500000 0.500000 0.000000
O O21 0.250000 0.438444 0.697512
O O22 0.327508 0.250000 0.730497
#
# Coordination Sequence:
#
# PCOD8245270 Si02
#       8
#     8   8   8   8   8   8   8   8
#     4  10  22  38  61  90 117 153 199 243 294 354
#     4  10  21  37  58  83 112 149 189 230 281 340
#     4  10  21  40  61  85 119 154 193 242 294 352
#     4  10  21  38  60  88 117 152 198 247 298 347
#     4  11  22  37  57  84 116 150 191 237 288 346
#     4  10  21  37  57  83 116 155 198 243 293 351
#     4  10  23  39  56  83 117 153 190 236 292 345
#     4  10  22  40  60  86 120 154 192 241 293 346
#
# _framework density 19.324484000000002
#
# number of rings (size 3 to 8) (size 9 to 14) (size 15 to 20)
#    0.000    1.875    1.250    1.875    1.750    6.250 
#    0.000    1.250    0.000    0.000    0.000    0.000 
#    0.000    0.000    0.000    0.000    0.000    0.000 
#
# Total GULP energy -793898.337324 kJ/mol
# GULP energy per Si atom -12404.661521 kJ/mol
# Density = 1.928050 g / cm^3
# Si number density = 19.324484 Si / 1000 Ang^3
#
#
#
# Elastic Constant Matrix: (Units=GPa)
#
#
# Indices 1 2 3 4 5 6 
#
# 1 84.8822 45.0698 61.1238 0.0000 0.0000 0.0000
# 2 45.0698 84.4056 59.1045 0.0000 0.0000 0.0000
# 3 61.1238 59.1045 150.8025 0.0000 0.0000 0.0000
# 4 0.0000 0.0000 0.0000 29.4391 0.0000 0.0000
# 5 0.0000 0.0000 0.0000 0.0000 29.7613 0.0000
# 6 0.0000 0.0000 0.0000 0.0000 0.0000 33.0020
#
#
#
# Elastic Compliance Matrix: (Units=1/GPa)
#
#
# Indices 1 2 3 4 5 6 
#
# 1 0.018929 -0.006526 -0.005115 0.000000 0.000000 0.000000
# 2 -0.006526 0.018579 -0.004637 0.000000 0.000000 0.000000
# 3 -0.005115 -0.004637 0.010522 0.000000 0.000000 0.000000
# 4 0.000000 0.000000 0.000000 0.033968 0.000000 0.000000
# 5 0.000000 0.000000 0.000000 0.000000 0.033601 0.000000
# 6 0.000000 0.000000 0.000000 0.000000 0.000000 0.030301
#
#
# Mechanical properties :
#
#
# Convention : Reuss Voigt Hill
#
# Bulk Modulus (GPa) = 64.61976 72.29847 68.45912
# Shear Modulus (GPa) = 27.23119 28.75998 27.99559
#
# Velocity S-wave (km/s) = 3.75794 3.86199 3.81032
# Velocity P-wave (km/s) = 7.23474 7.57501 7.40683
#
# Compressibility (1/GPa) = 0.01547514
#
# Stress axis : x y z
#
# Youngs Moduli (GPa) = 52.82823 53.82431 95.04339
#
# Poissons Ratio (x) = 0.35126 0.48612
# Poissons Ratio (y) = 0.34476 0.44067
# Poissons Ratio (z) = 0.27020 0.24956
#
# Static dielectric constant tensor:
#      x y z
#    x 3.560150 0.000000 0.000000 
#    y 0.000000 3.543760 0.000000 
#    z 0.000000 0.000000 3.669490 
# 
# 
# High freq. dielectric constant tensor:
#      x y z
#    x 1.756660 0.000000 0.000000 
#    y 0.000000 1.751990 0.000000 
#    z 0.000000 0.000000 1.760850 
# 
# From -- ./inp_files/21431.got.cif
#   From: 2010.03.12/outbox.cif.g09.slc.cpg/sg59_11_cif.got.tgz:21431.got - 2010.04.16 16:29:54.
