data_PCOD8245949
_publ_section_title
;
Structure prediction by ZEFSAII (Michael W. Deem and Ramdas Pophale) SiO2 
 PCOD8245949
Probable space group: P M M N
;
_chemical_formula_sum "Si O2"
_cell_formula_units_Z 48
_cell_length_a 8.989483
_cell_length_b 25.004703
_cell_length_c 12.347671
_cell_angle_alpha 90.000000
_cell_angle_beta 90.000000
_cell_angle_gamma 90.000000
_cell_volume 2775.501493
_symmetry_space_group_name_H-M "P M M N"
_symmetry_group_IT_number 59
_space_group.IT_coordinate_system_code '2'
_symmetry_cell_setting 'orthorhombic'
loop_
_space_group_symop_operation_xyz
x,y,z
1/2-x,1/2-y,z
1/2+x,-y,-z
-x,1/2+y,-z
-x,-y,-z
1/2+x,1/2+y,-z
1/2-x,y,z
x,1/2-y,z
loop_
_atom_site_type_symbol
_atom_site_label
_atom_site_fract_x
_atom_site_fract_y
_atom_site_fract_z
Si Si1 0.582353 0.495831 0.266606
Si Si2 0.926426 0.605479 0.783110
Si Si3 0.925786 0.099920 0.668047
Si Si4 0.426573 0.190921 0.044836
Si Si5 0.417732 0.907724 0.575487
Si Si6 0.579114 0.687668 0.199002
O O1 0.750000 0.504345 0.223571
O O2 0.497386 0.452821 0.189213
O O3 0.498889 0.552082 0.264049
O O4 0.582883 0.470510 0.388410
O O5 0.750000 0.601248 0.785863
O O6 0.989153 0.647687 0.870539
O O7 0.980704 0.624436 0.662963
O O8 0.750000 0.092737 0.671995
O O9 0.984466 0.098306 0.544391
O O10 0.973852 0.155899 0.719189
O O11 0.250000 0.192987 0.050468
O O12 0.489670 0.250000 0.073764
O O13 0.474244 0.174951 0.923260
O O14 0.250000 0.884545 0.579727
O O15 0.750000 0.670058 0.215756
O O16 0.559885 0.750000 0.224829
#
# Coordination Sequence:
#
# PCOD8245949 Si02
#       6
#     8   8   8   8   8   8
#     4   9  18  32  49  72 103 134 164 197 244 298
#     4   9  16  28  50  76  99 124 160 205 244 285
#     4  11  20  32  51  75 101 131 168 204 243 288
#     4   8  15  31  54  75  95 124 163 206 249 292
#     4   8  18  32  47  70 102 133 158 193 242 290
#     4   9  19  36  55  73  96 128 165 203 246 295
#
# _framework density 17.294172
#
# number of rings (size 3 to 8) (size 9 to 14) (size 15 to 20)
#    1.000    2.000    0.000    2.500    0.000    1.667 
#    0.000    3.333    0.000    7.000    0.000    0.000 
#    0.000    0.000    0.000    0.000    0.000    0.000 
#
# Total GULP energy -594761.634643 kJ/mol
# GULP energy per Si atom -12390.867388 kJ/mol
# Density = 1.725481 g / cm^3
# Si number density = 17.294172 Si / 1000 Ang^3
#
#
#
# Elastic Constant Matrix: (Units=GPa)
#
#
# Indices 1 2 3 4 5 6 
#
# 1 66.4826 30.5815 23.9685 0.0000 0.0000 0.0000
# 2 30.5815 82.2893 46.5357 0.0000 0.0000 0.0000
# 3 23.9685 46.5357 53.0770 0.0000 0.0000 0.0000
# 4 0.0000 0.0000 0.0000 28.4382 0.0000 0.0000
# 5 0.0000 0.0000 0.0000 0.0000 21.2679 0.0000
# 6 0.0000 0.0000 0.0000 0.0000 0.0000 26.4429
#
#
#
# Elastic Compliance Matrix: (Units=1/GPa)
#
#
# Indices 1 2 3 4 5 6 
#
# 1 0.018708 -0.004314 -0.004666 0.000000 0.000000 0.000000
# 2 -0.004314 0.025098 -0.020057 0.000000 0.000000 0.000000
# 3 -0.004666 -0.020057 0.038532 0.000000 0.000000 0.000000
# 4 0.000000 0.000000 0.000000 0.035164 0.000000 0.000000
# 5 0.000000 0.000000 0.000000 0.000000 0.047019 0.000000
# 6 0.000000 0.000000 0.000000 0.000000 0.000000 0.037817
#
#
# Mechanical properties :
#
#
# Convention : Reuss Voigt Hill
#
# Bulk Modulus (GPa) = 41.21104 44.89115 43.05109
# Shear Modulus (GPa) = 18.62200 21.94736 20.28468
#
# Velocity S-wave (km/s) = 3.28499 3.56625 3.42851
# Velocity P-wave (km/s) = 6.18623 6.55525 6.37341
#
# Compressibility (1/GPa) = 0.02426534
#
# Stress axis : x y z
#
# Youngs Moduli (GPa) = 53.45289 39.84437 25.95223
#
# Poissons Ratio (x) = 0.17188 0.12109
# Poissons Ratio (y) = 0.23059 0.52051
# Poissons Ratio (z) = 0.24941 0.79914
#
# Static dielectric constant tensor:
#      x y z
#    x 3.031580 0.000000 0.000000 
#    y 0.000000 3.139410 0.000000 
#    z 0.000000 0.000000 3.150920 
# 
# 
# High freq. dielectric constant tensor:
#      x y z
#    x 1.658450 0.000000 0.000000 
#    y 0.000000 1.653990 0.000000 
#    z 0.000000 0.000000 1.650560 
# 
# From -- ./inp_files/14331.got.cif
#   From: 2010.03.12/outbox.cif.g09.slc.cpg/sg59_8_cif.got.tgz:14331.got - 2010.04.16 16:29:54.
