data_PCOD8245511
_publ_section_title
;
Structure prediction by ZEFSAII (Michael W. Deem and Ramdas Pophale) SiO2 
 PCOD8245511
Probable space group: P M M N
;
_chemical_formula_sum "Si O2"
_cell_formula_units_Z 40
_cell_length_a 8.742859
_cell_length_b 14.175147
_cell_length_c 17.045489
_cell_angle_alpha 90.000000
_cell_angle_beta 90.000000
_cell_angle_gamma 90.000000
_cell_volume 2112.469807
_symmetry_space_group_name_H-M "P M M N"
_symmetry_group_IT_number 59
_space_group.IT_coordinate_system_code '2'
_symmetry_cell_setting 'orthorhombic'
loop_
_space_group_symop_operation_xyz
x,y,z
1/2-x,1/2-y,z
1/2+x,-y,-z
-x,1/2+y,-z
-x,-y,-z
1/2+x,1/2+y,-z
1/2-x,y,z
x,1/2-y,z
loop_
_atom_site_type_symbol
_atom_site_label
_atom_site_fract_x
_atom_site_fract_y
_atom_site_fract_z
Si Si1 0.573242 0.480642 0.876327
Si Si2 0.070567 0.441846 0.713754
Si Si3 0.929380 0.250000 0.656517
Si Si4 0.072934 0.049801 0.425871
Si Si5 0.077088 0.250000 0.490384
Si Si6 0.073352 0.358021 0.004176
O O1 0.750000 0.471096 0.852548
O O2 0.469528 0.478766 0.799668
O O3 0.538908 0.580026 0.918809
O O4 0.529988 0.393565 0.932495
O O5 0.250000 0.430930 0.703752
O O6 0.995921 0.340952 0.699016
O O7 0.010985 0.518835 0.652655
O O8 0.750000 0.250000 0.668214
O O9 0.964879 0.250000 0.564209
O O10 0.250000 0.021137 0.420577
O O11 0.048541 0.161161 0.434637
O O12 0.000000 0.000000 0.500000
O O13 0.250000 0.250000 0.524169
O O14 0.250000 0.368892 0.979209
O O15 0.031203 0.250000 0.023337
#
# Coordination Sequence:
#
# PCOD8245511 Si02
#       6
#     8   8   4   8   4   8
#     4  10  21  38  60  88 120 153 196 244 292 350
#     4  12  25  41  60  86 123 160 196 246 301 355
#     4  12  24  38  62  90 117 150 199 252 298 354
#     4  11  22  39  62  88 119 158 200 247 298 354
#     4  10  22  40  62  86 117 156 199 244 302 358
#     4   9  19  38  63  88 117 154 193 238 295 354
#
# _framework density 18.935182999999999
#
# number of rings (size 3 to 8) (size 9 to 14) (size 15 to 20)
#    0.000    1.400    2.000    3.900    1.400    2.000 
#    1.800    0.000    0.000    0.000    0.000    0.000 
#    0.000    0.000    0.000    0.000    0.000    0.000 
#
# Total GULP energy -496224.067373 kJ/mol
# GULP energy per Si atom -12405.601684 kJ/mol
# Density = 1.889209 g / cm^3
# Si number density = 18.935183 Si / 1000 Ang^3
#
#
#
# Elastic Constant Matrix: (Units=GPa)
#
#
# Indices 1 2 3 4 5 6 
#
# 1 134.7519 56.1283 55.8451 0.0000 0.0000 0.0000
# 2 56.1283 148.2363 61.5875 0.0000 0.0000 0.0000
# 3 55.8451 61.5875 120.8419 0.0000 0.0000 0.0000
# 4 0.0000 0.0000 0.0000 39.1315 0.0000 0.0000
# 5 0.0000 0.0000 0.0000 0.0000 38.0173 0.0000
# 6 0.0000 0.0000 0.0000 0.0000 0.0000 27.6343
#
#
#
# Elastic Compliance Matrix: (Units=1/GPa)
#
#
# Indices 1 2 3 4 5 6 
#
# 1 0.009766 -0.002312 -0.003335 0.000000 0.000000 0.000000
# 2 -0.002312 0.009106 -0.003572 0.000000 0.000000 0.000000
# 3 -0.003335 -0.003572 0.011637 0.000000 0.000000 0.000000
# 4 0.000000 0.000000 0.000000 0.025555 0.000000 0.000000
# 5 0.000000 0.000000 0.000000 0.000000 0.026304 0.000000
# 6 0.000000 0.000000 0.000000 0.000000 0.000000 0.036187
#
#
# Mechanical properties :
#
#
# Convention : Reuss Voigt Hill
#
# Bulk Modulus (GPa) = 82.84821 83.43910 83.14366
# Shear Modulus (GPa) = 35.45685 36.30789 35.88237
#
# Velocity S-wave (km/s) = 4.33198 4.38366 4.35789
# Velocity P-wave (km/s) = 8.29879 8.35364 8.32626
#
# Compressibility (1/GPa) = 0.01207027
#
# Stress axis : x y z
#
# Youngs Moduli (GPa) = 102.39323 109.82204 85.93338
#
# Poissons Ratio (x) = 0.25395 0.28657
# Poissons Ratio (y) = 0.23677 0.30696
# Poissons Ratio (z) = 0.34146 0.39229
#
# Static dielectric constant tensor:
#      x y z
#    x 3.642820 0.000000 0.000000 
#    y 0.000000 3.276100 0.000000 
#    z 0.000000 0.000000 3.407580 
# 
# 
# High freq. dielectric constant tensor:
#      x y z
#    x 1.748730 0.000000 0.000000 
#    y 0.000000 1.745110 0.000000 
#    z 0.000000 0.000000 1.732850 
# 
# From -- ./inp_files/19916.got.cif
#   From: 2010.03.12/outbox.cif.g09.slc.cpg/sg59_10_cif.got.tgz:19916.got - 2010.04.16 16:29:54.
