data_PCOD8245410
_publ_section_title
;
Structure prediction by ZEFSAII (Michael W. Deem and Ramdas Pophale) SiO2 
 PCOD8245410
Probable space group: P M M N
;
_chemical_formula_sum "Si O2"
_cell_formula_units_Z 56
_cell_length_a 8.940035
_cell_length_b 15.385667
_cell_length_c 21.287034
_cell_angle_alpha 90.000000
_cell_angle_beta 90.000000
_cell_angle_gamma 90.000000
_cell_volume 2927.997499
_symmetry_space_group_name_H-M "P M M N"
_symmetry_group_IT_number 59
_space_group.IT_coordinate_system_code '2'
_symmetry_cell_setting 'orthorhombic'
loop_
_space_group_symop_operation_xyz
x,y,z
1/2-x,1/2-y,z
1/2+x,-y,-z
-x,1/2+y,-z
-x,-y,-z
1/2+x,1/2+y,-z
1/2-x,y,z
x,1/2-y,z
loop_
_atom_site_type_symbol
_atom_site_label
_atom_site_fract_x
_atom_site_fract_y
_atom_site_fract_z
Si Si1 0.427240 0.008766 0.784164
Si Si2 0.923983 0.349987 0.417326
Si Si3 0.572603 0.345336 0.138221
Si Si4 0.573089 0.406955 0.003518
Si Si5 0.927670 0.346153 0.559191
Si Si6 0.580021 0.846962 0.117085
Si Si7 0.572512 0.495562 0.651403
O O1 0.250000 0.007775 0.772727
O O2 0.476732 0.085915 0.830606
O O3 0.510718 0.025806 0.719638
O O4 0.486776 0.918190 0.813715
O O5 0.750000 0.373384 0.410354
O O6 0.952231 0.250000 0.398140
O O7 0.980841 0.366773 0.488320
O O8 0.017179 0.410376 0.370729
O O9 0.750000 0.348983 0.138151
O O10 0.515397 0.250000 0.159924
O O11 0.515840 0.362273 0.067538
O O12 0.750000 0.416345 0.002859
O O13 0.500000 0.500000 0.000000
O O14 0.521667 0.349971 0.944654
O O15 0.750000 0.345065 0.560168
O O16 0.986528 0.250000 0.579459
O O17 0.990989 0.420124 0.605354
O O18 0.750000 0.870700 0.098055
O O19 0.569254 0.750000 0.145445
O O20 0.750000 0.495121 0.652757
#
# Coordination Sequence:
#
# PCOD8245410 Si02
#       7
#     8   8   8   8   8   8   8
#     4  10  21  38  54  73 106 149 189 222 261 322
#     4   9  18  35  59  82 105 141 184 219 262 328
#     4   9  18  34  56  78 100 133 179 224 266 317
#     4  11  20  34  58  85 112 139 176 226 281 333
#     4   8  16  33  56  81 109 141 178 220 268 324
#     4  10  21  38  58  81 110 144 183 229 279 325
#     4  11  22  34  53  82 113 143 178 227 278 316
#
# _framework density 19.125699999999998
#
# number of rings (size 3 to 8) (size 9 to 14) (size 15 to 20)
#    0.000    2.286    1.429    2.571    0.000    2.857 
#    0.000    2.143    0.000    4.714    0.000    0.000 
#    0.000    0.000    0.000    0.000    0.000    0.000 
#
# Total GULP energy -694375.119459 kJ/mol
# GULP energy per Si atom -12399.555705 kJ/mol
# Density = 1.908217 g / cm^3
# Si number density = 19.125700 Si / 1000 Ang^3
#
#
#
# Elastic Constant Matrix: (Units=GPa)
#
#
# Indices 1 2 3 4 5 6 
#
# 1 41.6240 17.8169 21.5567 0.0000 0.0000 0.0000
# 2 17.8169 110.7570 32.3662 0.0000 0.0000 0.0000
# 3 21.5567 32.3662 88.7510 0.0000 0.0000 0.0000
# 4 0.0000 0.0000 0.0000 18.4036 0.0000 0.0000
# 5 0.0000 0.0000 0.0000 0.0000 31.4033 0.0000
# 6 0.0000 0.0000 0.0000 0.0000 0.0000 20.7054
#
#
#
# Elastic Compliance Matrix: (Units=1/GPa)
#
#
# Indices 1 2 3 4 5 6 
#
# 1 0.028259 -0.002843 -0.005827 0.000000 0.000000 0.000000
# 2 -0.002843 0.010392 -0.003099 0.000000 0.000000 0.000000
# 3 -0.005827 -0.003099 0.013813 0.000000 0.000000 0.000000
# 4 0.000000 0.000000 0.000000 0.054337 0.000000 0.000000
# 5 0.000000 0.000000 0.000000 0.000000 0.031844 0.000000
# 6 0.000000 0.000000 0.000000 0.000000 0.000000 0.048297
#
#
# Mechanical properties :
#
#
# Convention : Reuss Voigt Hill
#
# Bulk Modulus (GPa) = 34.57156 42.73461 38.65308
# Shear Modulus (GPa) = 22.71465 25.39527 24.05496
#
# Velocity S-wave (km/s) = 3.44997 3.64786 3.55030
# Velocity P-wave (km/s) = 5.82966 6.33523 6.08770
#
# Compressibility (1/GPa) = 0.02892551
#
# Stress axis : x y z
#
# Youngs Moduli (GPa) = 35.38648 96.22976 72.39545
#
# Poissons Ratio (x) = 0.27359 0.42185
# Poissons Ratio (y) = 0.10061 0.22437
# Poissons Ratio (z) = 0.20620 0.29823
#
# Static dielectric constant tensor:
#      x y z
#    x 3.217730 0.000000 0.000000 
#    y 0.000000 3.818310 0.000000 
#    z 0.000000 0.000000 3.605940 
# 
# 
# High freq. dielectric constant tensor:
#      x y z
#    x 1.710480 0.000000 0.000000 
#    y 0.000000 1.761390 0.000000 
#    z 0.000000 0.000000 1.740790 
# 
# From -- ./inp_files/28998.got.cif
#   From: 2010.03.12/outbox.cif.g09.slc.cpg/sg59_15_cif.got.tgz:28998.got - 2010.04.16 16:29:54.
