data_PCOD8245033
_publ_section_title
;
Structure prediction by ZEFSAII (Michael W. Deem and Ramdas Pophale) SiO2 
 PCOD8245033
Probable space group: P M M N
;
_chemical_formula_sum "Si O2"
_cell_formula_units_Z 56
_cell_length_a 14.372446
_cell_length_b 8.985322
_cell_length_c 22.291161
_cell_angle_alpha 90.000000
_cell_angle_beta 90.000000
_cell_angle_gamma 90.000000
_cell_volume 2878.704054
_symmetry_space_group_name_H-M "P M M N"
_symmetry_group_IT_number 59
_space_group.IT_coordinate_system_code '2'
_symmetry_cell_setting 'orthorhombic'
loop_
_space_group_symop_operation_xyz
x,y,z
1/2-x,1/2-y,z
1/2+x,-y,-z
-x,1/2+y,-z
-x,-y,-z
1/2+x,1/2+y,-z
1/2-x,y,z
x,1/2-y,z
loop_
_atom_site_type_symbol
_atom_site_label
_atom_site_fract_x
_atom_site_fract_y
_atom_site_fract_z
Si Si1 0.976232 0.079093 0.705889
Si Si2 0.641355 0.578232 0.608836
Si Si3 0.750000 0.572961 0.884972
Si Si4 0.437646 0.574406 0.157715
Si Si5 0.360728 0.917657 0.508899
Si Si6 0.145853 0.422181 0.626963
Si Si7 0.049325 0.923447 0.944198
Si Si8 0.750000 0.418654 0.009753
O O1 0.949181 0.250000 0.694561
O O2 0.970157 0.038114 0.775333
O O3 0.081422 0.045718 0.684381
O O4 0.904050 0.980228 0.669515
O O5 0.750000 0.545072 0.614591
O O6 0.618997 0.750000 0.601541
O O7 0.598764 0.498518 0.549992
O O8 0.750000 0.750000 0.877409
O O9 0.839559 0.503967 0.853249
O O10 0.750000 0.533607 0.955105
O O11 0.428212 0.750000 0.145134
O O12 0.516660 0.505256 0.115675
O O13 0.250000 0.929124 0.508335
O O14 0.397093 0.750000 0.507638
O O15 0.397497 0.993290 0.569723
O O16 0.250000 0.478627 0.642730
O O17 0.147608 0.250000 0.609550
O O18 0.021152 0.750000 0.942246
O O19 0.160083 0.945016 0.948989
O O20 0.000000 0.000000 0.000000
O O21 0.750000 0.250000 0.983676
#
# Coordination Sequence:
#
# PCOD8245033 Si02
#       8
#     8   8   4   8   8   8   8   4
#     4  10  23  40  58  82 112 154 197 234 287 347
#     4  10  21  36  55  82 114 148 188 238 290 341
#     4  12  24  38  64  94 120 158 203 238 287 356
#     4  11  24  42  61  88 125 161 197 245 297 352
#     4   9  17  31  54  83 112 144 184 232 290 350
#     4   9  18  36  60  82 108 143 189 242 290 341
#     4  11  22  39  64  93 125 161 201 248 296 348
#     4  10  22  40  64  92 126 160 195 244 303 348
#
# _framework density 19.453198
#
# number of rings (size 3 to 8) (size 9 to 14) (size 15 to 20)
#    0.000    1.857    1.429    2.357    1.000    5.429 
#    1.286    0.000    0.000    0.000    0.000    0.000 
#    0.000    0.000    0.000    0.000    0.000    0.000 
#
# Total GULP energy -694585.622430 kJ/mol
# GULP energy per Si atom -12403.314686 kJ/mol
# Density = 1.940892 g / cm^3
# Si number density = 19.453198 Si / 1000 Ang^3
#
#
#
# Elastic Constant Matrix: (Units=GPa)
#
#
# Indices 1 2 3 4 5 6 
#
# 1 101.8023 74.6085 79.4003 0.0000 0.0000 0.0000
# 2 74.6085 113.3856 70.9030 0.0000 0.0000 0.0000
# 3 79.4003 70.9030 154.0335 0.0000 0.0000 0.0000
# 4 0.0000 0.0000 0.0000 34.0239 0.0000 0.0000
# 5 0.0000 0.0000 0.0000 0.0000 77.3980 0.0000
# 6 0.0000 0.0000 0.0000 0.0000 0.0000 23.8267
#
#
#
# Elastic Compliance Matrix: (Units=1/GPa)
#
#
# Indices 1 2 3 4 5 6 
#
# 1 0.023291 -0.010978 -0.006953 0.000000 0.000000 0.000000
# 2 -0.010978 0.017559 -0.002423 0.000000 0.000000 0.000000
# 3 -0.006953 -0.002423 0.011192 0.000000 0.000000 0.000000
# 4 0.000000 0.000000 0.000000 0.029391 0.000000 0.000000
# 5 0.000000 0.000000 0.000000 0.000000 0.012920 0.000000
# 6 0.000000 0.000000 0.000000 0.000000 0.000000 0.041970
#
#
# Mechanical properties :
#
#
# Convention : Reuss Voigt Hill
#
# Bulk Modulus (GPa) = 88.23877 91.00499 89.62188
# Shear Modulus (GPa) = 27.65353 36.67038 32.16196
#
# Velocity S-wave (km/s) = 3.77442 4.34643 4.07049
# Velocity P-wave (km/s) = 8.02826 8.48951 8.26210
#
# Compressibility (1/GPa) = 0.01133289
#
# Stress axis : x y z
#
# Youngs Moduli (GPa) = 42.93440 56.95228 89.35273
#
# Poissons Ratio (x) = 0.62523 0.62125
# Poissons Ratio (y) = 0.47134 0.21654
# Poissons Ratio (z) = 0.29851 0.13802
#
# Static dielectric constant tensor:
#      x y z
#    x 3.421130 0.000000 0.000000 
#    y 0.000000 3.679240 0.000000 
#    z 0.000000 0.000000 3.587670 
# 
# 
# High freq. dielectric constant tensor:
#      x y z
#    x 1.763460 0.000000 0.000000 
#    y 0.000000 1.765290 0.000000 
#    z 0.000000 0.000000 1.751920 
# 
# From -- ./inp_files/30438.got.cif
#   From: 2010.03.12/outbox.cif.g09.slc.cpg/sg59_16_cif.got.tgz:30438.got - 2010.04.16 16:29:54.
