data_PCOD8245163
_publ_section_title
;
Structure prediction by ZEFSAII (Michael W. Deem and Ramdas Pophale) SiO2 
 PCOD8245163
Probable space group: P M M N
;
_chemical_formula_sum "Si O2"
_cell_formula_units_Z 48
_cell_length_a 14.051838
_cell_length_b 9.070379
_cell_length_c 18.963485
_cell_angle_alpha 90.000000
_cell_angle_beta 90.000000
_cell_angle_gamma 90.000000
_cell_volume 2417.000392
_symmetry_space_group_name_H-M "P M M N"
_symmetry_group_IT_number 59
_space_group.IT_coordinate_system_code '2'
_symmetry_cell_setting 'orthorhombic'
loop_
_space_group_symop_operation_xyz
x,y,z
1/2-x,1/2-y,z
1/2+x,-y,-z
-x,1/2+y,-z
-x,-y,-z
1/2+x,1/2+y,-z
1/2-x,y,z
x,1/2-y,z
loop_
_atom_site_type_symbol
_atom_site_label
_atom_site_fract_x
_atom_site_fract_y
_atom_site_fract_z
Si Si1 0.136687 0.583562 0.981342
Si Si2 0.858818 0.580729 0.491356
Si Si3 0.141050 0.078937 0.118999
Si Si4 0.006103 0.076729 0.247160
Si Si5 0.861988 0.919563 0.157778
Si Si6 0.970714 0.078708 0.608531
O O1 0.250000 0.577132 0.982765
O O2 0.098480 0.750000 0.976751
O O3 0.098969 0.497217 0.912953
O O4 0.096907 0.508024 0.052282
O O5 0.750000 0.546225 0.470390
O O6 0.871500 0.750000 0.515873
O O7 0.889610 0.474913 0.554833
O O8 0.924342 0.549086 0.423348
O O9 0.250000 0.033055 0.132200
O O10 0.131975 0.250000 0.100551
O O11 0.085229 0.036148 0.189325
O O12 0.988942 0.250000 0.253661
O O13 0.042038 0.014184 0.320894
O O14 0.907886 0.998255 0.225461
O O15 0.750000 0.938062 0.165775
O O16 0.892790 0.750000 0.155419
O O17 0.954450 0.250000 0.624844
#
# Coordination Sequence:
#
# PCOD8245163 Si02
#       6
#     8   8   8   8   8   8
#     4   9  17  31  53  79 105 135 178 233 283 327
#     4   9  19  38  63  86 110 145 184 220 265 322
#     4   9  19  36  55  75 103 142 186 228 273 327
#     4  11  23  37  55  81 113 149 185 224 273 326
#     4  10  21  37  56  77 105 144 187 231 280 331
#     4  10  21  37  57  85 118 146 179 225 271 321
#
# _framework density 19.859327
#
# number of rings (size 3 to 8) (size 9 to 14) (size 15 to 20)
#    0.000    2.333    0.000    2.000    0.000    7.333 
#    0.000    3.333    0.000    0.000    0.000    0.000 
#    0.000    0.000    0.000    0.000    0.000    0.000 
#
# Total GULP energy -595394.362085 kJ/mol
# GULP energy per Si atom -12404.049210 kJ/mol
# Density = 1.981413 g / cm^3
# Si number density = 19.859327 Si / 1000 Ang^3
#
#
#
# Elastic Constant Matrix: (Units=GPa)
#
#
# Indices 1 2 3 4 5 6 
#
# 1 45.8694 10.8997 0.4342 0.0000 0.0000 0.0000
# 2 10.8997 93.9308 30.7666 0.0000 0.0000 0.0000
# 3 0.4342 30.7666 80.2597 0.0000 0.0000 0.0000
# 4 0.0000 0.0000 0.0000 40.3139 0.0000 0.0000
# 5 0.0000 0.0000 0.0000 0.0000 21.8089 0.0000
# 6 0.0000 0.0000 0.0000 0.0000 0.0000 26.1752
#
#
#
# Elastic Compliance Matrix: (Units=1/GPa)
#
#
# Indices 1 2 3 4 5 6 
#
# 1 0.022490 -0.002939 0.001005 0.000000 0.000000 0.000000
# 2 -0.002939 0.012559 -0.004798 0.000000 0.000000 0.000000
# 3 0.001005 -0.004798 0.014294 0.000000 0.000000 0.000000
# 4 0.000000 0.000000 0.000000 0.024805 0.000000 0.000000
# 5 0.000000 0.000000 0.000000 0.000000 0.045853 0.000000
# 6 0.000000 0.000000 0.000000 0.000000 0.000000 0.038204
#
#
# Mechanical properties :
#
#
# Convention : Reuss Voigt Hill
#
# Bulk Modulus (GPa) = 27.87257 33.80676 30.83966
# Shear Modulus (GPa) = 27.22889 29.52356 28.37623
#
# Velocity S-wave (km/s) = 3.70684 3.85987 3.78413
# Velocity P-wave (km/s) = 5.69090 6.07659 5.88690
#
# Compressibility (1/GPa) = 0.03587757
#
# Stress axis : x y z
#
# Youngs Moduli (GPa) = 44.46445 79.62506 69.96176
#
# Poissons Ratio (x) = 0.23401 -0.07031
# Poissons Ratio (y) = 0.13068 0.33570
# Poissons Ratio (z) = -0.04468 0.38207
#
# Static dielectric constant tensor:
#      x y z
#    x 3.577970 0.000000 0.000000 
#    y 0.000000 3.694550 0.000000 
#    z 0.000000 0.000000 3.530510 
# 
# 
# High freq. dielectric constant tensor:
#      x y z
#    x 1.773610 0.000000 0.000000 
#    y 0.000000 1.782030 0.000000 
#    z 0.000000 0.000000 1.768850 
# 
# From -- ./inp_files/25408.got.cif
#   From: 2010.03.12/outbox.cif.g09.slc.cpg/sg59_13_cif.got.tgz:25408.got - 2010.04.16 16:29:54.
