data_PCOD8245113
_publ_section_title
;
Structure prediction by ZEFSAII (Michael W. Deem and Ramdas Pophale) SiO2 
 PCOD8245113
Probable space group: P M M N
;
_chemical_formula_sum "Si O2"
_cell_formula_units_Z 48
_cell_length_a 9.431889
_cell_length_b 8.311105
_cell_length_c 29.219987
_cell_angle_alpha 90.000000
_cell_angle_beta 90.000000
_cell_angle_gamma 90.000000
_cell_volume 2290.537828
_symmetry_space_group_name_H-M "P M M N"
_symmetry_group_IT_number 59
_space_group.IT_coordinate_system_code '2'
_symmetry_cell_setting 'orthorhombic'
loop_
_space_group_symop_operation_xyz
x,y,z
1/2-x,1/2-y,z
1/2+x,-y,-z
-x,1/2+y,-z
-x,-y,-z
1/2+x,1/2+y,-z
1/2-x,y,z
x,1/2-y,z
loop_
_atom_site_type_symbol
_atom_site_label
_atom_site_fract_x
_atom_site_fract_y
_atom_site_fract_z
Si Si1 0.411505 0.059543 0.129800
Si Si2 0.750000 0.062728 0.432736
Si Si3 0.750000 0.567343 0.530942
Si Si4 0.592945 0.059919 0.701584
Si Si5 0.587809 0.440812 0.043119
Si Si6 0.464946 0.936830 0.399443
Si Si7 0.589119 0.558721 0.215092
O O1 0.250000 0.990693 0.127840
O O2 0.405952 0.250000 0.127997
O O3 0.504313 0.992421 0.087461
O O4 0.489208 0.005023 0.175383
O O5 0.750000 0.250000 0.419238
O O6 0.750000 0.049686 0.487512
O O7 0.626879 0.963704 0.409143
O O8 0.750000 0.750000 0.513059
O O9 0.613432 0.537276 0.561676
O O10 0.750000 0.010714 0.718805
O O11 0.576374 0.250000 0.698920
O O12 0.569882 0.990923 0.650636
O O13 0.476681 0.992403 0.737234
O O14 0.750000 0.508134 0.042534
O O15 0.591798 0.250000 0.043418
O O16 0.500000 0.500000 0.000000
O O17 0.420876 0.750000 0.402725
O O18 0.750000 0.492886 0.210050
O O19 0.588182 0.750000 0.214033
#
# Coordination Sequence:
#
# PCOD8245113 Si02
#       7
#     8   4   4   8   8   8   8
#     4  10  21  38  59  83 115 156 199 242 295 353
#     4  12  26  42  60  88 124 158 198 246 297 354
#     4  12  24  42  64  90 122 158 196 244 297 354
#     4   9  18  35  60  87 114 148 191 237 285 343
#     4  10  21  37  58  84 115 154 199 248 301 357
#     4  11  22  40  65  91 118 156 200 244 297 357
#     4  10  21  36  59  90 120 151 193 241 288 344
#
# _framework density 20.955777000000001
#
# number of rings (size 3 to 8) (size 9 to 14) (size 15 to 20)
#    0.000    1.667    0.833    4.000    1.167    3.667 
#    0.000    1.667    0.000    0.000    0.000    0.000 
#    0.000    0.000    0.000    0.000    0.000    0.000 
#
# Total GULP energy -595170.228070 kJ/mol
# GULP energy per Si atom -12399.379751 kJ/mol
# Density = 2.090808 g / cm^3
# Si number density = 20.955777 Si / 1000 Ang^3
#
#
#
# Elastic Constant Matrix: (Units=GPa)
#
#
# Indices 1 2 3 4 5 6 
#
# 1 184.3901 7.2436 66.4236 0.0000 0.0000 0.0000
# 2 7.2436 28.3436 6.7374 0.0000 0.0000 0.0000
# 3 66.4236 6.7374 136.4541 0.0000 0.0000 0.0000
# 4 0.0000 0.0000 0.0000 27.6508 0.0000 0.0000
# 5 0.0000 0.0000 0.0000 0.0000 46.6461 0.0000
# 6 0.0000 0.0000 0.0000 0.0000 0.0000 30.7939
#
#
#
# Elastic Compliance Matrix: (Units=1/GPa)
#
#
# Indices 1 2 3 4 5 6 
#
# 1 0.006601 -0.000934 -0.003167 0.000000 0.000000 0.000000
# 2 -0.000934 0.035833 -0.001315 0.000000 0.000000 0.000000
# 3 -0.003167 -0.001315 0.008935 0.000000 0.000000 0.000000
# 4 0.000000 0.000000 0.000000 0.036165 0.000000 0.000000
# 5 0.000000 0.000000 0.000000 0.000000 0.021438 0.000000
# 6 0.000000 0.000000 0.000000 0.000000 0.000000 0.032474
#
#
# Mechanical properties :
#
#
# Convention : Reuss Voigt Hill
#
# Bulk Modulus (GPa) = 24.66880 56.66633 40.66756
# Shear Modulus (GPa) = 30.15872 38.93704 34.54788
#
# Velocity S-wave (km/s) = 3.79774 4.31520 4.06471
# Velocity P-wave (km/s) = 5.57027 7.20607 6.44032
#
# Compressibility (1/GPa) = 0.04053704
#
# Stress axis : x y z
#
# Youngs Moduli (GPa) = 151.49530 27.90762 111.91881
#
# Poissons Ratio (x) = 0.02607 0.35445
# Poissons Ratio (y) = 0.14151 0.14712
# Poissons Ratio (z) = 0.47980 0.03669
#
# Static dielectric constant tensor:
#      x y z
#    x 4.237840 0.000000 0.000000 
#    y 0.000000 3.418100 0.000000 
#    z 0.000000 0.000000 4.024240 
# 
# 
# High freq. dielectric constant tensor:
#      x y z
#    x 1.842610 0.000000 0.000000 
#    y 0.000000 1.789740 0.000000 
#    z 0.000000 0.000000 1.833220 
# 
# From -- ./inp_files/32937.got.cif
#   From: 2010.03.12/outbox.cif.g09.slc.cpg/sg59_17_cif.got.tgz:32937.got - 2010.04.16 16:29:54.
