data_PCOD8245230
_publ_section_title
;
Structure prediction by ZEFSAII (Michael W. Deem and Ramdas Pophale) SiO2 
 PCOD8245230
Probable space group: P M M N
;
_chemical_formula_sum "Si O2"
_cell_formula_units_Z 48
_cell_length_a 8.752476
_cell_length_b 9.118260
_cell_length_c 30.648268
_cell_angle_alpha 90.000000
_cell_angle_beta 90.000000
_cell_angle_gamma 90.000000
_cell_volume 2445.957107
_symmetry_space_group_name_H-M "P M M N"
_symmetry_group_IT_number 59
_space_group.IT_coordinate_system_code '2'
_symmetry_cell_setting 'orthorhombic'
loop_
_space_group_symop_operation_xyz
x,y,z
1/2-x,1/2-y,z
1/2+x,-y,-z
-x,1/2+y,-z
-x,-y,-z
1/2+x,1/2+y,-z
1/2-x,y,z
x,1/2-y,z
loop_
_atom_site_type_symbol
_atom_site_label
_atom_site_fract_x
_atom_site_fract_y
_atom_site_fract_z
Si Si1 0.573863 0.922368 0.540928
Si Si2 0.423001 0.576343 0.630215
Si Si3 0.426006 0.581564 0.290605
Si Si4 0.930113 0.583265 0.040633
Si Si5 0.428096 0.420403 0.121106
Si Si6 0.927518 0.579693 0.200191
O O1 0.750000 0.967014 0.544621
O O2 0.552063 0.750000 0.535026
O O3 0.489329 0.979432 0.584271
O O4 0.500000 0.000000 0.500000
O O5 0.250000 0.518666 0.635003
O O6 0.430749 0.750000 0.632675
O O7 0.526776 0.515215 0.668596
O O8 0.250000 0.552100 0.279025
O O9 0.455329 0.750000 0.302897
O O10 0.527524 0.535542 0.249195
O O11 0.750000 0.579433 0.035918
O O12 0.990677 0.750000 0.040975
O O13 0.976083 0.506440 0.085283
O O14 0.000000 0.500000 0.000000
O O15 0.250000 0.446024 0.112406
O O16 0.470981 0.250000 0.118536
O O17 0.471951 0.481082 0.168324
O O18 0.750000 0.545638 0.192737
O O19 0.965013 0.750000 0.191322
#
# Coordination Sequence:
#
# PCOD8245230 Si02
#       6
#     8   8   8   8   8   8
#     4  10  21  37  57  81 109 143 183 227 276 330
#     4  10  21  37  57  81 110 145 184 227 277 331
#     4  10  21  37  58  84 113 147 187 230 278 332
#     4  11  24  41  62  89 119 152 192 236 283 336
#     4  11  24  40  59  86 118 152 192 235 280 334
#     4  10  21  38  60  85 113 147 188 233 281 333
#
# _framework density 19.624219
#
# number of rings (size 3 to 8) (size 9 to 14) (size 15 to 20)
#    0.000    1.667    0.000    4.000    0.000   12.000 
#    0.000    0.000    0.000    0.000    0.000    0.000 
#    0.000    0.000    0.000    0.000    0.000    0.000 
#
# Total GULP energy -595492.899891 kJ/mol
# GULP energy per Si atom -12406.102081 kJ/mol
# Density = 1.957955 g / cm^3
# Si number density = 19.624219 Si / 1000 Ang^3
#
#
#
# Elastic Constant Matrix: (Units=GPa)
#
#
# Indices 1 2 3 4 5 6 
#
# 1 72.5453 39.4148 28.0211 0.0000 0.0000 0.0000
# 2 39.4148 81.4322 52.2349 0.0000 0.0000 0.0000
# 3 28.0211 52.2349 122.0509 0.0000 0.0000 0.0000
# 4 0.0000 0.0000 0.0000 41.3236 0.0000 0.0000
# 5 0.0000 0.0000 0.0000 0.0000 44.6564 0.0000
# 6 0.0000 0.0000 0.0000 0.0000 0.0000 31.5804
#
#
#
# Elastic Compliance Matrix: (Units=1/GPa)
#
#
# Indices 1 2 3 4 5 6 
#
# 1 0.018733 -0.008695 -0.000579 0.000000 0.000000 0.000000
# 2 -0.008695 0.020963 -0.006975 0.000000 0.000000 0.000000
# 3 -0.000579 -0.006975 0.011312 0.000000 0.000000 0.000000
# 4 0.000000 0.000000 0.000000 0.024199 0.000000 0.000000
# 5 0.000000 0.000000 0.000000 0.000000 0.022393 0.000000
# 6 0.000000 0.000000 0.000000 0.000000 0.000000 0.031665
#
#
# Mechanical properties :
#
#
# Convention : Reuss Voigt Hill
#
# Bulk Modulus (GPa) = 54.03291 57.26334 55.64812
# Shear Modulus (GPa) = 29.77353 33.93591 31.85472
#
# Velocity S-wave (km/s) = 3.89933 4.16298 4.03331
# Velocity P-wave (km/s) = 6.91857 7.23536 7.07874
#
# Compressibility (1/GPa) = 0.01850724
#
# Stress axis : x y z
#
# Youngs Moduli (GPa) = 53.38307 47.70247 88.40450
#
# Poissons Ratio (x) = 0.41479 0.05122
# Poissons Ratio (y) = 0.46418 0.61666
# Poissons Ratio (z) = 0.03093 0.33275
#
# Static dielectric constant tensor:
#      x y z
#    x 3.712010 0.000000 0.000000 
#    y 0.000000 3.599740 0.000000 
#    z 0.000000 0.000000 3.719530 
# 
# 
# High freq. dielectric constant tensor:
#      x y z
#    x 1.780900 0.000000 0.000000 
#    y 0.000000 1.761210 0.000000 
#    z 0.000000 0.000000 1.779600 
# 
# From -- ./inp_files/32796.got.cif
#   From: 2010.03.12/outbox.cif.g09.slc.cpg/sg59_17_cif.got.tgz:32796.got - 2010.04.16 16:29:54.
