data_PCOD8245817
_publ_section_title
;
Structure prediction by ZEFSAII (Michael W. Deem and Ramdas Pophale) SiO2 
 PCOD8245817
Probable space group: P M M N
;
_chemical_formula_sum "Si O2"
_cell_formula_units_Z 48
_cell_length_a 17.582384
_cell_length_b 8.609533
_cell_length_c 15.253246
_cell_angle_alpha 90.000000
_cell_angle_beta 90.000000
_cell_angle_gamma 90.000000
_cell_volume 2308.977125
_symmetry_space_group_name_H-M "P M M N"
_symmetry_group_IT_number 59
_space_group.IT_coordinate_system_code '2'
_symmetry_cell_setting 'orthorhombic'
loop_
_space_group_symop_operation_xyz
x,y,z
1/2-x,1/2-y,z
1/2+x,-y,-z
-x,1/2+y,-z
-x,-y,-z
1/2+x,1/2+y,-z
1/2-x,y,z
x,1/2-y,z
loop_
_atom_site_type_symbol
_atom_site_label
_atom_site_fract_x
_atom_site_fract_y
_atom_site_fract_z
Si Si1 0.662556 0.929010 0.852802
Si Si2 0.423219 0.069929 0.651398
Si Si3 0.838323 0.430510 0.190340
Si Si4 0.913898 0.568766 0.673098
Si Si5 0.337991 0.930544 0.491756
Si Si6 0.082330 0.568372 0.985281
O O1 0.750000 0.961855 0.829960
O O2 0.648027 0.750000 0.875967
O O3 0.612173 0.980247 0.770110
O O4 0.638969 0.028784 0.936239
O O5 0.445855 0.250000 0.655134
O O6 0.362376 0.030155 0.725958
O O7 0.497370 0.965752 0.664439
O O8 0.387074 0.034129 0.557446
O O9 0.750000 0.457884 0.172281
O O10 0.855872 0.250000 0.208924
O O11 0.883470 0.494624 0.105922
O O12 0.898232 0.750000 0.655913
O O13 0.864695 0.467786 0.606095
O O14 0.250000 0.974766 0.502251
O O15 0.351755 0.750000 0.512387
O O16 0.074121 0.750000 0.978455
O O17 0.000000 0.500000 0.000000
#
# Coordination Sequence:
#
# PCOD8245817 Si02
#       6
#     8   8   8   8   8   8
#     4  10  22  40  62  89 121 157 197 244 298 354
#     4  12  25  40  61  90 122 156 198 247 298 353
#     4  10  22  41  62  85 117 157 200 246 298 355
#     4  11  23  41  64  89 121 160 201 244 293 351
#     4  11  24  42  64  90 121 157 197 244 298 354
#     4  11  23  39  61  89 121 159 201 246 297 352
#
# _framework density 20.788426000000001
#
# number of rings (size 3 to 8) (size 9 to 14) (size 15 to 20)
#    0.000    1.167    0.000    6.000    0.000   12.000 
#    0.000    0.000    0.000    0.000    0.000    0.000 
#    0.000    0.000    0.000    0.000    0.000    0.000 
#
# Total GULP energy -595593.046159 kJ/mol
# GULP energy per Si atom -12408.188462 kJ/mol
# Density = 2.074111 g / cm^3
# Si number density = 20.788426 Si / 1000 Ang^3
#
#
#
# Elastic Constant Matrix: (Units=GPa)
#
#
# Indices 1 2 3 4 5 6 
#
# 1 83.0780 20.8968 11.5429 0.0000 0.0000 0.0000
# 2 20.8968 48.2877 24.9221 0.0000 0.0000 0.0000
# 3 11.5429 24.9221 94.8700 0.0000 0.0000 0.0000
# 4 0.0000 0.0000 0.0000 37.6964 0.0000 0.0000
# 5 0.0000 0.0000 0.0000 0.0000 45.7479 0.0000
# 6 0.0000 0.0000 0.0000 0.0000 0.0000 31.0301
#
#
#
# Elastic Compliance Matrix: (Units=1/GPa)
#
#
# Indices 1 2 3 4 5 6 
#
# 1 0.013508 -0.005781 -0.000125 0.000000 0.000000 0.000000
# 2 -0.005781 0.026432 -0.006240 0.000000 0.000000 0.000000
# 3 -0.000125 -0.006240 0.012195 0.000000 0.000000 0.000000
# 4 0.000000 0.000000 0.000000 0.026528 0.000000 0.000000
# 5 0.000000 0.000000 0.000000 0.000000 0.021859 0.000000
# 6 0.000000 0.000000 0.000000 0.000000 0.000000 0.032227
#
#
# Mechanical properties :
#
#
# Convention : Reuss Voigt Hill
#
# Bulk Modulus (GPa) = 35.91610 37.88436 36.90023
# Shear Modulus (GPa) = 30.06206 34.15314 32.10760
#
# Velocity S-wave (km/s) = 3.80688 4.05766 3.93427
# Velocity P-wave (km/s) = 6.05290 6.34162 6.19894
#
# Compressibility (1/GPa) = 0.02784266
#
# Stress axis : x y z
#
# Youngs Moduli (GPa) = 74.02778 37.83317 81.99944
#
# Poissons Ratio (x) = 0.21873 0.01023
# Poissons Ratio (y) = 0.42799 0.51169
# Poissons Ratio (z) = 0.00924 0.23608
#
# Static dielectric constant tensor:
#      x y z
#    x 3.766770 0.000000 0.000000 
#    y 0.000000 3.854660 0.000000 
#    z 0.000000 0.000000 3.709840 
# 
# 
# High freq. dielectric constant tensor:
#      x y z
#    x 1.829570 0.000000 0.000000 
#    y 0.000000 1.811090 0.000000 
#    z 0.000000 0.000000 1.828890 
# 
# From -- ./inp_files/23675.got.cif
#   From: 2010.03.12/outbox.cif.g09.slc.cpg/sg59_12_cif.got.tgz:23675.got - 2010.04.16 16:29:54.
