data_PCOD8245600
_publ_section_title
;
Structure prediction by ZEFSAII (Michael W. Deem and Ramdas Pophale) SiO2 
 PCOD8245600
Probable space group: P M M N
;
_chemical_formula_sum "Si O2"
_cell_formula_units_Z 64
_cell_length_a 28.536675
_cell_length_b 8.954173
_cell_length_c 12.492647
_cell_angle_alpha 90.000000
_cell_angle_beta 90.000000
_cell_angle_gamma 90.000000
_cell_volume 3192.150204
_symmetry_space_group_name_H-M "P M M N"
_symmetry_group_IT_number 59
_space_group.IT_coordinate_system_code '2'
_symmetry_cell_setting 'orthorhombic'
loop_
_space_group_symop_operation_xyz
x,y,z
1/2-x,1/2-y,z
1/2+x,-y,-z
-x,1/2+y,-z
-x,-y,-z
1/2+x,1/2+y,-z
1/2-x,y,z
x,1/2-y,z
loop_
_atom_site_type_symbol
_atom_site_label
_atom_site_fract_x
_atom_site_fract_y
_atom_site_fract_z
Si Si1 0.197002 0.078563 0.998416
Si Si2 0.133183 0.919881 0.388576
Si Si3 0.953657 0.080770 0.465097
Si Si4 0.477804 0.575449 0.103150
Si Si5 0.118976 0.425273 0.169114
Si Si6 0.302678 0.927714 0.580641
Si Si7 0.564034 0.576145 0.249854
Si Si8 0.154012 0.926555 0.803166
O O1 0.250000 0.054212 0.040231
O O2 0.188454 0.250000 0.965224
O O3 0.189627 0.975021 0.895381
O O4 0.161350 0.030269 0.091143
O O5 0.146316 0.750000 0.356460
O O6 0.081001 0.923996 0.435003
O O7 0.169009 0.984902 0.477083
O O8 0.135382 0.024793 0.286043
O O9 0.965067 0.250000 0.431790
O O10 0.930579 0.999312 0.364904
O O11 0.000000 0.000000 0.500000
O O12 0.471758 0.750000 0.080191
O O13 0.427688 0.508151 0.131398
O O14 0.512615 0.546404 0.202352
O O15 0.500000 0.500000 0.000000
O O16 0.108720 0.250000 0.169090
O O17 0.250000 0.990146 0.573109
O O18 0.303576 0.750000 0.582678
O O19 0.326119 0.986128 0.689921
O O20 0.574382 0.750000 0.260484
O O21 0.603622 0.502942 0.174052
O O22 0.147847 0.750000 0.804132
#
# Coordination Sequence:
#
# PCOD8245600 Si02
#       8
#     8   8   8   8   8   8   8   8
#     4  10  23  43  63  86 121 161 199 249 312 370
#     4  10  21  39  59  84 120 157 197 247 301 357
#     4  11  22  37  57  85 118 156 200 247 301 357
#     4  11  24  41  61  88 121 160 204 253 306 363
#     4  11  24  41  62  88 120 161 207 253 303 364
#     4   9  18  35  59  87 120 156 193 243 306 361
#     4  11  23  38  58  86 121 161 202 246 303 368
#     4  11  21  37  62  94 125 156 201 257 308 365
#
# _framework density 20.049182999999999
#
# number of rings (size 3 to 8) (size 9 to 14) (size 15 to 20)
#    0.000    1.500    1.250    3.750    0.000   11.250 
#    0.000    0.000    0.000    1.500    0.000    0.000 
#    0.000    0.000    0.000    0.000    0.000    0.000 
#
# Total GULP energy -793885.254836 kJ/mol
# GULP energy per Si atom -12404.457107 kJ/mol
# Density = 2.000355 g / cm^3
# Si number density = 20.049183 Si / 1000 Ang^3
#
#
#
# Elastic Constant Matrix: (Units=GPa)
#
#
# Indices 1 2 3 4 5 6 
#
# 1 151.5497 57.0239 56.6858 0.0000 0.0000 0.0000
# 2 57.0239 96.4364 54.4707 0.0000 0.0000 0.0000
# 3 56.6858 54.4707 128.6649 0.0000 0.0000 0.0000
# 4 0.0000 0.0000 0.0000 37.4408 0.0000 0.0000
# 5 0.0000 0.0000 0.0000 0.0000 32.9443 0.0000
# 6 0.0000 0.0000 0.0000 0.0000 0.0000 28.2094
#
#
#
# Elastic Compliance Matrix: (Units=1/GPa)
#
#
# Indices 1 2 3 4 5 6 
#
# 1 0.008952 -0.004029 -0.002238 0.000000 0.000000 0.000000
# 2 -0.004029 0.015442 -0.004762 0.000000 0.000000 0.000000
# 3 -0.002238 -0.004762 0.010774 0.000000 0.000000 0.000000
# 4 0.000000 0.000000 0.000000 0.026709 0.000000 0.000000
# 5 0.000000 0.000000 0.000000 0.000000 0.030354 0.000000
# 6 0.000000 0.000000 0.000000 0.000000 0.000000 0.035449
#
#
# Mechanical properties :
#
#
# Convention : Reuss Voigt Hill
#
# Bulk Modulus (GPa) = 76.28394 79.22355 77.75374
# Shear Modulus (GPa) = 32.44465 33.61694 33.03080
#
# Velocity S-wave (km/s) = 4.02712 4.09922 4.06333
# Velocity P-wave (km/s) = 7.73011 7.87434 7.80256
#
# Compressibility (1/GPa) = 0.01310892
#
# Stress axis : x y z
#
# Youngs Moduli (GPa) = 111.71117 64.75907 92.81342
#
# Poissons Ratio (x) = 0.26092 0.20773
# Poissons Ratio (y) = 0.45009 0.44200
# Poissons Ratio (z) = 0.25002 0.30840
#
# Static dielectric constant tensor:
#      x y z
#    x 3.831770 0.000000 0.000000 
#    y 0.000000 3.576480 0.000000 
#    z 0.000000 0.000000 3.819160 
# 
# 
# High freq. dielectric constant tensor:
#      x y z
#    x 1.795790 0.000000 0.000000 
#    y 0.000000 1.776260 0.000000 
#    z 0.000000 0.000000 1.786160 
# 
# From -- ./inp_files/19391.got.cif
#   From: 2010.03.12/outbox.cif.g09.slc.cpg/sg59_10_cif.got.tgz:19391.got - 2010.04.16 16:29:54.
