data_PCOD8245343
_publ_section_title
;
Structure prediction by ZEFSAII (Michael W. Deem and Ramdas Pophale) SiO2 
 PCOD8245343
Probable space group: P M M N
;
_chemical_formula_sum "Si O2"
_cell_formula_units_Z 64
_cell_length_a 8.820544
_cell_length_b 14.746563
_cell_length_c 24.126202
_cell_angle_alpha 90.000000
_cell_angle_beta 90.000000
_cell_angle_gamma 90.000000
_cell_volume 3138.160423
_symmetry_space_group_name_H-M "P M M N"
_symmetry_group_IT_number 59
_space_group.IT_coordinate_system_code '2'
_symmetry_cell_setting 'orthorhombic'
loop_
_space_group_symop_operation_xyz
x,y,z
1/2-x,1/2-y,z
1/2+x,-y,-z
-x,1/2+y,-z
-x,-y,-z
1/2+x,1/2+y,-z
1/2-x,y,z
x,1/2-y,z
loop_
_atom_site_type_symbol
_atom_site_label
_atom_site_fract_x
_atom_site_fract_y
_atom_site_fract_z
Si Si1 0.570283 0.853685 0.347628
Si Si2 0.075653 0.489682 0.559097
Si Si3 0.071551 0.646394 0.915547
Si Si4 0.075052 0.526598 0.123750
Si Si5 0.925178 0.646281 0.031441
Si Si6 0.073885 0.958940 0.247287
Si Si7 0.916312 0.848944 0.606346
Si Si8 0.919726 0.654184 0.736640
O O1 0.750000 0.861388 0.344588
O O2 0.516064 0.750000 0.354286
O O3 0.508608 0.909903 0.401081
O O4 0.507857 0.892012 0.289651
O O5 0.250000 0.470301 0.549234
O O6 0.000000 0.500000 0.500000
O O7 0.050673 0.584502 0.589668
O O8 0.250000 0.632716 0.908944
O O9 0.023470 0.750000 0.901555
O O10 0.983677 0.577846 0.874533
O O11 0.024949 0.621294 0.978165
O O12 0.250000 0.527938 0.105390
O O13 0.056002 0.574025 0.183970
O O14 0.973908 0.583234 0.081765
O O15 0.750000 0.628135 0.017146
O O16 0.952998 0.750000 0.049242
O O17 0.250000 0.964463 0.265198
O O18 0.997347 0.060079 0.247936
O O19 0.750000 0.883398 0.585399
O O20 0.949451 0.750000 0.580001
O O21 0.912422 0.840657 0.671309
O O22 0.750000 0.650879 0.761664
O O23 0.997460 0.750000 0.757665
#
# Coordination Sequence:
#
# PCOD8245343 Si02
#       8
#     8   8   8   8   8   8   8   8
#     4  10  23  43  63  83 113 155 197 238 289 343
#     4  11  23  38  59  87 118 151 190 238 288 341
#     4  10  21  38  60  85 116 154 194 241 296 352
#     4  11  23  36  55  86 121 155 192 241 294 348
#     4  10  21  38  60  83 110 150 199 248 298 353
#     4  10  21  37  59  86 115 150 195 240 282 334
#     4   9  17  32  57  84 111 144 179 221 276 336
#     4   8  14  28  53  81 107 138 176 218 270 331
#
# _framework density 20.394113999999998
#
# number of rings (size 3 to 8) (size 9 to 14) (size 15 to 20)
#    0.000    2.125    1.250    2.625    0.000    5.000 
#    0.000    5.000    0.000    0.375    0.000    0.000 
#    0.000    0.000    0.000    0.000    0.000    0.000 
#
# Total GULP energy -793153.956771 kJ/mol
# GULP energy per Si atom -12393.030575 kJ/mol
# Density = 2.034770 g / cm^3
# Si number density = 20.394114 Si / 1000 Ang^3
#
#
#
# Elastic Constant Matrix: (Units=GPa)
#
#
# Indices 1 2 3 4 5 6 
#
# 1 46.9843 22.9659 21.9802 0.0000 0.0000 0.0000
# 2 22.9659 115.1232 42.0687 0.0000 0.0000 0.0000
# 3 21.9802 42.0687 87.6538 0.0000 0.0000 0.0000
# 4 0.0000 0.0000 0.0000 9.1596 0.0000 0.0000
# 5 0.0000 0.0000 0.0000 0.0000 27.6328 0.0000
# 6 0.0000 0.0000 0.0000 0.0000 0.0000 29.2318
#
#
#
# Elastic Compliance Matrix: (Units=1/GPa)
#
#
# Indices 1 2 3 4 5 6 
#
# 1 0.025095 -0.003282 -0.004718 0.000000 0.000000 0.000000
# 2 -0.003282 0.010963 -0.004439 0.000000 0.000000 0.000000
# 3 -0.004718 -0.004439 0.014722 0.000000 0.000000 0.000000
# 4 0.000000 0.000000 0.000000 0.109176 0.000000 0.000000
# 5 0.000000 0.000000 0.000000 0.000000 0.036189 0.000000
# 6 0.000000 0.000000 0.000000 0.000000 0.000000 0.034209
#
#
# Mechanical properties :
#
#
# Convention : Reuss Voigt Hill
#
# Bulk Modulus (GPa) = 38.60553 47.08790 42.84671
# Shear Modulus (GPa) = 18.94910 24.05461 21.50186
#
# Velocity S-wave (km/s) = 3.05150 3.43809 3.25055
# Velocity P-wave (km/s) = 5.60235 6.23697 5.92816
#
# Compressibility (1/GPa) = 0.02590303
#
# Stress axis : x y z
#
# Youngs Moduli (GPa) = 39.84849 91.21521 67.92662
#
# Poissons Ratio (x) = 0.29939 0.32045
# Poissons Ratio (y) = 0.13079 0.30150
# Poissons Ratio (z) = 0.18799 0.40487
#
# Static dielectric constant tensor:
#      x y z
#    x 3.240850 0.000000 0.000000 
#    y 0.000000 3.823210 0.000000 
#    z 0.000000 0.000000 3.735990 
# 
# 
# High freq. dielectric constant tensor:
#      x y z
#    x 1.774780 0.000000 0.000000 
#    y 0.000000 1.808060 0.000000 
#    z 0.000000 0.000000 1.792190 
# 
# From -- ./inp_files/31487.got.cif
#   From: 2010.03.12/outbox.cif.g09.slc.cpg/sg59_16_cif.got.tgz:31487.got - 2010.04.16 16:29:54.
