data_PCOD8245090
_publ_section_title
;
Structure prediction by ZEFSAII (Michael W. Deem and Ramdas Pophale) SiO2 
 PCOD8245090
Probable space group: P M M N
;
_chemical_formula_sum "Si O2"
_cell_formula_units_Z 48
_cell_length_a 9.253456
_cell_length_b 16.654246
_cell_length_c 15.127501
_cell_angle_alpha 90.000000
_cell_angle_beta 90.000000
_cell_angle_gamma 90.000000
_cell_volume 2331.289083
_symmetry_space_group_name_H-M "P M M N"
_symmetry_group_IT_number 59
_space_group.IT_coordinate_system_code '2'
_symmetry_cell_setting 'orthorhombic'
loop_
_space_group_symop_operation_xyz
x,y,z
1/2-x,1/2-y,z
1/2+x,-y,-z
-x,1/2+y,-z
-x,-y,-z
1/2+x,1/2+y,-z
1/2-x,y,z
x,1/2-y,z
loop_
_atom_site_type_symbol
_atom_site_label
_atom_site_fract_x
_atom_site_fract_y
_atom_site_fract_z
Si Si1 0.908138 0.342021 0.245690
Si Si2 0.416965 0.904307 0.936125
Si Si3 0.920235 0.078258 0.539057
Si Si4 0.918822 0.912819 0.106874
Si Si5 0.417899 0.656583 0.275204
Si Si6 0.092873 0.157851 0.399957
O O1 0.750000 0.384281 0.253580
O O2 0.893315 0.250000 0.273605
O O3 0.961442 0.347079 0.144916
O O4 0.019199 0.384069 0.313822
O O5 0.250000 0.896318 0.963866
O O6 0.452797 0.993029 0.900219
O O7 0.511790 0.874515 0.018685
O O8 0.750000 0.071501 0.522354
O O9 0.954586 0.099691 0.640840
O O10 0.986587 0.151256 0.483080
O O11 0.000000 0.000000 0.500000
O O12 0.750000 0.893216 0.109062
O O13 0.989019 0.875149 0.193674
O O14 0.250000 0.648703 0.250659
O O15 0.456237 0.750000 0.295350
O O16 0.250000 0.115671 0.415505
O O17 0.120874 0.250000 0.380058
#
# Coordination Sequence:
#
# PCOD8245090 Si02
#       6
#     8   8   8   8   8   8
#     4   9  18  33  55  82 111 149 194 238 285 341
#     4   9  19  36  56  82 118 158 199 241 290 349
#     4  11  24  41  62  89 118 153 198 245 298 358
#     4  10  21  36  57  86 117 153 196 243 295 346
#     4  10  23  43  64  86 116 157 202 246 296 358
#     4  10  21  37  57  84 118 154 192 238 292 346
#
# _framework density 20.589466999999999
#
# number of rings (size 3 to 8) (size 9 to 14) (size 15 to 20)
#    0.000    2.167    0.000    2.000    2.333    5.333 
#    0.000    1.667    0.000    0.000    0.000    0.000 
#    0.000    0.000    0.000    0.000    0.000    0.000 
#
# Total GULP energy -594928.773438 kJ/mol
# GULP energy per Si atom -12394.349447 kJ/mol
# Density = 2.054260 g / cm^3
# Si number density = 20.589467 Si / 1000 Ang^3
#
#
#
# Elastic Constant Matrix: (Units=GPa)
#
#
# Indices 1 2 3 4 5 6 
#
# 1 142.2188 39.0271 104.1132 0.0000 0.0000 0.0000
# 2 39.0271 50.0991 38.3115 0.0000 0.0000 0.0000
# 3 104.1132 38.3115 170.3465 0.0000 0.0000 0.0000
# 4 0.0000 0.0000 0.0000 34.2837 0.0000 0.0000
# 5 0.0000 0.0000 0.0000 0.0000 34.0995 0.0000
# 6 0.0000 0.0000 0.0000 0.0000 0.0000 23.4650
#
#
#
# Elastic Compliance Matrix: (Units=1/GPa)
#
#
# Indices 1 2 3 4 5 6 
#
# 1 0.013753 -0.005176 -0.007242 0.000000 0.000000 0.000000
# 2 -0.005176 0.026054 -0.002696 0.000000 0.000000 0.000000
# 3 -0.007242 -0.002696 0.010903 0.000000 0.000000 0.000000
# 4 0.000000 0.000000 0.000000 0.029168 0.000000 0.000000
# 5 0.000000 0.000000 0.000000 0.000000 0.029326 0.000000
# 6 0.000000 0.000000 0.000000 0.000000 0.000000 0.042617
#
#
# Mechanical properties :
#
#
# Convention : Reuss Voigt Hill
#
# Bulk Modulus (GPa) = 48.82184 80.61865 64.72024
# Shear Modulus (GPa) = 26.47237 30.45048 28.46143
#
# Velocity S-wave (km/s) = 3.58959 3.84986 3.72200
# Velocity P-wave (km/s) = 6.39873 7.68129 7.06916
#
# Compressibility (1/GPa) = 0.02048264
#
# Stress axis : x y z
#
# Youngs Moduli (GPa) = 72.71104 38.38133 91.71998
#
# Poissons Ratio (x) = 0.19866 0.66420
# Poissons Ratio (y) = 0.37634 0.24730
# Poissons Ratio (z) = 0.52654 0.10349
#
# Static dielectric constant tensor:
#      x y z
#    x 4.085290 0.000000 0.000000 
#    y 0.000000 3.571510 0.000000 
#    z 0.000000 0.000000 3.882000 
# 
# 
# High freq. dielectric constant tensor:
#      x y z
#    x 1.811640 0.000000 0.000000 
#    y 0.000000 1.787220 0.000000 
#    z 0.000000 0.000000 1.815470 
# 
# From -- ./inp_files/20420.got.cif
#   From: 2010.03.12/outbox.cif.g09.slc.cpg/sg59_11_cif.got.tgz:20420.got - 2010.04.16 16:29:54.
