data_PCOD8245582
_publ_section_title
;
Structure prediction by ZEFSAII (Michael W. Deem and Ramdas Pophale) SiO2 
 PCOD8245582
Probable space group: P M M N
;
_chemical_formula_sum "Si O2"
_cell_formula_units_Z 64
_cell_length_a 30.913619
_cell_length_b 8.712824
_cell_length_c 12.039533
_cell_angle_alpha 90.000000
_cell_angle_beta 90.000000
_cell_angle_gamma 90.000000
_cell_volume 3242.787071
_symmetry_space_group_name_H-M "P M M N"
_symmetry_group_IT_number 59
_space_group.IT_coordinate_system_code '2'
_symmetry_cell_setting 'orthorhombic'
loop_
_space_group_symop_operation_xyz
x,y,z
1/2-x,1/2-y,z
1/2+x,-y,-z
-x,1/2+y,-z
-x,-y,-z
1/2+x,1/2+y,-z
1/2-x,y,z
x,1/2-y,z
loop_
_atom_site_type_symbol
_atom_site_label
_atom_site_fract_x
_atom_site_fract_y
_atom_site_fract_z
Si Si1 0.624152 0.069612 0.872920
Si Si2 0.935057 0.576809 0.258725
Si Si3 0.699762 0.575064 0.266752
Si Si4 0.480712 0.924840 0.391192
Si Si5 0.867640 0.072221 0.417169
Si Si6 0.109208 0.069999 0.353831
Si Si7 0.200727 0.571379 0.964908
Si Si8 0.047631 0.431247 0.987929
O O1 0.616503 0.250000 0.874901
O O2 0.667327 0.022352 0.939670
O O3 0.633047 0.013396 0.748024
O O4 0.580625 0.992741 0.919831
O O5 0.917091 0.750000 0.273125
O O6 0.907682 0.465804 0.336910
O O7 0.985094 0.570335 0.292143
O O8 0.932191 0.522342 0.131472
O O9 0.750000 0.553342 0.288512
O O10 0.684702 0.750000 0.281711
O O11 0.676674 0.468687 0.356354
O O12 0.687206 0.523899 0.143183
O O13 0.466319 0.750000 0.417158
O O14 0.500000 0.000000 0.500000
O O15 0.440767 0.024401 0.351087
O O16 0.869091 0.250000 0.446891
O O17 0.869197 0.978090 0.530788
O O18 0.114009 0.250000 0.338457
O O19 0.250000 0.532010 0.002332
O O20 0.196549 0.750000 0.935339
O O21 0.043349 0.250000 0.999631
O O22 0.000000 0.500000 0.000000
#
# Coordination Sequence:
#
# PCOD8245582 Si02
#       8
#     8   8   8   8   8   8   8   8
#     4  11  23  40  61  87 121 160 203 251 307 367
#     4  10  22  38  58  84 117 152 192 242 293 348
#     4  10  21  38  62  91 123 155 188 234 292 353
#     4  11  21  36  58  85 117 155 198 245 295 349
#     4  12  24  38  60  87 116 151 194 242 291 349
#     4  12  25  41  60  83 117 159 203 251 299 355
#     4   9  19  38  65  95 124 155 195 244 298 359
#     4  11  23  39  59  85 119 159 202 248 300 357
#
# _framework density 19.73611
#
# number of rings (size 3 to 8) (size 9 to 14) (size 15 to 20)
#    0.000    1.250    1.250    5.250    0.000    6.250 
#    0.000    0.625    0.000    2.250    0.000    0.000 
#    0.000    0.000    0.000    0.000    0.000    0.000 
#
# Total GULP energy -793905.835018 kJ/mol
# GULP energy per Si atom -12404.778672 kJ/mol
# Density = 1.969119 g / cm^3
# Si number density = 19.736110 Si / 1000 Ang^3
#
#
#
# Elastic Constant Matrix: (Units=GPa)
#
#
# Indices 1 2 3 4 5 6 
#
# 1 99.0087 29.4399 51.2086 0.0000 0.0000 0.0000
# 2 29.4399 75.2220 33.1244 0.0000 0.0000 0.0000
# 3 51.2086 33.1244 118.7666 0.0000 0.0000 0.0000
# 4 0.0000 0.0000 0.0000 34.9176 0.0000 0.0000
# 5 0.0000 0.0000 0.0000 0.0000 34.8279 0.0000
# 6 0.0000 0.0000 0.0000 0.0000 0.0000 28.9570
#
#
#
# Elastic Compliance Matrix: (Units=1/GPa)
#
#
# Indices 1 2 3 4 5 6 
#
# 1 0.013615 -0.003128 -0.004998 0.000000 0.000000 0.000000
# 2 -0.003128 0.015874 -0.003079 0.000000 0.000000 0.000000
# 3 -0.004998 -0.003079 0.011434 0.000000 0.000000 0.000000
# 4 0.000000 0.000000 0.000000 0.028639 0.000000 0.000000
# 5 0.000000 0.000000 0.000000 0.000000 0.028713 0.000000
# 6 0.000000 0.000000 0.000000 0.000000 0.000000 0.034534
#
#
# Mechanical properties :
#
#
# Convention : Reuss Voigt Hill
#
# Bulk Modulus (GPa) = 54.01448 57.83814 55.92631
# Shear Modulus (GPa) = 30.98117 31.68879 31.33498
#
# Velocity S-wave (km/s) = 3.96633 4.01137 3.98892
# Velocity P-wave (km/s) = 6.95726 7.12911 7.04371
#
# Compressibility (1/GPa) = 0.01851355
#
# Stress axis : x y z
#
# Youngs Moduli (GPa) = 73.44709 62.99687 87.46159
#
# Poissons Ratio (x) = 0.19703 0.43715
# Poissons Ratio (y) = 0.22972 0.26927
# Poissons Ratio (z) = 0.36710 0.19395
#
# Static dielectric constant tensor:
#      x y z
#    x 3.651920 0.000000 0.000000 
#    y 0.000000 3.674390 0.000000 
#    z 0.000000 0.000000 3.638240 
# 
# 
# High freq. dielectric constant tensor:
#      x y z
#    x 1.767420 0.000000 0.000000 
#    y 0.000000 1.779230 0.000000 
#    z 0.000000 0.000000 1.775560 
# 
# From -- ./inp_files/19305.got.cif
#   From: 2010.03.12/outbox.cif.g09.slc.cpg/sg59_10_cif.got.tgz:19305.got - 2010.04.16 16:29:54.
