data_PCOD8245517
_publ_section_title
;
Structure prediction by ZEFSAII (Michael W. Deem and Ramdas Pophale) SiO2 
 PCOD8245517
Probable space group: P M M N
;
_chemical_formula_sum "Si O2"
_cell_formula_units_Z 40
_cell_length_a 8.734109
_cell_length_b 16.134087
_cell_length_c 13.724947
_cell_angle_alpha 90.000000
_cell_angle_beta 90.000000
_cell_angle_gamma 90.000000
_cell_volume 1934.076634
_symmetry_space_group_name_H-M "P M M N"
_symmetry_group_IT_number 59
_space_group.IT_coordinate_system_code '2'
_symmetry_cell_setting 'orthorhombic'
loop_
_space_group_symop_operation_xyz
x,y,z
1/2-x,1/2-y,z
1/2+x,-y,-z
-x,1/2+y,-z
-x,-y,-z
1/2+x,1/2+y,-z
1/2-x,y,z
x,1/2-y,z
loop_
_atom_site_type_symbol
_atom_site_label
_atom_site_fract_x
_atom_site_fract_y
_atom_site_fract_z
Si Si1 0.075956 0.432563 0.260357
Si Si2 0.573781 0.846193 0.548066
Si Si3 0.923643 0.390976 0.641090
Si Si4 0.069942 0.750000 0.033873
Si Si5 0.926395 0.750000 0.241165
Si Si6 0.570297 0.078460 0.055100
O O1 0.250000 0.416665 0.225319
O O2 0.023700 0.365684 0.341152
O O3 0.059636 0.521205 0.309222
O O4 0.964151 0.425723 0.169243
O O5 0.750000 0.873227 0.534575
O O6 0.548640 0.750000 0.526964
O O7 0.471150 0.897713 0.472157
O O8 0.750000 0.357801 0.648902
O O9 0.039939 0.330336 0.694960
O O10 0.250000 0.750000 0.018878
O O11 0.032455 0.750000 0.147099
O O12 0.002442 0.834280 0.985664
O O13 0.750000 0.750000 0.209476
O O14 0.750000 0.074481 0.036959
O O15 0.500000 0.000000 0.000000
#
# Coordination Sequence:
#
# PCOD8245517 Si02
#       6
#     8   8   8   4   4   8
#     4  10  23  40  61  90 125 162 200 247 306 363
#     4  10  21  38  60  89 125 161 200 248 297 354
#     4  11  22  38  60  88 123 162 201 247 303 362
#     4  10  24  44  63  88 125 162 201 256 318 372
#     4  12  24  38  61  90 117 154 207 256 304 360
#     4  11  24  43  66  93 125 163 209 260 312 371
#
# _framework density 20.681702000000001
#
# number of rings (size 3 to 8) (size 9 to 14) (size 15 to 20)
#    0.000    1.400    1.000    3.900    1.400    8.800 
#    0.000    0.000    0.000    0.000    0.000    0.000 
#    0.000    0.000    0.000    0.000    0.000    0.000 
#
# Total GULP energy -496155.527319 kJ/mol
# GULP energy per Si atom -12403.888183 kJ/mol
# Density = 2.063463 g / cm^3
# Si number density = 20.681702 Si / 1000 Ang^3
#
#
#
# Elastic Constant Matrix: (Units=GPa)
#
#
# Indices 1 2 3 4 5 6 
#
# 1 49.8603 32.9289 23.8410 0.0000 0.0000 0.0000
# 2 32.9289 100.2701 43.6363 0.0000 0.0000 0.0000
# 3 23.8410 43.6363 131.0113 0.0000 0.0000 0.0000
# 4 0.0000 0.0000 0.0000 30.0829 0.0000 0.0000
# 5 0.0000 0.0000 0.0000 0.0000 37.8792 0.0000
# 6 0.0000 0.0000 0.0000 0.0000 0.0000 -24.4106
#
#
#
# Elastic Compliance Matrix: (Units=1/GPa)
#
#
# Indices 1 2 3 4 5 6 
#
# 1 0.026151 -0.007622 -0.002220 0.000000 0.000000 0.000000
# 2 -0.007622 0.013885 -0.003238 0.000000 0.000000 0.000000
# 3 -0.002220 -0.003238 0.009115 0.000000 0.000000 0.000000
# 4 0.000000 0.000000 0.000000 0.033241 0.000000 0.000000
# 5 0.000000 0.000000 0.000000 0.000000 0.026400 0.000000
# 6 0.000000 0.000000 0.000000 0.000000 0.000000 -0.040966
#
#
# Mechanical properties :
#
#
# Convention : Reuss Voigt Hill
#
# Bulk Modulus (GPa) = 43.49344 53.55045 48.52195
# Shear Modulus (GPa) = 49.18780 20.75932 34.97356
#
# Velocity S-wave (km/s) = 4.88210 3.17164 4.11669
# Velocity P-wave (km/s) = 7.27017 6.27386 6.79031
#
# Compressibility (1/GPa) = 0.02299197
#
# Stress axis : x y z
#
# Youngs Moduli (GPa) = 38.23895 72.01944 109.70473
#
# Poissons Ratio (x) = 0.54892 0.24358
# Poissons Ratio (y) = 0.29145 0.35520
# Poissons Ratio (z) = 0.08490 0.23318
#
# Static dielectric constant tensor:
#      x y z
#    x 3.686160 0.000000 0.000000 
#    y 0.000000 4.028970 0.000000 
#    z 0.000000 0.000000 3.822460 
# 
# 
# High freq. dielectric constant tensor:
#      x y z
#    x 1.800050 0.000000 0.000000 
#    y 0.000000 1.820840 0.000000 
#    z 0.000000 0.000000 1.821250 
# 
# From -- ./inp_files/19986.got.cif
#   From: 2010.03.12/outbox.cif.g09.slc.cpg/sg59_10_cif.got.tgz:19986.got - 2010.04.16 16:29:54.
