data_PCOD8245520
_publ_section_title
;
Structure prediction by ZEFSAII (Michael W. Deem and Ramdas Pophale) SiO2 
 PCOD8245520
Probable space group: P M M N
;
_chemical_formula_sum "Si O2"
_cell_formula_units_Z 64
_cell_length_a 14.587602
_cell_length_b 8.919200
_cell_length_c 23.937628
_cell_angle_alpha 90.000000
_cell_angle_beta 90.000000
_cell_angle_gamma 90.000000
_cell_volume 3114.518550
_symmetry_space_group_name_H-M "P M M N"
_symmetry_group_IT_number 59
_space_group.IT_coordinate_system_code '2'
_symmetry_cell_setting 'orthorhombic'
loop_
_space_group_symop_operation_xyz
x,y,z
1/2-x,1/2-y,z
1/2+x,-y,-z
-x,1/2+y,-z
-x,-y,-z
1/2+x,1/2+y,-z
1/2-x,y,z
x,1/2-y,z
loop_
_atom_site_type_symbol
_atom_site_label
_atom_site_fract_x
_atom_site_fract_y
_atom_site_fract_z
Si Si1 0.648016 0.586972 0.899504
Si Si2 0.483427 0.426945 0.297929
Si Si3 0.859358 0.421045 0.792023
Si Si4 0.403441 0.925623 0.993741
Si Si5 0.143417 0.076623 0.505600
Si Si6 0.354392 0.426103 0.762529
Si Si7 0.977887 0.076180 0.584830
Si Si8 0.355884 0.087427 0.885137
O O1 0.750000 0.618540 0.879020
O O2 0.597984 0.750000 0.907127
O O3 0.601085 0.489984 0.850476
O O4 0.656978 0.498389 0.957716
O O5 0.480098 0.250000 0.293356
O O6 0.403092 0.492290 0.259455
O O7 0.583626 0.484610 0.280790
O O8 0.464747 0.476607 0.360717
O O9 0.750000 0.432128 0.787621
O O10 0.892730 0.250000 0.790583
O O11 0.404447 0.750000 0.002623
O O12 0.368671 0.961060 0.931718
O O13 0.500000 0.000000 0.000000
O O14 0.250000 0.034164 0.518204
O O15 0.135762 0.250000 0.487138
O O16 0.080037 0.048477 0.560068
O O17 0.103093 0.972487 0.456992
O O18 0.250000 0.482374 0.755150
O O19 0.361431 0.250000 0.750015
O O20 0.395127 0.461502 0.824760
O O21 0.963838 0.250000 0.599686
O O22 0.250000 0.112247 0.873573
O O23 0.397371 0.250000 0.904357
#
# Coordination Sequence:
#
# PCOD8245520 Si02
#       8
#     8   8   8   8   8   8   8   8
#     4  10  21  39  61  83 110 143 182 233 295 361
#     4  12  25  39  60  89 126 166 203 252 303 349
#     4  10  22  41  64  88 115 153 202 251 302 363
#     4  12  25  37  53  79 111 145 185 235 289 351
#     4   9  19  38  64  92 124 162 201 246 300 352
#     4   9  20  40  64  87 115 155 201 248 302 362
#     4  10  21  38  60  90 125 162 207 249 292 351
#     4   9  19  38  61  82 107 141 182 233 294 358
#
# _framework density 20.548921
#
# number of rings (size 3 to 8) (size 9 to 14) (size 15 to 20)
#    0.000    1.875    0.000    4.500    1.750    5.750 
#    0.000    2.500    0.000    0.000    0.000    0.000 
#    0.000    0.000    0.000    0.000    0.000    0.000 
#
# Total GULP energy -793394.636939 kJ/mol
# GULP energy per Si atom -12396.791202 kJ/mol
# Density = 2.050215 g / cm^3
# Si number density = 20.548921 Si / 1000 Ang^3
#
#
#
# Elastic Constant Matrix: (Units=GPa)
#
#
# Indices 1 2 3 4 5 6 
#
# 1 50.0961 16.7126 -3.0734 0.0000 0.0000 0.0000
# 2 16.7126 139.9299 41.1276 0.0000 0.0000 0.0000
# 3 -3.0734 41.1276 83.3579 0.0000 0.0000 0.0000
# 4 0.0000 0.0000 0.0000 38.5879 0.0000 0.0000
# 5 0.0000 0.0000 0.0000 0.0000 25.1072 0.0000
# 6 0.0000 0.0000 0.0000 0.0000 0.0000 26.9776
#
#
#
# Elastic Compliance Matrix: (Units=1/GPa)
#
#
# Indices 1 2 3 4 5 6 
#
# 1 0.021184 -0.003228 0.002374 0.000000 0.000000 0.000000
# 2 -0.003228 0.008850 -0.004486 0.000000 0.000000 0.000000
# 3 0.002374 -0.004486 0.014297 0.000000 0.000000 0.000000
# 4 0.000000 0.000000 0.000000 0.025915 0.000000 0.000000
# 5 0.000000 0.000000 0.000000 0.000000 0.039829 0.000000
# 6 0.000000 0.000000 0.000000 0.000000 0.000000 0.037068
#
#
# Mechanical properties :
#
#
# Convention : Reuss Voigt Hill
#
# Bulk Modulus (GPa) = 29.71598 42.54638 36.13118
# Shear Modulus (GPa) = 29.57874 32.70902 31.14388
#
# Velocity S-wave (km/s) = 3.79810 3.99402 3.89729
# Velocity P-wave (km/s) = 5.80746 6.48224 6.15410
#
# Compressibility (1/GPa) = 0.03365193
#
# Stress axis : x y z
#
# Youngs Moduli (GPa) = 47.20524 112.99001 69.94415
#
# Poissons Ratio (x) = 0.36471 -0.16602
# Poissons Ratio (y) = 0.15237 0.31374
# Poissons Ratio (z) = -0.11205 0.50683
#
# Static dielectric constant tensor:
#      x y z
#    x 3.700580 0.000000 0.000000 
#    y 0.000000 3.870080 0.000000 
#    z 0.000000 0.000000 3.368340 
# 
# 
# High freq. dielectric constant tensor:
#      x y z
#    x 1.803090 0.000000 0.000000 
#    y 0.000000 1.808200 0.000000 
#    z 0.000000 0.000000 1.800840 
# 
# From -- ./inp_files/32210.got.cif
#   From: 2010.03.12/outbox.cif.g09.slc.cpg/sg59_17_cif.got.tgz:32210.got - 2010.04.16 16:29:54.
