data_PCOD8245921
_publ_section_title
;
Structure prediction by ZEFSAII (Michael W. Deem and Ramdas Pophale) SiO2 
 PCOD8245921
Probable space group: P M M N
;
_chemical_formula_sum "Si O2"
_cell_formula_units_Z 34
_cell_length_a 13.304149
_cell_length_b 11.274891
_cell_length_c 10.621654
_cell_angle_alpha 90.000000
_cell_angle_beta 90.000000
_cell_angle_gamma 90.000000
_cell_volume 1593.278157
_symmetry_space_group_name_H-M "P M M N"
_symmetry_group_IT_number 59
_space_group.IT_coordinate_system_code '2'
_symmetry_cell_setting 'orthorhombic'
loop_
_space_group_symop_operation_xyz
x,y,z
1/2-x,1/2-y,z
1/2+x,-y,-z
-x,1/2+y,-z
-x,-y,-z
1/2+x,1/2+y,-z
1/2-x,y,z
x,1/2-y,z
loop_
_atom_site_type_symbol
_atom_site_label
_atom_site_fract_x
_atom_site_fract_y
_atom_site_fract_z
Si Si1 0.953273 0.119136 0.319532
Si Si2 0.250000 0.499884 0.743613
Si Si3 0.479023 0.250000 0.544501
Si Si4 0.250000 0.385021 0.001145
Si Si5 0.365759 0.750000 0.223720
Si Si6 0.250000 0.250000 0.624427
Si Si7 0.925695 0.006214 0.883541
O O1 0.954390 0.250000 0.254439
O O2 0.989858 0.132342 0.464689
O O3 0.842203 0.068223 0.316199
O O4 0.022572 0.026341 0.247580
O O5 0.250000 0.363520 0.710043
O O6 0.250000 0.489690 0.895281
O O7 0.544560 0.250000 0.672376
O O8 0.357133 0.250000 0.551288
O O9 0.250000 0.250000 0.949149
O O10 0.155584 0.405191 0.090792
O O11 0.250000 0.750000 0.278485
O O12 0.379006 0.863388 0.133289
O O13 0.000000 0.000000 0.000000
#
# Coordination Sequence:
#
# PCOD8245921 Si02
#       7
#     8   4   4   4   4   2   8
#     4  10  25  47  70 105 137 191 241 296 360 428
#     4  12  23  42  75 103 143 185 242 299 358 447
#     4  10  28  49  72 105 143 194 245 303 357 437
#     4  12  26  43  69 105 142 187 230 293 367 431
#     4  12  28  49  70 112 152 192 246 299 378 428
#     4  12  26  46  68 108 136 192 250 300 366 426
#     4  12  26  45  73 104 146 186 234 302 360 438
#
# _framework density 21.339651
#
# number of rings (size 3 to 8) (size 9 to 14) (size 15 to 20)
#    0.706    0.000    4.118    2.471    4.941    4.706 
#    2.118    0.000    0.000    0.000    0.000    0.000 
#    0.000    0.000    0.000    0.000    0.000    0.000 
#
# Total GULP energy -421355.694906 kJ/mol
# GULP energy per Si atom -12392.814556 kJ/mol
# Density = 2.129108 g / cm^3
# Si number density = 21.339651 Si / 1000 Ang^3
#
#
#
# Elastic Constant Matrix: (Units=GPa)
#
#
# Indices 1 2 3 4 5 6 
#
# 1 178.5208 33.6176 43.7266 0.0000 0.0000 0.0000
# 2 33.6176 120.0788 14.8077 0.0000 0.0000 0.0000
# 3 43.7266 14.8077 88.0294 0.0000 0.0000 0.0000
# 4 0.0000 0.0000 0.0000 41.6224 0.0000 0.0000
# 5 0.0000 0.0000 0.0000 0.0000 56.1150 0.0000
# 6 0.0000 0.0000 0.0000 0.0000 0.0000 39.1343
#
#
#
# Elastic Compliance Matrix: (Units=1/GPa)
#
#
# Indices 1 2 3 4 5 6 
#
# 1 0.006625 -0.001480 -0.003042 0.000000 0.000000 0.000000
# 2 -0.001480 0.008835 -0.000751 0.000000 0.000000 0.000000
# 3 -0.003042 -0.000751 0.012997 0.000000 0.000000 0.000000
# 4 0.000000 0.000000 0.000000 0.024026 0.000000 0.000000
# 5 0.000000 0.000000 0.000000 0.000000 0.017821 0.000000
# 6 0.000000 0.000000 0.000000 0.000000 0.000000 0.025553
#
#
# Mechanical properties :
#
#
# Convention : Reuss Voigt Hill
#
# Bulk Modulus (GPa) = 55.82986 63.43699 59.63342
# Shear Modulus (GPa) = 44.49475 47.00615 45.75045
#
# Velocity S-wave (km/s) = 4.57121 4.69845 4.63527
# Velocity P-wave (km/s) = 7.35395 7.69583 7.52683
#
# Compressibility (1/GPa) = 0.01791156
#
# Stress axis : x y z
#
# Youngs Moduli (GPa) = 150.93515 113.18935 76.93922
#
# Poissons Ratio (x) = 0.16749 0.23406
# Poissons Ratio (y) = 0.22334 0.05779
# Poissons Ratio (z) = 0.45916 0.08502
#
# Static dielectric constant tensor:
#      x y z
#    x 4.626770 0.000000 0.000000 
#    y 0.000000 4.124690 0.000000 
#    z 0.000000 0.000000 3.652300 
# 
# 
# High freq. dielectric constant tensor:
#      x y z
#    x 1.853210 0.000000 0.000000 
#    y 0.000000 1.851170 0.000000 
#    z 0.000000 0.000000 1.825910 
# 
# From -- ./inp_files/15398.got.cif
#   From: 2010.03.12/outbox.cif.g09.slc.cpg/sg59_8_cif.got.tgz:15398.got - 2010.04.16 16:29:54.
