data_PCOD8245380
_publ_section_title
;
Structure prediction by ZEFSAII (Michael W. Deem and Ramdas Pophale) SiO2 
 PCOD8245380
Probable space group: P M M N
;
_chemical_formula_sum "Si O2"
_cell_formula_units_Z 64
_cell_length_a 17.370241
_cell_length_b 19.838828
_cell_length_c 9.484449
_cell_angle_alpha 90.000000
_cell_angle_beta 90.000000
_cell_angle_gamma 90.000000
_cell_volume 3268.390668
_symmetry_space_group_name_H-M "P M M N"
_symmetry_group_IT_number 59
_space_group.IT_coordinate_system_code '2'
_symmetry_cell_setting 'orthorhombic'
loop_
_space_group_symop_operation_xyz
x,y,z
1/2-x,1/2-y,z
1/2+x,-y,-z
-x,1/2+y,-z
-x,-y,-z
1/2+x,1/2+y,-z
1/2-x,y,z
x,1/2-y,z
loop_
_atom_site_type_symbol
_atom_site_label
_atom_site_fract_x
_atom_site_fract_y
_atom_site_fract_z
Si Si1 0.033161 0.674491 0.733000
Si Si2 0.836256 0.122328 0.453690
Si Si3 0.337201 0.030588 0.564392
Si Si4 0.473027 0.824878 0.057100
Si Si5 0.836778 0.372432 0.779197
Si Si6 0.427633 0.445459 0.285025
Si Si7 0.442749 0.050473 0.805524
Si Si8 0.337588 0.010448 0.048449
O O1 0.000618 0.750000 0.716459
O O2 0.110779 0.669587 0.641930
O O3 0.971205 0.622513 0.671006
O O4 0.048364 0.656724 0.896329
O O5 0.750000 0.151449 0.443239
O O6 0.862875 0.120566 0.616786
O O7 0.839370 0.047419 0.389608
O O8 0.250000 0.058529 0.563602
O O9 0.371696 0.034841 0.409986
O O10 0.388798 0.072350 0.674832
O O11 0.510805 0.750000 0.066339
O O12 0.393728 0.821022 0.144431
O O13 0.529722 0.880902 0.120776
O O14 0.750000 0.344399 0.789343
O O15 0.843109 0.443488 0.858509
O O16 0.486581 0.506186 0.250393
O O17 0.373659 0.431380 0.148644
O O18 0.391132 0.005128 0.910982
O O19 0.250000 0.027512 0.004342
#
# Coordination Sequence:
#
# PCOD8245380 Si02
#       8
#     8   8   8   8   8   8   8   8
#     4  11  25  41  59  87 121 162 206 250 302 365
#     4  10  21  38  59  89 126 159 194 241 302 369
#     4  11  23  38  61  95 126 153 196 252 312 364
#     4  11  24  41  59  85 122 161 203 254 305 362
#     4  10  21  37  59  91 124 158 198 241 301 369
#     4  12  21  38  65  90 123 159 201 255 303 358
#     4  12  22  38  63  93 122 158 207 252 309 359
#     4  11  21  36  62  92 124 155 196 254 308 357
#
# _framework density 19.581502
#
# number of rings (size 3 to 8) (size 9 to 14) (size 15 to 20)
#    0.000    1.000    5.000    2.250    1.750    1.500 
#    0.000    2.500    0.000    4.500    0.000    0.000 
#    0.000    0.000    0.000    0.000    0.000    0.000 
#
# Total GULP energy -793552.407160 kJ/mol
# GULP energy per Si atom -12399.256362 kJ/mol
# Density = 1.953693 g / cm^3
# Si number density = 19.581502 Si / 1000 Ang^3
#
#
#
# Elastic Constant Matrix: (Units=GPa)
#
#
# Indices 1 2 3 4 5 6 
#
# 1 116.5657 30.9606 48.9632 0.0000 0.0000 0.0000
# 2 30.9606 78.0256 14.2560 0.0000 0.0000 0.0000
# 3 48.9632 14.2560 100.6863 0.0000 0.0000 0.0000
# 4 0.0000 0.0000 0.0000 20.4797 0.0000 0.0000
# 5 0.0000 0.0000 0.0000 0.0000 44.7234 0.0000
# 6 0.0000 0.0000 0.0000 0.0000 0.0000 20.0528
#
#
#
# Elastic Compliance Matrix: (Units=1/GPa)
#
#
# Indices 1 2 3 4 5 6 
#
# 1 0.011743 -0.003712 -0.005185 0.000000 0.000000 0.000000
# 2 -0.003712 0.014330 -0.000224 0.000000 0.000000 0.000000
# 3 -0.005185 -0.000224 0.012485 0.000000 0.000000 0.000000
# 4 0.000000 0.000000 0.000000 0.048829 0.000000 0.000000
# 5 0.000000 0.000000 0.000000 0.000000 0.022360 0.000000
# 6 0.000000 0.000000 0.000000 0.000000 0.000000 0.049868
#
#
# Mechanical properties :
#
#
# Convention : Reuss Voigt Hill
#
# Bulk Modulus (GPa) = 49.22176 53.73746 51.47961
# Shear Modulus (GPa) = 27.08143 30.45768 28.76955
#
# Velocity S-wave (km/s) = 3.72292 3.94817 3.83720
# Velocity P-wave (km/s) = 6.60845 6.94886 6.78079
#
# Compressibility (1/GPa) = 0.02031622
#
# Stress axis : x y z
#
# Youngs Moduli (GPa) = 85.15920 69.78268 80.09698
#
# Poissons Ratio (x) = 0.25905 0.41529
# Poissons Ratio (y) = 0.31613 0.01792
# Poissons Ratio (z) = 0.44153 0.01561
#
# Static dielectric constant tensor:
#      x y z
#    x 3.805110 0.000000 0.000000 
#    y 0.000000 3.306260 0.000000 
#    z 0.000000 0.000000 3.715370 
# 
# 
# High freq. dielectric constant tensor:
#      x y z
#    x 1.765170 0.000000 0.000000 
#    y 0.000000 1.729240 0.000000 
#    z 0.000000 0.000000 1.780960 
# 
# From -- ./inp_files/10668.got.cif
#   From: 2010.03.12/outbox.cif.g09.slc.cpg/sg59_6_cif.got.tgz:10668.got - 2010.04.16 16:29:54.
