data_PCOD8245809
_publ_section_title
;
Structure prediction by ZEFSAII (Michael W. Deem and Ramdas Pophale) SiO2 
 PCOD8245809
Probable space group: P M M N
;
_chemical_formula_sum "Si O2"
_cell_formula_units_Z 64
_cell_length_a 8.697578
_cell_length_b 30.746664
_cell_length_c 11.889544
_cell_angle_alpha 90.000000
_cell_angle_beta 90.000000
_cell_angle_gamma 90.000000
_cell_volume 3179.519790
_symmetry_space_group_name_H-M "P M M N"
_symmetry_group_IT_number 59
_space_group.IT_coordinate_system_code '2'
_symmetry_cell_setting 'orthorhombic'
loop_
_space_group_symop_operation_xyz
x,y,z
1/2-x,1/2-y,z
1/2+x,-y,-z
-x,1/2+y,-z
-x,-y,-z
1/2+x,1/2+y,-z
1/2-x,y,z
x,1/2-y,z
loop_
_atom_site_type_symbol
_atom_site_label
_atom_site_fract_x
_atom_site_fract_y
_atom_site_fract_z
Si Si1 0.425515 0.202307 0.956828
Si Si2 0.930887 0.044097 0.956388
Si Si3 0.570099 0.920016 0.258922
Si Si4 0.569917 0.620820 0.899162
Si Si5 0.569946 0.328800 0.743531
Si Si6 0.932285 0.201666 0.499928
Si Si7 0.070999 0.547217 0.484460
Si Si8 0.070699 0.876868 0.656319
O O1 0.250000 0.193242 0.919632
O O2 0.441407 0.250000 0.012987
O O3 0.534188 0.203041 0.846783
O O4 0.479483 0.167112 0.048483
O O5 0.750000 0.041120 0.958310
O O6 0.987335 0.048516 0.828801
O O7 0.981570 0.083569 0.034845
O O8 0.000000 0.000000 0.000000
O O9 0.750000 0.928306 0.250705
O O10 0.529308 0.871035 0.227195
O O11 0.511642 0.929055 0.382955
O O12 0.750000 0.612010 0.911233
O O13 0.525564 0.620818 0.769312
O O14 0.750000 0.340497 0.737504
O O15 0.511963 0.308019 0.626788
O O16 0.750000 0.200945 0.498525
O O17 0.992381 0.250000 0.464645
O O18 0.993527 0.164137 0.416285
O O19 0.250000 0.542510 0.457508
O O20 0.043540 0.577537 0.592660
O O21 0.000000 0.500000 0.500000
O O22 0.250000 0.870343 0.683530
#
# Coordination Sequence:
#
# PCOD8245809 Si02
#       8
#     8   8   8   8   8   8   8   8
#     4  10  22  40  61  88 126 168 209 259 316 374
#     4  12  26  45  69  96 127 164 209 258 313 374
#     4  12  24  41  66  96 130 167 206 255 316 375
#     4  11  24  42  63  90 126 168 212 258 313 374
#     4  11  20  36  62  94 127 163 207 259 312 372
#     4   9  18  35  60  90 123 159 202 255 311 365
#     4  11  24  43  65  93 126 165 212 260 313 371
#     4  10  22  41  62  87 123 163 208 260 311 367
#
# _framework density 20.128826
#
# number of rings (size 3 to 8) (size 9 to 14) (size 15 to 20)
#    0.000    1.250    2.500    3.750    1.750    2.750 
#    0.000    0.000    0.000    1.500    0.000    0.000 
#    0.000    0.000    0.000    0.000    0.000    0.000 
#
# Total GULP energy -793778.178573 kJ/mol
# GULP energy per Si atom -12402.784040 kJ/mol
# Density = 2.008301 g / cm^3
# Si number density = 20.128826 Si / 1000 Ang^3
#
#
#
# Elastic Constant Matrix: (Units=GPa)
#
#
# Indices 1 2 3 4 5 6 
#
# 1 110.2294 44.8323 42.6743 0.0000 0.0000 0.0000
# 2 44.8323 120.1306 25.3474 0.0000 0.0000 0.0000
# 3 42.6743 25.3474 96.9605 0.0000 0.0000 0.0000
# 4 0.0000 0.0000 0.0000 28.3112 0.0000 0.0000
# 5 0.0000 0.0000 0.0000 0.0000 34.7876 0.0000
# 6 0.0000 0.0000 0.0000 0.0000 0.0000 27.4019
#
#
#
# Elastic Compliance Matrix: (Units=1/GPa)
#
#
# Indices 1 2 3 4 5 6 
#
# 1 0.012277 -0.003642 -0.004451 0.000000 0.000000 0.000000
# 2 -0.003642 0.009891 -0.000983 0.000000 0.000000 0.000000
# 3 -0.004451 -0.000983 0.012529 0.000000 0.000000 0.000000
# 4 0.000000 0.000000 0.000000 0.035322 0.000000 0.000000
# 5 0.000000 0.000000 0.000000 0.000000 0.028746 0.000000
# 6 0.000000 0.000000 0.000000 0.000000 0.000000 0.036494
#
#
# Mechanical properties :
#
#
# Convention : Reuss Voigt Hill
#
# Bulk Modulus (GPa) = 60.44172 61.44763 60.94467
# Shear Modulus (GPa) = 31.46136 32.39791 31.92964
#
# Velocity S-wave (km/s) = 3.95777 4.01625 3.98711
# Velocity P-wave (km/s) = 7.13988 7.21806 7.17908
#
# Compressibility (1/GPa) = 0.01654486
#
# Stress axis : x y z
#
# Youngs Moduli (GPa) = 81.45594 101.10266 79.81294
#
# Poissons Ratio (x) = 0.36826 0.35524
# Poissons Ratio (y) = 0.29670 0.07842
# Poissons Ratio (z) = 0.36256 0.09934
#
# Static dielectric constant tensor:
#      x y z
#    x 3.577290 0.000000 0.000000 
#    y 0.000000 3.944110 0.000000 
#    z 0.000000 0.000000 3.724540 
# 
# 
# High freq. dielectric constant tensor:
#      x y z
#    x 1.779180 0.000000 0.000000 
#    y 0.000000 1.801650 0.000000 
#    z 0.000000 0.000000 1.789020 
# 
# From -- ./inp_files/14949.got.cif
#   From: 2010.03.12/outbox.cif.g09.slc.cpg/sg59_8_cif.got.tgz:14949.got - 2010.04.16 16:29:54.
