data_PCOD8245844
_publ_section_title
;
Structure prediction by ZEFSAII (Michael W. Deem and Ramdas Pophale) SiO2 
 PCOD8245844
Probable space group: P M M N
;
_chemical_formula_sum "Si O2"
_cell_formula_units_Z 40
_cell_length_a 8.803713
_cell_length_b 14.834920
_cell_length_c 15.049305
_cell_angle_alpha 90.000000
_cell_angle_beta 90.000000
_cell_angle_gamma 90.000000
_cell_volume 1965.475021
_symmetry_space_group_name_H-M "P M M N"
_symmetry_group_IT_number 59
_space_group.IT_coordinate_system_code '2'
_symmetry_cell_setting 'orthorhombic'
loop_
_space_group_symop_operation_xyz
x,y,z
1/2-x,1/2-y,z
1/2+x,-y,-z
-x,1/2+y,-z
-x,-y,-z
1/2+x,1/2+y,-z
1/2-x,y,z
x,1/2-y,z
loop_
_atom_site_type_symbol
_atom_site_label
_atom_site_fract_x
_atom_site_fract_y
_atom_site_fract_z
Si Si1 0.575049 0.428578 0.564669
Si Si2 0.071236 0.250000 0.305303
Si Si3 0.071436 0.112089 0.160862
Si Si4 0.069608 0.250000 0.503071
Si Si5 0.571192 0.250000 0.032703
Si Si6 0.072461 0.250000 0.841575
Si Si7 0.424127 0.923401 0.232717
O O1 0.500000 0.500000 0.500000
O O2 0.750000 0.417666 0.537815
O O3 0.489136 0.335032 0.556451
O O4 0.557881 0.459245 0.666715
O O5 0.250000 0.250000 0.317728
O O6 0.018220 0.161610 0.251363
O O7 0.998988 0.250000 0.403418
O O8 0.250000 0.126233 0.147074
O O9 0.989190 0.158116 0.077530
O O10 0.029373 0.006559 0.168264
O O11 0.250000 0.250000 0.502171
O O12 0.750000 0.250000 0.039266
O O13 0.522196 0.250000 0.931341
O O14 0.250000 0.250000 0.862766
O O15 0.031893 0.161238 0.785218
O O16 0.250000 0.894420 0.215053
#
# Coordination Sequence:
#
# PCOD8245844 Si02
#       7
#     8   4   8   4   4   4   8
#     4  11  23  39  59  86 120 159 202 245 292 348
#     4   8  15  31  56  84 114 150 190 232 287 348
#     4   9  18  37  63  86 111 147 192 239 287 344
#     4  11  21  35  56  83 117 158 201 247 300 351
#     4  11  23  40  62  90 121 149 181 230 291 354
#     4  12  26  42  62  87 118 155 196 241 286 343
#     4  10  22  41  63  85 115 157 198 240 293 347
#
# _framework density 20.351313999999999
#
# number of rings (size 3 to 8) (size 9 to 14) (size 15 to 20)
#    0.000    1.800    0.000    5.100    0.000    8.800 
#    0.000    8.000    0.000    0.000    0.000    0.000 
#    0.000    0.000    0.000    0.000    0.000    0.000 
#
# Total GULP energy -496072.137526 kJ/mol
# GULP energy per Si atom -12401.803438 kJ/mol
# Density = 2.030499 g / cm^3
# Si number density = 20.351314 Si / 1000 Ang^3
#
#
#
# Elastic Constant Matrix: (Units=GPa)
#
#
# Indices 1 2 3 4 5 6 
#
# 1 95.0697 50.2306 28.9908 0.0000 0.0000 0.0000
# 2 50.2306 140.2189 28.9476 0.0000 0.0000 0.0000
# 3 28.9908 28.9476 82.1373 0.0000 0.0000 0.0000
# 4 0.0000 0.0000 0.0000 4.5102 0.0000 0.0000
# 5 0.0000 0.0000 0.0000 0.0000 31.6667 0.0000
# 6 0.0000 0.0000 0.0000 0.0000 0.0000 26.1265
#
#
#
# Elastic Compliance Matrix: (Units=1/GPa)
#
#
# Indices 1 2 3 4 5 6 
#
# 1 0.013789 -0.004244 -0.003371 0.000000 0.000000 0.000000
# 2 -0.004244 0.008997 -0.001673 0.000000 0.000000 0.000000
# 3 -0.003371 -0.001673 0.013954 0.000000 0.000000 0.000000
# 4 0.000000 0.000000 0.000000 0.221720 0.000000 0.000000
# 5 0.000000 0.000000 0.000000 0.000000 0.031579 0.000000
# 6 0.000000 0.000000 0.000000 0.000000 0.000000 0.038275
#
#
# Mechanical properties :
#
#
# Convention : Reuss Voigt Hill
#
# Bulk Modulus (GPa) = 55.05256 59.30709 57.17983
# Shear Modulus (GPa) = 14.16649 26.41113 20.28881
#
# Velocity S-wave (km/s) = 2.64123 3.60635 3.16084
# Velocity P-wave (km/s) = 6.03418 6.82246 6.44039
#
# Compressibility (1/GPa) = 0.01816446
#
# Stress axis : x y z
#
# Youngs Moduli (GPa) = 72.52300 111.14471 71.66252
#
# Poissons Ratio (x) = 0.47165 0.24159
# Poissons Ratio (y) = 0.30776 0.11990
# Poissons Ratio (z) = 0.24449 0.18596
#
# Static dielectric constant tensor:
#      x y z
#    x 3.581610 0.000000 0.000000 
#    y 0.000000 2.921840 0.000000 
#    z 0.000000 0.000000 3.789640 
# 
# 
# High freq. dielectric constant tensor:
#      x y z
#    x 1.782400 0.000000 0.000000 
#    y 0.000000 1.804070 0.000000 
#    z 0.000000 0.000000 1.799170 
# 
# From -- ./inp_files/20041.got.cif
#   From: 2010.03.12/outbox.cif.g09.slc.cpg/sg59_11_cif.got.tgz:20041.got - 2010.04.16 16:29:54.
