data_PCOD8245786
_publ_section_title
;
Structure prediction by ZEFSAII (Michael W. Deem and Ramdas Pophale) SiO2 
 PCOD8245786
Probable space group: P M M N
;
_chemical_formula_sum "Si O2"
_cell_formula_units_Z 64
_cell_length_a 14.690416
_cell_length_b 8.906389
_cell_length_c 26.098791
_cell_angle_alpha 90.000000
_cell_angle_beta 90.000000
_cell_angle_gamma 90.000000
_cell_volume 3414.728218
_symmetry_space_group_name_H-M "P M M N"
_symmetry_group_IT_number 59
_space_group.IT_coordinate_system_code '2'
_symmetry_cell_setting 'orthorhombic'
loop_
_space_group_symop_operation_xyz
x,y,z
1/2-x,1/2-y,z
1/2+x,-y,-z
-x,1/2+y,-z
-x,-y,-z
1/2+x,1/2+y,-z
1/2-x,y,z
x,1/2-y,z
loop_
_atom_site_type_symbol
_atom_site_label
_atom_site_fract_x
_atom_site_fract_y
_atom_site_fract_z
Si Si1 0.647850 0.072493 0.865873
Si Si2 0.647817 0.582119 0.395201
Si Si3 0.005986 0.927108 0.674185
Si Si4 0.852740 0.927804 0.136014
Si Si5 0.501820 0.426933 0.783301
Si Si6 0.350244 0.080108 0.402193
Si Si7 0.097732 0.927443 0.502553
Si Si8 0.499154 0.428200 0.944783
O O1 0.750000 0.001261 0.865552
O O2 0.655676 0.250000 0.868135
O O3 0.591869 0.026795 0.815141
O O4 0.590254 0.016843 0.915131
O O5 0.750000 0.591534 0.374868
O O6 0.608739 0.750000 0.405022
O O7 0.594207 0.501847 0.350001
O O8 0.647718 0.488276 0.447415
O O9 0.018079 0.750000 0.673882
O O10 0.919778 0.978983 0.640413
O O11 0.992419 0.982052 0.731375
O O12 0.750000 0.997236 0.136911
O O13 0.846114 0.750000 0.134611
O O14 0.910111 0.975617 0.186313
O O15 0.908689 0.982533 0.085866
O O16 0.500357 0.250000 0.772053
O O17 0.250000 0.074720 0.377425
O O18 0.375733 0.250000 0.419228
O O19 0.348763 0.973848 0.451676
O O20 0.091234 0.750000 0.506577
O O21 0.000000 0.000000 0.500000
O O22 0.498785 0.250000 0.949530
O O23 0.500000 0.500000 0.000000
#
# Coordination Sequence:
#
# PCOD8245786 Si02
#       8
#     8   8   8   8   8   8   8   8
#     4   8  15  30  51  73  99 136 179 219 261 312
#     4  11  24  41  61  84 111 144 181 223 270 323
#     4  11  23  38  57  81 112 146 176 219 274 328
#     4   8  15  30  51  72  96 132 175 213 254 307
#     4   9  18  33  54  76  98 129 175 225 264 309
#     4  10  22  40  59  80 109 146 183 218 264 323
#     4  12  23  37  60  86 113 145 180 221 269 322
#     4   9  17  29  47  73 104 136 171 212 257 308
#
# _framework density 18.742341
#
# number of rings (size 3 to 8) (size 9 to 14) (size 15 to 20)
#    0.000    2.250    1.250    3.750    0.000    4.750 
#    0.000    3.750    0.000    1.500    0.000    0.000 
#    0.000    0.000    0.000    0.000    0.000    0.000 
#
# Total GULP energy -793429.307697 kJ/mol
# GULP energy per Si atom -12397.332933 kJ/mol
# Density = 1.869968 g / cm^3
# Si number density = 18.742341 Si / 1000 Ang^3
#
#
#
# Elastic Constant Matrix: (Units=GPa)
#
#
# Indices 1 2 3 4 5 6 
#
# 1 151.1175 31.9624 65.4051 0.0000 0.0000 0.0000
# 2 31.9624 75.0623 47.4465 0.0000 0.0000 0.0000
# 3 65.4051 47.4465 144.1716 0.0000 0.0000 0.0000
# 4 0.0000 0.0000 0.0000 35.6615 0.0000 0.0000
# 5 0.0000 0.0000 0.0000 0.0000 -13.0403 0.0000
# 6 0.0000 0.0000 0.0000 0.0000 0.0000 13.9144
#
#
#
# Elastic Compliance Matrix: (Units=1/GPa)
#
#
# Indices 1 2 3 4 5 6 
#
# 1 0.008360 -0.001468 -0.003310 0.000000 0.000000 0.000000
# 2 -0.001468 0.017079 -0.004955 0.000000 0.000000 0.000000
# 3 -0.003310 -0.004955 0.010068 0.000000 0.000000 0.000000
# 4 0.000000 0.000000 0.000000 0.028041 0.000000 0.000000
# 5 0.000000 0.000000 0.000000 0.000000 -0.076686 0.000000
# 6 0.000000 0.000000 0.000000 0.000000 0.000000 0.071868
#
#
# Mechanical properties :
#
#
# Convention : Reuss Voigt Hill
#
# Bulk Modulus (GPa) = 62.33227 73.33104 67.83165
# Shear Modulus (GPa) = 59.84888 22.34297 41.09593
#
# Velocity S-wave (km/s) = 5.65701 3.45644 4.68768
# Velocity P-wave (km/s) = 8.71772 7.42564 8.09749
#
# Compressibility (1/GPa) = 0.01604306
#
# Stress axis : x y z
#
# Youngs Moduli (GPa) = 119.61307 58.55075 99.32205
#
# Poissons Ratio (x) = 0.08595 0.32872
# Poissons Ratio (y) = 0.17558 0.49212
# Poissons Ratio (z) = 0.39588 0.29011
#
# Static dielectric constant tensor:
#      x y z
#    x 3.888120 0.000000 0.000000 
#    y 0.000000 3.231330 0.000000 
#    z 0.000000 0.000000 3.511600 
# 
# 
# High freq. dielectric constant tensor:
#      x y z
#    x 1.741170 0.000000 0.000000 
#    y 0.000000 1.703340 0.000000 
#    z 0.000000 0.000000 1.724020 
# 
# From -- ./inp_files/32263.got.cif
#   From: 2010.03.12/outbox.cif.g09.slc.cpg/sg59_17_cif.got.tgz:32263.got - 2010.04.16 16:29:54.
