data_PCOD8245209
_publ_section_title
;
Structure prediction by ZEFSAII (Michael W. Deem and Ramdas Pophale) SiO2 
 PCOD8245209
Probable space group: P M M N
;
_chemical_formula_sum "Si O2"
_cell_formula_units_Z 64
_cell_length_a 18.365311
_cell_length_b 17.277851
_cell_length_c 11.337319
_cell_angle_alpha 90.000000
_cell_angle_beta 90.000000
_cell_angle_gamma 90.000000
_cell_volume 3597.479917
_symmetry_space_group_name_H-M "P M M N"
_symmetry_group_IT_number 59
_space_group.IT_coordinate_system_code '2'
_symmetry_cell_setting 'orthorhombic'
loop_
_space_group_symop_operation_xyz
x,y,z
1/2-x,1/2-y,z
1/2+x,-y,-z
-x,1/2+y,-z
-x,-y,-z
1/2+x,1/2+y,-z
1/2-x,y,z
x,1/2-y,z
loop_
_atom_site_type_symbol
_atom_site_label
_atom_site_fract_x
_atom_site_fract_y
_atom_site_fract_z
Si Si1 0.387541 0.659225 0.888234
Si Si2 0.169402 0.613680 0.127846
Si Si3 0.668065 0.661358 0.869751
Si Si4 0.330926 0.025724 0.288811
Si Si5 0.336230 0.841560 0.627713
Si Si6 0.467965 0.340988 0.990529
Si Si7 0.063010 0.944237 0.454731
Si Si8 0.968344 0.163688 0.753810
O O1 0.375446 0.750000 0.906920
O O2 0.359126 0.634568 0.760101
O O3 0.340567 0.615140 0.987038
O O4 0.472296 0.635523 0.909834
O O5 0.250000 0.642685 0.160332
O O6 0.156473 0.525999 0.171925
O O7 0.114635 0.669218 0.198835
O O8 0.750000 0.649180 0.918744
O O9 0.652295 0.750000 0.836694
O O10 0.655396 0.614213 0.749553
O O11 0.611900 0.631994 0.969378
O O12 0.250000 0.014648 0.338439
O O13 0.382933 0.004102 0.394348
O O14 0.250000 0.859972 0.607022
O O15 0.350587 0.750000 0.604910
O O16 0.389834 0.892705 0.546146
O O17 0.472182 0.250000 0.972008
O O18 0.485149 0.375981 0.860725
O O19 0.024133 0.887325 0.362449
O O20 0.000000 0.000000 0.500000
O O21 0.994950 0.250000 0.721930
#
# Coordination Sequence:
#
# PCOD8245209 Si02
#       8
#     8   8   8   8   8   8   8   8
#     4   9  17  29  48  78 112 139 166 206 257 317
#     4   9  16  28  48  78 111 137 161 200 262 326
#     4   9  17  31  53  78 100 127 167 212 263 321
#     4   9  19  35  52  73 103 133 166 218 268 313
#     4  10  21  37  57  79 106 144 186 226 266 314
#     4   8  15  29  51  76 103 127 156 206 264 312
#     4  11  23  37  51  73 103 142 186 222 264 310
#     4   9  18  34  52  73  99 133 174 216 256 304
#
# _framework density 17.790230000000001
#
# number of rings (size 3 to 8) (size 9 to 14) (size 15 to 20)
#    0.000    2.750    0.000    2.250    1.750    2.000 
#    2.250    2.500    0.000    0.750    0.000    0.000 
#    0.000    0.000    0.000    0.000    0.000    0.000 
#
# Total GULP energy -793046.308287 kJ/mol
# GULP energy per Si atom -12391.348567 kJ/mol
# Density = 1.774974 g / cm^3
# Si number density = 17.790230 Si / 1000 Ang^3
#
#
#
# Elastic Constant Matrix: (Units=GPa)
#
#
# Indices 1 2 3 4 5 6 
#
# 1 113.1929 53.8175 69.2492 0.0000 0.0000 0.0000
# 2 53.8175 65.2769 50.8832 0.0000 0.0000 0.0000
# 3 69.2492 50.8832 121.7946 0.0000 0.0000 0.0000
# 4 0.0000 0.0000 0.0000 21.5333 0.0000 0.0000
# 5 0.0000 0.0000 0.0000 0.0000 26.1782 0.0000
# 6 0.0000 0.0000 0.0000 0.0000 0.0000 25.8633
#
#
#
# Elastic Compliance Matrix: (Units=1/GPa)
#
#
# Indices 1 2 3 4 5 6 
#
# 1 0.016737 -0.009462 -0.005563 0.000000 0.000000 0.000000
# 2 -0.009462 0.028067 -0.006346 0.000000 0.000000 0.000000
# 3 -0.005563 -0.006346 0.014025 0.000000 0.000000 0.000000
# 4 0.000000 0.000000 0.000000 0.046440 0.000000 0.000000
# 5 0.000000 0.000000 0.000000 0.000000 0.038200 0.000000
# 6 0.000000 0.000000 0.000000 0.000000 0.000000 0.038665
#
#
# Mechanical properties :
#
#
# Convention : Reuss Voigt Hill
#
# Bulk Modulus (GPa) = 62.16441 72.01822 67.09132
# Shear Modulus (GPa) = 21.71683 23.13593 22.42638
#
# Velocity S-wave (km/s) = 3.49767 3.61014 3.55435
# Velocity P-wave (km/s) = 7.16453 7.61231 7.39181
#
# Compressibility (1/GPa) = 0.01608637
#
# Stress axis : x y z
#
# Youngs Moduli (GPa) = 59.74964 35.62902 71.30326
#
# Poissons Ratio (x) = 0.33713 0.39665
# Poissons Ratio (y) = 0.56536 0.45248
# Poissons Ratio (z) = 0.33238 0.22610
#
# Static dielectric constant tensor:
#      x y z
#    x 3.484110 0.000000 0.000000 
#    y 0.000000 3.208470 0.000000 
#    z 0.000000 0.000000 3.249090 
# 
# 
# High freq. dielectric constant tensor:
#      x y z
#    x 1.691050 0.000000 0.000000 
#    y 0.000000 1.674160 0.000000 
#    z 0.000000 0.000000 1.675090 
# 
# From -- ./inp_files/17984.got.cif
#   From: 2010.03.12/outbox.cif.g09.slc.cpg/sg59_9_cif.got.tgz:17984.got - 2010.04.16 16:29:54.
