data_PCOD8245937
_publ_section_title
;
Structure prediction by ZEFSAII (Michael W. Deem and Ramdas Pophale) SiO2 
 PCOD8245937
Probable space group: P M M N
;
_chemical_formula_sum "Si O2"
_cell_formula_units_Z 64
_cell_length_a 8.888093
_cell_length_b 29.403580
_cell_length_c 14.031805
_cell_angle_alpha 90.000000
_cell_angle_beta 90.000000
_cell_angle_gamma 90.000000
_cell_volume 3667.096524
_symmetry_space_group_name_H-M "P M M N"
_symmetry_group_IT_number 59
_space_group.IT_coordinate_system_code '2'
_symmetry_cell_setting 'orthorhombic'
loop_
_space_group_symop_operation_xyz
x,y,z
1/2-x,1/2-y,z
1/2+x,-y,-z
-x,1/2+y,-z
-x,-y,-z
1/2+x,1/2+y,-z
1/2-x,y,z
x,1/2-y,z
loop_
_atom_site_type_symbol
_atom_site_label
_atom_site_fract_x
_atom_site_fract_y
_atom_site_fract_z
Si Si1 0.077565 0.427587 0.198454
Si Si2 0.573260 0.699897 0.495673
Si Si3 0.574678 0.992188 0.308312
Si Si4 0.920771 0.055877 0.530622
Si Si5 0.576741 0.082813 0.807807
Si Si6 0.576177 0.451067 0.011621
Si Si7 0.084253 0.646655 0.345760
Si Si8 0.575466 0.615779 0.614852
O O1 0.250000 0.433762 0.168597
O O2 0.055066 0.384498 0.270078
O O3 0.027638 0.470501 0.259090
O O4 0.983820 0.422632 0.101818
O O5 0.750000 0.703245 0.502250
O O6 0.503414 0.750000 0.515198
O O7 0.531279 0.683067 0.389137
O O8 0.511637 0.663693 0.573871
O O9 0.750000 0.005268 0.306996
O O10 0.521369 0.983954 0.418706
O O11 0.546252 0.947997 0.244389
O O12 0.750000 0.038871 0.516204
O O13 0.928134 0.098760 0.600459
O O14 0.986624 0.072449 0.429034
O O15 0.750000 0.067102 0.785980
O O16 0.553306 0.134255 0.765924
O O17 0.546253 0.081041 0.920603
O O18 0.750000 0.461003 0.027983
O O19 0.500000 0.500000 0.000000
O O20 0.250000 0.667800 0.358705
O O21 0.750000 0.610235 0.586037
#
# Coordination Sequence:
#
# PCOD8245937 Si02
#       8
#     8   8   8   8   8   8   8   8
#     4  11  22  34  46  63  93 127 165 209 243 277
#     4   9  17  31  52  77 101 122 148 187 236 290
#     4  11  20  29  45  66  89 123 166 203 241 286
#     4   9  17  30  47  65  91 124 158 198 239 280
#     4   9  18  32  48  66  94 126 159 202 245 281
#     4  11  21  33  50  70  93 125 167 210 249 283
#     4   8  15  28  46  70  96 123 152 185 230 283
#     4   9  19  34  49  67  93 126 160 195 237 288
#
# _framework density 17.452501000000002
#
# number of rings (size 3 to 8) (size 9 to 14) (size 15 to 20)
#    0.000    2.375    1.250    3.000    0.000    5.250 
#    0.000    0.000    0.000    0.000    0.000    0.875 
#    0.000    3.000    0.000    0.000    0.000    0.000 
#
# Total GULP energy -793205.164219 kJ/mol
# GULP energy per Si atom -12393.830691 kJ/mol
# Density = 1.741278 g / cm^3
# Si number density = 17.452501 Si / 1000 Ang^3
#
#
#
# Elastic Constant Matrix: (Units=GPa)
#
#
# Indices 1 2 3 4 5 6 
#
# 1 59.9907 7.0434 29.8335 0.0000 0.0000 0.0000
# 2 7.0434 45.0675 23.3528 0.0000 0.0000 0.0000
# 3 29.8335 23.3528 125.7950 0.0000 0.0000 0.0000
# 4 0.0000 0.0000 0.0000 14.5070 0.0000 0.0000
# 5 0.0000 0.0000 0.0000 0.0000 27.2931 0.0000
# 6 0.0000 0.0000 0.0000 0.0000 0.0000 15.4892
#
#
#
# Elastic Compliance Matrix: (Units=1/GPa)
#
#
# Indices 1 2 3 4 5 6 
#
# 1 0.018918 -0.000699 -0.004357 0.000000 0.000000 0.000000
# 2 -0.000699 0.024576 -0.004397 0.000000 0.000000 0.000000
# 3 -0.004357 -0.004397 0.009799 0.000000 0.000000 0.000000
# 4 0.000000 0.000000 0.000000 0.068932 0.000000 0.000000
# 5 0.000000 0.000000 0.000000 0.000000 0.036639 0.000000
# 6 0.000000 0.000000 0.000000 0.000000 0.000000 0.064561
#
#
# Mechanical properties :
#
#
# Convention : Reuss Voigt Hill
#
# Bulk Modulus (GPa) = 29.07962 39.03474 34.05718
# Shear Modulus (GPa) = 19.70105 22.83277 21.26691
#
# Velocity S-wave (km/s) = 3.36346 3.62094 3.49457
# Velocity P-wave (km/s) = 5.63757 6.31636 5.98659
#
# Compressibility (1/GPa) = 0.03438835
#
# Stress axis : x y z
#
# Youngs Moduli (GPa) = 52.85977 40.68946 102.05232
#
# Poissons Ratio (x) = 0.02844 0.44462
# Poissons Ratio (y) = 0.03695 0.44869
# Poissons Ratio (z) = 0.23030 0.17890
#
# Static dielectric constant tensor:
#      x y z
#    x 3.265530 0.000000 0.000000 
#    y 0.000000 3.208870 0.000000 
#    z 0.000000 0.000000 3.574770 
# 
# 
# High freq. dielectric constant tensor:
#      x y z
#    x 1.678220 0.000000 0.000000 
#    y 0.000000 1.628560 0.000000 
#    z 0.000000 0.000000 1.676130 
# 
# From -- ./inp_files/21835.got.cif
#   From: 2010.03.12/outbox.cif.g09.slc.cpg/sg59_11_cif.got.tgz:21835.got - 2010.04.16 16:29:54.
