data_PCOD8245112
_publ_section_title
;
Structure prediction by ZEFSAII (Michael W. Deem and Ramdas Pophale) SiO2 
 PCOD8245112
Probable space group: P M M N
;
_chemical_formula_sum "Si O2"
_cell_formula_units_Z 64
_cell_length_a 8.470336
_cell_length_b 28.963932
_cell_length_c 12.508893
_cell_angle_alpha 90.000000
_cell_angle_beta 90.000000
_cell_angle_gamma 90.000000
_cell_volume 3068.859706
_symmetry_space_group_name_H-M "P M M N"
_symmetry_group_IT_number 59
_space_group.IT_coordinate_system_code '2'
_symmetry_cell_setting 'orthorhombic'
loop_
_space_group_symop_operation_xyz
x,y,z
1/2-x,1/2-y,z
1/2+x,-y,-z
-x,1/2+y,-z
-x,-y,-z
1/2+x,1/2+y,-z
1/2-x,y,z
x,1/2-y,z
loop_
_atom_site_type_symbol
_atom_site_label
_atom_site_fract_x
_atom_site_fract_y
_atom_site_fract_z
Si Si1 0.430124 0.048080 0.329149
Si Si2 0.938163 0.198944 0.598021
Si Si3 0.933200 0.397369 0.522875
Si Si4 0.430587 0.954916 0.054585
Si Si5 0.579989 0.303925 0.827072
Si Si6 0.930449 0.106638 0.146923
Si Si7 0.561656 0.199187 0.054942
Si Si8 0.067522 0.450731 0.714817
O O1 0.250000 0.031361 0.330293
O O2 0.463975 0.074983 0.438076
O O3 0.455303 0.081557 0.228911
O O4 0.540672 0.003771 0.318334
O O5 0.750000 0.200936 0.611425
O O6 0.998473 0.250000 0.558707
O O7 0.983642 0.157140 0.518217
O O8 0.011631 0.185672 0.715446
O O9 0.750000 0.402942 0.493704
O O10 0.963953 0.417319 0.640753
O O11 0.250000 0.964933 0.085058
O O12 0.523122 0.942014 0.162103
O O13 0.447814 0.913060 0.972236
O O14 0.500000 0.000000 0.000000
O O15 0.750000 0.330204 0.825847
O O16 0.613142 0.250000 0.829634
O O17 0.488715 0.315543 0.938258
O O18 0.750000 0.101494 0.187395
O O19 0.983918 0.160465 0.142112
O O20 0.750000 0.200287 0.040990
O O21 0.500347 0.250000 0.091891
O O22 0.250000 0.439019 0.698015
#
# Coordination Sequence:
#
# PCOD8245112 Si02
#       8
#     8   8   8   8   8   8   8   8
#     4  12  25  43  63  82 113 156 203 249 304 362
#     4   8  15  29  52  84 119 152 188 236 290 344
#     4  11  23  39  63  92 121 152 198 250 301 356
#     4  11  22  37  60  91 124 158 196 240 294 357
#     4   7  10  19  39  70 108 144 176 217 273 328
#     4  10  21  36  59  88 120 155 197 245 294 349
#     4   8  14  26  48  81 118 153 191 238 287 337
#     4  12  25  42  63  88 122 157 198 247 299 361
#
# _framework density 20.854651
#
# number of rings (size 3 to 8) (size 9 to 14) (size 15 to 20)
#    0.000    2.125    1.250    4.875    1.750    0.500 
#    0.000    0.625    0.000    5.625    0.000    0.000 
#    0.000    0.000    0.000    0.000    0.000    0.000 
#
# Total GULP energy -793064.615466 kJ/mol
# GULP energy per Si atom -12391.634617 kJ/mol
# Density = 2.080718 g / cm^3
# Si number density = 20.854651 Si / 1000 Ang^3
#
#
#
# Elastic Constant Matrix: (Units=GPa)
#
#
# Indices 1 2 3 4 5 6 
#
# 1 51.4767 8.7369 10.6692 0.0000 0.0000 0.0000
# 2 8.7369 98.0591 24.6769 0.0000 0.0000 0.0000
# 3 10.6692 24.6769 76.7348 0.0000 0.0000 0.0000
# 4 0.0000 0.0000 0.0000 1.3735 0.0000 0.0000
# 5 0.0000 0.0000 0.0000 0.0000 27.1671 0.0000
# 6 0.0000 0.0000 0.0000 0.0000 0.0000 15.6227
#
#
#
# Elastic Compliance Matrix: (Units=1/GPa)
#
#
# Indices 1 2 3 4 5 6 
#
# 1 0.020128 -0.001185 -0.002418 0.000000 0.000000 0.000000
# 2 -0.001185 0.011166 -0.003426 0.000000 0.000000 0.000000
# 3 -0.002418 -0.003426 0.014470 0.000000 0.000000 0.000000
# 4 0.000000 0.000000 0.000000 0.728050 0.000000 0.000000
# 5 0.000000 0.000000 0.000000 0.000000 0.036809 0.000000
# 6 0.000000 0.000000 0.000000 0.000000 0.000000 0.064009
#
#
# Mechanical properties :
#
#
# Convention : Reuss Voigt Hill
#
# Bulk Modulus (GPa) = 31.53898 34.93739 33.23818
# Shear Modulus (GPa) = 5.56014 20.97853 13.26933
#
# Velocity S-wave (km/s) = 1.63460 3.17510 2.52519
# Velocity P-wave (km/s) = 4.32650 5.49826 4.94719
#
# Compressibility (1/GPa) = 0.03170680
#
# Stress axis : x y z
#
# Youngs Moduli (GPa) = 49.68093 89.56024 69.10953
#
# Poissons Ratio (x) = 0.10613 0.16708
# Poissons Ratio (y) = 0.05887 0.23677
# Poissons Ratio (z) = 0.12011 0.30683
#
# Static dielectric constant tensor:
#      x y z
#    x 3.338600 0.000000 0.000000 
#    y 0.000000 4.395460 0.000000 
#    z 0.000000 0.000000 3.850140 
# 
# 
# High freq. dielectric constant tensor:
#      x y z
#    x 1.770010 0.000000 0.000000 
#    y 0.000000 1.826270 0.000000 
#    z 0.000000 0.000000 1.808110 
# 
# From -- ./inp_files/15070.got.cif
#   From: 2010.03.12/outbox.cif.g09.slc.cpg/sg59_8_cif.got.tgz:15070.got - 2010.04.16 16:29:54.
