data_PCOD8245228
_publ_section_title
;
Structure prediction by ZEFSAII (Michael W. Deem and Ramdas Pophale) SiO2 
 PCOD8245228
Probable space group: P M M N
;
_chemical_formula_sum "Si O2"
_cell_formula_units_Z 48
_cell_length_a 8.987025
_cell_length_b 9.089238
_cell_length_c 30.800519
_cell_angle_alpha 90.000000
_cell_angle_beta 90.000000
_cell_angle_gamma 90.000000
_cell_volume 2515.946836
_symmetry_space_group_name_H-M "P M M N"
_symmetry_group_IT_number 59
_space_group.IT_coordinate_system_code '2'
_symmetry_cell_setting 'orthorhombic'
loop_
_space_group_symop_operation_xyz
x,y,z
1/2-x,1/2-y,z
1/2+x,-y,-z
-x,1/2+y,-z
-x,-y,-z
1/2+x,1/2+y,-z
1/2-x,y,z
x,1/2-y,z
loop_
_atom_site_type_symbol
_atom_site_label
_atom_site_fract_x
_atom_site_fract_y
_atom_site_fract_z
Si Si1 0.420167 0.923159 0.206502
Si Si2 0.424083 0.419275 0.705017
Si Si3 0.074803 0.581667 0.460357
Si Si4 0.421705 0.077648 0.372751
Si Si5 0.921807 0.077572 0.127342
Si Si6 0.078606 0.423022 0.039811
O O1 0.250000 0.976704 0.205367
O O2 0.433543 0.750000 0.200172
O O3 0.490717 0.972127 0.252037
O O4 0.510584 0.998446 0.168533
O O5 0.250000 0.441464 0.712932
O O6 0.462727 0.250000 0.694022
O O7 0.476645 0.521822 0.666135
O O8 0.250000 0.569806 0.466474
O O9 0.020671 0.750000 0.458977
O O10 0.023991 0.503818 0.416085
O O11 0.000000 0.500000 0.500000
O O12 0.250000 0.040199 0.362469
O O13 0.446563 0.250000 0.379473
O O14 0.750000 0.034904 0.122903
O O15 0.945682 0.250000 0.133666
O O16 0.004382 0.020955 0.084246
O O17 0.250000 0.469605 0.040795
O O18 0.057100 0.250000 0.034376
O O19 0.000000 0.500000 0.000000
#
# Coordination Sequence:
#
# PCOD8245228 Si02
#       6
#     8   8   8   8   8   8
#     4  10  21  37  58  83 110 143 183 225 270 322
#     4  10  21  37  57  81 109 142 180 223 271 321
#     4  10  21  37  58  83 111 145 184 226 273 324
#     4  10  21  37  57  81 109 143 183 225 270 322
#     4  10  21  37  57  81 110 144 181 223 272 324
#     4  10  21  37  57  81 109 143 183 226 273 325
#
# _framework density 19.078305
#
# number of rings (size 3 to 8) (size 9 to 14) (size 15 to 20)
#    0.000    2.000    0.000    3.000    0.000    8.000 
#    0.000    0.000    0.000    0.000    0.000    0.000 
#    0.000    0.000    0.000    0.000    0.000    0.000 
#
# Total GULP energy -595455.590394 kJ/mol
# GULP energy per Si atom -12405.324800 kJ/mol
# Density = 1.903488 g / cm^3
# Si number density = 19.078305 Si / 1000 Ang^3
#
#
#
# Elastic Constant Matrix: (Units=GPa)
#
#
# Indices 1 2 3 4 5 6 
#
# 1 71.8850 36.1620 49.3351 0.0000 0.0000 0.0000
# 2 36.1620 73.8578 59.6919 0.0000 0.0000 0.0000
# 3 49.3351 59.6919 152.7218 0.0000 0.0000 0.0000
# 4 0.0000 0.0000 0.0000 42.2141 0.0000 0.0000
# 5 0.0000 0.0000 0.0000 0.0000 44.6525 0.0000
# 6 0.0000 0.0000 0.0000 0.0000 0.0000 32.0641
#
#
#
# Elastic Compliance Matrix: (Units=1/GPa)
#
#
# Indices 1 2 3 4 5 6 
#
# 1 0.019877 -0.006640 -0.003826 0.000000 0.000000 0.000000
# 2 -0.006640 0.022010 -0.006458 0.000000 0.000000 0.000000
# 3 -0.003826 -0.006458 0.010308 0.000000 0.000000 0.000000
# 4 0.000000 0.000000 0.000000 0.023689 0.000000 0.000000
# 5 0.000000 0.000000 0.000000 0.000000 0.022395 0.000000
# 6 0.000000 0.000000 0.000000 0.000000 0.000000 0.031188
#
#
# Mechanical properties :
#
#
# Convention : Reuss Voigt Hill
#
# Bulk Modulus (GPa) = 54.50327 65.42694 59.96511
# Shear Modulus (GPa) = 29.51098 34.00453 31.75775
#
# Velocity S-wave (km/s) = 3.93725 4.22639 4.08438
# Velocity P-wave (km/s) = 7.02136 7.62790 7.33090
#
# Compressibility (1/GPa) = 0.01834752
#
# Stress axis : x y z
#
# Youngs Moduli (GPa) = 50.30916 45.43469 97.01527
#
# Poissons Ratio (x) = 0.30169 0.37115
# Poissons Ratio (y) = 0.33406 0.62648
# Poissons Ratio (z) = 0.19247 0.29339
#
# Static dielectric constant tensor:
#      x y z
#    x 3.523070 0.000000 0.000000 
#    y 0.000000 3.472380 0.000000 
#    z 0.000000 0.000000 1.209870 
# 
# 
# High freq. dielectric constant tensor:
#      x y z
#    x 1.750980 0.000000 0.000000 
#    y 0.000000 1.739260 0.000000 
#    z 0.000000 0.000000 1.757050 
# 
# From -- ./inp_files/32776.got.cif
#   From: 2010.03.12/outbox.cif.g09.slc.cpg/sg59_17_cif.got.tgz:32776.got - 2010.04.16 16:29:54.
