data_PCOD8245951
_publ_section_title
;
Structure prediction by ZEFSAII (Michael W. Deem and Ramdas Pophale) SiO2 
 PCOD8245951
Probable space group: P M M N
;
_chemical_formula_sum "Si O2"
_cell_formula_units_Z 40
_cell_length_a 10.132114
_cell_length_b 22.546644
_cell_length_c 10.449774
_cell_angle_alpha 90.000000
_cell_angle_beta 90.000000
_cell_angle_gamma 90.000000
_cell_volume 2387.200370
_symmetry_space_group_name_H-M "P M M N"
_symmetry_group_IT_number 59
_space_group.IT_coordinate_system_code '2'
_symmetry_cell_setting 'orthorhombic'
loop_
_space_group_symop_operation_xyz
x,y,z
1/2-x,1/2-y,z
1/2+x,-y,-z
-x,1/2+y,-z
-x,-y,-z
1/2+x,1/2+y,-z
1/2-x,y,z
x,1/2-y,z
loop_
_atom_site_type_symbol
_atom_site_label
_atom_site_fract_x
_atom_site_fract_y
_atom_site_fract_z
Si Si1 0.964790 0.684990 0.480321
Si Si2 0.250000 0.058754 0.166740
Si Si3 0.895305 0.072248 0.504374
Si Si4 0.750000 0.681868 0.692439
Si Si5 0.515024 0.003542 0.281206
Si Si6 0.750000 0.683193 0.267329
Si Si7 0.250000 0.059193 0.865366
O O1 0.025744 0.750000 0.484941
O O2 0.877762 0.672542 0.605423
O O3 0.878865 0.676195 0.353588
O O4 0.090053 0.642380 0.478426
O O5 0.250000 0.128829 0.203428
O O6 0.379574 0.023753 0.214879
O O7 0.250000 0.054127 0.015967
O O8 0.750000 0.051427 0.542827
O O9 0.921966 0.059523 0.354311
O O10 0.996064 0.042440 0.602518
O O11 0.750000 0.750000 0.750101
O O12 0.618139 0.973950 0.183706
O O13 0.750000 0.750000 0.204093
O O14 0.750000 0.629518 0.166024
#
# Coordination Sequence:
#
# PCOD8245951 Si02
#       7
#     8   4   8   4   8   4   4
#     4   9  17  31  54  79 106 132 170 228 276 314
#     4  12  23  38  56  76 111 151 183 218 259 322
#     4  11  20  32  57  78 106 138 173 229 272 322
#     4   9  18  33  55  81 103 132 178 228 270 312
#     4  11  23  36  52  84 107 135 186 222 270 317
#     4   9  18  33  55  81 103 132 178 228 270 312
#     4  12  23  38  56  76 111 151 183 218 259 322
#
# _framework density 16.756029999999999
#
# number of rings (size 3 to 8) (size 9 to 14) (size 15 to 20)
#    0.000    1.600    6.000    1.800    0.000    0.800 
#    0.000    0.000    0.000    0.000    0.000    0.000 
#    0.000   12.800    0.000    0.000    0.000    0.000 
#
# Total GULP energy -495650.930888 kJ/mol
# GULP energy per Si atom -12391.273272 kJ/mol
# Density = 1.671789 g / cm^3
# Si number density = 16.756030 Si / 1000 Ang^3
#
#
#
# Elastic Constant Matrix: (Units=GPa)
#
#
# Indices 1 2 3 4 5 6 
#
# 1 82.0575 36.8881 30.3612 0.0000 0.0000 0.0000
# 2 36.8881 109.9182 40.5585 0.0000 0.0000 0.0000
# 3 30.3612 40.5585 95.6904 0.0000 0.0000 0.0000
# 4 0.0000 0.0000 0.0000 22.6310 0.0000 0.0000
# 5 0.0000 0.0000 0.0000 0.0000 21.5124 0.0000
# 6 0.0000 0.0000 0.0000 0.0000 0.0000 30.4796
#
#
#
# Elastic Compliance Matrix: (Units=1/GPa)
#
#
# Indices 1 2 3 4 5 6 
#
# 1 0.015105 -0.003913 -0.003134 0.000000 0.000000 0.000000
# 2 -0.003913 0.011798 -0.003759 0.000000 0.000000 0.000000
# 3 -0.003134 -0.003759 0.013038 0.000000 0.000000 0.000000
# 4 0.000000 0.000000 0.000000 0.044187 0.000000 0.000000
# 5 0.000000 0.000000 0.000000 0.000000 0.046485 0.000000
# 6 0.000000 0.000000 0.000000 0.000000 0.000000 0.032809
#
#
# Mechanical properties :
#
#
# Convention : Reuss Voigt Hill
#
# Bulk Modulus (GPa) = 54.55831 55.92019 55.23925
# Shear Modulus (GPa) = 26.15832 26.91515 26.53673
#
# Velocity S-wave (km/s) = 3.95540 4.01221 3.98391
# Velocity P-wave (km/s) = 7.31378 7.41009 7.36209
#
# Compressibility (1/GPa) = 0.01832901
#
# Stress axis : x y z
#
# Youngs Moduli (GPa) = 66.20250 84.76143 76.69830
#
# Poissons Ratio (x) = 0.33165 0.24039
# Poissons Ratio (y) = 0.25903 0.28831
# Poissons Ratio (z) = 0.20749 0.31862
#
# Static dielectric constant tensor:
#      x y z
#    x 2.985610 0.000000 0.000000 
#    y 0.000000 3.330190 0.000000 
#    z 0.000000 0.000000 2.911410 
# 
# 
# High freq. dielectric constant tensor:
#      x y z
#    x 1.639130 0.000000 0.000000 
#    y 0.000000 1.659530 0.000000 
#    z 0.000000 0.000000 1.622770 
# 
# From -- ./inp_files/7428.got.cif
#   From: 2010.03.12/outbox.cif.g09.slc.cpg/sg59_4_cif.got.tgz:7428.got - 2010.04.16 16:29:54.
