data_PCOD8245959
_publ_section_title
;
Structure prediction by ZEFSAII (Michael W. Deem and Ramdas Pophale) SiO2 
 PCOD8245959
Probable space group: P M M N
;
_chemical_formula_sum "Si O2"
_cell_formula_units_Z 64
_cell_length_a 9.254269
_cell_length_b 19.048306
_cell_length_c 20.790095
_cell_angle_alpha 90.000000
_cell_angle_beta 90.000000
_cell_angle_gamma 90.000000
_cell_volume 3664.839437
_symmetry_space_group_name_H-M "P M M N"
_symmetry_group_IT_number 59
_space_group.IT_coordinate_system_code '2'
_symmetry_cell_setting 'orthorhombic'
loop_
_space_group_symop_operation_xyz
x,y,z
1/2-x,1/2-y,z
1/2+x,-y,-z
-x,1/2+y,-z
-x,-y,-z
1/2+x,1/2+y,-z
1/2-x,y,z
x,1/2-y,z
loop_
_atom_site_type_symbol
_atom_site_label
_atom_site_fract_x
_atom_site_fract_y
_atom_site_fract_z
Si Si1 0.418461 0.427126 0.994671
Si Si2 0.078363 0.575230 0.743809
Si Si3 0.090367 0.915241 0.122896
Si Si4 0.909609 0.917606 0.866581
Si Si5 0.579226 0.071195 0.736841
Si Si6 0.409981 0.333370 0.500065
Si Si7 0.083110 0.332568 0.356801
Si Si8 0.919802 0.170203 0.621629
O O1 0.250000 0.441094 0.982825
O O2 0.482854 0.385856 0.932558
O O3 0.500000 0.500000 0.000000
O O4 0.443612 0.385153 0.062229
O O5 0.250000 0.569086 0.743808
O O6 0.026745 0.604776 0.813481
O O7 0.008744 0.500260 0.728421
O O8 0.027004 0.629574 0.690430
O O9 0.250000 0.886578 0.106535
O O10 0.043042 0.891201 0.194700
O O11 0.090422 0.999112 0.124715
O O12 0.750000 0.892798 0.843694
O O13 0.750000 0.053819 0.733033
O O14 0.527506 0.124084 0.681584
O O15 0.250000 0.361941 0.515318
O O16 0.409865 0.250000 0.499629
O O17 0.457899 0.358384 0.428997
O O18 0.515083 0.361861 0.555797
O O19 0.250000 0.352007 0.341699
O O20 0.059109 0.250000 0.349194
O O21 0.750000 0.166868 0.613973
O O22 0.972735 0.250000 0.633194
#
# Coordination Sequence:
#
# PCOD8245959 Si02
#       8
#     8   8   8   8   8   8   8   8
#     4   9  15  22  35  56  81 110 145 185 224 264
#     4  11  21  30  45  70  96 121 152 192 231 265
#     4   8  14  24  38  56  81 115 150 183 220 264
#     4   8  15  27  40  56  84 120 151 180 223 277
#     4   9  18  32  46  63  94 130 156 182 225 282
#     4   8  15  29  49  71  92 115 146 184 225 270
#     4   9  18  34  54  71  90 121 154 181 221 279
#     4   9  17  30  50  73  93 117 152 192 230 267
#
# _framework density 17.463248
#
# number of rings (size 3 to 8) (size 9 to 14) (size 15 to 20)
#    0.000    3.125    0.000    3.750    0.000    6.250 
#    0.000    1.875    0.000    0.000    0.000    0.875 
#    0.000    3.000    0.000    0.000    0.000    0.000 
#
# Total GULP energy -792994.205724 kJ/mol
# GULP energy per Si atom -12390.534464 kJ/mol
# Density = 1.742350 g / cm^3
# Si number density = 17.463248 Si / 1000 Ang^3
#
#
#
# Elastic Constant Matrix: (Units=GPa)
#
#
# Indices 1 2 3 4 5 6 
#
# 1 94.3288 29.2792 73.9200 0.0000 0.0000 0.0000
# 2 29.2792 28.7968 37.8574 0.0000 0.0000 0.0000
# 3 73.9200 37.8574 166.3927 0.0000 0.0000 0.0000
# 4 0.0000 0.0000 0.0000 -3.5256 0.0000 0.0000
# 5 0.0000 0.0000 0.0000 0.0000 36.0474 0.0000
# 6 0.0000 0.0000 0.0000 0.0000 0.0000 14.3156
#
#
#
# Elastic Compliance Matrix: (Units=1/GPa)
#
#
# Indices 1 2 3 4 5 6 
#
# 1 0.018589 -0.011476 -0.005647 0.000000 0.000000 0.000000
# 2 -0.011476 0.056631 -0.007786 0.000000 0.000000 0.000000
# 3 -0.005647 -0.007786 0.010290 0.000000 0.000000 0.000000
# 4 0.000000 0.000000 0.000000 -0.283640 0.000000 0.000000
# 5 0.000000 0.000000 0.000000 0.000000 0.027741 0.000000
# 6 0.000000 0.000000 0.000000 0.000000 0.000000 0.069854
#
#
# Mechanical properties :
#
#
# Convention : Reuss Voigt Hill
#
# Bulk Modulus (GPa) = 28.01865 63.51461 45.76663
# Shear Modulus (GPa) = -128.80098 19.26492 -54.76803
#
# Velocity S-wave (km/s) = -8.59742 3.32500 -5.60624
# Velocity P-wave (km/s) = 9.08157 7.15474 3.95504
#
# Compressibility (1/GPa) = 0.03569051
#
# Stress axis : x y z
#
# Youngs Moduli (GPa) = 53.79657 17.65826 97.18153
#
# Poissons Ratio (x) = 0.20265 0.54877
# Poissons Ratio (y) = 0.61739 0.75667
# Poissons Ratio (z) = 0.30378 0.13749
#
# Static dielectric constant tensor:
#      x y z
#    x 3.350640 0.000000 0.000000 
#    y 0.000000 2.705950 0.000000 
#    z 0.000000 0.000000 4.103290 
# 
# 
# High freq. dielectric constant tensor:
#      x y z
#    x 1.670030 0.000000 0.000000 
#    y 0.000000 1.604810 0.000000 
#    z 0.000000 0.000000 1.700390 
# 
# From -- ./inp_files/31747.got.cif
#   From: 2010.03.12/outbox.cif.g09.slc.cpg/sg59_16_cif.got.tgz:31747.got - 2010.04.16 16:29:54.
