data_PCOD8245509
_publ_section_title
;
Structure prediction by ZEFSAII (Michael W. Deem and Ramdas Pophale) SiO2 
 PCOD8245509
Probable space group: P M M N
;
_chemical_formula_sum "Si O2"
_cell_formula_units_Z 48
_cell_length_a 8.578328
_cell_length_b 28.420741
_cell_length_c 9.985738
_cell_angle_alpha 90.000000
_cell_angle_beta 90.000000
_cell_angle_gamma 90.000000
_cell_volume 2434.547273
_symmetry_space_group_name_H-M "P M M N"
_symmetry_group_IT_number 59
_space_group.IT_coordinate_system_code '2'
_symmetry_cell_setting 'orthorhombic'
loop_
_space_group_symop_operation_xyz
x,y,z
1/2-x,1/2-y,z
1/2+x,-y,-z
-x,1/2+y,-z
-x,-y,-z
1/2+x,1/2+y,-z
1/2-x,y,z
x,1/2-y,z
loop_
_atom_site_type_symbol
_atom_site_label
_atom_site_fract_x
_atom_site_fract_y
_atom_site_fract_z
Si Si1 0.933439 0.982462 0.638322
Si Si2 0.564225 0.621454 0.719688
Si Si3 0.932291 0.967533 0.114109
Si Si4 0.935200 0.697614 0.505788
Si Si5 0.426561 0.194781 0.793714
Si Si6 0.930730 0.373970 0.990460
O O1 0.750000 0.981633 0.629038
O O2 0.994152 0.930205 0.674931
O O3 0.000000 0.000000 0.500000
O O4 0.986689 0.020117 0.747105
O O5 0.750000 0.622976 0.735330
O O6 0.502462 0.659279 0.611243
O O7 0.486164 0.635372 0.859068
O O8 0.750000 0.976266 0.127139
O O9 0.966098 0.914050 0.078101
O O10 0.000000 0.000000 0.000000
O O11 0.750000 0.699283 0.508335
O O12 0.999623 0.750000 0.541609
O O13 0.987806 0.682683 0.356144
O O14 0.250000 0.175914 0.813406
O O15 0.430860 0.250000 0.817063
O O16 0.541463 0.172416 0.902653
O O17 0.750000 0.388132 0.990005
#
# Coordination Sequence:
#
# PCOD8245509 Si02
#       6
#     8   8   8   8   8   8
#     4  11  24  40  60  90 125 162 203 249 301 360
#     4  10  21  38  60  87 119 158 201 248 299 355
#     4  12  24  42  65  88 119 159 204 253 305 363
#     4   8  16  34  61  90 116 147 193 245 297 353
#     4   9  19  38  64  91 119 155 200 250 303 360
#     4  12  25  39  59  89 123 162 202 247 305 364
#
# _framework density 19.716193000000001
#
# number of rings (size 3 to 8) (size 9 to 14) (size 15 to 20)
#    0.000    1.667    1.667    4.500    2.333    1.667 
#    0.000    2.500    0.000    1.000    0.000    0.000 
#    0.000    0.000    0.000    0.000    0.000    0.000 
#
# Total GULP energy -595319.295090 kJ/mol
# GULP energy per Si atom -12402.485314 kJ/mol
# Density = 1.967132 g / cm^3
# Si number density = 19.716193 Si / 1000 Ang^3
#
#
#
# Elastic Constant Matrix: (Units=GPa)
#
#
# Indices 1 2 3 4 5 6 
#
# 1 42.9998 21.1237 27.6803 0.0000 0.0000 0.0000
# 2 21.1237 90.1866 70.0142 0.0000 0.0000 0.0000
# 3 27.6803 70.0142 172.6250 0.0000 0.0000 0.0000
# 4 0.0000 0.0000 0.0000 41.5828 0.0000 0.0000
# 5 0.0000 0.0000 0.0000 0.0000 31.6329 0.0000
# 6 0.0000 0.0000 0.0000 0.0000 0.0000 24.5826
#
#
#
# Elastic Compliance Matrix: (Units=1/GPa)
#
#
# Indices 1 2 3 4 5 6 
#
# 1 0.027045 -0.004332 -0.002580 0.000000 0.000000 0.000000
# 2 -0.004332 0.016878 -0.006151 0.000000 0.000000 0.000000
# 3 -0.002580 -0.006151 0.008701 0.000000 0.000000 0.000000
# 4 0.000000 0.000000 0.000000 0.024048 0.000000 0.000000
# 5 0.000000 0.000000 0.000000 0.000000 0.031613 0.000000
# 6 0.000000 0.000000 0.000000 0.000000 0.000000 0.040679
#
#
# Mechanical properties :
#
#
# Convention : Reuss Voigt Hill
#
# Bulk Modulus (GPa) = 37.73717 60.38307 49.06012
# Shear Modulus (GPa) = 27.18559 32.02589 29.60574
#
# Velocity S-wave (km/s) = 3.71731 4.03469 3.87925
# Velocity P-wave (km/s) = 6.13239 7.23862 6.70835
#
# Compressibility (1/GPa) = 0.02649907
#
# Stress axis : x y z
#
# Youngs Moduli (GPa) = 36.97609 59.24979 114.92659
#
# Poissons Ratio (x) = 0.25666 0.29647
# Poissons Ratio (y) = 0.16017 0.70689
# Poissons Ratio (z) = 0.09539 0.36443
#
# Static dielectric constant tensor:
#      x y z
#    x 3.415280 0.000000 0.000000 
#    y 0.000000 3.783500 0.000000 
#    z 0.000000 0.000000 3.805410 
# 
# 
# High freq. dielectric constant tensor:
#      x y z
#    x 1.750650 0.000000 0.000000 
#    y 0.000000 1.774780 0.000000 
#    z 0.000000 0.000000 1.781770 
# 
# From -- ./inp_files/6310.got.cif
#   From: 2010.03.12/outbox.cif.g09.slc.cpg/sg59_4_cif.got.tgz:6310.got - 2010.04.16 16:29:54.
