data_PCOD8245271
_publ_section_title
;
Structure prediction by ZEFSAII (Michael W. Deem and Ramdas Pophale) SiO2 
 PCOD8245271
Probable space group: P M M N
;
_chemical_formula_sum "Si O2"
_cell_formula_units_Z 40
_cell_length_a 14.314848
_cell_length_b 8.682029
_cell_length_c 16.293265
_cell_angle_alpha 90.000000
_cell_angle_beta 90.000000
_cell_angle_gamma 90.000000
_cell_volume 2024.958346
_symmetry_space_group_name_H-M "P M M N"
_symmetry_group_IT_number 59
_space_group.IT_coordinate_system_code '2'
_symmetry_cell_setting 'orthorhombic'
loop_
_space_group_symop_operation_xyz
x,y,z
1/2-x,1/2-y,z
1/2+x,-y,-z
-x,1/2+y,-z
-x,-y,-z
1/2+x,1/2+y,-z
1/2-x,y,z
x,1/2-y,z
loop_
_atom_site_type_symbol
_atom_site_label
_atom_site_fract_x
_atom_site_fract_y
_atom_site_fract_z
Si Si1 0.142410 0.429261 0.892298
Si Si2 0.012701 0.928275 0.371450
Si Si3 0.981898 0.571038 0.801177
Si Si4 0.857674 0.429279 0.476776
Si Si5 0.642387 0.071904 0.938717
O O1 0.250000 0.474468 0.881979
O O2 0.123818 0.250000 0.878019
O O3 0.087915 0.526374 0.823861
O O4 0.106964 0.474033 0.983215
O O5 0.008931 0.750000 0.346790
O O6 0.095252 0.963419 0.435605
O O7 0.037633 0.029028 0.292630
O O8 0.911740 0.975190 0.407286
O O9 0.963567 0.750000 0.815069
O O10 0.913212 0.474022 0.858138
O O11 0.750000 0.483050 0.479671
O O12 0.866135 0.250000 0.454532
O O13 0.750000 0.036106 0.920508
O O14 0.624981 0.250000 0.958942
#
# Coordination Sequence:
#
# PCOD8245271 Si02
#       5
#     8   8   8   8   8
#     4  10  21  38  59  82 110 146 190 236 280 330
#     4  10  21  37  57  84 114 143 182 227 272 327
#     4  12  24  37  56  82 115 151 187 231 279 327
#     4   9  19  38  62  84 109 143 179 219 273 333
#     4  10  21  38  59  82 111 148 189 232 279 331
#
# _framework density 19.753492999999999
#
# number of rings (size 3 to 8) (size 9 to 14) (size 15 to 20)
#    0.000    1.800    0.000    4.200    0.000    5.200 
#    0.000    2.000    0.000    0.000    0.000    0.000 
#    0.000    0.000    0.000    0.000    0.000    0.000 
#
# Total GULP energy -496232.767842 kJ/mol
# GULP energy per Si atom -12405.819196 kJ/mol
# Density = 1.970853 g / cm^3
# Si number density = 19.753493 Si / 1000 Ang^3
#
#
#
# Elastic Constant Matrix: (Units=GPa)
#
#
# Indices 1 2 3 4 5 6 
#
# 1 62.1675 10.0139 -2.8646 0.0000 0.0000 0.0000
# 2 10.0139 51.8140 6.6296 0.0000 0.0000 0.0000
# 3 -2.8646 6.6296 59.2662 0.0000 0.0000 0.0000
# 4 0.0000 0.0000 0.0000 37.5619 0.0000 0.0000
# 5 0.0000 0.0000 0.0000 0.0000 14.9735 0.0000
# 6 0.0000 0.0000 0.0000 0.0000 0.0000 30.4202
#
#
#
# Elastic Compliance Matrix: (Units=1/GPa)
#
#
# Indices 1 2 3 4 5 6 
#
# 1 0.016684 -0.003376 0.001184 0.000000 0.000000 0.000000
# 2 -0.003376 0.020263 -0.002430 0.000000 0.000000 0.000000
# 3 0.001184 -0.002430 0.017202 0.000000 0.000000 0.000000
# 4 0.000000 0.000000 0.000000 0.026623 0.000000 0.000000
# 5 0.000000 0.000000 0.000000 0.000000 0.066785 0.000000
# 6 0.000000 0.000000 0.000000 0.000000 0.000000 0.032873
#
#
# Mechanical properties :
#
#
# Convention : Reuss Voigt Hill
#
# Bulk Modulus (GPa) = 22.26891 22.31174 22.29032
# Shear Modulus (GPa) = 24.43297 27.22238 25.82767
#
# Velocity S-wave (km/s) = 3.52077 3.71631 3.61986
# Velocity P-wave (km/s) = 5.27500 5.45291 5.36469
#
# Compressibility (1/GPa) = 0.04490565
#
# Stress axis : x y z
#
# Youngs Moduli (GPa) = 59.93793 49.35064 58.13258
#
# Poissons Ratio (x) = 0.16660 -0.06883
# Poissons Ratio (y) = 0.20235 0.14125
# Poissons Ratio (z) = -0.07097 0.11991
#
# Static dielectric constant tensor:
#      x y z
#    x 3.700450 0.000000 0.000000 
#    y 0.000000 3.630450 0.000000 
#    z 0.000000 0.000000 3.518150 
# 
# 
# High freq. dielectric constant tensor:
#      x y z
#    x 1.776000 0.000000 0.000000 
#    y 0.000000 1.777860 0.000000 
#    z 0.000000 0.000000 1.766790 
# 
# From -- ./inp_files/19848.got.cif
#   From: 2010.03.12/outbox.cif.g09.slc.cpg/sg59_10_cif.got.tgz:19848.got - 2010.04.16 16:29:54.
