data_PCOD8245254
_publ_section_title
;
Structure prediction by ZEFSAII (Michael W. Deem and Ramdas Pophale) SiO2 
 PCOD8245254
Probable space group: P M M N
;
_chemical_formula_sum "Si O2"
_cell_formula_units_Z 48
_cell_length_a 9.154240
_cell_length_b 15.808220
_cell_length_c 16.792273
_cell_angle_alpha 90.000000
_cell_angle_beta 90.000000
_cell_angle_gamma 90.000000
_cell_volume 2430.047438
_symmetry_space_group_name_H-M "P M M N"
_symmetry_group_IT_number 59
_space_group.IT_coordinate_system_code '2'
_symmetry_cell_setting 'orthorhombic'
loop_
_space_group_symop_operation_xyz
x,y,z
1/2-x,1/2-y,z
1/2+x,-y,-z
-x,1/2+y,-z
-x,-y,-z
1/2+x,1/2+y,-z
1/2-x,y,z
x,1/2-y,z
loop_
_atom_site_type_symbol
_atom_site_label
_atom_site_fract_x
_atom_site_fract_y
_atom_site_fract_z
Si Si1 0.078656 0.250000 0.081542
Si Si2 0.418427 0.404945 0.192093
Si Si3 0.083627 0.652738 0.657726
Si Si4 0.576329 0.250000 0.914077
Si Si5 0.917878 0.654007 0.334726
Si Si6 0.422435 0.088892 0.493651
Si Si7 0.417836 0.906665 0.189674
O O1 0.250000 0.250000 0.063108
O O2 0.031380 0.165867 0.129325
O O3 0.991162 0.250000 0.000616
O O4 0.250000 0.389608 0.216311
O O5 0.515550 0.401353 0.271088
O O6 0.439777 0.498730 0.153891
O O7 0.250000 0.622196 0.642914
O O8 0.078380 0.750000 0.683391
O O9 0.989543 0.641537 0.578487
O O10 0.750000 0.250000 0.922518
O O11 0.518428 0.334638 0.869141
O O12 0.750000 0.632038 0.320733
O O13 0.954881 0.750000 0.312530
O O14 0.959808 0.639235 0.426138
O O15 0.008092 0.594305 0.276172
O O16 0.250000 0.077796 0.480434
O O17 0.500000 0.000000 0.500000
O O18 0.250000 0.885911 0.204374
#
# Coordination Sequence:
#
# PCOD8245254 Si02
#       7
#     4   8   8   4   8   8   8
#     4  10  22  40  62  89 118 151 194 241 288 353
#     4  10  21  39  63  88 117 155 199 242 293 352
#     4  11  23  38  58  86 119 157 203 249 298 356
#     4  10  22  40  60  87 122 153 186 235 294 355
#     4  10  21  37  57  82 113 152 197 242 288 341
#     4  11  23  38  56  82 118 158 203 252 301 352
#     4  10  21  38  61  88 117 154 194 237 291 352
#
# _framework density 19.752700000000001
#
# number of rings (size 3 to 8) (size 9 to 14) (size 15 to 20)
#    0.000    1.667    1.667    2.500    0.000    8.333 
#    0.000    0.000    0.000    0.000    0.000    0.000 
#    0.000    0.000    0.000    0.000    0.000    0.000 
#
# Total GULP energy -595315.162617 kJ/mol
# GULP energy per Si atom -12402.399221 kJ/mol
# Density = 1.970774 g / cm^3
# Si number density = 19.752700 Si / 1000 Ang^3
#
#
#
# Elastic Constant Matrix: (Units=GPa)
#
#
# Indices 1 2 3 4 5 6 
#
# 1 74.3573 39.7680 55.1873 0.0000 0.0000 0.0000
# 2 39.7680 125.0061 60.4543 0.0000 0.0000 0.0000
# 3 55.1873 60.4543 131.9604 0.0000 0.0000 0.0000
# 4 0.0000 0.0000 0.0000 22.5471 0.0000 0.0000
# 5 0.0000 0.0000 0.0000 0.0000 38.8812 0.0000
# 6 0.0000 0.0000 0.0000 0.0000 0.0000 20.9745
#
#
#
# Elastic Compliance Matrix: (Units=1/GPa)
#
#
# Indices 1 2 3 4 5 6 
#
# 1 0.020358 -0.003030 -0.007126 0.000000 0.000000 0.000000
# 2 -0.003030 0.010727 -0.003647 0.000000 0.000000 0.000000
# 3 -0.007126 -0.003647 0.012229 0.000000 0.000000 0.000000
# 4 0.000000 0.000000 0.000000 0.044352 0.000000 0.000000
# 5 0.000000 0.000000 0.000000 0.000000 0.025719 0.000000
# 6 0.000000 0.000000 0.000000 0.000000 0.000000 0.047677
#
#
# Mechanical properties :
#
#
# Convention : Reuss Voigt Hill
#
# Bulk Modulus (GPa) = 63.66219 71.34922 67.50571
# Shear Modulus (GPa) = 25.78590 28.20818 26.99704
#
# Velocity S-wave (km/s) = 3.61700 3.78308 3.70097
# Velocity P-wave (km/s) = 7.05289 7.43518 7.24655
#
# Compressibility (1/GPa) = 0.01570791
#
# Stress axis : x y z
#
# Youngs Moduli (GPa) = 49.12107 93.21851 81.77360
#
# Poissons Ratio (x) = 0.28249 0.58268
# Poissons Ratio (y) = 0.14886 0.29824
# Poissons Ratio (z) = 0.35002 0.33998
#
# Static dielectric constant tensor:
#      x y z
#    x 4.923160 0.000000 0.000000 
#    y 0.000000 3.841790 0.000000 
#    z 0.000000 0.000000 3.739340 
# 
# 
# High freq. dielectric constant tensor:
#      x y z
#    x 1.767280 0.000000 0.000000 
#    y 0.000000 1.787390 0.000000 
#    z 0.000000 0.000000 1.761660 
# 
# From -- ./inp_files/20518.got.cif
#   From: 2010.03.12/outbox.cif.g09.slc.cpg/sg59_11_cif.got.tgz:20518.got - 2010.04.16 16:29:54.
