data_PCOD8245610
_publ_section_title
;
Structure prediction by ZEFSAII (Michael W. Deem and Ramdas Pophale) SiO2 
 PCOD8245610
Probable space group: P M M N
;
_chemical_formula_sum "Si O2"
_cell_formula_units_Z 64
_cell_length_a 14.693494
_cell_length_b 9.018537
_cell_length_c 24.019952
_cell_angle_alpha 90.000000
_cell_angle_beta 90.000000
_cell_angle_gamma 90.000000
_cell_volume 3182.975579
_symmetry_space_group_name_H-M "P M M N"
_symmetry_group_IT_number 59
_space_group.IT_coordinate_system_code '2'
_symmetry_cell_setting 'orthorhombic'
loop_
_space_group_symop_operation_xyz
x,y,z
1/2-x,1/2-y,z
1/2+x,-y,-z
-x,1/2+y,-z
-x,-y,-z
1/2+x,1/2+y,-z
1/2-x,y,z
x,1/2-y,z
loop_
_atom_site_type_symbol
_atom_site_label
_atom_site_fract_x
_atom_site_fract_y
_atom_site_fract_z
Si Si1 0.514825 0.923041 0.707634
Si Si2 0.595549 0.075465 0.005522
Si Si3 0.855193 0.910832 0.112359
Si Si4 0.503726 0.921995 0.579949
Si Si5 0.645490 0.925171 0.487282
Si Si6 0.351705 0.088118 0.100258
Si Si7 0.646020 0.576217 0.234909
Si Si8 0.141768 0.579667 0.206924
O O1 0.519377 0.750000 0.721378
O O2 0.531108 0.956910 0.643002
O O3 0.415445 0.983882 0.722966
O O4 0.595675 0.003544 0.740359
O O5 0.593529 0.250000 0.997607
O O6 0.655183 0.004308 0.956781
O O7 0.500000 0.000000 0.000000
O O8 0.631416 0.038169 0.066868
O O9 0.750000 0.886427 0.123313
O O10 0.896118 0.750000 0.092739
O O11 0.894060 0.957059 0.172712
O O12 0.482743 0.750000 0.570518
O O13 0.590714 0.972557 0.543103
O O14 0.410617 0.007630 0.564526
O O15 0.750000 0.985660 0.489364
O O16 0.647519 0.750000 0.480031
O O17 0.250000 0.118843 0.119649
O O18 0.400479 0.250000 0.091938
O O19 0.397912 0.994980 0.150014
O O20 0.750000 0.521969 0.242160
O O21 0.637922 0.750000 0.248084
O O22 0.250000 0.563432 0.212596
O O23 0.111797 0.750000 0.204580
#
# Coordination Sequence:
#
# PCOD8245610 Si02
#       8
#     8   8   8   8   8   8   8   8
#     4  11  23  37  58  86 120 159 195 239 289 340
#     4  12  25  37  53  79 110 142 179 227 282 344
#     4   9  19  38  60  79 103 137 178 228 287 347
#     4   9  20  37  55  83 120 156 194 235 285 341
#     4   9  18  35  60  86 114 152 196 241 286 335
#     4  10  21  39  61  82 107 140 180 229 286 348
#     4   9  20  39  61  83 111 151 196 241 292 347
#     4  10  22  40  61  85 114 151 195 241 290 346
#
# _framework density 20.106971000000001
#
# number of rings (size 3 to 8) (size 9 to 14) (size 15 to 20)
#    0.000    2.125    0.000    3.375    1.750    6.250 
#    0.000    5.000    0.000    0.000    0.000    0.000 
#    0.000    0.000    0.000    0.000    0.000    0.000 
#
# Total GULP energy -793366.424408 kJ/mol
# GULP energy per Si atom -12396.350381 kJ/mol
# Density = 2.006121 g / cm^3
# Si number density = 20.106971 Si / 1000 Ang^3
#
#
#
# Elastic Constant Matrix: (Units=GPa)
#
#
# Indices 1 2 3 4 5 6 
#
# 1 66.9766 26.4680 9.6912 0.0000 0.0000 0.0000
# 2 26.4680 120.0869 46.6181 0.0000 0.0000 0.0000
# 3 9.6912 46.6181 81.6428 0.0000 0.0000 0.0000
# 4 0.0000 0.0000 0.0000 31.9608 0.0000 0.0000
# 5 0.0000 0.0000 0.0000 0.0000 26.9045 0.0000
# 6 0.0000 0.0000 0.0000 0.0000 0.0000 29.7327
#
#
#
# Elastic Compliance Matrix: (Units=1/GPa)
#
#
# Indices 1 2 3 4 5 6 
#
# 1 0.016357 -0.003663 0.000150 0.000000 0.000000 0.000000
# 2 -0.003663 0.011519 -0.006143 0.000000 0.000000 0.000000
# 3 0.000150 -0.006143 0.015738 0.000000 0.000000 0.000000
# 4 0.000000 0.000000 0.000000 0.031288 0.000000 0.000000
# 5 0.000000 0.000000 0.000000 0.000000 0.037169 0.000000
# 6 0.000000 0.000000 0.000000 0.000000 0.000000 0.033633
#
#
# Mechanical properties :
#
#
# Convention : Reuss Voigt Hill
#
# Bulk Modulus (GPa) = 41.14836 48.25120 44.69978
# Shear Modulus (GPa) = 28.88230 30.11487 29.49858
#
# Velocity S-wave (km/s) = 3.79414 3.87425 3.83441
# Velocity P-wave (km/s) = 6.30104 6.63796 6.47169
#
# Compressibility (1/GPa) = 0.02430230
#
# Stress axis : x y z
#
# Youngs Moduli (GPa) = 61.13754 86.81038 63.53994
#
# Poissons Ratio (x) = 0.31802 -0.00955
# Poissons Ratio (y) = 0.22397 0.39031
# Poissons Ratio (z) = -0.00919 0.53325
#
# Static dielectric constant tensor:
#      x y z
#    x 3.612070 0.000000 0.000000 
#    y 0.000000 3.786270 0.000000 
#    z 0.000000 0.000000 3.359380 
# 
# 
# High freq. dielectric constant tensor:
#      x y z
#    x 1.783810 0.000000 0.000000 
#    y 0.000000 1.786770 0.000000 
#    z 0.000000 0.000000 1.782220 
# 
# From -- ./inp_files/32131.got.cif
#   From: 2010.03.12/outbox.cif.g09.slc.cpg/sg59_17_cif.got.tgz:32131.got - 2010.04.16 16:29:54.
