data_PCOD8245428
_publ_section_title
;
Structure prediction by ZEFSAII (Michael W. Deem and Ramdas Pophale) SiO2 
 PCOD8245428
Probable space group: P M M N
;
_chemical_formula_sum "Si O2"
_cell_formula_units_Z 48
_cell_length_a 9.028562
_cell_length_b 9.772030
_cell_length_c 28.732929
_cell_angle_alpha 90.000000
_cell_angle_beta 90.000000
_cell_angle_gamma 90.000000
_cell_volume 2535.031009
_symmetry_space_group_name_H-M "P M M N"
_symmetry_group_IT_number 59
_space_group.IT_coordinate_system_code '2'
_symmetry_cell_setting 'orthorhombic'
loop_
_space_group_symop_operation_xyz
x,y,z
1/2-x,1/2-y,z
1/2+x,-y,-z
-x,1/2+y,-z
-x,-y,-z
1/2+x,1/2+y,-z
1/2-x,y,z
x,1/2-y,z
loop_
_atom_site_type_symbol
_atom_site_label
_atom_site_fract_x
_atom_site_fract_y
_atom_site_fract_z
Si Si1 0.926990 0.750000 0.038694
Si Si2 0.576396 0.750000 0.933977
Si Si3 0.424006 0.905993 0.357846
Si Si4 0.425112 0.536010 0.103414
Si Si5 0.923459 0.403275 0.536433
Si Si6 0.419646 0.404302 0.801753
Si Si7 0.575016 0.407358 0.282901
O O1 0.750000 0.750000 0.042158
O O2 0.990762 0.883121 0.063402
O O3 0.989695 0.750000 0.986049
O O4 0.750000 0.750000 0.940959
O O5 0.525986 0.620237 0.904001
O O6 0.250000 0.918713 0.349190
O O7 0.474937 0.750000 0.346443
O O8 0.465199 0.943587 0.410855
O O9 0.506100 0.017412 0.326936
O O10 0.250000 0.559939 0.098654
O O11 0.475656 0.583603 0.153908
O O12 0.750000 0.414733 0.529172
O O13 0.978494 0.250000 0.526382
O O14 0.000000 0.500000 0.500000
O O15 0.250000 0.434715 0.816228
O O16 0.433988 0.250000 0.781644
O O17 0.475701 0.512336 0.763424
O O18 0.750000 0.413974 0.288328
O O19 0.519539 0.250000 0.280156
#
# Coordination Sequence:
#
# PCOD8245428 Si02
#       7
#     4   4   8   8   8   8   8
#     4  11  21  39  61  83 113 149 187 225 270 327
#     4   9  22  39  57  83 117 149 181 227 276 323
#     4   9  19  37  58  80 110 149 192 234 278 331
#     4  11  22  38  59  85 114 145 184 229 274 324
#     4   9  19  35  54  79 112 149 190 236 282 331
#     4  10  21  38  58  80 110 146 185 225 271 329
#     4  10  22  38  57  84 115 145 181 227 278 334
#
# _framework density 18.93468
#
# number of rings (size 3 to 8) (size 9 to 14) (size 15 to 20)
#    0.000    2.167    0.833    2.750    1.167    3.667 
#    0.000    8.750    0.000    0.000    0.000    0.000 
#    0.000    0.000    0.000    0.000    0.000    0.000 
#
# Total GULP energy -595202.321199 kJ/mol
# GULP energy per Si atom -12400.048358 kJ/mol
# Density = 1.889158 g / cm^3
# Si number density = 18.934680 Si / 1000 Ang^3
#
#
#
# Elastic Constant Matrix: (Units=GPa)
#
#
# Indices 1 2 3 4 5 6 
#
# 1 47.9006 31.2006 30.7381 0.0000 0.0000 0.0000
# 2 31.2006 137.7637 60.2545 0.0000 0.0000 0.0000
# 3 30.7381 60.2545 108.3413 0.0000 0.0000 0.0000
# 4 0.0000 0.0000 0.0000 43.9759 0.0000 0.0000
# 5 0.0000 0.0000 0.0000 0.0000 27.3227 0.0000
# 6 0.0000 0.0000 0.0000 0.0000 0.0000 29.4499
#
#
#
# Elastic Compliance Matrix: (Units=1/GPa)
#
#
# Indices 1 2 3 4 5 6 
#
# 1 0.026830 -0.003630 -0.005593 0.000000 0.000000 0.000000
# 2 -0.003630 0.010083 -0.004578 0.000000 0.000000 0.000000
# 3 -0.005593 -0.004578 0.013363 0.000000 0.000000 0.000000
# 4 0.000000 0.000000 0.000000 0.022740 0.000000 0.000000
# 5 0.000000 0.000000 0.000000 0.000000 0.036600 0.000000
# 6 0.000000 0.000000 0.000000 0.000000 0.000000 0.033956
#
#
# Mechanical properties :
#
#
# Convention : Reuss Voigt Hill
#
# Bulk Modulus (GPa) = 44.10352 59.82134 51.96243
# Shear Modulus (GPa) = 27.97478 31.60386 29.78932
#
# Velocity S-wave (km/s) = 3.84791 4.08989 3.97075
# Velocity P-wave (km/s) = 6.56391 7.34609 6.96599
#
# Compressibility (1/GPa) = 0.02267393
#
# Stress axis : x y z
#
# Youngs Moduli (GPa) = 37.27126 99.17463 74.83345
#
# Poissons Ratio (x) = 0.36002 0.41856
# Poissons Ratio (y) = 0.13530 0.34258
# Poissons Ratio (z) = 0.20847 0.45401
#
# Static dielectric constant tensor:
#      x y z
#    x 3.302210 0.000000 0.000000 
#    y 0.000000 3.770220 0.000000 
#    z 0.000000 0.000000 3.404780 
# 
# 
# High freq. dielectric constant tensor:
#      x y z
#    x 1.724220 0.000000 0.000000 
#    y 0.000000 1.748660 0.000000 
#    z 0.000000 0.000000 1.741280 
# 
# From -- ./inp_files/32998.got.cif
#   From: 2010.03.12/outbox.cif.g09.slc.cpg/sg59_17_cif.got.tgz:32998.got - 2010.04.16 16:29:54.
