data_PCOD8245145
_publ_section_title
;
Structure prediction by ZEFSAII (Michael W. Deem and Ramdas Pophale) SiO2 
 PCOD8245145
Probable space group: P M M N
;
_chemical_formula_sum "Si O2"
_cell_formula_units_Z 48
_cell_length_a 9.063770
_cell_length_b 9.902872
_cell_length_c 29.152377
_cell_angle_alpha 90.000000
_cell_angle_beta 90.000000
_cell_angle_gamma 90.000000
_cell_volume 2616.640227
_symmetry_space_group_name_H-M "P M M N"
_symmetry_group_IT_number 59
_space_group.IT_coordinate_system_code '2'
_symmetry_cell_setting 'orthorhombic'
loop_
_space_group_symop_operation_xyz
x,y,z
1/2-x,1/2-y,z
1/2+x,-y,-z
-x,1/2+y,-z
-x,-y,-z
1/2+x,1/2+y,-z
1/2-x,y,z
x,1/2-y,z
loop_
_atom_site_type_symbol
_atom_site_label
_atom_site_fract_x
_atom_site_fract_y
_atom_site_fract_z
Si Si1 0.575750 0.250000 0.964965
Si Si2 0.080626 0.096552 0.807523
Si Si3 0.087097 0.089701 0.362656
Si Si4 0.925038 0.596385 0.536263
Si Si5 0.926164 0.250000 0.068610
Si Si6 0.574692 0.015993 0.898393
Si Si7 0.076479 0.903441 0.726449
O O1 0.750000 0.250000 0.966003
O O2 0.521093 0.116398 0.938717
O O3 0.512575 0.250000 0.016476
O O4 0.250000 0.061463 0.821028
O O5 0.069575 0.250000 0.789677
O O6 0.973123 0.079779 0.850455
O O7 0.021518 0.997501 0.767840
O O8 0.250000 0.028736 0.354922
O O9 0.095246 0.250000 0.362107
O O10 0.025702 0.046825 0.412736
O O11 0.985013 0.037272 0.321376
O O12 0.750000 0.586551 0.531921
O O13 0.977485 0.750000 0.527383
O O14 0.000000 0.500000 0.500000
O O15 0.750000 0.250000 0.070708
O O16 0.988829 0.377554 0.095210
O O17 0.750000 0.993227 0.899040
O O18 0.250000 0.908766 0.722264
O O19 0.021451 0.750000 0.735653
#
# Coordination Sequence:
#
# PCOD8245145 Si02
#       7
#     4   8   8   8   4   8   8
#     4   9  20  39  61  83 113 145 179 221 266 315
#     4  10  21  37  55  77 107 144 179 213 265 327
#     4   8  15  30  50  72 100 133 170 215 265 316
#     4   9  18  32  50  74 105 140 179 222 267 317
#     4  11  23  39  59  85 113 145 181 221 266 315
#     4  11  22  39  59  84 113 143 179 224 269 315
#     4   9  18  32  52  77 102 131 172 221 264 311
#
# _framework density 18.344134
#
# number of rings (size 3 to 8) (size 9 to 14) (size 15 to 20)
#    0.000    2.500    0.833    2.250    1.167    1.667 
#    0.000    5.000    0.000    3.000    0.000    0.000 
#    0.000    0.000    0.000    0.000    0.000    0.000 
#
# Total GULP energy -595119.257798 kJ/mol
# GULP energy per Si atom -12398.317871 kJ/mol
# Density = 1.830238 g / cm^3
# Si number density = 18.344134 Si / 1000 Ang^3
#
#
#
# Elastic Constant Matrix: (Units=GPa)
#
#
# Indices 1 2 3 4 5 6 
#
# 1 47.3060 27.7421 33.2329 0.0000 0.0000 0.0000
# 2 27.7421 92.5246 43.8452 0.0000 0.0000 0.0000
# 3 33.2329 43.8452 122.3981 0.0000 0.0000 0.0000
# 4 0.0000 0.0000 0.0000 33.7647 0.0000 0.0000
# 5 0.0000 0.0000 0.0000 0.0000 35.2441 0.0000
# 6 0.0000 0.0000 0.0000 0.0000 0.0000 18.4180
#
#
#
# Elastic Compliance Matrix: (Units=1/GPa)
#
#
# Indices 1 2 3 4 5 6 
#
# 1 0.028557 -0.005888 -0.005645 0.000000 0.000000 0.000000
# 2 -0.005888 0.014232 -0.003499 0.000000 0.000000 0.000000
# 3 -0.005645 -0.003499 0.010956 0.000000 0.000000 0.000000
# 4 0.000000 0.000000 0.000000 0.029617 0.000000 0.000000
# 5 0.000000 0.000000 0.000000 0.000000 0.028374 0.000000
# 6 0.000000 0.000000 0.000000 0.000000 0.000000 0.054295
#
#
# Mechanical properties :
#
#
# Convention : Reuss Voigt Hill
#
# Bulk Modulus (GPa) = 42.22695 52.42990 47.32842
# Shear Modulus (GPa) = 24.51139 27.97927 26.24533
#
# Velocity S-wave (km/s) = 3.65937 3.90967 3.78659
# Velocity P-wave (km/s) = 6.39718 7.00172 6.70627
#
# Compressibility (1/GPa) = 0.02368156
#
# Stress axis : x y z
#
# Youngs Moduli (GPa) = 35.01762 70.26649 91.27230
#
# Poissons Ratio (x) = 0.41370 0.51520
# Poissons Ratio (y) = 0.20617 0.31940
# Poissons Ratio (z) = 0.19766 0.24589
#
# Static dielectric constant tensor:
#      x y z
#    x 3.312120 0.000000 0.000000 
#    y 0.000000 3.495070 0.000000 
#    z 0.000000 0.000000 3.709760 
# 
# 
# High freq. dielectric constant tensor:
#      x y z
#    x 1.699370 0.000000 0.000000 
#    y 0.000000 1.698780 0.000000 
#    z 0.000000 0.000000 1.720480 
# 
# From -- ./inp_files/32954.got.cif
#   From: 2010.03.12/outbox.cif.g09.slc.cpg/sg59_17_cif.got.tgz:32954.got - 2010.04.16 16:29:54.
