data_PCOD8245415
_publ_section_title
;
Structure prediction by ZEFSAII (Michael W. Deem and Ramdas Pophale) SiO2 
 PCOD8245415
Probable space group: P M M N
;
_chemical_formula_sum "Si O2"
_cell_formula_units_Z 64
_cell_length_a 9.100657
_cell_length_b 18.409289
_cell_length_c 21.322273
_cell_angle_alpha 90.000000
_cell_angle_beta 90.000000
_cell_angle_gamma 90.000000
_cell_volume 3572.261652
_symmetry_space_group_name_H-M "P M M N"
_symmetry_group_IT_number 59
_space_group.IT_coordinate_system_code '2'
_symmetry_cell_setting 'orthorhombic'
loop_
_space_group_symop_operation_xyz
x,y,z
1/2-x,1/2-y,z
1/2+x,-y,-z
-x,1/2+y,-z
-x,-y,-z
1/2+x,1/2+y,-z
1/2-x,y,z
x,1/2-y,z
loop_
_atom_site_type_symbol
_atom_site_label
_atom_site_fract_x
_atom_site_fract_y
_atom_site_fract_z
Si Si1 0.078932 0.834687 0.131514
Si Si2 0.923279 0.076374 0.991531
Si Si3 0.921705 0.668971 0.765809
Si Si4 0.079818 0.833556 0.889981
Si Si5 0.080629 0.668835 0.370095
Si Si6 0.919540 0.471943 0.560652
Si Si7 0.924977 0.605051 0.253376
Si Si8 0.077911 0.469860 0.306779
O O1 0.250000 0.847269 0.147502
O O2 0.049295 0.750000 0.116848
O O3 0.029638 0.882430 0.071838
O O4 0.980298 0.860381 0.189065
O O5 0.750000 0.064910 0.992916
O O6 0.978145 0.124244 0.049693
O O7 0.000000 0.000000 0.000000
O O8 0.750000 0.671156 0.778390
O O9 0.979898 0.750000 0.748130
O O10 0.961106 0.613273 0.710121
O O11 0.995033 0.638670 0.828808
O O12 0.250000 0.848018 0.877751
O O13 0.045232 0.750000 0.902718
O O14 0.250000 0.656952 0.349224
O O15 0.053926 0.750000 0.395847
O O16 0.041596 0.612581 0.425762
O O17 0.979313 0.655999 0.309941
O O18 0.750000 0.482816 0.546677
O O19 0.968852 0.518688 0.621122
O O20 0.000000 0.500000 0.500000
O O21 0.750000 0.602041 0.253125
O O22 0.988636 0.523954 0.261614
O O23 0.250000 0.487033 0.297537
#
# Coordination Sequence:
#
# PCOD8245415 Si02
#       8
#     8   8   8   8   8   8   8   8
#     4  10  21  38  57  74  99 140 180 209 252 319
#     4  10  22  37  53  74 100 133 173 215 258 307
#     4   9  18  33  55  80 102 129 171 219 260 302
#     4   9  18  34  54  74  99 131 167 210 260 311
#     4   9  18  35  57  78 104 141 181 215 255 314
#     4   9  18  33  53  77 105 139 176 211 250 298
#     4  11  22  33  51  81 111 135 168 219 270 309
#     4   9  19  36  55  75 105 144 179 210 253 314
#
# _framework density 17.915821000000001
#
# number of rings (size 3 to 8) (size 9 to 14) (size 15 to 20)
#    0.000    2.500    0.000    2.625    1.750    7.000 
#    0.000    0.625    0.000    3.000    0.000    0.000 
#    0.000    0.000    0.000    0.000    0.000    0.000 
#
# Total GULP energy -793548.002667 kJ/mol
# GULP energy per Si atom -12399.187542 kJ/mol
# Density = 1.787504 g / cm^3
# Si number density = 17.915821 Si / 1000 Ang^3
#
#
#
# Elastic Constant Matrix: (Units=GPa)
#
#
# Indices 1 2 3 4 5 6 
#
# 1 59.5511 47.7750 47.9905 0.0000 0.0000 0.0000
# 2 47.7750 134.1266 84.8048 0.0000 0.0000 0.0000
# 3 47.9905 84.8048 123.4424 0.0000 0.0000 0.0000
# 4 0.0000 0.0000 0.0000 28.4141 0.0000 0.0000
# 5 0.0000 0.0000 0.0000 0.0000 30.2859 0.0000
# 6 0.0000 0.0000 0.0000 0.0000 0.0000 24.9152
#
#
#
# Elastic Compliance Matrix: (Units=1/GPa)
#
#
# Indices 1 2 3 4 5 6 
#
# 1 0.026313 -0.005135 -0.006702 0.000000 0.000000 0.000000
# 2 -0.005135 0.014183 -0.007748 0.000000 0.000000 0.000000
# 3 -0.006702 -0.007748 0.016029 0.000000 0.000000 0.000000
# 4 0.000000 0.000000 0.000000 0.035194 0.000000 0.000000
# 5 0.000000 0.000000 0.000000 0.000000 0.033019 0.000000
# 6 0.000000 0.000000 0.000000 0.000000 0.000000 0.040136
#
#
# Mechanical properties :
#
#
# Convention : Reuss Voigt Hill
#
# Bulk Modulus (GPa) = 57.61645 75.36231 66.48938
# Shear Modulus (GPa) = 23.82910 25.82637 24.82773
#
# Velocity S-wave (km/s) = 3.65095 3.80088 3.72667
# Velocity P-wave (km/s) = 7.07121 7.83698 7.46392
#
# Compressibility (1/GPa) = 0.01735616
#
# Stress axis : x y z
#
# Youngs Moduli (GPa) = 38.00454 70.50549 62.38721
#
# Poissons Ratio (x) = 0.36205 0.41810
# Poissons Ratio (y) = 0.19516 0.48335
# Poissons Ratio (z) = 0.25470 0.54625
#
# Static dielectric constant tensor:
#      x y z
#    x 3.319980 0.000000 0.000000 
#    y 0.000000 3.535650 0.000000 
#    z 0.000000 0.000000 3.357460 
# 
# 
# High freq. dielectric constant tensor:
#      x y z
#    x 1.683300 0.000000 0.000000 
#    y 0.000000 1.703840 0.000000 
#    z 0.000000 0.000000 1.684490 
# 
# From -- ./inp_files/29473.got.cif
#   From: 2010.03.12/outbox.cif.g09.slc.cpg/sg59_15_cif.got.tgz:29473.got - 2010.04.16 16:29:54.
