data_PCOD8245213
_publ_section_title
;
Structure prediction by ZEFSAII (Michael W. Deem and Ramdas Pophale) SiO2 
 PCOD8245213
Probable space group: P M M N
;
_chemical_formula_sum "Si O2"
_cell_formula_units_Z 64
_cell_length_a 9.251629
_cell_length_b 30.733949
_cell_length_c 11.529561
_cell_angle_alpha 90.000000
_cell_angle_beta 90.000000
_cell_angle_gamma 90.000000
_cell_volume 3278.304927
_symmetry_space_group_name_H-M "P M M N"
_symmetry_group_IT_number 59
_space_group.IT_coordinate_system_code '2'
_symmetry_cell_setting 'orthorhombic'
loop_
_space_group_symop_operation_xyz
x,y,z
1/2-x,1/2-y,z
1/2+x,-y,-z
-x,1/2+y,-z
-x,-y,-z
1/2+x,1/2+y,-z
1/2-x,y,z
x,1/2-y,z
loop_
_atom_site_type_symbol
_atom_site_label
_atom_site_fract_x
_atom_site_fract_y
_atom_site_fract_z
Si Si1 0.083673 0.939235 0.542402
Si Si2 0.419385 0.027928 0.663331
Si Si3 0.412530 0.698328 0.340264
Si Si4 0.416705 0.299829 0.884892
Si Si5 0.914202 0.698468 0.562573
Si Si6 0.918578 0.361714 0.285747
Si Si7 0.581363 0.964115 0.074451
Si Si8 0.416235 0.375967 0.057073
O O1 0.250000 0.943315 0.508102
O O2 0.050324 0.896231 0.613916
O O3 0.994543 0.937576 0.422717
O O4 0.036546 0.979628 0.622924
O O5 0.250000 0.036532 0.657162
O O6 0.476705 0.034490 0.793805
O O7 0.250000 0.679269 0.346134
O O8 0.409632 0.750000 0.344325
O O9 0.488171 0.683028 0.222108
O O10 0.502535 0.680445 0.449368
O O11 0.250000 0.303718 0.846778
O O12 0.454961 0.250000 0.918879
O O13 0.450894 0.330461 0.993641
O O14 0.750000 0.681251 0.559398
O O15 0.917709 0.750000 0.567596
O O16 0.995163 0.681613 0.677804
O O17 0.750000 0.351276 0.271295
O O18 0.978749 0.380298 0.165907
O O19 0.750000 0.975714 0.070090
O O20 0.549509 0.915993 0.027418
O O21 0.500000 0.000000 0.000000
O O22 0.250000 0.377093 0.098473
#
# Coordination Sequence:
#
# PCOD8245213 Si02
#       8
#     8   8   8   8   8   8   8   8
#     4   9  19  35  54  79 110 141 176 219 269 324
#     4   9  18  34  56  81 109 142 180 220 263 315
#     4   9  17  31  53  81 111 140 174 220 273 326
#     4   9  18  34  55  78 109 149 188 227 272 323
#     4  10  21  37  57  80 107 142 184 227 272 325
#     4  11  23  38  56  79 110 145 181 227 280 331
#     4  10  21  37  57  81 110 144 183 228 276 327
#     4  10  22  38  55  79 109 144 191 236 275 330
#
# _framework density 19.522283999999999
#
# number of rings (size 3 to 8) (size 9 to 14) (size 15 to 20)
#    0.000    2.375    0.000    1.875    0.000    7.250 
#    0.000    5.000    0.000    0.000    0.000    0.000 
#    0.000    0.000    0.000    0.000    0.000    0.000 
#
# Total GULP energy -793775.986947 kJ/mol
# GULP energy per Si atom -12402.749796 kJ/mol
# Density = 1.947785 g / cm^3
# Si number density = 19.522284 Si / 1000 Ang^3
#
#
#
# Elastic Constant Matrix: (Units=GPa)
#
#
# Indices 1 2 3 4 5 6 
#
# 1 108.1388 39.4699 72.2731 0.0000 0.0000 0.0000
# 2 39.4699 66.4347 44.4539 0.0000 0.0000 0.0000
# 3 72.2731 44.4539 146.2786 0.0000 0.0000 0.0000
# 4 0.0000 0.0000 0.0000 26.9986 0.0000 0.0000
# 5 0.0000 0.0000 0.0000 0.0000 37.2234 0.0000
# 6 0.0000 0.0000 0.0000 0.0000 0.0000 24.9779
#
#
#
# Elastic Compliance Matrix: (Units=1/GPa)
#
#
# Indices 1 2 3 4 5 6 
#
# 1 0.015006 -0.004964 -0.005906 0.000000 0.000000 0.000000
# 2 -0.004964 0.020536 -0.003789 0.000000 0.000000 0.000000
# 3 -0.005906 -0.003789 0.010906 0.000000 0.000000 0.000000
# 4 0.000000 0.000000 0.000000 0.037039 0.000000 0.000000
# 5 0.000000 0.000000 0.000000 0.000000 0.026865 0.000000
# 6 0.000000 0.000000 0.000000 0.000000 0.000000 0.040035
#
#
# Mechanical properties :
#
#
# Convention : Reuss Voigt Hill
#
# Bulk Modulus (GPa) = 58.36982 70.36067 64.36525
# Shear Modulus (GPa) = 26.96671 28.81699 27.89185
#
# Velocity S-wave (km/s) = 3.72066 3.84618 3.78394
# Velocity P-wave (km/s) = 6.95857 7.47286 7.22029
#
# Compressibility (1/GPa) = 0.01713214
#
# Stress axis : x y z
#
# Youngs Moduli (GPa) = 66.63964 48.69402 91.69666
#
# Poissons Ratio (x) = 0.24170 0.54154
# Poissons Ratio (y) = 0.33077 0.34740
# Poissons Ratio (z) = 0.39356 0.18448
#
# Static dielectric constant tensor:
#      x y z
#    x 3.627720 0.000000 0.000000 
#    y 0.000000 3.483290 0.000000 
#    z 0.000000 0.000000 3.588980 
# 
# 
# High freq. dielectric constant tensor:
#      x y z
#    x 1.760260 0.000000 0.000000 
#    y 0.000000 1.752860 0.000000 
#    z 0.000000 0.000000 1.763190 
# 
# From -- ./inp_files/15001.got.cif
#   From: 2010.03.12/outbox.cif.g09.slc.cpg/sg59_8_cif.got.tgz:15001.got - 2010.04.16 16:29:54.
