data_PCOD8245310
_publ_section_title
;
Structure prediction by ZEFSAII (Michael W. Deem and Ramdas Pophale) SiO2 
 PCOD8245310
Probable space group: P M M N
;
_chemical_formula_sum "Si O2"
_cell_formula_units_Z 56
_cell_length_a 8.825786
_cell_length_b 20.746704
_cell_length_c 15.314676
_cell_angle_alpha 90.000000
_cell_angle_beta 90.000000
_cell_angle_gamma 90.000000
_cell_volume 2804.208600
_symmetry_space_group_name_H-M "P M M N"
_symmetry_group_IT_number 59
_space_group.IT_coordinate_system_code '2'
_symmetry_cell_setting 'orthorhombic'
loop_
_space_group_symop_operation_xyz
x,y,z
1/2-x,1/2-y,z
1/2+x,-y,-z
-x,1/2+y,-z
-x,-y,-z
1/2+x,1/2+y,-z
1/2-x,y,z
x,1/2-y,z
loop_
_atom_site_type_symbol
_atom_site_label
_atom_site_fract_x
_atom_site_fract_y
_atom_site_fract_z
Si Si1 0.427684 0.944417 0.440073
Si Si2 0.926480 0.512467 0.275417
Si Si3 0.916793 0.678638 0.874727
Si Si4 0.070584 0.042223 0.919854
Si Si5 0.076283 0.678933 0.547407
Si Si6 0.924113 0.884781 0.696968
Si Si7 0.074183 0.676866 0.048397
O O1 0.250000 0.957219 0.437930
O O2 0.489294 0.938332 0.340496
O O3 0.471322 0.874624 0.477808
O O4 0.500000 0.000000 0.500000
O O5 0.750000 0.526644 0.280008
O O6 0.981568 0.514229 0.174288
O O7 0.967098 0.444844 0.321005
O O8 0.750000 0.663016 0.916030
O O9 0.914798 0.750000 0.835000
O O10 0.953285 0.631169 0.797179
O O11 0.049035 0.671313 0.944948
O O12 0.250000 0.038782 0.932358
O O13 0.020196 0.117357 0.912358
O O14 0.000000 0.000000 0.000000
O O15 0.250000 0.670373 0.575789
O O16 0.047567 0.750000 0.507295
O O17 0.973715 0.672734 0.633859
O O18 0.750000 0.903256 0.679820
O O19 0.250000 0.666876 0.070009
O O20 0.022593 0.750000 0.079064
#
# Coordination Sequence:
#
# PCOD8245310 Si02
#       7
#     8   8   8   8   8   8   8
#     4  11  22  39  64  90 119 157 200 245 294 354
#     4  11  24  40  59  86 118 156 202 248 302 366
#     4   9  18  32  50  76 112 152 194 240 295 362
#     4  11  24  41  63  91 124 161 205 260 315 369
#     4  10  22  39  59  85 119 157 195 242 300 357
#     4  11  21  33  54  84 116 152 194 242 299 360
#     4  10  21  37  58  84 115 156 204 252 307 369
#
# _framework density 19.969984
#
# number of rings (size 3 to 8) (size 9 to 14) (size 15 to 20)
#    0.000    1.571    1.429    3.429    0.000    8.000 
#    0.000    2.143    0.000    2.571    0.000    0.000 
#    0.000    0.000    0.000    0.000    0.000    0.000 
#
# Total GULP energy -693978.301252 kJ/mol
# GULP energy per Si atom -12392.469665 kJ/mol
# Density = 1.992453 g / cm^3
# Si number density = 19.969984 Si / 1000 Ang^3
#
#
#
# Elastic Constant Matrix: (Units=GPa)
#
#
# Indices 1 2 3 4 5 6 
#
# 1 74.5880 38.9886 45.1334 0.0000 0.0000 0.0000
# 2 38.9886 126.9801 45.6005 0.0000 0.0000 0.0000
# 3 45.1334 45.6005 106.9250 0.0000 0.0000 0.0000
# 4 0.0000 0.0000 0.0000 27.9334 0.0000 0.0000
# 5 0.0000 0.0000 0.0000 0.0000 32.7913 0.0000
# 6 0.0000 0.0000 0.0000 0.0000 0.0000 29.6219
#
#
#
# Elastic Compliance Matrix: (Units=1/GPa)
#
#
# Indices 1 2 3 4 5 6 
#
# 1 0.019263 -0.003536 -0.006623 0.000000 0.000000 0.000000
# 2 -0.003536 0.009949 -0.002750 0.000000 0.000000 0.000000
# 3 -0.006623 -0.002750 0.013321 0.000000 0.000000 0.000000
# 4 0.000000 0.000000 0.000000 0.035799 0.000000 0.000000
# 5 0.000000 0.000000 0.000000 0.000000 0.030496 0.000000
# 6 0.000000 0.000000 0.000000 0.000000 0.000000 0.033759
#
#
# Mechanical properties :
#
#
# Convention : Reuss Voigt Hill
#
# Bulk Modulus (GPa) = 59.83059 63.10422 61.46741
# Shear Modulus (GPa) = 28.73957 29.98737 29.36347
#
# Velocity S-wave (km/s) = 3.79771 3.87928 3.83871
# Velocity P-wave (km/s) = 7.01822 7.19258 7.10594
#
# Compressibility (1/GPa) = 0.01671386
#
# Stress axis : x y z
#
# Youngs Moduli (GPa) = 51.91322 100.51612 75.07091
#
# Poissons Ratio (x) = 0.35545 0.49718
# Poissons Ratio (y) = 0.18358 0.20646
# Poissons Ratio (z) = 0.34381 0.27644
#
# Static dielectric constant tensor:
#      x y z
#    x 3.622380 0.000000 0.000000 
#    y 0.000000 4.098740 0.000000 
#    z 0.000000 0.000000 3.634490 
# 
# 
# High freq. dielectric constant tensor:
#      x y z
#    x 1.782270 0.000000 0.000000 
#    y 0.000000 1.784790 0.000000 
#    z 0.000000 0.000000 1.765540 
# 
# From -- ./inp_files/20982.got.cif
#   From: 2010.03.12/outbox.cif.g09.slc.cpg/sg59_11_cif.got.tgz:20982.got - 2010.04.16 16:29:54.
