data_PCOD8245730
_publ_section_title
;
Structure prediction by ZEFSAII (Michael W. Deem and Ramdas Pophale) SiO2 
 PCOD8245730
Probable space group: P M M N
;
_chemical_formula_sum "Si O2"
_cell_formula_units_Z 56
_cell_length_a 16.369669
_cell_length_b 26.593880
_cell_length_c 6.723426
_cell_angle_alpha 90.000000
_cell_angle_beta 90.000000
_cell_angle_gamma 90.000000
_cell_volume 2926.929298
_symmetry_space_group_name_H-M "P M M N"
_symmetry_group_IT_number 59
_space_group.IT_coordinate_system_code '2'
_symmetry_cell_setting 'orthorhombic'
loop_
_space_group_symop_operation_xyz
x,y,z
1/2-x,1/2-y,z
1/2+x,-y,-z
-x,1/2+y,-z
-x,-y,-z
1/2+x,1/2+y,-z
1/2-x,y,z
x,1/2-y,z
loop_
_atom_site_type_symbol
_atom_site_label
_atom_site_fract_x
_atom_site_fract_y
_atom_site_fract_z
Si Si1 0.659361 0.059060 0.182743
Si Si2 0.457858 0.107342 0.668213
Si Si3 0.555397 0.147826 0.319094
Si Si4 0.065560 0.520537 0.157501
Si Si5 0.510959 0.192342 0.923631
Si Si6 0.160550 0.808681 0.348343
Si Si7 0.156390 0.029412 0.504574
O O1 0.750000 0.082430 0.190733
O O2 0.588498 0.099756 0.202944
O O3 0.648549 0.018847 0.356715
O O4 0.646501 0.034932 0.965505
O O5 0.481278 0.134135 0.462867
O O6 0.529098 0.068487 0.728581
O O7 0.446320 0.151717 0.833781
O O8 0.373253 0.077900 0.631031
O O9 0.630481 0.170972 0.440359
O O10 0.518997 0.187206 0.160314
O O11 0.095702 0.478763 0.316524
O O12 0.000000 0.500000 0.000000
O O13 0.485609 0.250000 0.871818
O O14 0.598356 0.177452 0.827377
O O15 0.250000 0.832143 0.299897
O O16 0.168672 0.750000 0.371226
O O17 0.250000 0.038323 0.437615
#
# Coordination Sequence:
#
# PCOD8245730 Si02
#       7
#     8   8   8   8   8   8   8
#     4  11  22  34  52  82 119 158 192 233 278 333
#     4  11  22  38  61  84 114 153 192 243 294 348
#     4  11  20  35  54  79 110 154 196 233 288 344
#     4  12  21  37  59  85 118 157 198 233 282 351
#     4  10  22  38  57  82 109 147 200 250 290 342
#     4   9  19  34  50  73 108 147 192 244 290 337
#     4  11  24  40  58  88 122 153 191 238 294 355
#
# _framework density 19.132681000000002
#
# number of rings (size 3 to 8) (size 9 to 14) (size 15 to 20)
#    0.000    1.286    4.286    2.571    0.000    1.714 
#    0.000    1.429    0.000    0.429    0.000    0.000 
#    0.000    0.000    0.000    0.000    0.000    0.000 
#
# Total GULP energy -694327.750438 kJ/mol
# GULP energy per Si atom -12398.709829 kJ/mol
# Density = 1.908913 g / cm^3
# Si number density = 19.132681 Si / 1000 Ang^3
#
#
#
# Elastic Constant Matrix: (Units=GPa)
#
#
# Indices 1 2 3 4 5 6 
#
# 1 64.0519 24.2693 27.5371 0.0000 0.0000 0.0000
# 2 24.2693 56.8065 32.4490 0.0000 0.0000 0.0000
# 3 27.5371 32.4490 94.2172 0.0000 0.0000 0.0000
# 4 0.0000 0.0000 0.0000 34.4097 0.0000 0.0000
# 5 0.0000 0.0000 0.0000 0.0000 21.8545 0.0000
# 6 0.0000 0.0000 0.0000 0.0000 0.0000 22.4456
#
#
#
# Elastic Compliance Matrix: (Units=1/GPa)
#
#
# Indices 1 2 3 4 5 6 
#
# 1 0.019526 -0.006327 -0.003528 0.000000 0.000000 0.000000
# 2 -0.006327 0.023965 -0.006405 0.000000 0.000000 0.000000
# 3 -0.003528 -0.006405 0.013851 0.000000 0.000000 0.000000
# 4 0.000000 0.000000 0.000000 0.029062 0.000000 0.000000
# 5 0.000000 0.000000 0.000000 0.000000 0.045757 0.000000
# 6 0.000000 0.000000 0.000000 0.000000 0.000000 0.044552
#
#
# Mechanical properties :
#
#
# Convention : Reuss Voigt Hill
#
# Bulk Modulus (GPa) = 40.28492 42.62070 41.45281
# Shear Modulus (GPa) = 22.98785 24.46331 23.72558
#
# Velocity S-wave (km/s) = 3.47002 3.57965 3.52526
# Velocity P-wave (km/s) = 6.09557 6.27773 6.18732
#
# Compressibility (1/GPa) = 0.02482318
#
# Stress axis : x y z
#
# Youngs Moduli (GPa) = 51.21284 41.72746 72.19876
#
# Poissons Ratio (x) = 0.26401 0.25472
# Poissons Ratio (y) = 0.32402 0.46240
# Poissons Ratio (z) = 0.18068 0.26724
#
# Static dielectric constant tensor:
#      x y z
#    x 3.400520 0.000000 0.000000 
#    y 0.000000 3.537520 0.000000 
#    z 0.000000 0.000000 3.644280 
# 
# 
# High freq. dielectric constant tensor:
#      x y z
#    x 1.709280 0.000000 0.000000 
#    y 0.000000 1.739790 0.000000 
#    z 0.000000 0.000000 1.757990 
# 
# From -- ./inp_files/2331.got.cif
#   From: 2010.03.12/outbox.cif.g09.slc.cpg/sg59_2_cif.got.tgz:2331.got - 2010.04.16 16:29:54.
