data_PCOD8245859
_publ_section_title
;
Structure prediction by ZEFSAII (Michael W. Deem and Ramdas Pophale) SiO2 
 PCOD8245859
Probable space group: P M M N
;
_chemical_formula_sum "Si O2"
_cell_formula_units_Z 48
_cell_length_a 34.206900
_cell_length_b 8.960755
_cell_length_c 7.740245
_cell_angle_alpha 90.000000
_cell_angle_beta 90.000000
_cell_angle_gamma 90.000000
_cell_volume 2372.537190
_symmetry_space_group_name_H-M "P M M N"
_symmetry_group_IT_number 59
_space_group.IT_coordinate_system_code '2'
_symmetry_cell_setting 'orthorhombic'
loop_
_space_group_symop_operation_xyz
x,y,z
1/2-x,1/2-y,z
1/2+x,-y,-z
-x,1/2+y,-z
-x,-y,-z
1/2+x,1/2+y,-z
1/2-x,y,z
x,1/2-y,z
loop_
_atom_site_type_symbol
_atom_site_label
_atom_site_fract_x
_atom_site_fract_y
_atom_site_fract_z
Si Si1 0.996387 0.074091 0.818291
Si Si2 0.414561 0.913391 0.316954
Si Si3 0.661773 0.573336 0.627290
Si Si4 0.569952 0.411380 0.289749
Si Si5 0.154721 0.573259 0.743383
Si Si6 0.204683 0.922031 0.071168
O O1 0.996015 0.250000 0.826720
O O2 0.955576 0.014029 0.742259
O O3 0.034250 0.026393 0.709488
O O4 0.000000 0.000000 0.000000
O O5 0.407541 0.750000 0.228051
O O6 0.416408 0.885589 0.517962
O O7 0.378892 0.024483 0.280138
O O8 0.663242 0.750000 0.612344
O O9 0.667440 0.507155 0.434826
O O10 0.695346 0.515866 0.756251
O O11 0.556578 0.250000 0.211426
O O12 0.609892 0.468689 0.197845
O O13 0.158698 0.750000 0.711960
O O14 0.181807 0.518705 0.901309
O O15 0.250000 0.942184 0.028689
O O16 0.193757 0.750000 0.107520
#
# Coordination Sequence:
#
# PCOD8245859 Si02
#       6
#     8   8   8   8   8   8
#     4  11  23  35  51  79 114 151 193 239 287 342
#     4   9  20  39  59  78 108 154 200 239 283 341
#     4  11  23  38  61  93 126 158 195 246 304 358
#     4   9  18  35  57  80 108 145 191 243 292 339
#     4   9  20  40  64  89 119 159 205 247 293 355
#     4  10  22  41  66  92 119 157 202 244 290 355
#
# _framework density 20.231506
#
# number of rings (size 3 to 8) (size 9 to 14) (size 15 to 20)
#    0.000    2.167    0.000    3.500    2.333    5.667 
#    0.000    1.667    0.000    0.000    0.000    0.000 
#    0.000    0.000    0.000    0.000    0.000    0.000 
#
# Total GULP energy -594909.670229 kJ/mol
# GULP energy per Si atom -12393.951463 kJ/mol
# Density = 2.018546 g / cm^3
# Si number density = 20.231506 Si / 1000 Ang^3
#
#
#
# Elastic Constant Matrix: (Units=GPa)
#
#
# Indices 1 2 3 4 5 6 
#
# 1 94.0033 27.0330 24.0348 0.0000 0.0000 0.0000
# 2 27.0330 80.4094 28.7363 0.0000 0.0000 0.0000
# 3 24.0348 28.7363 62.6647 0.0000 0.0000 0.0000
# 4 0.0000 0.0000 0.0000 22.6223 0.0000 0.0000
# 5 0.0000 0.0000 0.0000 0.0000 37.7750 0.0000
# 6 0.0000 0.0000 0.0000 0.0000 0.0000 28.1954
#
#
#
# Elastic Compliance Matrix: (Units=1/GPa)
#
#
# Indices 1 2 3 4 5 6 
#
# 1 0.012350 -0.002941 -0.003388 0.000000 0.000000 0.000000
# 2 -0.002941 0.015574 -0.006014 0.000000 0.000000 0.000000
# 3 -0.003388 -0.006014 0.020015 0.000000 0.000000 0.000000
# 4 0.000000 0.000000 0.000000 0.044204 0.000000 0.000000
# 5 0.000000 0.000000 0.000000 0.000000 0.026473 0.000000
# 6 0.000000 0.000000 0.000000 0.000000 0.000000 0.035467
#
#
# Mechanical properties :
#
#
# Convention : Reuss Voigt Hill
#
# Bulk Modulus (GPa) = 43.00455 44.07617 43.54036
# Shear Modulus (GPa) = 26.80672 28.20343 27.50508
#
# Velocity S-wave (km/s) = 3.64400 3.73773 3.69116
# Velocity P-wave (km/s) = 6.24559 6.36087 6.30349
#
# Compressibility (1/GPa) = 0.02325336
#
# Stress axis : x y z
#
# Youngs Moduli (GPa) = 80.97170 64.20810 49.96202
#
# Poissons Ratio (x) = 0.18885 0.16927
# Poissons Ratio (y) = 0.23815 0.30047
# Poissons Ratio (z) = 0.27434 0.38614
#
# Static dielectric constant tensor:
#      x y z
#    x 2.942270 0.000000 0.000000 
#    y 0.000000 3.745340 0.000000 
#    z 0.000000 0.000000 3.604770 
# 
# 
# High freq. dielectric constant tensor:
#      x y z
#    x 1.797560 0.000000 0.000000 
#    y 0.000000 1.771720 0.000000 
#    z 0.000000 0.000000 1.789240 
# 
# From -- ./inp_files/12980.got.cif
#   From: 2010.03.12/outbox.cif.g09.slc.cpg/sg59_7_cif.got.tgz:12980.got - 2010.04.16 16:29:54.
