data_PCOD8245834
_publ_section_title
;
Structure prediction by ZEFSAII (Michael W. Deem and Ramdas Pophale) SiO2 
 PCOD8245834
Probable space group: P M M N
;
_chemical_formula_sum "Si O2"
_cell_formula_units_Z 40
_cell_length_a 8.795707
_cell_length_b 15.586511
_cell_length_c 14.489889
_cell_angle_alpha 90.000000
_cell_angle_beta 90.000000
_cell_angle_gamma 90.000000
_cell_volume 1986.482405
_symmetry_space_group_name_H-M "P M M N"
_symmetry_group_IT_number 59
_space_group.IT_coordinate_system_code '2'
_symmetry_cell_setting 'orthorhombic'
loop_
_space_group_symop_operation_xyz
x,y,z
1/2-x,1/2-y,z
1/2+x,-y,-z
-x,1/2+y,-z
-x,-y,-z
1/2+x,1/2+y,-z
1/2-x,y,z
x,1/2-y,z
loop_
_atom_site_type_symbol
_atom_site_label
_atom_site_fract_x
_atom_site_fract_y
_atom_site_fract_z
Si Si1 0.572658 0.908061 0.397438
Si Si2 0.572619 0.106886 0.410295
Si Si3 0.930573 0.750000 0.713638
Si Si4 0.070061 0.413626 0.962645
Si Si5 0.077147 0.651532 0.214931
Si Si6 0.930351 0.750000 0.924324
O O1 0.750000 0.887349 0.400478
O O2 0.499001 0.872041 0.490736
O O3 0.495910 0.857155 0.314963
O O4 0.540505 0.008700 0.383940
O O5 0.750000 0.128311 0.414270
O O6 0.493812 0.164490 0.333233
O O7 0.750000 0.750000 0.707209
O O8 0.988074 0.750000 0.819189
O O9 0.250000 0.419459 0.966572
O O10 0.018845 0.403855 0.857116
O O11 0.007279 0.334628 0.024041
O O12 0.000000 0.500000 0.000000
O O13 0.250000 0.617798 0.217062
O O14 0.069859 0.750000 0.184353
O O15 0.750000 0.750000 0.928538
#
# Coordination Sequence:
#
# PCOD8245834 Si02
#       6
#     8   8   4   8   8   4
#     4  10  22  40  64  91 122 163 205 251 307 368
#     4  10  22  41  61  89 124 160 204 255 303 360
#     4  11  23  39  62  89 120 163 205 246 304 367
#     4  11  23  43  67  94 126 165 210 261 316 376
#     4  11  24  41  63  93 126 164 206 257 312 369
#     4   9  22  43  64  89 124 163 205 254 308 369
#
# _framework density 20.136095000000001
#
# number of rings (size 3 to 8) (size 9 to 14) (size 15 to 20)
#    0.000    1.600    1.000    2.700    4.200    3.600 
#    0.000    3.000    0.000    0.000    0.000    0.000 
#    0.000    0.000    0.000    0.000    0.000    0.000 
#
# Total GULP energy -496244.979793 kJ/mol
# GULP energy per Si atom -12406.124495 kJ/mol
# Density = 2.009026 g / cm^3
# Si number density = 20.136095 Si / 1000 Ang^3
#
#
#
# Elastic Constant Matrix: (Units=GPa)
#
#
# Indices 1 2 3 4 5 6 
#
# 1 107.8395 36.3467 48.0666 0.0000 0.0000 0.0000
# 2 36.3467 88.8697 45.9513 0.0000 0.0000 0.0000
# 3 48.0666 45.9513 133.1725 0.0000 0.0000 0.0000
# 4 0.0000 0.0000 0.0000 37.9463 0.0000 0.0000
# 5 0.0000 0.0000 0.0000 0.0000 35.2792 0.0000
# 6 0.0000 0.0000 0.0000 0.0000 0.0000 34.8770
#
#
#
# Elastic Compliance Matrix: (Units=1/GPa)
#
#
# Indices 1 2 3 4 5 6 
#
# 1 0.011745 -0.003179 -0.003142 0.000000 0.000000 0.000000
# 2 -0.003179 0.014556 -0.003875 0.000000 0.000000 0.000000
# 3 -0.003142 -0.003875 0.009980 0.000000 0.000000 0.000000
# 4 0.000000 0.000000 0.000000 0.026353 0.000000 0.000000
# 5 0.000000 0.000000 0.000000 0.000000 0.028345 0.000000
# 6 0.000000 0.000000 0.000000 0.000000 0.000000 0.028672
#
#
# Mechanical properties :
#
#
# Convention : Reuss Voigt Hill
#
# Bulk Modulus (GPa) = 62.93728 65.62344 64.28036
# Shear Modulus (GPa) = 34.40175 34.92167 34.66171
#
# Velocity S-wave (km/s) = 4.13784 4.16899 4.15344
# Velocity P-wave (km/s) = 7.35885 7.47226 7.41577
#
# Compressibility (1/GPa) = 0.01588883
#
# Stress axis : x y z
#
# Youngs Moduli (GPa) = 85.14221 68.69878 100.19610
#
# Poissons Ratio (x) = 0.21838 0.31485
# Poissons Ratio (y) = 0.27065 0.38829
# Poissons Ratio (z) = 0.26755 0.26623
#
# Static dielectric constant tensor:
#      x y z
#    x 3.748040 0.000000 0.000000 
#    y 0.000000 3.675620 0.000000 
#    z 0.000000 0.000000 3.697290 
# 
# 
# High freq. dielectric constant tensor:
#      x y z
#    x 1.791780 0.000000 0.000000 
#    y 0.000000 1.791670 0.000000 
#    z 0.000000 0.000000 1.797180 
# 
# From -- ./inp_files/19976.got.cif
#   From: 2010.03.12/outbox.cif.g09.slc.cpg/sg59_10_cif.got.tgz:19976.got - 2010.04.16 16:29:54.
