data_PCOD8245873
_publ_section_title
;
Structure prediction by ZEFSAII (Michael W. Deem and Ramdas Pophale) SiO2 
 PCOD8245873
Probable space group: P M M N
;
_chemical_formula_sum "Si O2"
_cell_formula_units_Z 48
_cell_length_a 28.267819
_cell_length_b 8.612920
_cell_length_c 9.814057
_cell_angle_alpha 90.000000
_cell_angle_beta 90.000000
_cell_angle_gamma 90.000000
_cell_volume 2389.413380
_symmetry_space_group_name_H-M "P M M N"
_symmetry_group_IT_number 59
_space_group.IT_coordinate_system_code '2'
_symmetry_cell_setting 'orthorhombic'
loop_
_space_group_symop_operation_xyz
x,y,z
1/2-x,1/2-y,z
1/2+x,-y,-z
-x,1/2+y,-z
-x,-y,-z
1/2+x,1/2+y,-z
1/2-x,y,z
x,1/2-y,z
loop_
_atom_site_type_symbol
_atom_site_label
_atom_site_fract_x
_atom_site_fract_y
_atom_site_fract_z
Si Si1 0.195840 0.568149 0.490467
Si Si2 0.194193 0.073626 0.773993
Si Si3 0.871506 0.069551 0.014534
Si Si4 0.474767 0.572633 0.371714
Si Si5 0.623398 0.931577 0.718295
Si Si6 0.535411 0.573001 0.106036
O O1 0.250000 0.519428 0.459411
O O2 0.191643 0.750000 0.515487
O O3 0.176655 0.484807 0.626646
O O4 0.164245 0.519787 0.363105
O O5 0.250000 0.058582 0.783293
O O6 0.176675 0.250000 0.792933
O O7 0.174252 0.968541 0.895611
O O8 0.872873 0.250000 0.976439
O O9 0.871256 0.972451 0.876205
O O10 0.916527 0.024535 0.105844
O O11 0.500000 0.500000 0.500000
O O12 0.459967 0.750000 0.399823
O O13 0.428073 0.477743 0.335122
O O14 0.513201 0.561516 0.253875
O O15 0.630617 0.750000 0.697150
O O16 0.546015 0.750000 0.064202
O O17 0.500000 0.500000 0.000000
#
# Coordination Sequence:
#
# PCOD8245873 Si02
#       6
#     8   8   8   8   8   8
#     4  10  22  42  67  94 126 164 206 255 312 373
#     4  10  22  42  67  95 127 163 207 257 310 371
#     4  12  25  41  64  93 127 167 210 258 311 371
#     4  11  25  43  64  92 127 165 209 257 309 371
#     4  12  25  42  65  92 127 166 209 260 312 371
#     4  11  23  41  65  91 125 166 208 253 308 370
#
# _framework density 20.088614
#
# number of rings (size 3 to 8) (size 9 to 14) (size 15 to 20)
#    0.000    1.000    1.667    5.000    2.333    4.667 
#    0.000    0.000    0.000    0.000    0.000    0.000 
#    0.000    0.000    0.000    0.000    0.000    0.000 
#
# Total GULP energy -595521.668902 kJ/mol
# GULP energy per Si atom -12406.701435 kJ/mol
# Density = 2.004289 g / cm^3
# Si number density = 20.088614 Si / 1000 Ang^3
#
#
#
# Elastic Constant Matrix: (Units=GPa)
#
#
# Indices 1 2 3 4 5 6 
#
# 1 75.2816 19.7514 44.6471 0.0000 0.0000 0.0000
# 2 19.7514 82.7327 23.9448 0.0000 0.0000 0.0000
# 3 44.6471 23.9448 104.6270 0.0000 0.0000 0.0000
# 4 0.0000 0.0000 0.0000 37.1878 0.0000 0.0000
# 5 0.0000 0.0000 0.0000 0.0000 39.0916 0.0000
# 6 0.0000 0.0000 0.0000 0.0000 0.0000 37.2913
#
#
#
# Elastic Compliance Matrix: (Units=1/GPa)
#
#
# Indices 1 2 3 4 5 6 
#
# 1 0.018164 -0.002242 -0.007238 0.000000 0.000000 0.000000
# 2 -0.002242 0.013221 -0.002069 0.000000 0.000000 0.000000
# 3 -0.007238 -0.002069 0.013120 0.000000 0.000000 0.000000
# 4 0.000000 0.000000 0.000000 0.026891 0.000000 0.000000
# 5 0.000000 0.000000 0.000000 0.000000 0.025581 0.000000
# 6 0.000000 0.000000 0.000000 0.000000 0.000000 0.026816
#
#
# Mechanical properties :
#
#
# Convention : Reuss Voigt Hill
#
# Bulk Modulus (GPa) = 46.71259 48.81420 47.76339
# Shear Modulus (GPa) = 32.46189 34.33400 33.39794
#
# Velocity S-wave (km/s) = 4.02423 4.13864 4.08184
# Velocity P-wave (km/s) = 6.70047 6.86950 6.78551
#
# Compressibility (1/GPa) = 0.02140751
#
# Stress axis : x y z
#
# Youngs Moduli (GPa) = 55.05298 75.63635 76.21919
#
# Poissons Ratio (x) = 0.16955 0.55169
# Poissons Ratio (y) = 0.12341 0.15772
# Poissons Ratio (z) = 0.39848 0.15651
#
# Static dielectric constant tensor:
#      x y z
#    x 3.606910 0.000000 0.000000 
#    y 0.000000 3.965980 0.000000 
#    z 0.000000 0.000000 3.665760 
# 
# 
# High freq. dielectric constant tensor:
#      x y z
#    x 1.790600 0.000000 0.000000 
#    y 0.000000 1.802780 0.000000 
#    z 0.000000 0.000000 1.793350 
# 
# From -- ./inp_files/12937.got.cif
#   From: 2010.03.12/outbox.cif.g09.slc.cpg/sg59_7_cif.got.tgz:12937.got - 2010.04.16 16:29:54.
