data_PCOD8245660
_publ_section_title
;
Structure prediction by ZEFSAII (Michael W. Deem and Ramdas Pophale) SiO2 
 PCOD8245660
Probable space group: P M M N
;
_chemical_formula_sum "Si O2"
_cell_formula_units_Z 64
_cell_length_a 18.435546
_cell_length_b 17.311247
_cell_length_c 9.931603
_cell_angle_alpha 90.000000
_cell_angle_beta 90.000000
_cell_angle_gamma 90.000000
_cell_volume 3169.594529
_symmetry_space_group_name_H-M "P M M N"
_symmetry_group_IT_number 59
_space_group.IT_coordinate_system_code '2'
_symmetry_cell_setting 'orthorhombic'
loop_
_space_group_symop_operation_xyz
x,y,z
1/2-x,1/2-y,z
1/2+x,-y,-z
-x,1/2+y,-z
-x,-y,-z
1/2+x,1/2+y,-z
1/2-x,y,z
x,1/2-y,z
loop_
_atom_site_type_symbol
_atom_site_label
_atom_site_fract_x
_atom_site_fract_y
_atom_site_fract_z
Si Si1 0.070991 0.904304 0.316821
Si Si2 0.169936 0.086262 0.082720
Si Si3 0.668256 0.402617 0.925288
Si Si4 0.832358 0.162169 0.466357
Si Si5 0.165246 0.074440 0.783996
Si Si6 0.108251 0.594724 0.788620
Si Si7 0.072764 0.160510 0.581757
Si Si8 0.447939 0.084974 0.293889
O O1 0.119701 0.869430 0.196294
O O2 0.116370 0.896825 0.454108
O O3 0.997825 0.854968 0.327056
O O4 0.051247 0.992791 0.293436
O O5 0.250000 0.118151 0.120968
O O6 0.112620 0.118133 0.191087
O O7 0.171642 0.994220 0.084975
O O8 0.148942 0.112180 0.930752
O O9 0.750000 0.368450 0.917898
O O10 0.629202 0.377572 0.062553
O O11 0.750000 0.148178 0.511368
O O12 0.856216 0.250000 0.495788
O O13 0.840552 0.143944 0.309239
O O14 0.250000 0.054554 0.770662
O O15 0.142516 0.133638 0.667156
O O16 0.120140 0.996123 0.766374
O O17 0.024820 0.615661 0.758828
O O18 0.080451 0.250000 0.547529
O O19 0.068740 0.114171 0.442810
#
# Coordination Sequence:
#
# PCOD8245660 Si02
#       8
#     8   8   8   8   8   8   8   8
#     4  11  21  38  61  85 117 152 197 243 292 348
#     4   8  18  36  60  91 120 146 187 244 297 344
#     4   9  19  34  59  91 119 147 187 243 294 341
#     4  11  23  38  57  81 117 163 200 237 290 349
#     4  10  21  39  64  89 115 151 196 245 295 351
#     4  11  20  36  61  92 119 151 193 244 290 349
#     4  12  25  40  57  84 121 158 196 244 293 346
#     4  11  22  36  63  91 119 153 199 240 295 350
#
# _framework density 20.191856000000001
#
# number of rings (size 3 to 8) (size 9 to 14) (size 15 to 20)
#    0.000    1.625    2.500    3.750    1.750    2.750 
#    0.000    1.875    0.000    3.750    0.000    0.000 
#    0.000    0.000    0.000    0.000    0.000    0.000 
#
# Total GULP energy -793763.580555 kJ/mol
# GULP energy per Si atom -12402.555946 kJ/mol
# Density = 2.014590 g / cm^3
# Si number density = 20.191856 Si / 1000 Ang^3
#
#
#
# Elastic Constant Matrix: (Units=GPa)
#
#
# Indices 1 2 3 4 5 6 
#
# 1 98.9179 11.3091 56.4443 0.0000 0.0000 0.0000
# 2 11.3091 25.3387 3.7389 0.0000 0.0000 0.0000
# 3 56.4443 3.7389 125.7561 0.0000 0.0000 0.0000
# 4 0.0000 0.0000 0.0000 3.8783 0.0000 0.0000
# 5 0.0000 0.0000 0.0000 0.0000 41.7272 0.0000
# 6 0.0000 0.0000 0.0000 0.0000 0.0000 16.2135
#
#
#
# Elastic Compliance Matrix: (Units=1/GPa)
#
#
# Indices 1 2 3 4 5 6 
#
# 1 0.014305 -0.005461 -0.006258 0.000000 0.000000 0.000000
# 2 -0.005461 0.041724 0.001211 0.000000 0.000000 0.000000
# 3 -0.006258 0.001211 0.010725 0.000000 0.000000 0.000000
# 4 0.000000 0.000000 0.000000 0.257844 0.000000 0.000000
# 5 0.000000 0.000000 0.000000 0.000000 0.023965 0.000000
# 6 0.000000 0.000000 0.000000 0.000000 0.000000 0.061677
#
#
# Mechanical properties :
#
#
# Convention : Reuss Voigt Hill
#
# Bulk Modulus (GPa) = 21.86438 43.66638 32.76538
# Shear Modulus (GPa) = 11.19813 24.26515 17.73164
#
# Velocity S-wave (km/s) = 2.35752 3.47036 2.96659
# Velocity P-wave (km/s) = 4.27345 6.14252 5.29117
#
# Compressibility (1/GPa) = 0.04573649
#
# Stress axis : x y z
#
# Youngs Moduli (GPa) = 69.90667 23.96695 93.24155
#
# Poissons Ratio (x) = 0.13088 0.58352
# Poissons Ratio (y) = 0.38176 -0.11288
# Poissons Ratio (z) = 0.43749 -0.02901
#
# Static dielectric constant tensor:
#      x y z
#    x 3.865500 0.000000 0.000000 
#    y 0.000000 3.239020 0.000000 
#    z 0.000000 0.000000 3.838430 
# 
# 
# High freq. dielectric constant tensor:
#      x y z
#    x 1.801970 0.000000 0.000000 
#    y 0.000000 1.745700 0.000000 
#    z 0.000000 0.000000 1.800320 
# 
# From -- ./inp_files/10719.got.cif
#   From: 2010.03.12/outbox.cif.g09.slc.cpg/sg59_6_cif.got.tgz:10719.got - 2010.04.16 16:29:54.
