data_PCOD8245793
_publ_section_title
;
Structure prediction by ZEFSAII (Michael W. Deem and Ramdas Pophale) SiO2 
 PCOD8245793
Probable space group: P M M N
;
_chemical_formula_sum "Si O2"
_cell_formula_units_Z 64
_cell_length_a 14.484993
_cell_length_b 8.949183
_cell_length_c 25.342813
_cell_angle_alpha 90.000000
_cell_angle_beta 90.000000
_cell_angle_gamma 90.000000
_cell_volume 3285.159784
_symmetry_space_group_name_H-M "P M M N"
_symmetry_group_IT_number 59
_space_group.IT_coordinate_system_code '2'
_symmetry_cell_setting 'orthorhombic'
loop_
_space_group_symop_operation_xyz
x,y,z
1/2-x,1/2-y,z
1/2+x,-y,-z
-x,1/2+y,-z
-x,-y,-z
1/2+x,1/2+y,-z
1/2-x,y,z
x,1/2-y,z
loop_
_atom_site_type_symbol
_atom_site_label
_atom_site_fract_x
_atom_site_fract_y
_atom_site_fract_z
Si Si1 0.645406 0.075487 0.367343
Si Si2 0.471166 0.927003 0.330031
Si Si3 0.596729 0.072880 0.486247
Si Si4 0.649654 0.580541 0.584531
Si Si5 0.356880 0.578741 0.024991
Si Si6 0.039850 0.927108 0.127451
Si Si7 0.355443 0.928149 0.229714
Si Si8 0.647822 0.573799 0.083590
O O1 0.750000 0.033761 0.351243
O O2 0.626548 0.250000 0.359883
O O3 0.629236 0.028254 0.427886
O O4 0.576246 0.986705 0.328430
O O5 0.472290 0.750000 0.331741
O O6 0.412699 0.986192 0.280150
O O7 0.424564 0.988932 0.382609
O O8 0.595008 0.250000 0.493619
O O9 0.500000 0.000000 0.500000
O O10 0.665695 0.998448 0.528179
O O11 0.750000 0.580251 0.612718
O O12 0.612470 0.750000 0.577779
O O13 0.250000 0.562075 0.039208
O O14 0.383991 0.750000 0.014568
O O15 0.412596 0.510754 0.074422
O O16 0.383215 0.487535 0.973010
O O17 0.051532 0.750000 0.128902
O O18 0.091253 0.994252 0.178598
O O19 0.930675 0.972334 0.126363
O O20 0.250000 0.988783 0.231364
O O21 0.354268 0.750000 0.228692
O O22 0.750000 0.512077 0.100141
O O23 0.651805 0.750000 0.078137
#
# Coordination Sequence:
#
# PCOD8245793 Si02
#       8
#     8   8   8   8   8   8   8   8
#     4  10  22  40  60  80 108 146 181 214 258 316
#     4  11  22  36  57  82 107 136 174 225 277 322
#     4  11  21  35  57  84 113 145 179 216 263 316
#     4  11  23  37  55  80 111 147 183 219 263 317
#     4   9  16  26  44  70  97 128 167 208 250 301
#     4   9  16  28  47  70  97 131 170 211 257 308
#     4   9  18  33  53  78 105 131 167 218 271 318
#     4   9  17  28  43  67 100 135 167 202 249 305
#
# _framework density 19.481549999999999
#
# number of rings (size 3 to 8) (size 9 to 14) (size 15 to 20)
#    0.000    2.125    1.250    2.625    0.000    4.250 
#    0.000    0.625    0.000    5.250    0.000    3.500 
#    0.000    0.000    0.000    0.000    0.000    0.000 
#
# Total GULP energy -793366.717658 kJ/mol
# GULP energy per Si atom -12396.354963 kJ/mol
# Density = 1.943721 g / cm^3
# Si number density = 19.481550 Si / 1000 Ang^3
#
#
#
# Elastic Constant Matrix: (Units=GPa)
#
#
# Indices 1 2 3 4 5 6 
#
# 1 151.4145 36.6892 73.9757 0.0000 0.0000 0.0000
# 2 36.6892 41.8558 24.9099 0.0000 0.0000 0.0000
# 3 73.9757 24.9099 100.9245 0.0000 0.0000 0.0000
# 4 0.0000 0.0000 0.0000 18.3972 0.0000 0.0000
# 5 0.0000 0.0000 0.0000 0.0000 35.6341 0.0000
# 6 0.0000 0.0000 0.0000 0.0000 0.0000 22.9873
#
#
#
# Elastic Compliance Matrix: (Units=1/GPa)
#
#
# Indices 1 2 3 4 5 6 
#
# 1 0.011405 -0.005887 -0.006907 0.000000 0.000000 0.000000
# 2 -0.005887 0.031044 -0.003347 0.000000 0.000000 0.000000
# 3 -0.006907 -0.003347 0.015797 0.000000 0.000000 0.000000
# 4 0.000000 0.000000 0.000000 0.054356 0.000000 0.000000
# 5 0.000000 0.000000 0.000000 0.000000 0.028063 0.000000
# 6 0.000000 0.000000 0.000000 0.000000 0.000000 0.043502
#
#
# Mechanical properties :
#
#
# Convention : Reuss Voigt Hill
#
# Bulk Modulus (GPa) = 38.51430 62.81603 50.66516
# Shear Modulus (GPa) = 22.21192 25.97839 24.09515
#
# Velocity S-wave (km/s) = 3.38028 3.65566 3.52066
# Velocity P-wave (km/s) = 5.92010 7.08041 6.52610
#
# Compressibility (1/GPa) = 0.02596438
#
# Stress axis : x y z
#
# Youngs Moduli (GPa) = 87.67857 32.21252 63.30263
#
# Poissons Ratio (x) = 0.18963 0.43722
# Poissons Ratio (y) = 0.51616 0.21188
# Poissons Ratio (z) = 0.60558 0.10782
#
# Static dielectric constant tensor:
#      x y z
#    x 3.933020 0.000000 0.000000 
#    y 0.000000 3.311240 0.000000 
#    z 0.000000 0.000000 3.560000 
# 
# 
# High freq. dielectric constant tensor:
#      x y z
#    x 1.780920 0.000000 0.000000 
#    y 0.000000 1.728160 0.000000 
#    z 0.000000 0.000000 1.737370 
# 
# From -- ./inp_files/32108.got.cif
#   From: 2010.03.12/outbox.cif.g09.slc.cpg/sg59_17_cif.got.tgz:32108.got - 2010.04.16 16:29:54.
