data_PCOD8245539
_publ_section_title
;
Structure prediction by ZEFSAII (Michael W. Deem and Ramdas Pophale) SiO2 
 PCOD8245539
Probable space group: P M M N
;
_chemical_formula_sum "Si O2"
_cell_formula_units_Z 48
_cell_length_a 17.752785
_cell_length_b 8.815899
_cell_length_c 15.768343
_cell_angle_alpha 90.000000
_cell_angle_beta 90.000000
_cell_angle_gamma 90.000000
_cell_volume 2467.852266
_symmetry_space_group_name_H-M "P M M N"
_symmetry_group_IT_number 59
_space_group.IT_coordinate_system_code '2'
_symmetry_cell_setting 'orthorhombic'
loop_
_space_group_symop_operation_xyz
x,y,z
1/2-x,1/2-y,z
1/2+x,-y,-z
-x,1/2+y,-z
-x,-y,-z
1/2+x,1/2+y,-z
1/2-x,y,z
x,1/2-y,z
loop_
_atom_site_type_symbol
_atom_site_label
_atom_site_fract_x
_atom_site_fract_y
_atom_site_fract_z
Si Si1 0.461091 0.075041 0.196021
Si Si2 0.336736 0.425139 0.060897
Si Si3 0.114564 0.077543 0.523869
Si Si4 0.035815 0.922915 0.374998
Si Si5 0.750000 0.572086 0.212904
Si Si6 0.383295 0.926721 0.890087
Si Si7 0.750000 0.424977 0.392537
O O1 0.466447 0.250000 0.224350
O O2 0.384112 0.042475 0.145553
O O3 0.532029 0.031147 0.137286
O O4 0.460578 0.969622 0.277670
O O5 0.250000 0.470190 0.078081
O O6 0.343508 0.250000 0.033687
O O7 0.371674 0.525470 0.986716
O O8 0.144670 0.250000 0.521263
O O9 0.049023 0.059619 0.592618
O O10 0.088757 0.032534 0.429700
O O11 0.178103 0.960309 0.550596
O O12 0.063414 0.750000 0.384734
O O13 0.750000 0.750000 0.201884
O O14 0.674861 0.510730 0.170302
O O15 0.750000 0.531002 0.310955
O O16 0.367279 0.750000 0.881373
O O17 0.750000 0.250000 0.364833
#
# Coordination Sequence:
#
# PCOD8245539 Si02
#       7
#     8   8   8   8   4   8   4
#     4  10  22  38  58  86 118 156 199 243 291 351
#     4  10  21  39  60  83 116 158 198 238 291 352
#     4  10  21  39  62  86 118 158 196 237 295 357
#     4  10  21  38  61  88 116 153 199 246 291 343
#     4  12  24  38  58  85 120 157 194 240 298 359
#     4  11  22  37  59  87 118 152 196 246 298 348
#     4  12  24  38  58  89 122 151 192 244 294 347
#
# _framework density 19.450112000000001
#
# number of rings (size 3 to 8) (size 9 to 14) (size 15 to 20)
#    0.000    1.500    0.833    4.500    0.000    6.667 
#    1.500    0.000    0.000    0.000    0.000    0.000 
#    0.000    0.000    0.000    0.000    0.000    0.000 
#
# Total GULP energy -595470.979562 kJ/mol
# GULP energy per Si atom -12405.645408 kJ/mol
# Density = 1.940584 g / cm^3
# Si number density = 19.450112 Si / 1000 Ang^3
#
#
#
# Elastic Constant Matrix: (Units=GPa)
#
#
# Indices 1 2 3 4 5 6 
#
# 1 93.1440 38.6785 59.3553 0.0000 0.0000 0.0000
# 2 38.6785 89.0680 50.4715 0.0000 0.0000 0.0000
# 3 59.3553 50.4715 108.5462 0.0000 0.0000 0.0000
# 4 0.0000 0.0000 0.0000 28.3840 0.0000 0.0000
# 5 0.0000 0.0000 0.0000 0.0000 21.5796 0.0000
# 6 0.0000 0.0000 0.0000 0.0000 0.0000 -280.9372
#
#
#
# Elastic Compliance Matrix: (Units=1/GPa)
#
#
# Indices 1 2 3 4 5 6 
#
# 1 0.017002 -0.002872 -0.007962 0.000000 0.000000 0.000000
# 2 -0.002872 0.015729 -0.005743 0.000000 0.000000 0.000000
# 3 -0.007962 -0.005743 0.016237 0.000000 0.000000 0.000000
# 4 0.000000 0.000000 0.000000 0.035231 0.000000 0.000000
# 5 0.000000 0.000000 0.000000 0.000000 0.046340 0.000000
# 6 0.000000 0.000000 0.000000 0.000000 0.000000 -0.003560
#
#
# Mechanical properties :
#
#
# Convention : Reuss Voigt Hill
#
# Bulk Modulus (GPa) = 63.23387 65.30766 64.27077
# Shear Modulus (GPa) = 30.22889 -36.71118 -3.24114
#
# Velocity S-wave (km/s) = 3.94658 -4.34920 -1.29229
# Velocity P-wave (km/s) = 7.30402 2.90331 5.55778
#
# Compressibility (1/GPa) = 0.01581431
#
# Stress axis : x y z
#
# Youngs Moduli (GPa) = 58.81599 63.57710 61.58809
#
# Poissons Ratio (x) = 0.18257 0.49036
# Poissons Ratio (y) = 0.16890 0.35372
# Poissons Ratio (z) = 0.46829 0.36514
#
# Static dielectric constant tensor:
#      x y z
#    x 3.732840 0.000000 0.000000 
#    y 0.000000 3.642780 0.000000 
#    z 0.000000 0.000000 3.460590 
# 
# 
# High freq. dielectric constant tensor:
#      x y z
#    x 1.761870 0.000000 0.000000 
#    y 0.000000 1.765350 0.000000 
#    z 0.000000 0.000000 1.759710 
# 
# From -- ./inp_files/20614.got.cif
#   From: 2010.03.12/outbox.cif.g09.slc.cpg/sg59_11_cif.got.tgz:20614.got - 2010.04.16 16:29:54.
