data_PCOD8245984
_publ_section_title
;
Structure prediction by ZEFSAII (Michael W. Deem and Ramdas Pophale) SiO2 
 PCOD8245984
Probable space group: P M M N
;
_chemical_formula_sum "Si O2"
_cell_formula_units_Z 48
_cell_length_a 28.443627
_cell_length_b 8.605972
_cell_length_c 10.323403
_cell_angle_alpha 90.000000
_cell_angle_beta 90.000000
_cell_angle_gamma 90.000000
_cell_volume 2527.014797
_symmetry_space_group_name_H-M "P M M N"
_symmetry_group_IT_number 59
_space_group.IT_coordinate_system_code '2'
_symmetry_cell_setting 'orthorhombic'
loop_
_space_group_symop_operation_xyz
x,y,z
1/2-x,1/2-y,z
1/2+x,-y,-z
-x,1/2+y,-z
-x,-y,-z
1/2+x,1/2+y,-z
1/2-x,y,z
x,1/2-y,z
loop_
_atom_site_type_symbol
_atom_site_label
_atom_site_fract_x
_atom_site_fract_y
_atom_site_fract_z
Si Si1 0.698706 0.933495 0.360733
Si Si2 0.605038 0.933708 0.245606
Si Si3 0.398046 0.930426 0.248217
Si Si4 0.448064 0.432711 0.003357
Si Si5 0.948340 0.934019 0.504776
Si Si6 0.197640 0.929132 0.364243
O O1 0.750000 0.003804 0.322852
O O2 0.699862 0.750000 0.348583
O O3 0.658142 0.000302 0.265838
O O4 0.686273 0.970999 0.508971
O O5 0.607279 0.750000 0.232258
O O6 0.581673 0.004918 0.116450
O O7 0.574405 0.981358 0.368786
O O8 0.408425 0.750000 0.222055
O O9 0.341820 0.965103 0.255352
O O10 0.420426 0.979385 0.383228
O O11 0.420871 0.029278 0.134430
O O12 0.452770 0.250000 0.988470
O O13 0.500000 0.500000 0.000000
O O14 0.947843 0.750000 0.529196
O O15 0.000000 0.000000 0.500000
O O16 0.250000 0.968935 0.309624
O O17 0.194583 0.750000 0.406190
#
# Coordination Sequence:
#
# PCOD8245984 Si02
#       6
#     8   8   8   8   8   8
#     4   9  16  30  55  83 109 138 174 220 279 340
#     4   9  19  35  54  79 109 139 176 226 279 328
#     4  11  22  37  56  82 114 149 190 234 280 336
#     4  11  23  40  59  79 110 151 191 234 284 342
#     4  11  21  35  56  82 111 141 183 236 287 338
#     4   9  18  33  54  81 113 147 183 228 279 328
#
# _framework density 18.994745000000002
#
# number of rings (size 3 to 8) (size 9 to 14) (size 15 to 20)
#    0.000    2.000    1.667    2.500    0.000    2.000 
#    0.000    5.000    0.000    1.000    0.000    0.000 
#    0.000    0.000    0.000    0.000    0.000    0.000 
#
# Total GULP energy -595041.142840 kJ/mol
# GULP energy per Si atom -12396.690476 kJ/mol
# Density = 1.895151 g / cm^3
# Si number density = 18.994745 Si / 1000 Ang^3
#
#
#
# Elastic Constant Matrix: (Units=GPa)
#
#
# Indices 1 2 3 4 5 6 
#
# 1 171.8670 25.0853 59.6019 0.0000 0.0000 0.0000
# 2 25.0853 31.2258 10.5525 0.0000 0.0000 0.0000
# 3 59.6019 10.5525 90.3008 0.0000 0.0000 0.0000
# 4 0.0000 0.0000 0.0000 19.5786 0.0000 0.0000
# 5 0.0000 0.0000 0.0000 0.0000 34.0699 0.0000
# 6 0.0000 0.0000 0.0000 0.0000 0.0000 23.7474
#
#
#
# Elastic Compliance Matrix: (Units=1/GPa)
#
#
# Indices 1 2 3 4 5 6 
#
# 1 0.008225 -0.004969 -0.004848 0.000000 0.000000 0.000000
# 2 -0.004969 0.036344 -0.000967 0.000000 0.000000 0.000000
# 3 -0.004848 -0.000967 0.014387 0.000000 0.000000 0.000000
# 4 0.000000 0.000000 0.000000 0.051076 0.000000 0.000000
# 5 0.000000 0.000000 0.000000 0.000000 0.029351 0.000000
# 6 0.000000 0.000000 0.000000 0.000000 0.000000 0.042110
#
#
# Mechanical properties :
#
#
# Convention : Reuss Voigt Hill
#
# Bulk Modulus (GPa) = 26.74755 53.76367 40.25561
# Shear Modulus (GPa) = 23.19920 28.68944 25.94432
#
# Velocity S-wave (km/s) = 3.49857 3.89059 3.69978
# Velocity P-wave (km/s) = 5.51653 6.96765 6.28412
#
# Compressibility (1/GPa) = 0.03738661
#
# Stress axis : x y z
#
# Youngs Moduli (GPa) = 121.58017 27.51510 69.50687
#
# Poissons Ratio (x) = 0.13673 0.33698
# Poissons Ratio (y) = 0.60416 0.06723
# Poissons Ratio (z) = 0.58944 0.02661
#
# Static dielectric constant tensor:
#      x y z
#    x 4.076900 0.000000 0.000000 
#    y 0.000000 3.374980 0.000000 
#    z 0.000000 0.000000 3.505640 
# 
# 
# High freq. dielectric constant tensor:
#      x y z
#    x 1.764940 0.000000 0.000000 
#    y 0.000000 1.725190 0.000000 
#    z 0.000000 0.000000 1.718010 
# 
# From -- ./inp_files/12941.got.cif
#   From: 2010.03.12/outbox.cif.g09.slc.cpg/sg59_7_cif.got.tgz:12941.got - 2010.04.16 16:29:54.
