data_PCOD8245910
_publ_section_title
;
Structure prediction by ZEFSAII (Michael W. Deem and Ramdas Pophale) SiO2 
 PCOD8245910
Probable space group: P M M N
;
_chemical_formula_sum "Si O2"
_cell_formula_units_Z 48
_cell_length_a 11.257668
_cell_length_b 25.879724
_cell_length_c 9.284998
_cell_angle_alpha 90.000000
_cell_angle_beta 90.000000
_cell_angle_gamma 90.000000
_cell_volume 2705.140906
_symmetry_space_group_name_H-M "P M M N"
_symmetry_group_IT_number 59
_space_group.IT_coordinate_system_code '2'
_symmetry_cell_setting 'orthorhombic'
loop_
_space_group_symop_operation_xyz
x,y,z
1/2-x,1/2-y,z
1/2+x,-y,-z
-x,1/2+y,-z
-x,-y,-z
1/2+x,1/2+y,-z
1/2-x,y,z
x,1/2-y,z
loop_
_atom_site_type_symbol
_atom_site_label
_atom_site_fract_x
_atom_site_fract_y
_atom_site_fract_z
Si Si1 0.533537 0.022862 0.152704
Si Si2 0.250000 0.913533 0.290686
Si Si3 0.250000 0.805326 0.892483
Si Si4 0.501056 0.952504 0.395669
Si Si5 0.552117 0.306887 0.342446
Si Si6 0.110884 0.401108 0.349556
Si Si7 0.250000 0.809549 0.426791
Si Si8 0.250000 0.918008 0.965713
O O1 0.431620 0.054371 0.237901
O O2 0.640480 0.062474 0.129329
O O3 0.564663 0.971745 0.248086
O O4 0.500000 0.000000 0.000000
O O5 0.366645 0.933764 0.371084
O O6 0.250000 0.850566 0.295129
O O7 0.250000 0.937887 0.129883
O O8 0.250000 0.750000 0.979073
O O9 0.366842 0.806876 0.797214
O O10 0.250000 0.856244 0.990050
O O11 0.578465 0.910314 0.481631
O O12 0.500000 0.000000 0.500000
O O13 0.496161 0.250000 0.365527
O O14 0.446518 0.346379 0.311493
O O15 0.632584 0.321365 0.479933
O O16 0.250000 0.396625 0.330198
O O17 0.250000 0.750000 0.371295
#
# Coordination Sequence:
#
# PCOD8245910 Si02
#       8
#     8   4   4   8   8   8   4   4
#     4  11  24  39  54  80 116 151 187 230 277 329
#     4  12  21  38  58  84 111 143 195 230 275 345
#     4   9  18  35  57  87 113 138 183 235 287 340
#     4  10  24  35  54  78 113 145 185 229 273 324
#     4   9  17  33  57  83 109 141 180 231 288 337
#     4  11  23  37  56  81 111 147 194 230 274 330
#     4   9  18  33  57  85 115 140 175 237 292 333
#     4  12  23  36  64  82 111 155 189 228 288 336
#
# _framework density 17.743991000000001
#
# number of rings (size 3 to 8) (size 9 to 14) (size 15 to 20)
#    0.000    1.667    5.000    1.000    7.000    2.667 
#    0.000    0.000    0.000    0.000    0.000    0.000 
#    0.000    8.000    0.000    0.000    0.000    0.000 
#
# Total GULP energy -594709.020917 kJ/mol
# GULP energy per Si atom -12389.771269 kJ/mol
# Density = 1.770361 g / cm^3
# Si number density = 17.743991 Si / 1000 Ang^3
#
#
#
# Elastic Constant Matrix: (Units=GPa)
#
#
# Indices 1 2 3 4 5 6 
#
# 1 119.0884 53.0296 35.7940 0.0000 0.0000 0.0000
# 2 53.0296 109.4705 34.5698 0.0000 0.0000 0.0000
# 3 35.7940 34.5698 90.7201 0.0000 0.0000 0.0000
# 4 0.0000 0.0000 0.0000 27.7023 0.0000 0.0000
# 5 0.0000 0.0000 0.0000 0.0000 17.3726 0.0000
# 6 0.0000 0.0000 0.0000 0.0000 0.0000 30.2487
#
#
#
# Elastic Compliance Matrix: (Units=1/GPa)
#
#
# Indices 1 2 3 4 5 6 
#
# 1 0.011254 -0.004604 -0.002686 0.000000 0.000000 0.000000
# 2 -0.004604 0.012268 -0.002858 0.000000 0.000000 0.000000
# 3 -0.002686 -0.002858 0.013172 0.000000 0.000000 0.000000
# 4 0.000000 0.000000 0.000000 0.036098 0.000000 0.000000
# 5 0.000000 0.000000 0.000000 0.000000 0.057562 0.000000
# 6 0.000000 0.000000 0.000000 0.000000 0.000000 0.033059
#
#
# Mechanical properties :
#
#
# Convention : Reuss Voigt Hill
#
# Bulk Modulus (GPa) = 60.98411 62.89618 61.94015
# Shear Modulus (GPa) = 26.43048 28.12377 27.27712
#
# Velocity S-wave (km/s) = 3.86365 3.98549 3.92504
# Velocity P-wave (km/s) = 7.37206 7.53009 7.45149
#
# Compressibility (1/GPa) = 0.01639771
#
# Stress axis : x y z
#
# Youngs Moduli (GPa) = 88.85348 81.51571 75.91870
#
# Poissons Ratio (x) = 0.37526 0.20394
# Poissons Ratio (y) = 0.40904 0.21700
# Poissons Ratio (z) = 0.23868 0.23300
#
# Static dielectric constant tensor:
#      x y z
#    x 3.006680 0.000000 0.000000 
#    y 0.000000 3.961430 0.000000 
#    z 0.000000 0.000000 3.474300 
# 
# 
# High freq. dielectric constant tensor:
#      x y z
#    x 1.666010 0.000000 0.000000 
#    y 0.000000 1.698340 0.000000 
#    z 0.000000 0.000000 1.678530 
# 
# From -- ./inp_files/6462.got.cif
#   From: 2010.03.12/outbox.cif.g09.slc.cpg/sg59_4_cif.got.tgz:6462.got - 2010.04.16 16:29:54.
