data_PCOD8245992
_publ_section_title
;
Structure prediction by ZEFSAII (Michael W. Deem and Ramdas Pophale) SiO2 
 PCOD8245992
Probable space group: P M M N
;
_chemical_formula_sum "Si O2"
_cell_formula_units_Z 56
_cell_length_a 8.542371
_cell_length_b 24.118529
_cell_length_c 14.824012
_cell_angle_alpha 90.000000
_cell_angle_beta 90.000000
_cell_angle_gamma 90.000000
_cell_volume 3054.182634
_symmetry_space_group_name_H-M "P M M N"
_symmetry_group_IT_number 59
_space_group.IT_coordinate_system_code '2'
_symmetry_cell_setting 'orthorhombic'
loop_
_space_group_symop_operation_xyz
x,y,z
1/2-x,1/2-y,z
1/2+x,-y,-z
-x,1/2+y,-z
-x,-y,-z
1/2+x,1/2+y,-z
1/2-x,y,z
x,1/2-y,z
loop_
_atom_site_type_symbol
_atom_site_label
_atom_site_fract_x
_atom_site_fract_y
_atom_site_fract_z
Si Si1 0.068390 0.363184 0.782744
Si Si2 0.566620 0.250000 0.716748
Si Si3 0.933410 0.867139 0.528920
Si Si4 0.933949 0.250000 0.505852
Si Si5 0.569045 0.925339 0.044212
Si Si6 0.432464 0.937504 0.367175
Si Si7 0.434607 0.553217 0.671316
Si Si8 0.066426 0.960778 0.872549
O O1 0.250000 0.370720 0.756876
O O2 0.040882 0.373577 0.889345
O O3 0.011881 0.302081 0.763262
O O4 0.970389 0.407959 0.726935
O O5 0.750000 0.250000 0.735643
O O6 0.528222 0.250000 0.611645
O O7 0.750000 0.869413 0.508881
O O8 0.988898 0.803874 0.538823
O O9 0.024544 0.896059 0.447360
O O10 0.973833 0.897783 0.621704
O O11 0.750000 0.250000 0.486693
O O12 0.750000 0.934018 0.021947
O O13 0.500423 0.979857 0.094516
O O14 0.482173 0.915451 0.948387
O O15 0.250000 0.951456 0.372396
O O16 0.528502 0.994475 0.376099
O O17 0.250000 0.564203 0.665091
O O18 0.500808 0.553721 0.773844
O O19 0.250000 0.963757 0.861461
#
# Coordination Sequence:
#
# PCOD8245992 Si02
#       8
#     8   4   8   4   8   8   8   8
#     4  11  21  36  57  82 114 152 188 228 281 335
#     4  11  23  37  57  84 112 145 190 234 279 335
#     4  12  25  40  59  83 112 150 191 235 286 337
#     4  11  23  41  61  84 110 145 192 236 281 331
#     4   9  18  33  53  81 112 144 181 224 272 329
#     4  12  23  36  55  83 116 152 189 231 281 337
#     4  11  22  39  58  82 117 153 191 235 283 338
#     4   9  18  33  54  81 111 146 182 222 274 329
#
# _framework density 18.335511
#
# number of rings (size 3 to 8) (size 9 to 14) (size 15 to 20)
#    0.000    1.286    2.857    4.286    0.000    2.857 
#    0.000    0.000    0.000    0.857    0.000    4.000 
#    0.000    0.000    0.000    0.000    0.000    0.000 
#
# Total GULP energy -694564.248945 kJ/mol
# GULP energy per Si atom -12402.933017 kJ/mol
# Density = 1.829378 g / cm^3
# Si number density = 18.335511 Si / 1000 Ang^3
#
#
#
# Elastic Constant Matrix: (Units=GPa)
#
#
# Indices 1 2 3 4 5 6 
#
# 1 56.8874 17.5363 24.2279 0.0000 0.0000 0.0000
# 2 17.5363 104.3625 44.4686 0.0000 0.0000 0.0000
# 3 24.2279 44.4686 96.1118 0.0000 0.0000 0.0000
# 4 0.0000 0.0000 0.0000 18.3601 0.0000 0.0000
# 5 0.0000 0.0000 0.0000 0.0000 30.1009 0.0000
# 6 0.0000 0.0000 0.0000 0.0000 0.0000 19.6660
#
#
#
# Elastic Compliance Matrix: (Units=1/GPa)
#
#
# Indices 1 2 3 4 5 6 
#
# 1 0.019880 -0.001501 -0.004317 0.000000 0.000000 0.000000
# 2 -0.001501 0.012048 -0.005196 0.000000 0.000000 0.000000
# 3 -0.004317 -0.005196 0.013897 0.000000 0.000000 0.000000
# 4 0.000000 0.000000 0.000000 0.054466 0.000000 0.000000
# 5 0.000000 0.000000 0.000000 0.000000 0.033222 0.000000
# 6 0.000000 0.000000 0.000000 0.000000 0.000000 0.050849
#
#
# Mechanical properties :
#
#
# Convention : Reuss Voigt Hill
#
# Bulk Modulus (GPa) = 42.02203 47.75858 44.89031
# Shear Modulus (GPa) = 23.32942 25.03400 24.18171
#
# Velocity S-wave (km/s) = 3.57089 3.69904 3.63553
# Velocity P-wave (km/s) = 6.32217 6.65939 6.49297
#
# Compressibility (1/GPa) = 0.02379704
#
# Stress axis : x y z
#
# Youngs Moduli (GPa) = 50.30226 82.99972 71.95893
#
# Poissons Ratio (x) = 0.12459 0.31063
# Poissons Ratio (y) = 0.07551 0.37390
# Poissons Ratio (z) = 0.21715 0.43127
#
# Static dielectric constant tensor:
#      x y z
#    x 3.412110 0.000000 0.000000 
#    y 0.000000 3.308380 0.000000 
#    z 0.000000 0.000000 3.555020 
# 
# 
# High freq. dielectric constant tensor:
#      x y z
#    x 1.718810 0.000000 0.000000 
#    y 0.000000 1.691550 0.000000 
#    z 0.000000 0.000000 1.710680 
# 
# From -- ./inp_files/21202.got.cif
#   From: 2010.03.12/outbox.cif.g09.slc.cpg/sg59_11_cif.got.tgz:21202.got - 2010.04.16 16:29:54.
