data_PCOD8245038
_publ_section_title
;
Structure prediction by ZEFSAII (Michael W. Deem and Ramdas Pophale) SiO2 
 PCOD8245038
Probable space group: P M M N
;
_chemical_formula_sum "Si O2"
_cell_formula_units_Z 56
_cell_length_a 9.005341
_cell_length_b 18.936075
_cell_length_c 16.425647
_cell_angle_alpha 90.000000
_cell_angle_beta 90.000000
_cell_angle_gamma 90.000000
_cell_volume 2800.996802
_symmetry_space_group_name_H-M "P M M N"
_symmetry_group_IT_number 59
_space_group.IT_coordinate_system_code '2'
_symmetry_cell_setting 'orthorhombic'
loop_
_space_group_symop_operation_xyz
x,y,z
1/2-x,1/2-y,z
1/2+x,-y,-z
-x,1/2+y,-z
-x,-y,-z
1/2+x,1/2+y,-z
1/2-x,y,z
x,1/2-y,z
loop_
_atom_site_type_symbol
_atom_site_label
_atom_site_fract_x
_atom_site_fract_y
_atom_site_fract_z
Si Si1 0.919952 0.411005 0.170723
Si Si2 0.582284 0.833648 0.687937
Si Si3 0.073520 0.329769 0.858221
Si Si4 0.580466 0.552613 0.261891
Si Si5 0.573826 0.575940 0.991469
Si Si6 0.418669 0.829128 0.528850
Si Si7 0.919550 0.040930 0.571857
O O1 0.750000 0.391915 0.150785
O O2 0.934659 0.493776 0.191827
O O3 0.973499 0.364274 0.245275
O O4 0.022395 0.391280 0.094155
O O5 0.750000 0.861327 0.700232
O O6 0.573665 0.750000 0.692986
O O7 0.524761 0.859261 0.599792
O O8 0.250000 0.326809 0.860342
O O9 0.007536 0.250000 0.854661
O O10 0.022575 0.374038 0.778174
O O11 0.017217 0.370165 0.938949
O O12 0.750000 0.560034 0.290972
O O13 0.486641 0.527966 0.339409
O O14 0.750000 0.566727 0.994205
O O15 0.500000 0.500000 0.000000
O O16 0.250000 0.832036 0.562010
O O17 0.464899 0.750000 0.504005
O O18 0.435849 0.875970 0.448110
O O19 0.750000 0.015901 0.574096
O O20 0.000000 0.000000 0.500000
#
# Coordination Sequence:
#
# PCOD8245038 Si02
#       7
#     8   8   8   8   8   8   8
#     4  11  22  37  58  85 115 151 194 236 288 349
#     4  10  21  36  55  83 115 147 189 239 289 344
#     4   9  19  38  62  87 117 154 195 239 289 345
#     4  10  21  38  58  83 114 150 191 238 289 347
#     4  11  21  37  61  88 117 154 196 241 291 347
#     4   9  19  37  57  76 106 149 189 230 286 345
#     4  11  23  37  56  84 115 149 190 239 290 344
#
# _framework density 19.992882000000002
#
# number of rings (size 3 to 8) (size 9 to 14) (size 15 to 20)
#    0.000    1.857    1.429    2.571    0.000    7.714 
#    0.000    1.429    0.000    3.000    0.000    0.000 
#    0.000    0.000    0.000    0.000    0.000    0.000 
#
# Total GULP energy -694463.423049 kJ/mol
# GULP energy per Si atom -12401.132554 kJ/mol
# Density = 1.994738 g / cm^3
# Si number density = 19.992882 Si / 1000 Ang^3
#
#
#
# Elastic Constant Matrix: (Units=GPa)
#
#
# Indices 1 2 3 4 5 6 
#
# 1 90.6961 28.5882 38.9205 0.0000 0.0000 0.0000
# 2 28.5882 56.8440 33.7262 0.0000 0.0000 0.0000
# 3 38.9205 33.7262 97.8653 0.0000 0.0000 0.0000
# 4 0.0000 0.0000 0.0000 33.9446 0.0000 0.0000
# 5 0.0000 0.0000 0.0000 0.0000 35.9497 0.0000
# 6 0.0000 0.0000 0.0000 0.0000 0.0000 26.1428
#
#
#
# Elastic Compliance Matrix: (Units=1/GPa)
#
#
# Indices 1 2 3 4 5 6 
#
# 1 0.014260 -0.004785 -0.004022 0.000000 0.000000 0.000000
# 2 -0.004785 0.023719 -0.006271 0.000000 0.000000 0.000000
# 3 -0.004022 -0.006271 0.013979 0.000000 0.000000 0.000000
# 4 0.000000 0.000000 0.000000 0.029460 0.000000 0.000000
# 5 0.000000 0.000000 0.000000 0.000000 0.027817 0.000000
# 6 0.000000 0.000000 0.000000 0.000000 0.000000 0.038251
#
#
# Mechanical properties :
#
#
# Convention : Reuss Voigt Hill
#
# Bulk Modulus (GPa) = 45.86870 49.76392 47.81631
# Shear Modulus (GPa) = 27.04013 28.81880 27.92946
#
# Velocity S-wave (km/s) = 3.68161 3.80077 3.74166
# Velocity P-wave (km/s) = 6.40817 6.64876 6.52957
#
# Compressibility (1/GPa) = 0.02180136
#
# Stress axis : x y z
#
# Youngs Moduli (GPa) = 70.12501 42.15961 71.53707
#
# Poissons Ratio (x) = 0.20175 0.28773
# Poissons Ratio (y) = 0.33558 0.44861
# Poissons Ratio (z) = 0.28205 0.26438
#
# Static dielectric constant tensor:
#      x y z
#    x 3.631290 0.000000 0.000000 
#    y 0.000000 3.868400 0.000000 
#    z 0.000000 0.000000 3.654280 
# 
# 
# High freq. dielectric constant tensor:
#      x y z
#    x 1.769590 0.000000 0.000000 
#    y 0.000000 1.785260 0.000000 
#    z 0.000000 0.000000 1.780360 
# 
# From -- ./inp_files/20934.got.cif
#   From: 2010.03.12/outbox.cif.g09.slc.cpg/sg59_11_cif.got.tgz:20934.got - 2010.04.16 16:29:54.
