data_PCOD8245576
_publ_section_title
;
Structure prediction by ZEFSAII (Michael W. Deem and Ramdas Pophale) SiO2 
 PCOD8245576
Probable space group: P M M N
;
_chemical_formula_sum "Si O2"
_cell_formula_units_Z 56
_cell_length_a 9.087379
_cell_length_b 14.611006
_cell_length_c 21.467032
_cell_angle_alpha 90.000000
_cell_angle_beta 90.000000
_cell_angle_gamma 90.000000
_cell_volume 2850.301255
_symmetry_space_group_name_H-M "P M M N"
_symmetry_group_IT_number 59
_space_group.IT_coordinate_system_code '2'
_symmetry_cell_setting 'orthorhombic'
loop_
_space_group_symop_operation_xyz
x,y,z
1/2-x,1/2-y,z
1/2+x,-y,-z
-x,1/2+y,-z
-x,-y,-z
1/2+x,1/2+y,-z
1/2-x,y,z
x,1/2-y,z
loop_
_atom_site_type_symbol
_atom_site_label
_atom_site_fract_x
_atom_site_fract_y
_atom_site_fract_z
Si Si1 0.081342 0.647650 0.808869
Si Si2 0.414012 0.105735 0.937444
Si Si3 0.413799 0.889236 0.945116
Si Si4 0.420259 0.856627 0.488270
Si Si5 0.421281 0.499149 0.594736
Si Si6 0.075439 0.496222 0.275319
Si Si7 0.081348 0.354280 0.801164
O O1 0.250000 0.610068 0.806888
O O2 0.074627 0.750000 0.782037
O O3 0.021388 0.647056 0.879854
O O4 0.974420 0.586583 0.768136
O O5 0.250000 0.145506 0.939801
O O6 0.484090 0.134124 0.871053
O O7 0.417929 0.997788 0.943909
O O8 0.498279 0.150541 0.995787
O O9 0.250000 0.851265 0.952824
O O10 0.250000 0.863529 0.468221
O O11 0.467433 0.750000 0.496024
O O12 0.447027 0.911190 0.552370
O O13 0.518012 0.905534 0.435661
O O14 0.250000 0.484061 0.609244
O O15 0.508571 0.520043 0.657126
O O16 0.250000 0.498687 0.279814
O O17 0.017807 0.591111 0.247337
O O18 0.250000 0.390627 0.799520
O O19 0.072943 0.250000 0.779679
#
# Coordination Sequence:
#
# PCOD8245576 Si02
#       7
#     8   8   8   8   8   8   8
#     4  10  21  39  61  82 109 150 197 242 291 350
#     4   9  17  31  52  78 108 140 181 234 293 353
#     4   9  17  31  52  78 108 141 182 232 291 354
#     4   9  19  38  64  94 125 154 189 234 279 325
#     4  10  21  38  62  90 121 159 198 231 277 335
#     4  12  25  40  59  84 120 157 194 243 292 338
#     4  10  21  39  61  82 108 148 197 244 293 352
#
# _framework density 19.647047000000001
#
# number of rings (size 3 to 8) (size 9 to 14) (size 15 to 20)
#    0.000    2.143    1.429    1.714    0.000    4.286 
#    0.000    1.429    0.000    0.000    0.000    0.000 
#    0.000    0.000    0.000    0.000    0.000    0.000 
#
# Total GULP energy -694366.494187 kJ/mol
# GULP energy per Si atom -12399.401682 kJ/mol
# Density = 1.960233 g / cm^3
# Si number density = 19.647047 Si / 1000 Ang^3
#
#
#
# Elastic Constant Matrix: (Units=GPa)
#
#
# Indices 1 2 3 4 5 6 
#
# 1 101.0229 33.2103 52.3963 0.0000 0.0000 0.0000
# 2 33.2103 96.4939 28.6740 0.0000 0.0000 0.0000
# 3 52.3963 28.6740 92.2629 0.0000 0.0000 0.0000
# 4 0.0000 0.0000 0.0000 -52.1831 0.0000 0.0000
# 5 0.0000 0.0000 0.0000 0.0000 38.5047 0.0000
# 6 0.0000 0.0000 0.0000 0.0000 0.0000 16.7733
#
#
#
# Elastic Compliance Matrix: (Units=1/GPa)
#
#
# Indices 1 2 3 4 5 6 
#
# 1 0.014707 -0.002842 -0.007469 0.000000 0.000000 0.000000
# 2 -0.002842 0.011967 -0.002105 0.000000 0.000000 0.000000
# 3 -0.007469 -0.002105 0.015734 0.000000 0.000000 0.000000
# 4 0.000000 0.000000 0.000000 -0.019163 0.000000 0.000000
# 5 0.000000 0.000000 0.000000 0.000000 0.025971 0.000000
# 6 0.000000 0.000000 0.000000 0.000000 0.000000 0.059619
#
#
# Mechanical properties :
#
#
# Convention : Reuss Voigt Hill
#
# Bulk Modulus (GPa) = 56.89523 57.59341 57.24432
# Shear Modulus (GPa) = 35.83580 12.31892 24.07736
#
# Velocity S-wave (km/s) = 4.27544 2.50674 3.50451
# Velocity P-wave (km/s) = 7.30712 6.14459 6.75093
#
# Compressibility (1/GPa) = 0.01757617
#
# Stress axis : x y z
#
# Youngs Moduli (GPa) = 67.99570 83.56234 63.55535
#
# Poissons Ratio (x) = 0.23751 0.47468
# Poissons Ratio (y) = 0.19326 0.13379
# Poissons Ratio (z) = 0.50784 0.17591
#
# Static dielectric constant tensor:
#      x y z
#    x 3.634260 0.000000 0.000000 
#    y 0.000000 3.533600 0.000000 
#    z 0.000000 0.000000 3.639700 
# 
# 
# High freq. dielectric constant tensor:
#      x y z
#    x 1.751890 0.000000 0.000000 
#    y 0.000000 1.770790 0.000000 
#    z 0.000000 0.000000 1.766740 
# 
# From -- ./inp_files/29077.got.cif
#   From: 2010.03.12/outbox.cif.g09.slc.cpg/sg59_15_cif.got.tgz:29077.got - 2010.04.16 16:29:54.
