data_PCOD8245205
_publ_section_title
;
Structure prediction by ZEFSAII (Michael W. Deem and Ramdas Pophale) SiO2 
 PCOD8245205
Probable space group: P M M N
;
_chemical_formula_sum "Si O2"
_cell_formula_units_Z 48
_cell_length_a 8.539014
_cell_length_b 30.572064
_cell_length_c 9.180955
_cell_angle_alpha 90.000000
_cell_angle_beta 90.000000
_cell_angle_gamma 90.000000
_cell_volume 2396.736801
_symmetry_space_group_name_H-M "P M M N"
_symmetry_group_IT_number 59
_space_group.IT_coordinate_system_code '2'
_symmetry_cell_setting 'orthorhombic'
loop_
_space_group_symop_operation_xyz
x,y,z
1/2-x,1/2-y,z
1/2+x,-y,-z
-x,1/2+y,-z
-x,-y,-z
1/2+x,1/2+y,-z
1/2-x,y,z
x,1/2-y,z
loop_
_atom_site_type_symbol
_atom_site_label
_atom_site_fract_x
_atom_site_fract_y
_atom_site_fract_z
Si Si1 0.935396 0.959399 0.912567
Si Si2 0.431706 0.800079 0.582053
Si Si3 0.433646 0.379072 0.580934
Si Si4 0.064576 0.123237 0.908740
Si Si5 0.068111 0.299512 0.108110
Si Si6 0.566179 0.040292 0.409933
O O1 0.750000 0.960544 0.914354
O O2 0.992374 0.960207 0.748533
O O3 0.000328 0.915993 0.991787
O O4 0.000000 0.000000 0.000000
O O5 0.250000 0.809213 0.552759
O O6 0.477151 0.750000 0.546495
O O7 0.535719 0.830600 0.479249
O O8 0.468190 0.810726 0.749632
O O9 0.250000 0.389796 0.573148
O O10 0.500580 0.381189 0.745220
O O11 0.527122 0.414169 0.486745
O O12 0.250000 0.121737 0.901361
O O13 0.009210 0.169066 0.978763
O O14 0.250000 0.307757 0.146061
O O15 0.039013 0.250000 0.055421
O O16 0.750000 0.034611 0.395090
O O17 0.500000 0.000000 0.500000
#
# Coordination Sequence:
#
# PCOD8245205 Si02
#       6
#     8   8   8   8   8   8
#     4  11  22  39  62  88 119 155 195 241 293 348
#     4  10  21  37  56  82 117 155 196 242 292 348
#     4  11  22  38  60  87 118 153 195 241 293 353
#     4   9  20  36  56  83 114 146 185 236 288 342
#     4   9  17  33  58  84 109 143 189 238 289 345
#     4  12  25  42  63  89 120 155 197 244 296 353
#
# _framework density 20.027231
#
# number of rings (size 3 to 8) (size 9 to 14) (size 15 to 20)
#    0.000    1.667    0.000    5.000    0.000    4.333 
#    0.000    6.667    0.000    2.000    0.000    0.000 
#    0.000    0.000    0.000    0.000    0.000    0.000 
#
# Total GULP energy -595388.618963 kJ/mol
# GULP energy per Si atom -12403.929562 kJ/mol
# Density = 1.998165 g / cm^3
# Si number density = 20.027231 Si / 1000 Ang^3
#
#
#
# Elastic Constant Matrix: (Units=GPa)
#
#
# Indices 1 2 3 4 5 6 
#
# 1 53.3769 25.4757 20.7900 0.0000 0.0000 0.0000
# 2 25.4757 142.6391 86.4699 0.0000 0.0000 0.0000
# 3 20.7900 86.4699 164.0228 0.0000 0.0000 0.0000
# 4 0.0000 0.0000 0.0000 45.4555 0.0000 0.0000
# 5 0.0000 0.0000 0.0000 0.0000 27.1538 0.0000
# 6 0.0000 0.0000 0.0000 0.0000 0.0000 31.9122
#
#
#
# Elastic Compliance Matrix: (Units=1/GPa)
#
#
# Indices 1 2 3 4 5 6 
#
# 1 0.020589 -0.003079 -0.000986 0.000000 0.000000 0.000000
# 2 -0.003079 0.010764 -0.005284 0.000000 0.000000 0.000000
# 3 -0.000986 -0.005284 0.009008 0.000000 0.000000 0.000000
# 4 0.000000 0.000000 0.000000 0.022000 0.000000 0.000000
# 5 0.000000 0.000000 0.000000 0.000000 0.036827 0.000000
# 6 0.000000 0.000000 0.000000 0.000000 0.000000 0.031336
#
#
# Mechanical properties :
#
#
# Convention : Reuss Voigt Hill
#
# Bulk Modulus (GPa) = 46.16725 69.50113 57.83419
# Shear Modulus (GPa) = 31.96055 36.05784 34.00919
#
# Velocity S-wave (km/s) = 3.99915 4.24776 4.12533
# Velocity P-wave (km/s) = 6.66532 7.67050 7.18551
#
# Compressibility (1/GPa) = 0.02166038
#
# Stress axis : x y z
#
# Youngs Moduli (GPa) = 48.57077 92.90123 111.01804
#
# Poissons Ratio (x) = 0.28607 0.10949
# Poissons Ratio (y) = 0.14956 0.58666
# Poissons Ratio (z) = 0.04790 0.49092
#
# Static dielectric constant tensor:
#      x y z
#    x 3.577380 0.000000 0.000000 
#    y 0.000000 3.917550 0.000000 
#    z 0.000000 0.000000 3.873940 
# 
# 
# High freq. dielectric constant tensor:
#      x y z
#    x 1.771510 0.000000 0.000000 
#    y 0.000000 1.798800 0.000000 
#    z 0.000000 0.000000 1.789330 
# 
# From -- ./inp_files/6333.got.cif
#   From: 2010.03.12/outbox.cif.g09.slc.cpg/sg59_4_cif.got.tgz:6333.got - 2010.04.16 16:29:54.
