data_PCOD8245360
_publ_section_title
;
Structure prediction by ZEFSAII (Michael W. Deem and Ramdas Pophale) SiO2 
 PCOD8245360
Probable space group: P M M N
;
_chemical_formula_sum "Si O2"
_cell_formula_units_Z 64
_cell_length_a 8.793325
_cell_length_b 23.310816
_cell_length_c 14.821972
_cell_angle_alpha 90.000000
_cell_angle_beta 90.000000
_cell_angle_gamma 90.000000
_cell_volume 3038.201612
_symmetry_space_group_name_H-M "P M M N"
_symmetry_group_IT_number 59
_space_group.IT_coordinate_system_code '2'
_symmetry_cell_setting 'orthorhombic'
loop_
_space_group_symop_operation_xyz
x,y,z
1/2-x,1/2-y,z
1/2+x,-y,-z
-x,1/2+y,-z
-x,-y,-z
1/2+x,1/2+y,-z
1/2-x,y,z
x,1/2-y,z
loop_
_atom_site_type_symbol
_atom_site_label
_atom_site_fract_x
_atom_site_fract_y
_atom_site_fract_z
Si Si1 0.571838 0.122729 0.312802
Si Si2 0.921003 0.654138 0.052010
Si Si3 0.070245 0.004259 0.280199
Si Si4 0.071848 0.184128 0.477198
Si Si5 0.579751 0.313646 0.780304
Si Si6 0.927226 0.606579 0.355252
Si Si7 0.074007 0.317336 0.147649
Si Si8 0.077662 0.477947 0.909997
O O1 0.750000 0.111834 0.319884
O O2 0.486553 0.062502 0.326718
O O3 0.519877 0.167691 0.388305
O O4 0.532482 0.149526 0.216587
O O5 0.750000 0.679123 0.057856
O O6 0.927315 0.589989 0.088274
O O7 0.032537 0.690780 0.114945
O O8 0.977765 0.659566 0.949716
O O9 0.250000 0.004377 0.274900
O O10 0.017214 0.952772 0.345443
O O11 0.007383 0.000055 0.178775
O O12 0.250000 0.177161 0.457758
O O13 0.033625 0.250000 0.503357
O O14 0.018769 0.141408 0.556684
O O15 0.750000 0.339289 0.771370
O O16 0.574468 0.250000 0.738588
O O17 0.459542 0.353693 0.730555
O O18 0.750000 0.592175 0.357707
O O19 0.250000 0.332550 0.167189
O O20 0.044914 0.250000 0.155261
O O21 0.250000 0.500892 0.906168
O O22 0.000000 0.500000 0.000000
#
# Coordination Sequence:
#
# PCOD8245360 Si02
#       8
#     8   8   8   8   8   8   8   8
#     4  12  26  43  66  95 128 167 215 270 328 390
#     4  10  21  37  59  87 121 164 213 261 313 374
#     4  12  25  43  66  93 130 172 216 268 326 387
#     4  10  23  45  72 100 130 168 213 261 320 390
#     4  11  23  37  57  89 128 168 209 255 310 372
#     4  11  23  42  68  97 129 167 213 263 318 384
#     4  10  21  39  63  92 128 170 217 267 323 388
#     4  11  22  37  60  91 127 170 219 269 318 380
#
# _framework density 21.065093000000001
#
# number of rings (size 3 to 8) (size 9 to 14) (size 15 to 20)
#    0.000    1.125    1.250    5.250    0.000    7.500 
#    0.000    0.000    0.000    0.000    0.000    0.000 
#    0.000    0.000    0.000    0.000    0.000    0.000 
#
# Total GULP energy -793908.651439 kJ/mol
# GULP energy per Si atom -12404.822679 kJ/mol
# Density = 2.101715 g / cm^3
# Si number density = 21.065093 Si / 1000 Ang^3
#
#
#
# Elastic Constant Matrix: (Units=GPa)
#
#
# Indices 1 2 3 4 5 6 
#
# 1 112.3831 48.8950 32.7722 0.0000 0.0000 0.0000
# 2 48.8950 83.1277 36.2100 0.0000 0.0000 0.0000
# 3 32.7722 36.2100 93.9230 0.0000 0.0000 0.0000
# 4 0.0000 0.0000 0.0000 38.7492 0.0000 0.0000
# 5 0.0000 0.0000 0.0000 0.0000 23.6830 0.0000
# 6 0.0000 0.0000 0.0000 0.0000 0.0000 26.5121
#
#
#
# Elastic Compliance Matrix: (Units=1/GPa)
#
#
# Indices 1 2 3 4 5 6 
#
# 1 0.012204 -0.006398 -0.001792 0.000000 0.000000 0.000000
# 2 -0.006398 0.017812 -0.004634 0.000000 0.000000 0.000000
# 3 -0.001792 -0.004634 0.013059 0.000000 0.000000 0.000000
# 4 0.000000 0.000000 0.000000 0.025807 0.000000 0.000000
# 5 0.000000 0.000000 0.000000 0.000000 0.042224 0.000000
# 6 0.000000 0.000000 0.000000 0.000000 0.000000 0.037719
#
#
# Mechanical properties :
#
#
# Convention : Reuss Voigt Hill
#
# Bulk Modulus (GPa) = 57.38418 58.35423 57.86921
# Shear Modulus (GPa) = 27.73433 29.22597 28.48015
#
# Velocity S-wave (km/s) = 3.63244 3.72884 3.68095
# Velocity P-wave (km/s) = 6.70025 6.80448 6.75257
#
# Compressibility (1/GPa) = 0.01742641
#
# Stress axis : x y z
#
# Youngs Moduli (GPa) = 81.93887 56.14304 76.57583
#
# Poissons Ratio (x) = 0.35920 0.13721
# Poissons Ratio (y) = 0.52424 0.35489
# Poissons Ratio (z) = 0.14682 0.26019
#
# Static dielectric constant tensor:
#      x y z
#    x 3.836650 0.000000 0.000000 
#    y 0.000000 4.152810 0.000000 
#    z 0.000000 0.000000 3.831710 
# 
# 
# High freq. dielectric constant tensor:
#      x y z
#    x 1.824350 0.000000 0.000000 
#    y 0.000000 1.837910 0.000000 
#    z 0.000000 0.000000 1.827950 
# 
# From -- ./inp_files/21589.got.cif
#   From: 2010.03.12/outbox.cif.g09.slc.cpg/sg59_11_cif.got.tgz:21589.got - 2010.04.16 16:29:54.
