data_PCOD8245790
_publ_section_title
;
Structure prediction by ZEFSAII (Michael W. Deem and Ramdas Pophale) SiO2 
 PCOD8245790
Probable space group: P M M N
;
_chemical_formula_sum "Si O2"
_cell_formula_units_Z 48
_cell_length_a 14.619045
_cell_length_b 8.898615
_cell_length_c 19.579351
_cell_angle_alpha 90.000000
_cell_angle_beta 90.000000
_cell_angle_gamma 90.000000
_cell_volume 2547.063148
_symmetry_space_group_name_H-M "P M M N"
_symmetry_group_IT_number 59
_space_group.IT_coordinate_system_code '2'
_symmetry_cell_setting 'orthorhombic'
loop_
_space_group_symop_operation_xyz
x,y,z
1/2-x,1/2-y,z
1/2+x,-y,-z
-x,1/2+y,-z
-x,-y,-z
1/2+x,1/2+y,-z
1/2-x,y,z
x,1/2-y,z
loop_
_atom_site_type_symbol
_atom_site_label
_atom_site_fract_x
_atom_site_fract_y
_atom_site_fract_z
Si Si1 0.143256 0.578343 0.908207
Si Si2 0.938270 0.425544 0.442112
Si Si3 0.250000 0.429558 0.527522
Si Si4 0.250000 0.428277 0.372081
Si Si5 0.507280 0.427148 0.828740
Si Si6 0.148669 0.571015 0.060370
Si Si7 0.060531 0.075874 0.311001
O O1 0.250000 0.563179 0.893500
O O2 0.111090 0.750000 0.900125
O O3 0.092917 0.478331 0.851844
O O4 0.119925 0.517371 0.984373
O O5 0.926844 0.250000 0.458982
O O6 0.839909 0.504688 0.436258
O O7 0.000000 0.500000 0.500000
O O8 0.987226 0.450547 0.370131
O O9 0.250000 0.250000 0.533603
O O10 0.250000 0.487120 0.449539
O O11 0.250000 0.250000 0.374745
O O12 0.340504 0.487849 0.334067
O O13 0.512615 0.250000 0.827518
O O14 0.579722 0.494718 0.883314
O O15 0.528302 0.485021 0.754003
O O16 0.250000 0.510150 0.078173
O O17 0.149904 0.750000 0.060427
O O18 0.068273 0.250000 0.291669
#
# Coordination Sequence:
#
# PCOD8245790 Si02
#       7
#     8   8   4   4   8   8   8
#     4   9  18  36  60  79 102 146 193 230 278 340
#     4  11  22  39  63  90 118 153 197 243 289 344
#     4  11  21  39  65  91 119 150 189 244 297 345
#     4   9  18  37  61  85 113 150 183 220 277 333
#     4  11  22  34  54  84 116 147 182 232 284 328
#     4   8  16  32  54  81 112 144 181 226 279 336
#     4  10  22  40  59  81 117 156 189 224 275 346
#
# _framework density 18.845234999999999
#
# number of rings (size 3 to 8) (size 9 to 14) (size 15 to 20)
#    0.000    2.167    1.667    2.750    1.167    1.667 
#    1.500    0.833    0.000    2.000    0.000    0.000 
#    0.000    0.000    0.000    0.000    0.000    0.000 
#
# Total GULP energy -595244.151167 kJ/mol
# GULP energy per Si atom -12400.919816 kJ/mol
# Density = 1.880234 g / cm^3
# Si number density = 18.845235 Si / 1000 Ang^3
#
#
#
# Elastic Constant Matrix: (Units=GPa)
#
#
# Indices 1 2 3 4 5 6 
#
# 1 132.0556 53.8866 65.8778 0.0000 0.0000 0.0000
# 2 53.8866 71.7684 51.3384 0.0000 0.0000 0.0000
# 3 65.8778 51.3384 115.0349 0.0000 0.0000 0.0000
# 4 0.0000 0.0000 0.0000 25.0294 0.0000 0.0000
# 5 0.0000 0.0000 0.0000 0.0000 25.7476 0.0000
# 6 0.0000 0.0000 0.0000 0.0000 0.0000 28.6314
#
#
#
# Elastic Compliance Matrix: (Units=1/GPa)
#
#
# Indices 1 2 3 4 5 6 
#
# 1 0.012187 -0.006108 -0.004253 0.000000 0.000000 0.000000
# 2 -0.006108 0.023529 -0.007003 0.000000 0.000000 0.000000
# 3 -0.004253 -0.007003 0.014254 0.000000 0.000000 0.000000
# 4 0.000000 0.000000 0.000000 0.039953 0.000000 0.000000
# 5 0.000000 0.000000 0.000000 0.000000 0.038839 0.000000
# 6 0.000000 0.000000 0.000000 0.000000 0.000000 0.034927
#
#
# Mechanical properties :
#
#
# Convention : Reuss Voigt Hill
#
# Bulk Modulus (GPa) = 65.60820 73.45164 69.52992
# Shear Modulus (GPa) = 24.57044 25.73209 25.15126
#
# Velocity S-wave (km/s) = 3.61474 3.69920 3.65721
# Velocity P-wave (km/s) = 7.23267 7.57009 7.40330
#
# Compressibility (1/GPa) = 0.01524200
#
# Stress axis : x y z
#
# Youngs Moduli (GPa) = 82.05674 42.50049 70.15558
#
# Poissons Ratio (x) = 0.25958 0.29839
# Poissons Ratio (y) = 0.50119 0.49129
# Poissons Ratio (z) = 0.34900 0.29763
#
# Static dielectric constant tensor:
#      x y z
#    x 3.726770 0.000000 0.000000 
#    y 0.000000 3.240210 0.000000 
#    z 0.000000 0.000000 3.453120 
# 
# 
# High freq. dielectric constant tensor:
#      x y z
#    x 1.745590 0.000000 0.000000 
#    y 0.000000 1.711860 0.000000 
#    z 0.000000 0.000000 1.730360 
# 
# From -- ./inp_files/27406.got.cif
#   From: 2010.03.12/outbox.cif.g09.slc.cpg/sg59_14_cif.got.tgz:27406.got - 2010.04.16 16:29:54.
