data_PCOD8245731
_publ_section_title
;
Structure prediction by ZEFSAII (Michael W. Deem and Ramdas Pophale) SiO2 
 PCOD8245731
Probable space group: P M M N
;
_chemical_formula_sum "Si O2"
_cell_formula_units_Z 48
_cell_length_a 28.193070
_cell_length_b 8.434599
_cell_length_c 10.293849
_cell_angle_alpha 90.000000
_cell_angle_beta 90.000000
_cell_angle_gamma 90.000000
_cell_volume 2447.848881
_symmetry_space_group_name_H-M "P M M N"
_symmetry_group_IT_number 59
_space_group.IT_coordinate_system_code '2'
_symmetry_cell_setting 'orthorhombic'
loop_
_space_group_symop_operation_xyz
x,y,z
1/2-x,1/2-y,z
1/2+x,-y,-z
-x,1/2+y,-z
-x,-y,-z
1/2+x,1/2+y,-z
1/2-x,y,z
x,1/2-y,z
loop_
_atom_site_type_symbol
_atom_site_label
_atom_site_fract_x
_atom_site_fract_y
_atom_site_fract_z
Si Si1 0.550792 0.564715 0.738874
Si Si2 0.801780 0.061904 0.104795
Si Si3 0.397056 0.564409 0.020666
Si Si4 0.397104 0.436220 0.517019
Si Si5 0.551564 0.935343 0.224506
Si Si6 0.697186 0.063294 0.396773
O O1 0.537970 0.750000 0.728443
O O2 0.575635 0.497545 0.608801
O O3 0.504176 0.461466 0.760457
O O4 0.586367 0.538341 0.857968
O O5 0.750000 0.004092 0.053140
O O6 0.802535 0.250000 0.112790
O O7 0.843770 0.002666 0.011440
O O8 0.810022 0.996512 0.250580
O O9 0.398101 0.750000 0.055160
O O10 0.430797 0.535334 0.897872
O O11 0.400874 0.250000 0.514671
O O12 0.421889 0.502154 0.647530
O O13 0.342059 0.486313 0.510060
O O14 0.561762 0.750000 0.201786
O O15 0.750000 0.017514 0.446565
O O16 0.690244 0.250000 0.399615
#
# Coordination Sequence:
#
# PCOD8245731 Si02
#       6
#     8   8   8   8   8   8
#     4  11  24  40  55  77 113 151 185 227 275 328
#     4   8  15  30  54  83 110 137 175 223 270 316
#     4  11  21  36  59  85 112 147 183 225 277 327
#     4  10  22  38  57  82 113 147 183 227 279 327
#     4  11  22  38  59  83 108 141 189 235 274 327
#     4   9  17  32  57  86 112 141 181 227 271 322
#
# _framework density 19.609054
#
# number of rings (size 3 to 8) (size 9 to 14) (size 15 to 20)
#    0.000    2.000    1.667    3.500    0.000    2.333 
#    0.000    0.833    0.000    5.000    0.000    0.000 
#    0.000    0.000    0.000    0.000    0.000    0.000 
#
# Total GULP energy -595220.086137 kJ/mol
# GULP energy per Si atom -12400.418461 kJ/mol
# Density = 1.956442 g / cm^3
# Si number density = 19.609054 Si / 1000 Ang^3
#
#
#
# Elastic Constant Matrix: (Units=GPa)
#
#
# Indices 1 2 3 4 5 6 
#
# 1 133.4110 6.5933 35.2254 0.0000 0.0000 0.0000
# 2 6.5933 24.7717 9.8097 0.0000 0.0000 0.0000
# 3 35.2254 9.8097 89.1622 0.0000 0.0000 0.0000
# 4 0.0000 0.0000 0.0000 17.2110 0.0000 0.0000
# 5 0.0000 0.0000 0.0000 0.0000 9.7582 0.0000
# 6 0.0000 0.0000 0.0000 0.0000 0.0000 24.7733
#
#
#
# Elastic Compliance Matrix: (Units=1/GPa)
#
#
# Indices 1 2 3 4 5 6 
#
# 1 0.008390 -0.000962 -0.003209 0.000000 0.000000 0.000000
# 2 -0.000962 0.042318 -0.004276 0.000000 0.000000 0.000000
# 3 -0.003209 -0.004276 0.012954 0.000000 0.000000 0.000000
# 4 0.000000 0.000000 0.000000 0.058103 0.000000 0.000000
# 5 0.000000 0.000000 0.000000 0.000000 0.102478 0.000000
# 6 0.000000 0.000000 0.000000 0.000000 0.000000 0.040366
#
#
# Mechanical properties :
#
#
# Convention : Reuss Voigt Hill
#
# Bulk Modulus (GPa) = 21.38211 38.95577 30.16894
# Shear Modulus (GPa) = 16.82977 23.39624 20.11301
#
# Velocity S-wave (km/s) = 2.93279 3.45793 3.20613
# Velocity P-wave (km/s) = 4.73247 5.98768 5.39669
#
# Compressibility (1/GPa) = 0.04676806
#
# Stress axis : x y z
#
# Youngs Moduli (GPa) = 119.18270 23.63061 77.19813
#
# Poissons Ratio (x) = 0.02274 0.24772
# Poissons Ratio (y) = 0.11471 0.33007
# Poissons Ratio (z) = 0.38245 0.10104
#
# Static dielectric constant tensor:
#      x y z
#    x 3.943470 0.000000 0.000000 
#    y 0.000000 3.237450 0.000000 
#    z 0.000000 0.000000 3.632060 
# 
# 
# High freq. dielectric constant tensor:
#      x y z
#    x 1.780860 0.000000 0.000000 
#    y 0.000000 1.744510 0.000000 
#    z 0.000000 0.000000 1.746960 
# 
# From -- ./inp_files/12918.got.cif
#   From: 2010.03.12/outbox.cif.g09.slc.cpg/sg59_7_cif.got.tgz:12918.got - 2010.04.16 16:29:54.
