data_PCOD8245886
_publ_section_title
;
Structure prediction by ZEFSAII (Michael W. Deem and Ramdas Pophale) SiO2 
 PCOD8245886
Probable space group: P M M N
;
_chemical_formula_sum "Si O2"
_cell_formula_units_Z 48
_cell_length_a 8.715405
_cell_length_b 30.667487
_cell_length_c 9.137978
_cell_angle_alpha 90.000000
_cell_angle_beta 90.000000
_cell_angle_gamma 90.000000
_cell_volume 2442.394826
_symmetry_space_group_name_H-M "P M M N"
_symmetry_group_IT_number 59
_space_group.IT_coordinate_system_code '2'
_symmetry_cell_setting 'orthorhombic'
loop_
_space_group_symop_operation_xyz
x,y,z
1/2-x,1/2-y,z
1/2+x,-y,-z
-x,1/2+y,-z
-x,-y,-z
1/2+x,1/2+y,-z
1/2-x,y,z
x,1/2-y,z
loop_
_atom_site_type_symbol
_atom_site_label
_atom_site_fract_x
_atom_site_fract_y
_atom_site_fract_z
Si Si1 0.568616 0.459404 0.416253
Si Si2 0.070502 0.875890 0.099801
Si Si3 0.068083 0.297649 0.406236
Si Si4 0.572233 0.699466 0.922977
Si Si5 0.430641 0.959521 0.915331
Si Si6 0.431118 0.120505 0.585794
O O1 0.500000 0.500000 0.500000
O O2 0.750000 0.462828 0.420377
O O3 0.506486 0.459309 0.250203
O O4 0.517055 0.415636 0.493613
O O5 0.250000 0.877760 0.136403
O O6 0.974451 0.883019 0.246010
O O7 0.019739 0.914234 0.990008
O O8 0.030129 0.829329 0.030731
O O9 0.250000 0.295158 0.403994
O O10 0.002155 0.250000 0.451429
O O11 0.013983 0.309656 0.242181
O O12 0.010509 0.333114 0.522560
O O13 0.750000 0.686431 0.941910
O O14 0.547843 0.750000 0.964210
O O15 0.250000 0.964992 0.917516
O O16 0.500000 0.000000 0.000000
O O17 0.250000 0.114486 0.566879
#
# Coordination Sequence:
#
# PCOD8245886 Si02
#       6
#     8   8   8   8   8   8
#     4  11  23  40  60  84 113 145 184 230 281 335
#     4  11  23  38  55  80 115 151 186 227 276 329
#     4   8  16  33  57  83 110 142 184 232 278 326
#     4   9  18  35  59  84 109 142 186 232 277 328
#     4  10  23  40  59  82 110 145 184 227 275 331
#     4  11  22  36  57  85 114 148 189 232 280 332
#
# _framework density 19.652843000000001
#
# number of rings (size 3 to 8) (size 9 to 14) (size 15 to 20)
#    0.000    2.000    0.000    4.500    0.000    6.333 
#    0.000    2.500    0.000    3.500    0.000    0.000 
#    0.000    0.000    0.000    0.000    0.000    0.000 
#
# Total GULP energy -595303.588627 kJ/mol
# GULP energy per Si atom -12402.158096 kJ/mol
# Density = 1.960811 g / cm^3
# Si number density = 19.652843 Si / 1000 Ang^3
#
#
#
# Elastic Constant Matrix: (Units=GPa)
#
#
# Indices 1 2 3 4 5 6 
#
# 1 32.5438 27.4969 23.9338 0.0000 0.0000 0.0000
# 2 27.4969 131.5073 75.3596 0.0000 0.0000 0.0000
# 3 23.9338 75.3596 152.3243 0.0000 0.0000 0.0000
# 4 0.0000 0.0000 0.0000 41.2107 0.0000 0.0000
# 5 0.0000 0.0000 0.0000 0.0000 29.9562 0.0000
# 6 0.0000 0.0000 0.0000 0.0000 0.0000 34.4937
#
#
#
# Elastic Compliance Matrix: (Units=1/GPa)
#
#
# Indices 1 2 3 4 5 6 
#
# 1 0.038194 -0.006346 -0.002862 0.000000 0.000000 0.000000
# 2 -0.006346 0.011667 -0.004775 0.000000 0.000000 0.000000
# 3 -0.002862 -0.004775 0.009377 0.000000 0.000000 0.000000
# 4 0.000000 0.000000 0.000000 0.024266 0.000000 0.000000
# 5 0.000000 0.000000 0.000000 0.000000 0.033382 0.000000
# 6 0.000000 0.000000 0.000000 0.000000 0.000000 0.028991
#
#
# Mechanical properties :
#
#
# Convention : Reuss Voigt Hill
#
# Bulk Modulus (GPa) = 31.97655 63.32844 47.65250
# Shear Modulus (GPa) = 27.13451 33.77114 30.45282
#
# Velocity S-wave (km/s) = 3.71980 4.14984 3.94069
# Velocity P-wave (km/s) = 5.89535 7.43337 6.70859
#
# Compressibility (1/GPa) = 0.03127291
#
# Stress axis : x y z
#
# Youngs Moduli (GPa) = 26.18187 85.70869 106.64460
#
# Poissons Ratio (x) = 0.54393 0.30517
# Poissons Ratio (y) = 0.16616 0.50924
# Poissons Ratio (z) = 0.07492 0.40927
#
# Static dielectric constant tensor:
#      x y z
#    x 3.394100 0.000000 0.000000 
#    y 0.000000 3.746480 0.000000 
#    z 0.000000 0.000000 3.978950 
# 
# 
# High freq. dielectric constant tensor:
#      x y z
#    x 1.749320 0.000000 0.000000 
#    y 0.000000 1.782520 0.000000 
#    z 0.000000 0.000000 1.775480 
# 
# From -- ./inp_files/6221.got.cif
#   From: 2010.03.12/outbox.cif.g09.slc.cpg/sg59_4_cif.got.tgz:6221.got - 2010.04.16 16:29:54.
