data_PCOD8245221
_publ_section_title
;
Structure prediction by ZEFSAII (Michael W. Deem and Ramdas Pophale) SiO2 
 PCOD8245221
Probable space group: P M M N
;
_chemical_formula_sum "Si O2"
_cell_formula_units_Z 56
_cell_length_a 8.857451
_cell_length_b 15.296427
_cell_length_c 21.566462
_cell_angle_alpha 90.000000
_cell_angle_beta 90.000000
_cell_angle_gamma 90.000000
_cell_volume 2921.982842
_symmetry_space_group_name_H-M "P M M N"
_symmetry_group_IT_number 59
_space_group.IT_coordinate_system_code '2'
_symmetry_cell_setting 'orthorhombic'
loop_
_space_group_symop_operation_xyz
x,y,z
1/2-x,1/2-y,z
1/2+x,-y,-z
-x,1/2+y,-z
-x,-y,-z
1/2+x,1/2+y,-z
1/2-x,y,z
x,1/2-y,z
loop_
_atom_site_type_symbol
_atom_site_label
_atom_site_fract_x
_atom_site_fract_y
_atom_site_fract_z
Si Si1 0.922955 0.848772 0.374752
Si Si2 0.072112 0.848725 0.065415
Si Si3 0.922703 0.652459 0.619923
Si Si4 0.071663 0.348658 0.063900
Si Si5 0.070769 0.001268 0.153502
Si Si6 0.071349 0.994703 0.292927
Si Si7 0.071854 0.594718 0.498226
O O1 0.750000 0.876345 0.386242
O O2 0.934910 0.750000 0.349433
O O3 0.994978 0.911431 0.323898
O O4 0.011530 0.853370 0.439191
O O5 0.250000 0.856467 0.056720
O O6 0.023805 0.750000 0.083379
O O7 0.014100 0.913280 0.119329
O O8 0.998027 0.878266 0.001174
O O9 0.750000 0.633599 0.599962
O O10 0.938835 0.750000 0.648092
O O11 0.975367 0.583156 0.671425
O O12 0.027947 0.646582 0.559935
O O13 0.250000 0.355999 0.057241
O O14 0.021681 0.250000 0.081174
O O15 0.010272 0.413303 0.117211
O O16 0.250000 0.003682 0.155614
O O17 0.007139 0.002540 0.223262
O O18 0.250000 0.980397 0.293988
O O19 0.250000 0.586226 0.493027
O O20 0.000000 0.500000 0.500000
#
# Coordination Sequence:
#
# PCOD8245221 Si02
#       7
#     8   8   8   8   8   8   8
#     4  11  24  41  60  83 113 147 183 228 280 329
#     4   9  17  30  49  73 102 135 173 220 269 314
#     4  10  21  37  57  83 114 146 182 227 278 329
#     4   9  17  30  50  76 105 135 171 217 265 316
#     4   9  18  32  51  76 104 137 179 219 262 315
#     4  10  21  37  57  80 108 147 189 228 270 327
#     4  12  23  37  61  88 114 144 181 228 280 330
#
# _framework density 19.165068000000002
#
# number of rings (size 3 to 8) (size 9 to 14) (size 15 to 20)
#    0.000    2.000    1.429    2.571    0.000    4.286 
#    0.000    5.714    0.000    1.714    0.000    2.000 
#    0.000    0.000    0.000    0.000    0.000    0.000 
#
# Total GULP energy -694492.876755 kJ/mol
# GULP energy per Si atom -12401.658513 kJ/mol
# Density = 1.912145 g / cm^3
# Si number density = 19.165068 Si / 1000 Ang^3
#
#
#
# Elastic Constant Matrix: (Units=GPa)
#
#
# Indices 1 2 3 4 5 6 
#
# 1 58.3463 32.2132 39.7150 0.0000 0.0000 0.0000
# 2 32.2132 139.6388 86.1443 0.0000 0.0000 0.0000
# 3 39.7150 86.1443 173.3546 0.0000 0.0000 0.0000
# 4 0.0000 0.0000 0.0000 13.9913 0.0000 0.0000
# 5 0.0000 0.0000 0.0000 0.0000 25.8942 0.0000
# 6 0.0000 0.0000 0.0000 0.0000 0.0000 23.0717
#
#
#
# Elastic Compliance Matrix: (Units=1/GPa)
#
#
# Indices 1 2 3 4 5 6 
#
# 1 0.020991 -0.002705 -0.003465 0.000000 0.000000 0.000000
# 2 -0.002705 0.010676 -0.004685 0.000000 0.000000 0.000000
# 3 -0.003465 -0.004685 0.008891 0.000000 0.000000 0.000000
# 4 0.000000 0.000000 0.000000 0.071473 0.000000 0.000000
# 5 0.000000 0.000000 0.000000 0.000000 0.038619 0.000000
# 6 0.000000 0.000000 0.000000 0.000000 0.000000 0.043343
#
#
# Mechanical properties :
#
#
# Convention : Reuss Voigt Hill
#
# Bulk Modulus (GPa) = 53.05875 76.38718 64.72296
# Shear Modulus (GPa) = 22.52411 26.80926 24.66668
#
# Velocity S-wave (km/s) = 3.43194 3.74419 3.59146
# Velocity P-wave (km/s) = 6.59162 7.65741 7.14442
#
# Compressibility (1/GPa) = 0.01884703
#
# Stress axis : x y z
#
# Youngs Moduli (GPa) = 47.63985 93.66998 112.47855
#
# Poissons Ratio (x) = 0.25337 0.38972
# Poissons Ratio (y) = 0.12886 0.52701
# Poissons Ratio (z) = 0.16506 0.43888
#
# Static dielectric constant tensor:
#      x y z
#    x 3.321340 0.000000 0.000000 
#    y 0.000000 3.729660 0.000000 
#    z 0.000000 0.000000 3.692440 
# 
# 
# High freq. dielectric constant tensor:
#      x y z
#    x 1.725440 0.000000 0.000000 
#    y 0.000000 1.762100 0.000000 
#    z 0.000000 0.000000 1.739330 
# 
# From -- ./inp_files/29050.got.cif
#   From: 2010.03.12/outbox.cif.g09.slc.cpg/sg59_15_cif.got.tgz:29050.got - 2010.04.16 16:29:54.
