data_PCOD8245571
_publ_section_title
;
Structure prediction by ZEFSAII (Michael W. Deem and Ramdas Pophale) SiO2 
 PCOD8245571
Probable space group: P M M N
;
_chemical_formula_sum "Si O2"
_cell_formula_units_Z 40
_cell_length_a 14.849809
_cell_length_b 8.897491
_cell_length_c 15.026220
_cell_angle_alpha 90.000000
_cell_angle_beta 90.000000
_cell_angle_gamma 90.000000
_cell_volume 1985.354974
_symmetry_space_group_name_H-M "P M M N"
_symmetry_group_IT_number 59
_space_group.IT_coordinate_system_code '2'
_symmetry_cell_setting 'orthorhombic'
loop_
_space_group_symop_operation_xyz
x,y,z
1/2-x,1/2-y,z
1/2+x,-y,-z
-x,1/2+y,-z
-x,-y,-z
1/2+x,1/2+y,-z
1/2-x,y,z
x,1/2-y,z
loop_
_atom_site_type_symbol
_atom_site_label
_atom_site_fract_x
_atom_site_fract_y
_atom_site_fract_z
Si Si1 0.571352 0.925781 0.064492
Si Si2 0.250000 0.075372 0.649067
Si Si3 0.750000 0.427342 0.999644
Si Si4 0.250000 0.926921 0.460887
Si Si5 0.250000 0.078656 0.186160
Si Si6 0.109956 0.075903 0.336703
Si Si7 0.439763 0.077407 0.731199
O O1 0.579339 0.750000 0.043026
O O2 0.541785 0.955300 0.165457
O O3 0.500000 0.000000 0.000000
O O4 0.665728 0.003806 0.049380
O O5 0.250000 0.250000 0.620916
O O6 0.337249 0.035050 0.707870
O O7 0.250000 0.971680 0.563210
O O8 0.750000 0.250000 0.010390
O O9 0.750000 0.465311 0.895443
O O10 0.250000 0.750000 0.450615
O O11 0.159461 0.989761 0.416081
O O12 0.250000 0.250000 0.151093
O O13 0.161378 0.046048 0.244172
O O14 0.111368 0.250000 0.362200
O O15 0.007504 0.021206 0.327982
O O16 0.459378 0.250000 0.708437
#
# Coordination Sequence:
#
# PCOD8245571 Si02
#       7
#     8   4   4   4   4   8   8
#     4  11  23  40  61  87 120 158 201 247 296 349
#     4  10  22  42  63  84 116 155 196 241 288 341
#     4  12  24  36  55  84 118 159 202 245 296 351
#     4  11  23  40  63  91 119 149 189 236 287 350
#     4   9  19  36  57  83 115 153 195 242 297 348
#     4  10  21  38  62  89 118 151 189 239 295 349
#     4  10  22  40  62  86 115 156 199 241 292 347
#
# _framework density 20.14753
#
# number of rings (size 3 to 8) (size 9 to 14) (size 15 to 20)
#    0.000    1.600    0.000    5.400    0.000   10.400 
#    0.000    1.000    0.000    0.000    0.000    0.000 
#    0.000    0.000    0.000    0.000    0.000    0.000 
#
# Total GULP energy -496219.118102 kJ/mol
# GULP energy per Si atom -12405.477953 kJ/mol
# Density = 2.010167 g / cm^3
# Si number density = 20.147530 Si / 1000 Ang^3
#
#
#
# Elastic Constant Matrix: (Units=GPa)
#
#
# Indices 1 2 3 4 5 6 
#
# 1 146.4798 60.9006 33.8457 0.0000 0.0000 0.0000
# 2 60.9006 138.1246 56.7946 0.0000 0.0000 0.0000
# 3 33.8457 56.7946 84.2161 0.0000 0.0000 0.0000
# 4 0.0000 0.0000 0.0000 34.4147 0.0000 0.0000
# 5 0.0000 0.0000 0.0000 0.0000 11.9812 0.0000
# 6 0.0000 0.0000 0.0000 0.0000 0.0000 40.0365
#
#
#
# Elastic Compliance Matrix: (Units=1/GPa)
#
#
# Indices 1 2 3 4 5 6 
#
# 1 0.008449 -0.003223 -0.001222 0.000000 0.000000 0.000000
# 2 -0.003223 0.011247 -0.006290 0.000000 0.000000 0.000000
# 3 -0.001222 -0.006290 0.016607 0.000000 0.000000 0.000000
# 4 0.000000 0.000000 0.000000 0.029057 0.000000 0.000000
# 5 0.000000 0.000000 0.000000 0.000000 0.083464 0.000000
# 6 0.000000 0.000000 0.000000 0.000000 0.000000 0.024977
#
#
# Mechanical properties :
#
#
# Convention : Reuss Voigt Hill
#
# Bulk Modulus (GPa) = 67.41300 74.65579 71.03440
# Shear Modulus (GPa) = 24.97304 31.77179 28.37242
#
# Velocity S-wave (km/s) = 3.52449 3.97540 3.75671
# Velocity P-wave (km/s) = 7.07778 7.62933 7.35873
#
# Compressibility (1/GPa) = 0.01483393
#
# Stress axis : x y z
#
# Youngs Moduli (GPa) = 118.35446 88.91257 60.21517
#
# Poissons Ratio (x) = 0.28654 0.07360
# Poissons Ratio (y) = 0.38143 0.37873
# Poissons Ratio (z) = 0.14466 0.55923
#
# Static dielectric constant tensor:
#      x y z
#    x 3.798120 0.000000 0.000000 
#    y 0.000000 3.675620 0.000000 
#    z 0.000000 0.000000 3.597800 
# 
# 
# High freq. dielectric constant tensor:
#      x y z
#    x 1.798930 0.000000 0.000000 
#    y 0.000000 1.790730 0.000000 
#    z 0.000000 0.000000 1.786480 
# 
# From -- ./inp_files/20029.got.cif
#   From: 2010.03.12/outbox.cif.g09.slc.cpg/sg59_11_cif.got.tgz:20029.got - 2010.04.16 16:29:54.
