data_PCOD8245141
_publ_section_title
;
Structure prediction by ZEFSAII (Michael W. Deem and Ramdas Pophale) SiO2 
 PCOD8245141
Probable space group: P M M N
;
_chemical_formula_sum "Si O2"
_cell_formula_units_Z 64
_cell_length_a 14.019298
_cell_length_b 9.157698
_cell_length_c 26.567467
_cell_angle_alpha 90.000000
_cell_angle_beta 90.000000
_cell_angle_gamma 90.000000
_cell_volume 3410.850894
_symmetry_space_group_name_H-M "P M M N"
_symmetry_group_IT_number 59
_space_group.IT_coordinate_system_code '2'
_symmetry_cell_setting 'orthorhombic'
loop_
_space_group_symop_operation_xyz
x,y,z
1/2-x,1/2-y,z
1/2+x,-y,-z
-x,1/2+y,-z
-x,-y,-z
1/2+x,1/2+y,-z
1/2-x,y,z
x,1/2-y,z
loop_
_atom_site_type_symbol
_atom_site_label
_atom_site_fract_x
_atom_site_fract_y
_atom_site_fract_z
Si Si1 0.139607 0.079481 0.141456
Si Si2 0.025116 0.078539 0.426477
Si Si3 0.441298 0.575911 0.238321
Si Si4 0.851405 0.921462 0.228956
Si Si5 0.859092 0.921923 0.475308
Si Si6 0.358382 0.082491 0.330018
Si Si7 0.003660 0.080741 0.052482
Si Si8 0.356819 0.412142 0.886891
O O1 0.250000 0.035420 0.140108
O O2 0.125546 0.250000 0.154125
O O3 0.095810 0.041248 0.086708
O O4 0.086684 0.986126 0.184015
O O5 0.006005 0.250000 0.427341
O O6 0.098837 0.033707 0.470413
O O7 0.072074 0.027660 0.374220
O O8 0.923564 0.998122 0.432526
O O9 0.433629 0.750000 0.235689
O O10 0.549496 0.523366 0.253679
O O11 0.371189 0.515343 0.280697
O O12 0.750000 0.988456 0.250487
O O13 0.844917 0.750000 0.236315
O O14 0.858364 0.961004 0.170659
O O15 0.750000 0.977752 0.471469
O O16 0.863888 0.750000 0.466564
O O17 0.250000 0.065585 0.349055
O O18 0.380200 0.250000 0.315912
O O19 0.000876 0.250000 0.040234
O O20 0.910489 0.035935 0.082811
O O21 0.000000 0.000000 0.000000
O O22 0.250000 0.407376 0.907931
O O23 0.403078 0.250000 0.893297
#
# Coordination Sequence:
#
# PCOD8245141 Si02
#       8
#     8   8   8   8   8   8   8   8
#     4  10  22  40  58  76 104 143 180 213 258 318
#     4   9  18  33  53  77 106 144 189 231 270 320
#     4  11  21  34  57  85 110 136 176 225 267 311
#     4   8  15  30  53  78 102 130 163 201 252 311
#     4   9  17  31  53  80 109 142 183 230 281 332
#     4  10  21  37  55  75 106 148 186 220 266 323
#     4  11  23  37  55  79 108 139 175 217 262 313
#     4   9  17  33  57  79 101 132 167 204 254 314
#
# _framework density 18.763646999999999
#
# number of rings (size 3 to 8) (size 9 to 14) (size 15 to 20)
#    0.000    2.375    1.250    2.250    0.000    5.500 
#    0.000    1.875    0.000    6.000    0.000    0.000 
#    0.000    0.000    0.000    0.000    0.000    0.000 
#
# Total GULP energy -793272.509734 kJ/mol
# GULP energy per Si atom -12394.882965 kJ/mol
# Density = 1.872094 g / cm^3
# Si number density = 18.763647 Si / 1000 Ang^3
#
#
#
# Elastic Constant Matrix: (Units=GPa)
#
#
# Indices 1 2 3 4 5 6 
#
# 1 126.7210 37.9499 41.0396 0.0000 0.0000 0.0000
# 2 37.9499 55.4994 38.5444 0.0000 0.0000 0.0000
# 3 41.0396 38.5444 72.4146 0.0000 0.0000 0.0000
# 4 0.0000 0.0000 0.0000 27.3397 0.0000 0.0000
# 5 0.0000 0.0000 0.0000 0.0000 32.4285 0.0000
# 6 0.0000 0.0000 0.0000 0.0000 0.0000 29.3447
#
#
#
# Elastic Compliance Matrix: (Units=1/GPa)
#
#
# Indices 1 2 3 4 5 6 
#
# 1 0.010411 -0.004793 -0.003349 0.000000 0.000000 0.000000
# 2 -0.004793 0.030792 -0.013673 0.000000 0.000000 0.000000
# 3 -0.003349 -0.013673 0.022985 0.000000 0.000000 0.000000
# 4 0.000000 0.000000 0.000000 0.036577 0.000000 0.000000
# 5 0.000000 0.000000 0.000000 0.000000 0.030837 0.000000
# 6 0.000000 0.000000 0.000000 0.000000 0.000000 0.034078
#
#
# Mechanical properties :
#
#
# Convention : Reuss Voigt Hill
#
# Bulk Modulus (GPa) = 48.64432 54.41142 51.52787
# Shear Modulus (GPa) = 23.13058 26.96266 25.04662
#
# Velocity S-wave (km/s) = 3.51484 3.79484 3.65752
# Velocity P-wave (km/s) = 6.51561 6.94711 6.73482
#
# Compressibility (1/GPa) = 0.02055738
#
# Stress axis : x y z
#
# Youngs Moduli (GPa) = 96.04782 32.47611 43.50595
#
# Poissons Ratio (x) = 0.15567 0.14571
# Poissons Ratio (y) = 0.46038 0.59487
# Poissons Ratio (z) = 0.32168 0.44405
#
# Static dielectric constant tensor:
#      x y z
#    x 3.855560 0.000000 0.000000 
#    y 0.000000 3.275020 0.000000 
#    z 0.000000 0.000000 3.130160 
# 
# 
# High freq. dielectric constant tensor:
#      x y z
#    x 1.744290 0.000000 0.000000 
#    y 0.000000 1.711660 0.000000 
#    z 0.000000 0.000000 1.711210 
# 
# From -- ./inp_files/32224.got.cif
#   From: 2010.03.12/outbox.cif.g09.slc.cpg/sg59_17_cif.got.tgz:32224.got - 2010.04.16 16:29:54.
