data_PCOD8245084
_publ_section_title
;
Structure prediction by ZEFSAII (Michael W. Deem and Ramdas Pophale) SiO2 
 PCOD8245084
Probable space group: P M M N
;
_chemical_formula_sum "Si O2"
_cell_formula_units_Z 48
_cell_length_a 14.312141
_cell_length_b 14.236260
_cell_length_c 12.108454
_cell_angle_alpha 90.000000
_cell_angle_beta 90.000000
_cell_angle_gamma 90.000000
_cell_volume 2467.113975
_symmetry_space_group_name_H-M "P M M N"
_symmetry_group_IT_number 59
_space_group.IT_coordinate_system_code '2'
_symmetry_cell_setting 'orthorhombic'
loop_
_space_group_symop_operation_xyz
x,y,z
1/2-x,1/2-y,z
1/2+x,-y,-z
-x,1/2+y,-z
-x,-y,-z
1/2+x,1/2+y,-z
1/2-x,y,z
x,1/2-y,z
loop_
_atom_site_type_symbol
_atom_site_label
_atom_site_fract_x
_atom_site_fract_y
_atom_site_fract_z
Si Si1 0.142509 0.359489 0.157659
Si Si2 0.528382 0.028201 0.250975
Si Si3 0.051883 0.642852 0.353916
Si Si4 0.857738 0.510525 0.034861
Si Si5 0.858548 0.350769 0.875168
Si Si6 0.646618 0.360371 0.417567
O O1 0.250000 0.377471 0.197465
O O2 0.115845 0.250000 0.167919
O O3 0.072631 0.422872 0.231340
O O4 0.134356 0.389991 0.028872
O O5 0.576714 0.992058 0.140056
O O6 0.591651 0.103759 0.311574
O O7 0.526152 0.935300 0.328327
O O8 0.011714 0.750000 0.360459
O O9 0.125670 0.632804 0.254477
O O10 0.098524 0.611938 0.467824
O O11 0.750000 0.490387 0.068287
O O12 0.900950 0.432487 0.950736
O O13 0.750000 0.350382 0.896543
O O14 0.901973 0.250000 0.911231
O O15 0.750000 0.404666 0.417063
O O16 0.652363 0.250000 0.405987
#
# Coordination Sequence:
#
# PCOD8245084 Si02
#       6
#     8   8   8   8   8   8
#     4  10  22  38  55  79 115 157 194 228 277 343
#     4  12  22  37  59  89 114 151 190 243 284 344
#     4  10  21  36  57  83 113 149 192 238 286 339
#     4  10  21  37  55  82 116 149 188 232 286 342
#     4   9  17  31  53  81 110 142 185 235 283 332
#     4  10  22  40  61  86 115 148 188 239 298 348
#
# _framework density 19.455929999999999
#
# number of rings (size 3 to 8) (size 9 to 14) (size 15 to 20)
#    0.000    1.833    1.667    2.500    0.000    4.667 
#    0.000    1.667    0.000    1.500    0.000    2.333 
#    0.000    0.000    0.000    0.000    0.000    0.000 
#
# Total GULP energy -594898.976709 kJ/mol
# GULP energy per Si atom -12393.728681 kJ/mol
# Density = 1.941165 g / cm^3
# Si number density = 19.455930 Si / 1000 Ang^3
#
#
#
# Elastic Constant Matrix: (Units=GPa)
#
#
# Indices 1 2 3 4 5 6 
#
# 1 59.1086 19.0862 24.8080 0.0000 0.0000 0.0000
# 2 19.0862 73.1424 19.9973 0.0000 0.0000 0.0000
# 3 24.8080 19.9973 75.5687 0.0000 0.0000 0.0000
# 4 0.0000 0.0000 0.0000 32.5620 0.0000 0.0000
# 5 0.0000 0.0000 0.0000 0.0000 32.0648 0.0000
# 6 0.0000 0.0000 0.0000 0.0000 0.0000 12.4480
#
#
#
# Elastic Compliance Matrix: (Units=1/GPa)
#
#
# Indices 1 2 3 4 5 6 
#
# 1 0.020553 -0.003793 -0.005744 0.000000 0.000000 0.000000
# 2 -0.003793 0.015438 -0.002840 0.000000 0.000000 0.000000
# 3 -0.005744 -0.002840 0.015870 0.000000 0.000000 0.000000
# 4 0.000000 0.000000 0.000000 0.030711 0.000000 0.000000
# 5 0.000000 0.000000 0.000000 0.000000 0.031187 0.000000
# 6 0.000000 0.000000 0.000000 0.000000 0.000000 0.080334
#
#
# Mechanical properties :
#
#
# Convention : Reuss Voigt Hill
#
# Bulk Modulus (GPa) = 36.88924 37.28919 37.08921
# Shear Modulus (GPa) = 21.94109 25.01017 23.47563
#
# Velocity S-wave (km/s) = 3.36182 3.58925 3.47739
# Velocity P-wave (km/s) = 5.83701 6.03196 5.93528
#
# Compressibility (1/GPa) = 0.02710818
#
# Stress axis : x y z
#
# Youngs Moduli (GPa) = 48.65376 64.77426 63.01154
#
# Poissons Ratio (x) = 0.24569 0.36192
# Poissons Ratio (y) = 0.18454 0.17896
# Poissons Ratio (z) = 0.27945 0.18397
#
# Static dielectric constant tensor:
#      x y z
#    x 3.525510 0.000000 0.000000 
#    y 0.000000 3.967460 0.000000 
#    z 0.000000 0.000000 3.468580 
# 
# 
# High freq. dielectric constant tensor:
#      x y z
#    x 1.747750 0.000000 0.000000 
#    y 0.000000 1.767850 0.000000 
#    z 0.000000 0.000000 1.748690 
# 
# From -- ./inp_files/16829.got.cif
#   From: 2010.03.12/outbox.cif.g09.slc.cpg/sg59_9_cif.got.tgz:16829.got - 2010.04.16 16:29:54.
