data_PCOD8245480
_publ_section_title
;
Structure prediction by ZEFSAII (Michael W. Deem and Ramdas Pophale) SiO2 
 PCOD8245480
Probable space group: P M M N
;
_chemical_formula_sum "Si O2"
_cell_formula_units_Z 56
_cell_length_a 14.763951
_cell_length_b 8.903237
_cell_length_c 21.385769
_cell_angle_alpha 90.000000
_cell_angle_beta 90.000000
_cell_angle_gamma 90.000000
_cell_volume 2811.094211
_symmetry_space_group_name_H-M "P M M N"
_symmetry_group_IT_number 59
_space_group.IT_coordinate_system_code '2'
_symmetry_cell_setting 'orthorhombic'
loop_
_space_group_symop_operation_xyz
x,y,z
1/2-x,1/2-y,z
1/2+x,-y,-z
-x,1/2+y,-z
-x,-y,-z
1/2+x,1/2+y,-z
1/2-x,y,z
x,1/2-y,z
loop_
_atom_site_type_symbol
_atom_site_label
_atom_site_fract_x
_atom_site_fract_y
_atom_site_fract_z
Si Si1 0.649833 0.928488 0.052148
Si Si2 0.644903 0.926047 0.383172
Si Si3 0.142801 0.415558 0.478097
Si Si4 0.489141 0.427727 0.844300
Si Si5 0.144778 0.076816 0.087851
Si Si6 0.512866 0.072814 0.285943
Si Si7 0.144954 0.924597 0.354729
O O1 0.750000 0.989714 0.069378
O O2 0.651843 0.750000 0.052353
O O3 0.578694 0.990456 0.102414
O O4 0.622971 0.981671 0.982340
O O5 0.750000 0.967965 0.374157
O O6 0.628993 0.750000 0.370252
O O7 0.609829 0.967578 0.453200
O O8 0.587130 0.024954 0.336204
O O9 0.250000 0.404670 0.481806
O O10 0.103871 0.250000 0.461527
O O11 0.112321 0.532028 0.424763
O O12 0.483806 0.250000 0.837143
O O13 0.590278 0.476351 0.862843
O O14 0.458648 0.501800 0.779789
O O15 0.250000 0.055486 0.103157
O O16 0.116129 0.250000 0.095741
O O17 0.510373 0.250000 0.279785
O O18 0.412922 0.015413 0.304323
O O19 0.250000 0.966229 0.344474
O O20 0.126238 0.750000 0.345168
#
# Coordination Sequence:
#
# PCOD8245480 Si02
#       7
#     8   8   8   8   8   8   8
#     4   8  16  33  58  86 112 141 178 218 266 325
#     4   9  19  38  62  85 112 146 184 229 278 329
#     4   8  15  31  57  86 112 140 176 221 278 337
#     4  11  22  36  56  81 111 146 185 229 273 321
#     4   9  18  35  59  85 113 144 178 218 268 326
#     4  12  26  40  55  78 111 152 194 232 275 331
#     4  10  21  38  60  84 110 141 182 234 285 334
#
# _framework density 19.921068000000002
#
# number of rings (size 3 to 8) (size 9 to 14) (size 15 to 20)
#    0.000    2.429    0.000    4.286    0.000    3.714 
#    0.000    3.571    0.000    3.000    0.000    0.000 
#    0.000    0.000    0.000    0.000    0.000    0.000 
#
# Total GULP energy -694394.780856 kJ/mol
# GULP energy per Si atom -12399.906801 kJ/mol
# Density = 1.987573 g / cm^3
# Si number density = 19.921068 Si / 1000 Ang^3
#
#
#
# Elastic Constant Matrix: (Units=GPa)
#
#
# Indices 1 2 3 4 5 6 
#
# 1 55.0798 20.8083 12.4939 0.0000 0.0000 0.0000
# 2 20.8083 78.5802 22.1094 0.0000 0.0000 0.0000
# 3 12.4939 22.1094 69.1627 0.0000 0.0000 0.0000
# 4 0.0000 0.0000 0.0000 34.5767 0.0000 0.0000
# 5 0.0000 0.0000 0.0000 0.0000 25.5487 0.0000
# 6 0.0000 0.0000 0.0000 0.0000 0.0000 28.4799
#
#
#
# Elastic Compliance Matrix: (Units=1/GPa)
#
#
# Indices 1 2 3 4 5 6 
#
# 1 0.020463 -0.004811 -0.002158 0.000000 0.000000 0.000000
# 2 -0.004811 0.015115 -0.003963 0.000000 0.000000 0.000000
# 3 -0.002158 -0.003963 0.016115 0.000000 0.000000 0.000000
# 4 0.000000 0.000000 0.000000 0.028921 0.000000 0.000000
# 5 0.000000 0.000000 0.000000 0.000000 0.039141 0.000000
# 6 0.000000 0.000000 0.000000 0.000000 0.000000 0.035112
#
#
# Mechanical properties :
#
#
# Convention : Reuss Voigt Hill
#
# Bulk Modulus (GPa) = 33.52547 34.84955 34.18751
# Shear Modulus (GPa) = 26.78452 27.54847 27.16649
#
# Velocity S-wave (km/s) = 3.67076 3.72275 3.69685
# Velocity P-wave (km/s) = 5.90184 6.00085 5.95155
#
# Compressibility (1/GPa) = 0.02982807
#
# Stress axis : x y z
#
# Youngs Moduli (GPa) = 48.86935 66.16016 62.05267
#
# Poissons Ratio (x) = 0.31832 0.13394
# Poissons Ratio (y) = 0.23512 0.24589
# Poissons Ratio (z) = 0.10548 0.26217
#
# Static dielectric constant tensor:
#      x y z
#    x 3.630760 0.000000 0.000000 
#    y 0.000000 3.417990 0.000000 
#    z 0.000000 0.000000 3.765390 
# 
# 
# High freq. dielectric constant tensor:
#      x y z
#    x 1.775840 0.000000 0.000000 
#    y 0.000000 1.759900 0.000000 
#    z 0.000000 0.000000 1.780230 
# 
# From -- ./inp_files/30308.got.cif
#   From: 2010.03.12/outbox.cif.g09.slc.cpg/sg59_16_cif.got.tgz:30308.got - 2010.04.16 16:29:54.
