data_PCOD8245878
_publ_section_title
;
Structure prediction by ZEFSAII (Michael W. Deem and Ramdas Pophale) SiO2 
 PCOD8245878
Probable space group: P M M N
;
_chemical_formula_sum "Si O2"
_cell_formula_units_Z 56
_cell_length_a 14.595973
_cell_length_b 21.151238
_cell_length_c 9.094152
_cell_angle_alpha 90.000000
_cell_angle_beta 90.000000
_cell_angle_gamma 90.000000
_cell_volume 2807.572967
_symmetry_space_group_name_H-M "P M M N"
_symmetry_group_IT_number 59
_space_group.IT_coordinate_system_code '2'
_symmetry_cell_setting 'orthorhombic'
loop_
_space_group_symop_operation_xyz
x,y,z
1/2-x,1/2-y,z
1/2+x,-y,-z
-x,1/2+y,-z
-x,-y,-z
1/2+x,1/2+y,-z
1/2-x,y,z
x,1/2-y,z
loop_
_atom_site_type_symbol
_atom_site_label
_atom_site_fract_x
_atom_site_fract_y
_atom_site_fract_z
Si Si1 0.000264 0.931609 0.929090
Si Si2 0.583700 0.539334 0.438081
Si Si3 0.643449 0.615006 0.715236
Si Si4 0.355624 0.822539 0.430429
Si Si5 0.640983 0.750000 0.148446
Si Si6 0.013912 0.139178 0.781048
Si Si7 0.357709 0.250000 0.193147
Si Si8 0.850972 0.417605 0.318038
O O1 0.906276 0.927157 0.837639
O O2 0.084973 0.919535 0.822382
O O3 0.007932 0.877298 0.050849
O O4 0.000000 0.000000 0.000000
O O5 0.500000 0.500000 0.500000
O O6 0.625377 0.588490 0.553463
O O7 0.549718 0.576149 0.295654
O O8 0.657979 0.487196 0.390603
O O9 0.750000 0.612049 0.754335
O O10 0.604969 0.687090 0.725218
O O11 0.250000 0.838874 0.387993
O O12 0.364124 0.750000 0.481267
O O13 0.420555 0.834648 0.290763
O O14 0.389989 0.867075 0.563754
O O15 0.750000 0.750000 0.175346
O O16 0.596372 0.810603 0.226384
O O17 0.613933 0.750000 0.977192
O O18 0.250000 0.250000 0.207171
O O19 0.750000 0.396282 0.267495
#
# Coordination Sequence:
#
# PCOD8245878 Si02
#       8
#     8   8   8   8   4   8   4   8
#     4  12  24  42  62  92 132 165 210 259 313 385
#     4  12  22  42  64  94 128 164 212 263 315 383
#     4  11  23  41  66  92 123 168 211 258 315 377
#     4  10  22  43  68  95 126 166 216 268 321 374
#     4  11  24  41  62  96 135 171 211 258 322 390
#     4  12  23  41  68  94 131 171 207 262 326 375
#     4   9  20  41  63  90 125 163 210 254 307 378
#     4  11  24  44  67  92 126 168 213 268 321 376
#
# _framework density 19.946054
#
# number of rings (size 3 to 8) (size 9 to 14) (size 15 to 20)
#    0.000    0.857    6.429    0.429    0.000    2.857 
#    5.143    0.714    0.000    0.000    0.000    0.000 
#    0.000    0.000    0.000    0.000    0.000    0.000 
#
# Total GULP energy -694511.975649 kJ/mol
# GULP energy per Si atom -12401.999565 kJ/mol
# Density = 1.990066 g / cm^3
# Si number density = 19.946054 Si / 1000 Ang^3
#
#
#
# Elastic Constant Matrix: (Units=GPa)
#
#
# Indices 1 2 3 4 5 6 
#
# 1 108.0170 37.8003 52.4121 0.0000 0.0000 0.0000
# 2 37.8003 112.6176 43.1318 0.0000 0.0000 0.0000
# 3 52.4121 43.1318 115.0606 0.0000 0.0000 0.0000
# 4 0.0000 0.0000 0.0000 34.9775 0.0000 0.0000
# 5 0.0000 0.0000 0.0000 0.0000 33.6366 0.0000
# 6 0.0000 0.0000 0.0000 0.0000 0.0000 30.2935
#
#
#
# Elastic Compliance Matrix: (Units=1/GPa)
#
#
# Indices 1 2 3 4 5 6 
#
# 1 0.012388 -0.002332 -0.004769 0.000000 0.000000 0.000000
# 2 -0.002332 0.010807 -0.002989 0.000000 0.000000 0.000000
# 3 -0.004769 -0.002989 0.011984 0.000000 0.000000 0.000000
# 4 0.000000 0.000000 0.000000 0.028590 0.000000 0.000000
# 5 0.000000 0.000000 0.000000 0.000000 0.029729 0.000000
# 6 0.000000 0.000000 0.000000 0.000000 0.000000 0.033010
#
#
# Mechanical properties :
#
#
# Convention : Reuss Voigt Hill
#
# Bulk Modulus (GPa) = 66.66807 66.93150 66.79978
# Shear Modulus (GPa) = 32.96268 33.27161 33.11714
#
# Velocity S-wave (km/s) = 4.06962 4.08864 4.07914
# Velocity P-wave (km/s) = 7.45514 7.47786 7.46651
#
# Compressibility (1/GPa) = 0.01499969
#
# Stress axis : x y z
#
# Youngs Moduli (GPa) = 80.72581 92.53278 83.44591
#
# Poissons Ratio (x) = 0.21574 0.39793
# Poissons Ratio (y) = 0.18821 0.24943
# Poissons Ratio (z) = 0.38496 0.27659
#
# Static dielectric constant tensor:
#      x y z
#    x 3.717670 0.000000 0.000000 
#    y 0.000000 4.250120 0.000000 
#    z 0.000000 0.000000 3.727620 
# 
# 
# High freq. dielectric constant tensor:
#      x y z
#    x 1.778990 0.000000 0.000000 
#    y 0.000000 1.795490 0.000000 
#    z 0.000000 0.000000 1.775600 
# 
# From -- ./inp_files/9405.got.cif
#   From: 2010.03.12/outbox.cif.g09.slc.cpg/sg59_5_cif.got.tgz:9405.got - 2010.04.16 16:29:54.
