data_PCOD8245157
_publ_section_title
;
Structure prediction by ZEFSAII (Michael W. Deem and Ramdas Pophale) SiO2 
 PCOD8245157
Probable space group: P M M N
;
_chemical_formula_sum "Si O2"
_cell_formula_units_Z 48
_cell_length_a 20.400836
_cell_length_b 8.958777
_cell_length_c 14.107646
_cell_angle_alpha 90.000000
_cell_angle_beta 90.000000
_cell_angle_gamma 90.000000
_cell_volume 2578.405652
_symmetry_space_group_name_H-M "P M M N"
_symmetry_group_IT_number 59
_space_group.IT_coordinate_system_code '2'
_symmetry_cell_setting 'orthorhombic'
loop_
_space_group_symop_operation_xyz
x,y,z
1/2-x,1/2-y,z
1/2+x,-y,-z
-x,1/2+y,-z
-x,-y,-z
1/2+x,1/2+y,-z
1/2-x,y,z
x,1/2-y,z
loop_
_atom_site_type_symbol
_atom_site_label
_atom_site_fract_x
_atom_site_fract_y
_atom_site_fract_z
Si Si1 0.434328 0.924111 0.535091
Si Si2 0.825489 0.585146 0.817096
Si Si3 0.951115 0.573059 0.076706
Si Si4 0.026479 0.582688 0.731228
Si Si5 0.613317 0.582215 0.631325
Si Si6 0.173727 0.574861 0.997128
O O1 0.442164 0.750000 0.518875
O O2 0.420768 0.957826 0.647320
O O3 0.500000 0.000000 0.500000
O O4 0.377666 0.986680 0.465244
O O5 0.750000 0.609282 0.832505
O O6 0.860094 0.750000 0.827638
O O7 0.838930 0.517761 0.713073
O O8 0.849843 0.470863 0.897206
O O9 0.952219 0.750000 0.062205
O O10 0.974010 0.533696 0.182959
O O11 0.876223 0.512691 0.071075
O O12 0.000000 0.500000 0.000000
O O13 0.039591 0.750000 0.770846
O O14 0.958337 0.575234 0.676452
O O15 0.633356 0.750000 0.604525
O O16 0.250000 0.531380 0.976085
O O17 0.163419 0.750000 0.984423
#
# Coordination Sequence:
#
# PCOD8245157 Si02
#       6
#     8   8   8   8   8   8
#     4   9  17  29  47  69  94 125 158 195 241 295
#     4   9  17  30  49  73 101 133 167 203 245 293
#     4  12  24  36  54  79 107 138 173 217 264 308
#     4   9  18  32  48  70 100 130 164 208 256 301
#     4   9  17  29  47  71 100 131 162 200 245 293
#     4  10  21  37  56  77 103 137 175 214 258 311
#
# _framework density 18.616156
#
# number of rings (size 3 to 8) (size 9 to 14) (size 15 to 20)
#    0.000    2.333    0.000    4.500    0.000    6.333 
#    0.000    0.000    0.000    1.000    0.000    4.667 
#    0.000    0.000    0.000    0.000    0.000    0.000 
#
# Total GULP energy -594673.323138 kJ/mol
# GULP energy per Si atom -12389.027565 kJ/mol
# Density = 1.857379 g / cm^3
# Si number density = 18.616156 Si / 1000 Ang^3
#
#
#
# Elastic Constant Matrix: (Units=GPa)
#
#
# Indices 1 2 3 4 5 6 
#
# 1 36.0378 25.3982 15.5193 0.0000 0.0000 0.0000
# 2 25.3982 98.4585 46.3358 0.0000 0.0000 0.0000
# 3 15.5193 46.3358 104.7897 0.0000 0.0000 0.0000
# 4 0.0000 0.0000 0.0000 33.2332 0.0000 0.0000
# 5 0.0000 0.0000 0.0000 0.0000 26.3984 0.0000
# 6 0.0000 0.0000 0.0000 0.0000 0.0000 22.1353
#
#
#
# Elastic Compliance Matrix: (Units=1/GPa)
#
#
# Indices 1 2 3 4 5 6 
#
# 1 0.034092 -0.008105 -0.001465 0.000000 0.000000 0.000000
# 2 -0.008105 0.014752 -0.005323 0.000000 0.000000 0.000000
# 3 -0.001465 -0.005323 0.012114 0.000000 0.000000 0.000000
# 4 0.000000 0.000000 0.000000 0.030090 0.000000 0.000000
# 5 0.000000 0.000000 0.000000 0.000000 0.037881 0.000000
# 6 0.000000 0.000000 0.000000 0.000000 0.000000 0.045177
#
#
# Mechanical properties :
#
#
# Convention : Reuss Voigt Hill
#
# Bulk Modulus (GPa) = 32.08016 45.97694 39.02855
# Shear Modulus (GPa) = 23.33378 26.48888 24.91133
#
# Velocity S-wave (km/s) = 3.54420 3.77622 3.66205
# Velocity P-wave (km/s) = 5.83252 6.61544 6.23628
#
# Compressibility (1/GPa) = 0.03117192
#
# Stress axis : x y z
#
# Youngs Moduli (GPa) = 29.33277 67.78643 82.55209
#
# Poissons Ratio (x) = 0.54939 0.12096
# Poissons Ratio (y) = 0.23773 0.43941
# Poissons Ratio (z) = 0.04298 0.36081
#
# Static dielectric constant tensor:
#      x y z
#    x 3.133850 0.000000 0.000000 
#    y 0.000000 3.639520 0.000000 
#    z 0.000000 0.000000 3.454040 
# 
# 
# High freq. dielectric constant tensor:
#      x y z
#    x 1.686170 0.000000 0.000000 
#    y 0.000000 1.721680 0.000000 
#    z 0.000000 0.000000 1.727960 
# 
# From -- ./inp_files/18581.got.cif
#   From: 2010.03.12/outbox.cif.g09.slc.cpg/sg59_10_cif.got.tgz:18581.got - 2010.04.16 16:29:54.
