data_PCOD8245794
_publ_section_title
;
Structure prediction by ZEFSAII (Michael W. Deem and Ramdas Pophale) SiO2 
 PCOD8245794
Probable space group: P M M N
;
_chemical_formula_sum "Si O2"
_cell_formula_units_Z 40
_cell_length_a 8.816718
_cell_length_b 14.258474
_cell_length_c 17.173465
_cell_angle_alpha 90.000000
_cell_angle_beta 90.000000
_cell_angle_gamma 90.000000
_cell_volume 2158.926850
_symmetry_space_group_name_H-M "P M M N"
_symmetry_group_IT_number 59
_space_group.IT_coordinate_system_code '2'
_symmetry_cell_setting 'orthorhombic'
loop_
_space_group_symop_operation_xyz
x,y,z
1/2-x,1/2-y,z
1/2+x,-y,-z
-x,1/2+y,-z
-x,-y,-z
1/2+x,1/2+y,-z
1/2-x,y,z
x,1/2-y,z
loop_
_atom_site_type_symbol
_atom_site_label
_atom_site_fract_x
_atom_site_fract_y
_atom_site_fract_z
Si Si1 0.428406 0.250000 0.151060
Si Si2 0.929336 0.144220 0.516918
Si Si3 0.070400 0.939715 0.790133
Si Si4 0.928435 0.494043 0.382382
Si Si5 0.425821 0.950675 0.073535
Si Si6 0.421332 0.750000 0.012022
O O1 0.250000 0.250000 0.163073
O O2 0.498416 0.159936 0.191731
O O3 0.463141 0.250000 0.059428
O O4 0.750000 0.145415 0.523701
O O5 0.993914 0.250000 0.513877
O O6 0.982304 0.090349 0.438793
O O7 0.994861 0.091555 0.592415
O O8 0.250000 0.931247 0.798075
O O9 0.018545 0.969536 0.704257
O O10 0.010276 0.018405 0.848625
O O11 0.750000 0.508022 0.387329
O O12 0.250000 0.979884 0.077802
O O13 0.448040 0.839474 0.066521
O O14 0.500000 0.000000 0.000000
O O15 0.250000 0.750000 0.977741
#
# Coordination Sequence:
#
# PCOD8245794 Si02
#       6
#     4   8   8   8   8   4
#     4  12  24  36  58  88 115 146 189 240 287 340
#     4   9  18  35  60  85 111 147 187 229 280 337
#     4  11  23  39  59  84 117 154 188 235 288 341
#     4   9  20  37  58  83 114 150 187 229 280 338
#     4  11  22  38  60  84 114 152 193 238 285 339
#     4  10  22  40  60  80 109 152 195 236 291 342
#
# _framework density 18.527725
#
# number of rings (size 3 to 8) (size 9 to 14) (size 15 to 20)
#    0.000    1.800    2.000    2.100    1.400    2.800 
#    1.800    0.000    0.000    0.000    0.000    0.000 
#    0.000    0.000    0.000    0.000    0.000    0.000 
#
# Total GULP energy -496147.576826 kJ/mol
# GULP energy per Si atom -12403.689421 kJ/mol
# Density = 1.848555 g / cm^3
# Si number density = 18.527725 Si / 1000 Ang^3
#
#
#
# Elastic Constant Matrix: (Units=GPa)
#
#
# Indices 1 2 3 4 5 6 
#
# 1 77.2009 46.7723 53.6889 0.0000 0.0000 0.0000
# 2 46.7723 163.4390 79.3517 0.0000 0.0000 0.0000
# 3 53.6889 79.3517 153.8903 0.0000 0.0000 0.0000
# 4 0.0000 0.0000 0.0000 35.0317 0.0000 0.0000
# 5 0.0000 0.0000 0.0000 0.0000 31.5646 0.0000
# 6 0.0000 0.0000 0.0000 0.0000 0.0000 29.6105
#
#
#
# Elastic Compliance Matrix: (Units=1/GPa)
#
#
# Indices 1 2 3 4 5 6 
#
# 1 0.018019 -0.002807 -0.004839 0.000000 0.000000 0.000000
# 2 -0.002807 0.008599 -0.003455 0.000000 0.000000 0.000000
# 3 -0.004839 -0.003455 0.009968 0.000000 0.000000 0.000000
# 4 0.000000 0.000000 0.000000 0.028546 0.000000 0.000000
# 5 0.000000 0.000000 0.000000 0.000000 0.031681 0.000000
# 6 0.000000 0.000000 0.000000 0.000000 0.000000 0.033772
#
#
# Mechanical properties :
#
#
# Convention : Reuss Voigt Hill
#
# Bulk Modulus (GPa) = 69.52037 83.79512 76.65775
# Shear Modulus (GPa) = 31.72971 33.55586 32.64278
#
# Velocity S-wave (km/s) = 4.14279 4.26034 4.20197
# Velocity P-wave (km/s) = 7.77737 8.33821 8.06266
#
# Compressibility (1/GPa) = 0.01438427
#
# Stress axis : x y z
#
# Youngs Moduli (GPa) = 55.49621 116.29061 100.32413
#
# Poissons Ratio (x) = 0.32646 0.48546
# Poissons Ratio (y) = 0.15579 0.34658
# Poissons Ratio (z) = 0.26854 0.40174
#
# Static dielectric constant tensor:
#      x y z
#    x 3.451060 0.000000 0.000000 
#    y 0.000000 3.685560 0.000000 
#    z 0.000000 0.000000 3.730380 
# 
# 
# High freq. dielectric constant tensor:
#      x y z
#    x 1.722490 0.000000 0.000000 
#    y 0.000000 1.730070 0.000000 
#    z 0.000000 0.000000 1.715950 
# 
# From -- ./inp_files/19934.got.cif
#   From: 2010.03.12/outbox.cif.g09.slc.cpg/sg59_10_cif.got.tgz:19934.got - 2010.04.16 16:29:54.
