data_PCOD8245353
_publ_section_title
;
Structure prediction by ZEFSAII (Michael W. Deem and Ramdas Pophale) SiO2 
 PCOD8245353
Probable space group: P M M N
;
_chemical_formula_sum "Si O2"
_cell_formula_units_Z 40
_cell_length_a 8.937699
_cell_length_b 17.760533
_cell_length_c 12.599236
_cell_angle_alpha 90.000000
_cell_angle_beta 90.000000
_cell_angle_gamma 90.000000
_cell_volume 1999.981279
_symmetry_space_group_name_H-M "P M M N"
_symmetry_group_IT_number 59
_space_group.IT_coordinate_system_code '2'
_symmetry_cell_setting 'orthorhombic'
loop_
_space_group_symop_operation_xyz
x,y,z
1/2-x,1/2-y,z
1/2+x,-y,-z
-x,1/2+y,-z
-x,-y,-z
1/2+x,1/2+y,-z
1/2-x,y,z
x,1/2-y,z
loop_
_atom_site_type_symbol
_atom_site_label
_atom_site_fract_x
_atom_site_fract_y
_atom_site_fract_z
Si Si1 0.921709 0.336708 0.709780
Si Si2 0.422758 0.337389 0.306467
Si Si3 0.424021 0.403368 0.904590
Si Si4 0.924368 0.920976 0.479246
Si Si5 0.423706 0.922824 0.880305
O O1 0.750000 0.362791 0.708302
O O2 0.938206 0.250000 0.677670
O O3 0.987546 0.348206 0.826859
O O4 0.013450 0.386785 0.628437
O O5 0.250000 0.352690 0.277809
O O6 0.463478 0.250000 0.297842
O O7 0.458932 0.363906 0.425283
O O8 0.527287 0.383617 0.227791
O O9 0.250000 0.383431 0.900664
O O10 0.457006 0.488774 0.869451
O O11 0.482626 0.387886 0.023029
O O12 0.750000 0.934814 0.463627
O O13 0.000000 0.000000 0.500000
O O14 0.250000 0.907511 0.901781
#
# Coordination Sequence:
#
# PCOD8245353 Si02
#       5
#     8   8   8   8   8
#     4  11  24  40  59  86 120 155 193 240 292 345
#     4  10  22  39  58  82 114 152 191 231 280 340
#     4  10  21  38  61  86 114 152 195 237 285 344
#     4  11  23  40  63  88 116 152 195 241 289 345
#     4  10  21  37  59  87 116 148 190 239 288 338
#
# _framework density 20.000187
#
# number of rings (size 3 to 8) (size 9 to 14) (size 15 to 20)
#    0.000    1.600    0.000    4.200    0.000   10.800 
#    0.000    0.000    0.000    0.000    0.000    0.000 
#    0.000    0.000    0.000    0.000    0.000    0.000 
#
# Total GULP energy -496295.579961 kJ/mol
# GULP energy per Si atom -12407.389499 kJ/mol
# Density = 1.995467 g / cm^3
# Si number density = 20.000187 Si / 1000 Ang^3
#
#
#
# Elastic Constant Matrix: (Units=GPa)
#
#
# Indices 1 2 3 4 5 6 
#
# 1 110.0652 37.9839 44.2938 0.0000 0.0000 0.0000
# 2 37.9839 47.1538 10.7204 0.0000 0.0000 0.0000
# 3 44.2938 10.7204 83.2649 0.0000 0.0000 0.0000
# 4 0.0000 0.0000 0.0000 28.4270 0.0000 0.0000
# 5 0.0000 0.0000 0.0000 0.0000 42.1946 0.0000
# 6 0.0000 0.0000 0.0000 0.0000 0.0000 32.2236
#
#
#
# Elastic Compliance Matrix: (Units=1/GPa)
#
#
# Indices 1 2 3 4 5 6 
#
# 1 0.015690 -0.011065 -0.006922 0.000000 0.000000 0.000000
# 2 -0.011065 0.029650 0.002069 0.000000 0.000000 0.000000
# 3 -0.006922 0.002069 0.015426 0.000000 0.000000 0.000000
# 4 0.000000 0.000000 0.000000 0.035178 0.000000 0.000000
# 5 0.000000 0.000000 0.000000 0.000000 0.023700 0.000000
# 6 0.000000 0.000000 0.000000 0.000000 0.000000 0.031033
#
#
# Mechanical properties :
#
#
# Convention : Reuss Voigt Hill
#
# Bulk Modulus (GPa) = 34.56690 47.38668 40.97679
# Shear Modulus (GPa) = 26.02072 30.40143 28.21107
#
# Velocity S-wave (km/s) = 3.61088 3.90302 3.75979
# Velocity P-wave (km/s) = 5.89113 6.63747 6.27541
#
# Compressibility (1/GPa) = 0.02892941
#
# Stress axis : x y z
#
# Youngs Moduli (GPa) = 63.73683 33.72687 64.82745
#
# Poissons Ratio (x) = 0.37318 0.44871
# Poissons Ratio (y) = 0.70523 -0.13410
# Poissons Ratio (z) = 0.44116 -0.06977
#
# Static dielectric constant tensor:
#      x y z
#    x 3.796930 0.000000 0.000000 
#    y 0.000000 3.606890 0.000000 
#    z 0.000000 0.000000 3.658180 
# 
# 
# High freq. dielectric constant tensor:
#      x y z
#    x 1.792270 0.000000 0.000000 
#    y 0.000000 1.780170 0.000000 
#    z 0.000000 0.000000 1.792350 
# 
# From -- ./inp_files/13816.got.cif
#   From: 2010.03.12/outbox.cif.g09.slc.cpg/sg59_7_cif.got.tgz:13816.got - 2010.04.16 16:29:54.
