data_PCOD8245741
_publ_section_title
;
Structure prediction by ZEFSAII (Michael W. Deem and Ramdas Pophale) SiO2 
 PCOD8245741
Probable space group: P M M N
;
_chemical_formula_sum "Si O2"
_cell_formula_units_Z 40
_cell_length_a 8.865547
_cell_length_b 16.443124
_cell_length_c 13.773237
_cell_angle_alpha 90.000000
_cell_angle_beta 90.000000
_cell_angle_gamma 90.000000
_cell_volume 2007.825146
_symmetry_space_group_name_H-M "P M M N"
_symmetry_group_IT_number 59
_space_group.IT_coordinate_system_code '2'
_symmetry_cell_setting 'orthorhombic'
loop_
_space_group_symop_operation_xyz
x,y,z
1/2-x,1/2-y,z
1/2+x,-y,-z
-x,1/2+y,-z
-x,-y,-z
1/2+x,1/2+y,-z
1/2-x,y,z
x,1/2-y,z
loop_
_atom_site_type_symbol
_atom_site_label
_atom_site_fract_x
_atom_site_fract_y
_atom_site_fract_z
Si Si1 0.426964 0.081236 0.952989
Si Si2 0.571729 0.839433 0.447585
Si Si3 0.421166 0.750000 0.980545
Si Si4 0.926833 0.897451 0.650754
Si Si5 0.424450 0.053857 0.728960
Si Si6 0.081334 0.750000 0.751564
O O1 0.250000 0.080119 0.978332
O O2 0.455417 0.080723 0.838140
O O3 0.496400 0.166631 0.987929
O O4 0.500000 0.000000 0.000000
O O5 0.750000 0.832965 0.452629
O O6 0.499133 0.750000 0.456963
O O7 0.513615 0.893172 0.539033
O O8 0.523555 0.875030 0.343852
O O9 0.250000 0.750000 0.021898
O O10 0.418200 0.750000 0.866191
O O11 0.750000 0.885814 0.653181
O O12 0.996890 0.828509 0.715822
O O13 0.970259 0.979921 0.701941
O O14 0.250000 0.029715 0.713126
O O15 0.250000 0.750000 0.709934
#
# Coordination Sequence:
#
# PCOD8245741 Si02
#       6
#     8   8   4   8   8   4
#     4  11  24  42  65  93 124 163 210 258 311 369
#     4   9  18  35  59  86 119 155 194 240 289 349
#     4  11  25  43  64  89 122 162 207 261 316 367
#     4  11  21  36  60  89 120 154 194 242 295 348
#     4  10  22  38  61  87 118 159 200 240 293 359
#     4  11  23  39  60  85 116 154 199 245 296 357
#
# _framework density 19.922053999999999
#
# number of rings (size 3 to 8) (size 9 to 14) (size 15 to 20)
#    0.000    1.600    1.000    3.600    1.400    8.000 
#    0.000    1.000    0.000    0.000    0.000    0.000 
#    0.000    0.000    0.000    0.000    0.000    0.000 
#
# Total GULP energy -495876.289608 kJ/mol
# GULP energy per Si atom -12396.907240 kJ/mol
# Density = 1.987671 g / cm^3
# Si number density = 19.922054 Si / 1000 Ang^3
#
#
#
# Elastic Constant Matrix: (Units=GPa)
#
#
# Indices 1 2 3 4 5 6 
#
# 1 95.1383 57.5217 50.0693 0.0000 0.0000 0.0000
# 2 57.5217 142.1045 46.7595 0.0000 0.0000 0.0000
# 3 50.0693 46.7595 111.4939 0.0000 0.0000 0.0000
# 4 0.0000 0.0000 0.0000 44.1689 0.0000 0.0000
# 5 0.0000 0.0000 0.0000 0.0000 26.5841 0.0000
# 6 0.0000 0.0000 0.0000 0.0000 0.0000 39.0682
#
#
#
# Elastic Compliance Matrix: (Units=1/GPa)
#
#
# Indices 1 2 3 4 5 6 
#
# 1 0.016191 -0.004827 -0.005246 0.000000 0.000000 0.000000
# 2 -0.004827 0.009603 -0.001860 0.000000 0.000000 0.000000
# 3 -0.005246 -0.001860 0.012105 0.000000 0.000000 0.000000
# 4 0.000000 0.000000 0.000000 0.022640 0.000000 0.000000
# 5 0.000000 0.000000 0.000000 0.000000 0.037616 0.000000
# 6 0.000000 0.000000 0.000000 0.000000 0.000000 0.025596
#
#
# Mechanical properties :
#
#
# Convention : Reuss Voigt Hill
#
# Bulk Modulus (GPa) = 71.26477 73.04864 72.15671
# Shear Modulus (GPa) = 32.83085 34.92333 33.87709
#
# Velocity S-wave (km/s) = 4.06392 4.19142 4.12816
# Velocity P-wave (km/s) = 7.60724 7.75699 7.68248
#
# Compressibility (1/GPa) = 0.01403218
#
# Stress axis : x y z
#
# Youngs Moduli (GPa) = 61.76358 104.13369 82.61085
#
# Poissons Ratio (x) = 0.50270 0.43340
# Poissons Ratio (y) = 0.29816 0.15362
# Poissons Ratio (z) = 0.32403 0.19364
#
# Static dielectric constant tensor:
#      x y z
#    x 3.653160 0.000000 0.000000 
#    y 0.000000 3.792160 0.000000 
#    z 0.000000 0.000000 3.952610 
# 
# 
# High freq. dielectric constant tensor:
#      x y z
#    x 1.765900 0.000000 0.000000 
#    y 0.000000 1.789480 0.000000 
#    z 0.000000 0.000000 1.795800 
# 
# From -- ./inp_files/19967.got.cif
#   From: 2010.03.12/outbox.cif.g09.slc.cpg/sg59_10_cif.got.tgz:19967.got - 2010.04.16 16:29:54.
