data_PCOD8245301
_publ_section_title
;
Structure prediction by ZEFSAII (Michael W. Deem and Ramdas Pophale) SiO2 
 PCOD8245301
Probable space group: P M M N
;
_chemical_formula_sum "Si O2"
_cell_formula_units_Z 40
_cell_length_a 9.101678
_cell_length_b 15.697367
_cell_length_c 14.571294
_cell_angle_alpha 90.000000
_cell_angle_beta 90.000000
_cell_angle_gamma 90.000000
_cell_volume 2081.835452
_symmetry_space_group_name_H-M "P M M N"
_symmetry_group_IT_number 59
_space_group.IT_coordinate_system_code '2'
_symmetry_cell_setting 'orthorhombic'
loop_
_space_group_symop_operation_xyz
x,y,z
1/2-x,1/2-y,z
1/2+x,-y,-z
-x,1/2+y,-z
-x,-y,-z
1/2+x,1/2+y,-z
1/2-x,y,z
x,1/2-y,z
loop_
_atom_site_type_symbol
_atom_site_label
_atom_site_fract_x
_atom_site_fract_y
_atom_site_fract_z
Si Si1 0.577713 0.105336 0.583043
Si Si2 0.575452 0.250000 0.718138
Si Si3 0.575531 0.250000 0.924267
Si Si4 0.575599 0.084594 0.035941
Si Si5 0.081747 0.348307 0.205250
Si Si6 0.921342 0.588938 0.598424
O O1 0.750000 0.116756 0.569909
O O2 0.519512 0.166415 0.664057
O O3 0.504475 0.131770 0.486810
O O4 0.533349 0.009691 0.610105
O O5 0.750000 0.250000 0.724848
O O6 0.509791 0.250000 0.821033
O O7 0.750000 0.250000 0.922928
O O8 0.520075 0.165014 0.975768
O O9 0.750000 0.074222 0.032172
O O10 0.524318 0.097527 0.140360
O O11 0.500000 0.000000 0.000000
O O12 0.250000 0.379510 0.192627
O O13 0.065225 0.250000 0.179773
O O14 0.030835 0.362510 0.309667
O O15 0.750000 0.598914 0.578901
#
# Coordination Sequence:
#
# PCOD8245301 Si02
#       6
#     8   4   4   8   8   8
#     4   9  18  33  53  78 106 139 181 227 270 322
#     4   9  18  32  54  79 102 136 181 223 268 327
#     4   9  20  38  60  83 112 148 191 235 282 345
#     4  11  23  40  62  88 115 151 193 239 292 344
#     4  10  21  37  58  84 114 150 189 234 286 341
#     4   9  19  34  54  78 109 146 182 222 275 332
#
# _framework density 19.213813999999999
#
# number of rings (size 3 to 8) (size 9 to 14) (size 15 to 20)
#    0.000    2.400    1.000    0.600    4.200    0.800 
#    0.000    0.000    0.000    2.400    0.000    0.000 
#    0.000    0.000    0.000    0.000    0.000    0.000 
#
# Total GULP energy -496059.886884 kJ/mol
# GULP energy per Si atom -12401.497172 kJ/mol
# Density = 1.917008 g / cm^3
# Si number density = 19.213814 Si / 1000 Ang^3
#
#
#
# Elastic Constant Matrix: (Units=GPa)
#
#
# Indices 1 2 3 4 5 6 
#
# 1 48.2481 32.3609 40.0265 0.0000 0.0000 0.0000
# 2 32.3609 94.6597 47.6139 0.0000 0.0000 0.0000
# 3 40.0265 47.6139 132.2679 0.0000 0.0000 0.0000
# 4 0.0000 0.0000 0.0000 37.7786 0.0000 0.0000
# 5 0.0000 0.0000 0.0000 0.0000 33.0367 0.0000
# 6 0.0000 0.0000 0.0000 0.0000 0.0000 24.5773
#
#
#
# Elastic Compliance Matrix: (Units=1/GPa)
#
#
# Indices 1 2 3 4 5 6 
#
# 1 0.031271 -0.007242 -0.006856 0.000000 0.000000 0.000000
# 2 -0.007242 0.014577 -0.003056 0.000000 0.000000 0.000000
# 3 -0.006856 -0.003056 0.010735 0.000000 0.000000 0.000000
# 4 0.000000 0.000000 0.000000 0.026470 0.000000 0.000000
# 5 0.000000 0.000000 0.000000 0.000000 0.030269 0.000000
# 6 0.000000 0.000000 0.000000 0.000000 0.000000 0.040688
#
#
# Mechanical properties :
#
#
# Convention : Reuss Voigt Hill
#
# Bulk Modulus (GPa) = 44.89235 57.24202 51.06719
# Shear Modulus (GPa) = 25.54349 29.42350 27.48349
#
# Velocity S-wave (km/s) = 3.65010 3.91752 3.78617
# Velocity P-wave (km/s) = 6.41713 7.09362 6.76384
#
# Compressibility (1/GPa) = 0.02227551
#
# Stress axis : x y z
#
# Youngs Moduli (GPa) = 31.97805 68.60092 93.15043
#
# Poissons Ratio (x) = 0.49680 0.63867
# Poissons Ratio (y) = 0.23158 0.28466
# Poissons Ratio (z) = 0.21925 0.20964
#
# Static dielectric constant tensor:
#      x y z
#    x 3.253590 0.000000 0.000000 
#    y 0.000000 3.620510 0.000000 
#    z 0.000000 0.000000 3.729020 
# 
# 
# High freq. dielectric constant tensor:
#      x y z
#    x 1.718510 0.000000 0.000000 
#    y 0.000000 1.753170 0.000000 
#    z 0.000000 0.000000 1.758070 
# 
# From -- ./inp_files/20010.got.cif
#   From: 2010.03.12/outbox.cif.g09.slc.cpg/sg59_11_cif.got.tgz:20010.got - 2010.04.16 16:29:54.
