data_PCOD8245607
_publ_section_title
;
Structure prediction by ZEFSAII (Michael W. Deem and Ramdas Pophale) SiO2 
 PCOD8245607
Probable space group: P M M N
;
_chemical_formula_sum "Si O2"
_cell_formula_units_Z 48
_cell_length_a 27.788519
_cell_length_b 8.880085
_cell_length_c 10.011893
_cell_angle_alpha 90.000000
_cell_angle_beta 90.000000
_cell_angle_gamma 90.000000
_cell_volume 2470.578877
_symmetry_space_group_name_H-M "P M M N"
_symmetry_group_IT_number 59
_space_group.IT_coordinate_system_code '2'
_symmetry_cell_setting 'orthorhombic'
loop_
_space_group_symop_operation_xyz
x,y,z
1/2-x,1/2-y,z
1/2+x,-y,-z
-x,1/2+y,-z
-x,-y,-z
1/2+x,1/2+y,-z
1/2-x,y,z
x,1/2-y,z
loop_
_atom_site_type_symbol
_atom_site_label
_atom_site_fract_x
_atom_site_fract_y
_atom_site_fract_z
Si Si1 0.136078 0.927522 0.002851
Si Si2 0.873629 0.570999 0.285260
Si Si3 0.693193 0.580610 0.774406
Si Si4 0.966950 0.074468 0.892032
Si Si5 0.479957 0.427382 0.631944
Si Si6 0.806718 0.074741 0.503267
O O1 0.142165 0.750000 0.982274
O O2 0.087963 0.970552 0.083453
O O3 0.179105 0.991185 0.092300
O O4 0.136821 0.006042 0.860233
O O5 0.870462 0.750000 0.278649
O O6 0.926089 0.516216 0.334621
O O7 0.833141 0.509210 0.383564
O O8 0.750000 0.586328 0.771282
O O9 0.671770 0.750000 0.775454
O O10 0.674420 0.494000 0.642857
O O11 0.975488 0.250000 0.905941
O O12 0.983569 0.018213 0.747063
O O13 0.000000 0.000000 0.000000
O O14 0.500000 0.500000 0.500000
O O15 0.480213 0.250000 0.614084
O O16 0.750000 0.048997 0.484202
O O17 0.820216 0.250000 0.501853
#
# Coordination Sequence:
#
# PCOD8245607 Si02
#       6
#     8   8   8   8   8   8
#     4  11  23  38  61  91 120 158 200 245 298 351
#     4  11  23  40  61  88 121 158 200 247 297 352
#     4  10  22  41  64  90 120 155 196 243 296 355
#     4  10  21  39  60  85 118 156 196 240 291 346
#     4  10  23  40  58  86 120 156 197 243 293 349
#     4  10  22  41  64  89 119 155 195 244 299 355
#
# _framework density 19.428646000000001
#
# number of rings (size 3 to 8) (size 9 to 14) (size 15 to 20)
#    0.000    1.667    1.667    2.000    2.333    5.333 
#    0.000    0.000    0.000    0.000    0.000    0.000 
#    0.000    0.000    0.000    0.000    0.000    0.000 
#
# Total GULP energy -595366.663587 kJ/mol
# GULP energy per Si atom -12403.472158 kJ/mol
# Density = 1.938443 g / cm^3
# Si number density = 19.428646 Si / 1000 Ang^3
#
#
#
# Elastic Constant Matrix: (Units=GPa)
#
#
# Indices 1 2 3 4 5 6 
#
# 1 47.3894 37.2297 51.5349 0.0000 0.0000 0.0000
# 2 37.2297 89.4329 61.4836 0.0000 0.0000 0.0000
# 3 51.5349 61.4836 182.7903 0.0000 0.0000 0.0000
# 4 0.0000 0.0000 0.0000 43.0335 0.0000 0.0000
# 5 0.0000 0.0000 0.0000 0.0000 32.5554 0.0000
# 6 0.0000 0.0000 0.0000 0.0000 0.0000 25.8744
#
#
#
# Elastic Compliance Matrix: (Units=1/GPa)
#
#
# Indices 1 2 3 4 5 6 
#
# 1 0.036897 -0.010677 -0.006811 0.000000 0.000000 0.000000
# 2 -0.010677 0.017635 -0.002921 0.000000 0.000000 0.000000
# 3 -0.006811 -0.002921 0.008374 0.000000 0.000000 0.000000
# 4 0.000000 0.000000 0.000000 0.023238 0.000000 0.000000
# 5 0.000000 0.000000 0.000000 0.000000 0.030717 0.000000
# 6 0.000000 0.000000 0.000000 0.000000 0.000000 0.038648
#
#
# Mechanical properties :
#
#
# Convention : Reuss Voigt Hill
#
# Bulk Modulus (GPa) = 45.27769 68.90100 57.08934
# Shear Modulus (GPa) = 24.54722 31.58363 28.06543
#
# Velocity S-wave (km/s) = 3.55837 4.03627 3.80483
# Velocity P-wave (km/s) = 6.34333 7.56721 6.98214
#
# Compressibility (1/GPa) = 0.02208593
#
# Stress axis : x y z
#
# Youngs Moduli (GPa) = 27.10268 56.70639 119.42196
#
# Poissons Ratio (x) = 0.60546 0.81339
# Poissons Ratio (y) = 0.28938 0.34888
# Poissons Ratio (z) = 0.18460 0.16566
#
# Static dielectric constant tensor:
#      x y z
#    x 3.655400 0.000000 0.000000 
#    y 0.000000 3.733170 0.000000 
#    z 0.000000 0.000000 3.712710 
# 
# 
# High freq. dielectric constant tensor:
#      x y z
#    x 1.757860 0.000000 0.000000 
#    y 0.000000 1.765440 0.000000 
#    z 0.000000 0.000000 1.771040 
# 
# From -- ./inp_files/6214.got.cif
#   From: 2010.03.12/outbox.cif.g09.slc.cpg/sg59_4_cif.got.tgz:6214.got - 2010.04.16 16:29:54.
