data_PCOD8245981
_publ_section_title
;
Structure prediction by ZEFSAII (Michael W. Deem and Ramdas Pophale) SiO2 
 PCOD8245981
Probable space group: P M M N
;
_chemical_formula_sum "Si O2"
_cell_formula_units_Z 48
_cell_length_a 30.792587
_cell_length_b 8.713186
_cell_length_c 9.691666
_cell_angle_alpha 90.000000
_cell_angle_beta 90.000000
_cell_angle_gamma 90.000000
_cell_volume 2600.288893
_symmetry_space_group_name_H-M "P M M N"
_symmetry_group_IT_number 59
_space_group.IT_coordinate_system_code '2'
_symmetry_cell_setting 'orthorhombic'
loop_
_space_group_symop_operation_xyz
x,y,z
1/2-x,1/2-y,z
1/2+x,-y,-z
-x,1/2+y,-z
-x,-y,-z
1/2+x,1/2+y,-z
1/2-x,y,z
x,1/2-y,z
loop_
_atom_site_type_symbol
_atom_site_label
_atom_site_fract_x
_atom_site_fract_y
_atom_site_fract_z
Si Si1 0.701063 0.568215 0.692825
Si Si2 0.483205 0.929792 0.857910
Si Si3 0.930630 0.928144 0.706877
Si Si4 0.870273 0.430607 0.497704
Si Si5 0.638239 0.930513 0.923609
Si Si6 0.608305 0.932144 0.212324
O O1 0.750000 0.505162 0.681956
O O2 0.699350 0.750000 0.673500
O O3 0.672144 0.494362 0.573949
O O4 0.682451 0.521882 0.844341
O O5 0.473903 0.750000 0.879286
O O6 0.518970 0.956114 0.738163
O O7 0.441259 0.016889 0.803797
O O8 0.500000 0.000000 0.000000
O O9 0.919976 0.750000 0.682046
O O10 0.902855 0.992314 0.836387
O O11 0.915228 0.017226 0.570134
O O12 0.868114 0.250000 0.496431
O O13 0.869084 0.491387 0.342630
O O14 0.633808 0.750000 0.934241
O O15 0.635616 0.993993 0.079453
O O16 0.609859 0.750000 0.228235
#
# Coordination Sequence:
#
# PCOD8245981 Si02
#       6
#     8   8   8   8   8   8
#     4   9  18  37  64  87 107 137 177 221 272 336
#     4  11  21  34  54  81 112 147 191 237 280 325
#     4   9  18  36  56  76 105 146 191 231 269 322
#     4  11  23  37  54  81 114 148 184 229 283 333
#     4   8  15  31  55  81 106 135 177 223 267 317
#     4  11  21  36  55  79 113 152 188 229 278 330
#
# _framework density 18.459486999999999
#
# number of rings (size 3 to 8) (size 9 to 14) (size 15 to 20)
#    0.000    2.167    1.667    3.500    0.000    2.333 
#    0.000    1.667    0.000    3.000    0.000    0.000 
#    0.000    0.000    0.000    0.000    0.000    0.000 
#
# Total GULP energy -595080.613496 kJ/mol
# GULP energy per Si atom -12397.512781 kJ/mol
# Density = 1.841747 g / cm^3
# Si number density = 18.459487 Si / 1000 Ang^3
#
#
#
# Elastic Constant Matrix: (Units=GPa)
#
#
# Indices 1 2 3 4 5 6 
#
# 1 106.6313 44.3023 60.1665 0.0000 0.0000 0.0000
# 2 44.3023 54.1329 39.3973 0.0000 0.0000 0.0000
# 3 60.1665 39.3973 150.1227 0.0000 0.0000 0.0000
# 4 0.0000 0.0000 0.0000 21.9070 0.0000 0.0000
# 5 0.0000 0.0000 0.0000 0.0000 21.1900 0.0000
# 6 0.0000 0.0000 0.0000 0.0000 0.0000 24.1646
#
#
#
# Elastic Compliance Matrix: (Units=1/GPa)
#
#
# Indices 1 2 3 4 5 6 
#
# 1 0.015636 -0.010180 -0.003595 0.000000 0.000000 0.000000
# 2 -0.010180 0.029462 -0.003652 0.000000 0.000000 0.000000
# 3 -0.003595 -0.003652 0.009060 0.000000 0.000000 0.000000
# 4 0.000000 0.000000 0.000000 0.045648 0.000000 0.000000
# 5 0.000000 0.000000 0.000000 0.000000 0.047192 0.000000
# 6 0.000000 0.000000 0.000000 0.000000 0.000000 0.041383
#
#
# Mechanical properties :
#
#
# Convention : Reuss Voigt Hill
#
# Bulk Modulus (GPa) = 51.80098 66.51322 59.15710
# Shear Modulus (GPa) = 21.77033 24.58705 23.17869
#
# Velocity S-wave (km/s) = 3.43790 3.65354 3.54736
# Velocity P-wave (km/s) = 6.62433 7.34221 6.99249
#
# Compressibility (1/GPa) = 0.01930465
#
# Stress axis : x y z
#
# Youngs Moduli (GPa) = 63.95412 33.94174 110.36992
#
# Poissons Ratio (x) = 0.34553 0.39679
# Poissons Ratio (y) = 0.65106 0.40305
# Poissons Ratio (z) = 0.22992 0.12395
#
# Static dielectric constant tensor:
#      x y z
#    x 3.447250 0.000000 0.000000 
#    y 0.000000 3.265970 0.000000 
#    z 0.000000 0.000000 3.619900 
# 
# 
# High freq. dielectric constant tensor:
#      x y z
#    x 1.704150 0.000000 0.000000 
#    y 0.000000 1.704030 0.000000 
#    z 0.000000 0.000000 1.720170 
# 
# From -- ./inp_files/6231.got.cif
#   From: 2010.03.12/outbox.cif.g09.slc.cpg/sg59_4_cif.got.tgz:6231.got - 2010.04.16 16:29:54.
