data_PCOD8245323
_publ_section_title
;
Structure prediction by ZEFSAII (Michael W. Deem and Ramdas Pophale) SiO2 
 PCOD8245323
Probable space group: P M M N
;
_chemical_formula_sum "Si O2"
_cell_formula_units_Z 64
_cell_length_a 8.840181
_cell_length_b 23.826595
_cell_length_c 15.373996
_cell_angle_alpha 90.000000
_cell_angle_beta 90.000000
_cell_angle_gamma 90.000000
_cell_volume 3238.246492
_symmetry_space_group_name_H-M "P M M N"
_symmetry_group_IT_number 59
_space_group.IT_coordinate_system_code '2'
_symmetry_cell_setting 'orthorhombic'
loop_
_space_group_symop_operation_xyz
x,y,z
1/2-x,1/2-y,z
1/2+x,-y,-z
-x,1/2+y,-z
-x,-y,-z
1/2+x,1/2+y,-z
1/2-x,y,z
x,1/2-y,z
loop_
_atom_site_type_symbol
_atom_site_label
_atom_site_fract_x
_atom_site_fract_y
_atom_site_fract_z
Si Si1 0.426292 0.685359 0.494867
Si Si2 0.927975 0.390767 0.342210
Si Si3 0.929968 0.687382 0.000870
Si Si4 0.570910 0.002084 0.594447
Si Si5 0.923706 0.885044 0.349920
Si Si6 0.573390 0.499383 0.906210
Si Si7 0.076149 0.109565 0.845383
Si Si8 0.927383 0.880277 0.833408
O O1 0.250000 0.676963 0.474967
O O2 0.466405 0.750000 0.512724
O O3 0.475487 0.649871 0.579037
O O4 0.519225 0.664604 0.411664
O O5 0.750000 0.401509 0.341343
O O6 0.013305 0.449862 0.349550
O O7 0.981636 0.361934 0.252689
O O8 0.750000 0.688803 0.003564
O O9 0.997505 0.750000 0.005044
O O10 0.985892 0.658408 0.912249
O O11 0.991298 0.653021 0.084151
O O12 0.750000 0.999655 0.587040
O O13 0.500000 0.000000 0.500000
O O14 0.523630 0.059547 0.639871
O O15 0.750000 0.899212 0.372518
O O16 0.940207 0.863890 0.250581
O O17 0.750000 0.493661 0.920226
O O18 0.514405 0.448345 0.848318
O O19 0.532076 0.555776 0.855278
O O20 0.500000 0.500000 0.000000
O O21 0.250000 0.096042 0.867924
O O22 0.750000 0.871664 0.816952
#
# Coordination Sequence:
#
# PCOD8245323 Si02
#       8
#     8   8   8   8   8   8   8   8
#     4  10  23  43  63  83 116 163 206 247 298 351
#     4  11  23  39  61  89 120 157 198 242 297 355
#     4   9  18  36  60  83 113 154 198 244 291 340
#     4  12  23  38  62  90 123 157 194 241 297 361
#     4  11  23  38  62  93 123 156 198 248 299 355
#     4  11  21  35  58  86 118 155 192 236 293 351
#     4  10  21  38  59  88 120 152 194 239 290 353
#     4  10  21  37  58  86 117 152 195 240 292 352
#
# _framework density 19.763783
#
# number of rings (size 3 to 8) (size 9 to 14) (size 15 to 20)
#    0.000    1.500    2.500    3.000    0.000    5.750 
#    0.000    1.250    0.000    1.125    0.000    0.000 
#    0.000    0.000    0.000    0.000    0.000    0.000 
#
# Total GULP energy -793881.617727 kJ/mol
# GULP energy per Si atom -12404.400277 kJ/mol
# Density = 1.971880 g / cm^3
# Si number density = 19.763783 Si / 1000 Ang^3
#
#
#
# Elastic Constant Matrix: (Units=GPa)
#
#
# Indices 1 2 3 4 5 6 
#
# 1 69.5976 35.3561 40.7416 0.0000 0.0000 0.0000
# 2 35.3561 123.5634 49.1400 0.0000 0.0000 0.0000
# 3 40.7416 49.1400 141.6105 0.0000 0.0000 0.0000
# 4 0.0000 0.0000 0.0000 15.9583 0.0000 0.0000
# 5 0.0000 0.0000 0.0000 0.0000 32.3562 0.0000
# 6 0.0000 0.0000 0.0000 0.0000 0.0000 25.1531
#
#
#
# Elastic Compliance Matrix: (Units=1/GPa)
#
#
# Indices 1 2 3 4 5 6 
#
# 1 0.018640 -0.003713 -0.004074 0.000000 0.000000 0.000000
# 2 -0.003713 0.010128 -0.002446 0.000000 0.000000 0.000000
# 3 -0.004074 -0.002446 0.009083 0.000000 0.000000 0.000000
# 4 0.000000 0.000000 0.000000 0.062663 0.000000 0.000000
# 5 0.000000 0.000000 0.000000 0.000000 0.030906 0.000000
# 6 0.000000 0.000000 0.000000 0.000000 0.000000 0.039756
#
#
# Mechanical properties :
#
#
# Convention : Reuss Voigt Hill
#
# Bulk Modulus (GPa) = 57.52660 65.02742 61.27701
# Shear Modulus (GPa) = 25.32435 28.66244 26.99339
#
# Velocity S-wave (km/s) = 3.58348 3.81235 3.69968
# Velocity P-wave (km/s) = 6.80383 7.23550 7.02298
#
# Compressibility (1/GPa) = 0.01738326
#
# Stress axis : x y z
#
# Youngs Moduli (GPa) = 53.64916 98.73237 110.10007
#
# Poissons Ratio (x) = 0.36662 0.44856
# Poissons Ratio (y) = 0.19921 0.26934
# Poissons Ratio (z) = 0.21857 0.24153
#
# Static dielectric constant tensor:
#      x y z
#    x 3.529440 0.000000 0.000000 
#    y 0.000000 3.361470 0.000000 
#    z 0.000000 0.000000 3.761800 
# 
# 
# High freq. dielectric constant tensor:
#      x y z
#    x 1.758700 0.000000 0.000000 
#    y 0.000000 1.765410 0.000000 
#    z 0.000000 0.000000 1.787520 
# 
# From -- ./inp_files/21423.got.cif
#   From: 2010.03.12/outbox.cif.g09.slc.cpg/sg59_11_cif.got.tgz:21423.got - 2010.04.16 16:29:54.
