data_PCOD8245247
_publ_section_title
;
Structure prediction by ZEFSAII (Michael W. Deem and Ramdas Pophale) SiO2 
 PCOD8245247
Probable space group: P M M N
;
_chemical_formula_sum "Si O2"
_cell_formula_units_Z 64
_cell_length_a 18.424751
_cell_length_b 9.057028
_cell_length_c 20.072470
_cell_angle_alpha 90.000000
_cell_angle_beta 90.000000
_cell_angle_gamma 90.000000
_cell_volume 3349.563036
_symmetry_space_group_name_H-M "P M M N"
_symmetry_group_IT_number 59
_space_group.IT_coordinate_system_code '2'
_symmetry_cell_setting 'orthorhombic'
loop_
_space_group_symop_operation_xyz
x,y,z
1/2-x,1/2-y,z
1/2+x,-y,-z
-x,1/2+y,-z
-x,-y,-z
1/2+x,1/2+y,-z
1/2-x,y,z
x,1/2-y,z
loop_
_atom_site_type_symbol
_atom_site_label
_atom_site_fract_x
_atom_site_fract_y
_atom_site_fract_z
Si Si1 0.333086 0.420026 0.563482
Si Si2 0.666419 0.076828 0.571435
Si Si3 0.572873 0.578021 0.309077
Si Si4 0.426750 0.577768 0.923137
Si Si5 0.333464 0.079652 0.819243
Si Si6 0.333811 0.078856 0.181974
Si Si7 0.425998 0.922353 0.076893
Si Si8 0.920691 0.924306 0.687555
O O1 0.250000 0.449335 0.584536
O O2 0.344351 0.250000 0.543191
O O3 0.356110 0.520628 0.501456
O O4 0.383446 0.465128 0.624831
O O5 0.750000 0.036026 0.586454
O O6 0.652441 0.250000 0.574805
O O7 0.615606 0.998337 0.624155
O O8 0.551206 0.750000 0.309128
O O9 0.622638 0.537330 0.246574
O O10 0.502380 0.477943 0.304762
O O11 0.437272 0.750000 0.910724
O O12 0.359363 0.518673 0.881020
O O13 0.499914 0.498250 0.898652
O O14 0.410428 0.541313 0.999962
O O15 0.250000 0.043138 0.805030
O O16 0.344718 0.250000 0.838396
O O17 0.250000 0.044938 0.195257
O O18 0.347737 0.250000 0.166388
O O19 0.377160 0.026534 0.246936
O O20 0.359015 0.985259 0.118523
O O21 0.434046 0.750000 0.090234
O O22 0.918622 0.750000 0.677625
#
# Coordination Sequence:
#
# PCOD8245247 Si02
#       8
#     8   8   8   8   8   8   8   8
#     4   9  18  35  59  83 109 144 182 221 269 323
#     4  10  21  37  58  84 112 142 179 224 272 323
#     4  10  21  37  57  82 112 145 183 227 273 322
#     4  10  21  37  57  82 113 148 185 225 272 327
#     4  10  21  37  58  84 113 146 185 228 274 326
#     4  10  22  39  58  81 110 144 183 228 277 330
#     4  10  21  37  58  83 111 145 185 228 274 326
#     4  11  23  38  57  81 110 145 184 225 271 325
#
# _framework density 19.10697
#
# number of rings (size 3 to 8) (size 9 to 14) (size 15 to 20)
#    0.000    2.000    0.000    3.000    0.000    9.750 
#    0.000    2.500    0.000    2.250    0.000    0.000 
#    0.000    0.000    0.000    0.000    0.000    0.000 
#
# Total GULP energy -793984.394107 kJ/mol
# GULP energy per Si atom -12406.006158 kJ/mol
# Density = 1.906348 g / cm^3
# Si number density = 19.106970 Si / 1000 Ang^3
#
#
#
# Elastic Constant Matrix: (Units=GPa)
#
#
# Indices 1 2 3 4 5 6 
#
# 1 126.0481 56.7838 76.5585 0.0000 0.0000 0.0000
# 2 56.7838 79.4564 58.9734 0.0000 0.0000 0.0000
# 3 76.5585 58.9734 117.6372 0.0000 0.0000 0.0000
# 4 0.0000 0.0000 0.0000 25.2296 0.0000 0.0000
# 5 0.0000 0.0000 0.0000 0.0000 41.7564 0.0000
# 6 0.0000 0.0000 0.0000 0.0000 0.0000 35.4914
#
#
#
# Elastic Compliance Matrix: (Units=1/GPa)
#
#
# Indices 1 2 3 4 5 6 
#
# 1 0.014402 -0.005312 -0.006710 0.000000 0.000000 0.000000
# 2 -0.005312 0.022003 -0.007573 0.000000 0.000000 0.000000
# 3 -0.006710 -0.007573 0.016664 0.000000 0.000000 0.000000
# 4 0.000000 0.000000 0.000000 0.039636 0.000000 0.000000
# 5 0.000000 0.000000 0.000000 0.000000 0.023948 0.000000
# 6 0.000000 0.000000 0.000000 0.000000 0.000000 0.028176
#
#
# Mechanical properties :
#
#
# Convention : Reuss Voigt Hill
#
# Bulk Modulus (GPa) = 72.05414 78.64147 75.34781
# Shear Modulus (GPa) = 26.50478 29.21720 27.86099
#
# Velocity S-wave (km/s) = 3.72852 3.91466 3.82273
# Velocity P-wave (km/s) = 7.50524 7.85370 7.68145
#
# Compressibility (1/GPa) = 0.01387845
#
# Stress axis : x y z
#
# Youngs Moduli (GPa) = 69.43505 45.44865 60.01034
#
# Poissons Ratio (x) = 0.24144 0.40264
# Poissons Ratio (y) = 0.36887 0.45446
# Poissons Ratio (z) = 0.46588 0.34418
#
# Static dielectric constant tensor:
#      x y z
#    x 3.470090 0.000000 0.000000 
#    y 0.000000 3.484080 0.000000 
#    z 0.000000 0.000000 3.560830 
# 
# 
# High freq. dielectric constant tensor:
#      x y z
#    x 1.746130 0.000000 0.000000 
#    y 0.000000 1.744560 0.000000 
#    z 0.000000 0.000000 1.753010 
# 
# From -- ./inp_files/30827.got.cif
#   From: 2010.03.12/outbox.cif.g09.slc.cpg/sg59_16_cif.got.tgz:30827.got - 2010.04.16 16:29:54.
