data_PCOD8245342
_publ_section_title
;
Structure prediction by ZEFSAII (Michael W. Deem and Ramdas Pophale) SiO2 
 PCOD8245342
Probable space group: P M M N
;
_chemical_formula_sum "Si O2"
_cell_formula_units_Z 40
_cell_length_a 9.403435
_cell_length_b 28.378166
_cell_length_c 7.706670
_cell_angle_alpha 90.000000
_cell_angle_beta 90.000000
_cell_angle_gamma 90.000000
_cell_volume 2056.542148
_symmetry_space_group_name_H-M "P M M N"
_symmetry_group_IT_number 59
_space_group.IT_coordinate_system_code '2'
_symmetry_cell_setting 'orthorhombic'
loop_
_space_group_symop_operation_xyz
x,y,z
1/2-x,1/2-y,z
1/2+x,-y,-z
-x,1/2+y,-z
-x,-y,-z
1/2+x,1/2+y,-z
1/2-x,y,z
x,1/2-y,z
loop_
_atom_site_type_symbol
_atom_site_label
_atom_site_fract_x
_atom_site_fract_y
_atom_site_fract_z
Si Si1 0.915950 0.150276 0.675525
Si Si2 0.587420 0.805234 0.013765
Si Si3 0.085632 0.354991 0.342524
Si Si4 0.413480 0.050595 0.176894
Si Si5 0.913063 0.446298 0.836939
O O1 0.750000 0.162986 0.666942
O O2 0.942129 0.094164 0.696255
O O3 0.984323 0.178539 0.833497
O O4 0.990161 0.165901 0.496804
O O5 0.750000 0.818972 0.060111
O O6 0.570608 0.750000 0.986315
O O7 0.540110 0.829955 0.835508
O O8 0.250000 0.344582 0.386274
O O9 0.055932 0.411234 0.326544
O O10 0.250000 0.053030 0.121088
O O11 0.455238 0.997793 0.240835
O O12 0.498425 0.065493 0.007007
O O13 0.750000 0.446026 0.895616
#
# Coordination Sequence:
#
# PCOD8245342 Si02
#       5
#     8   8   8   8   8
#     4  11  23  37  57  87 122 153 185 228 286 347
#     4  10  22  42  65  85 108 143 190 242 290 336
#     4  10  21  37  59  86 115 150 195 238 280 333
#     4   9  17  32  55  81 111 150 195 235 273 326
#     4   9  18  32  52  81 116 152 188 230 280 332
#
# _framework density 19.450125
#
# number of rings (size 3 to 8) (size 9 to 14) (size 15 to 20)
#    0.000    2.200    2.000    0.600    0.000    4.400 
#    0.000    2.000    0.000    0.000    0.000    0.000 
#    0.000    0.000    0.000    0.000    0.000    0.000 
#
# Total GULP energy -495961.304003 kJ/mol
# GULP energy per Si atom -12399.032600 kJ/mol
# Density = 1.940586 g / cm^3
# Si number density = 19.450125 Si / 1000 Ang^3
#
#
#
# Elastic Constant Matrix: (Units=GPa)
#
#
# Indices 1 2 3 4 5 6 
#
# 1 82.3193 33.6317 64.5735 0.0000 0.0000 0.0000
# 2 33.6317 76.9559 37.7296 0.0000 0.0000 0.0000
# 3 64.5735 37.7296 120.1119 0.0000 0.0000 0.0000
# 4 0.0000 0.0000 0.0000 12.2860 0.0000 0.0000
# 5 0.0000 0.0000 0.0000 0.0000 33.2876 0.0000
# 6 0.0000 0.0000 0.0000 0.0000 0.0000 25.4296
#
#
#
# Elastic Compliance Matrix: (Units=1/GPa)
#
#
# Indices 1 2 3 4 5 6 
#
# 1 0.022288 -0.004570 -0.010547 0.000000 0.000000 0.000000
# 2 -0.004570 0.016297 -0.002663 0.000000 0.000000 0.000000
# 3 -0.010547 -0.002663 0.014832 0.000000 0.000000 0.000000
# 4 0.000000 0.000000 0.000000 0.081394 0.000000 0.000000
# 5 0.000000 0.000000 0.000000 0.000000 0.030041 0.000000
# 6 0.000000 0.000000 0.000000 0.000000 0.000000 0.039324
#
#
# Mechanical properties :
#
#
# Convention : Reuss Voigt Hill
#
# Bulk Modulus (GPa) = 55.99434 61.25076 58.62255
# Shear Modulus (GPa) = 20.35110 23.76412 22.05761
#
# Velocity S-wave (km/s) = 3.23820 3.49921 3.37123
# Velocity P-wave (km/s) = 6.54465 6.91994 6.73491
#
# Compressibility (1/GPa) = 0.01785895
#
# Stress axis : x y z
#
# Youngs Moduli (GPa) = 44.86722 61.36160 67.42157
#
# Poissons Ratio (x) = 0.28040 0.71109
# Poissons Ratio (y) = 0.20502 0.17951
# Poissons Ratio (z) = 0.47321 0.16338
#
# Static dielectric constant tensor:
#      x y z
#    x 3.882800 0.000000 0.000000 
#    y 0.000000 3.784620 0.000000 
#    z 0.000000 0.000000 3.247120 
# 
# 
# High freq. dielectric constant tensor:
#      x y z
#    x 1.755110 0.000000 0.000000 
#    y 0.000000 1.766150 0.000000 
#    z 0.000000 0.000000 1.738300 
# 
# From -- ./inp_files/1422.got.cif
#   From: 2010.03.12/outbox.cif.g09.slc.cpg/sg59_1_cif.got.tgz:1422.got - 2010.04.16 16:29:54.
