data_PCOD8245368
_publ_section_title
;
Structure prediction by ZEFSAII (Michael W. Deem and Ramdas Pophale) SiO2 
 PCOD8245368
Probable space group: P M M N
;
_chemical_formula_sum "Si O2"
_cell_formula_units_Z 64
_cell_length_a 8.892785
_cell_length_b 18.469888
_cell_length_c 19.708969
_cell_angle_alpha 90.000000
_cell_angle_beta 90.000000
_cell_angle_gamma 90.000000
_cell_volume 3237.173383
_symmetry_space_group_name_H-M "P M M N"
_symmetry_group_IT_number 59
_space_group.IT_coordinate_system_code '2'
_symmetry_cell_setting 'orthorhombic'
loop_
_space_group_symop_operation_xyz
x,y,z
1/2-x,1/2-y,z
1/2+x,-y,-z
-x,1/2+y,-z
-x,-y,-z
1/2+x,1/2+y,-z
1/2-x,y,z
x,1/2-y,z
loop_
_atom_site_type_symbol
_atom_site_label
_atom_site_fract_x
_atom_site_fract_y
_atom_site_fract_z
Si Si1 0.074142 0.666085 0.041784
Si Si2 0.923303 0.090502 0.095849
Si Si3 0.071877 0.168658 0.219858
Si Si4 0.922229 0.835424 0.394924
Si Si5 0.427580 0.922661 0.512349
Si Si6 0.576017 0.933927 0.145320
Si Si7 0.076712 0.083179 0.349915
Si Si8 0.076792 0.571765 0.288450
O O1 0.250000 0.655196 0.055441
O O2 0.033013 0.750000 0.031211
O O3 0.984823 0.636373 0.106506
O O4 0.021013 0.621185 0.976079
O O5 0.750000 0.110653 0.107897
O O6 0.018960 0.128469 0.153260
O O7 0.949869 0.004359 0.098227
O O8 0.250000 0.167198 0.219961
O O9 0.008341 0.250000 0.220440
O O10 0.011222 0.127647 0.286306
O O11 0.750000 0.860502 0.403425
O O12 0.937417 0.750000 0.394773
O O13 0.020118 0.865785 0.456393
O O14 0.984946 0.863528 0.323080
O O15 0.250000 0.930548 0.508648
O O16 0.478142 0.893534 0.585715
O O17 0.500000 0.000000 0.500000
O O18 0.750000 0.922296 0.162604
O O19 0.487214 0.945467 0.214696
O O20 0.250000 0.103254 0.364235
O O21 0.059279 0.998079 0.336142
O O22 0.250000 0.594476 0.281096
#
# Coordination Sequence:
#
# PCOD8245368 Si02
#       8
#     8   8   8   8   8   8   8   8
#     4  10  22  40  60  84 118 159 201 247 304 365
#     4  10  21  38  61  88 119 157 198 246 300 359
#     4  10  21  37  59  88 122 158 195 238 292 354
#     4  11  25  44  66  93 126 162 204 259 316 368
#     4  12  24  39  64  93 124 162 205 252 301 362
#     4  11  23  38  61  91 121 155 202 254 303 359
#     4  10  21  38  60  89 122 159 202 246 296 356
#     4  11  22  39  65  91 121 162 203 250 302 361
#
# _framework density 19.770334999999999
#
# number of rings (size 3 to 8) (size 9 to 14) (size 15 to 20)
#    0.000    1.375    2.500    3.000    0.000    5.000 
#    0.000    1.250    0.000    0.000    0.000    0.000 
#    0.000    0.000    0.000    0.000    0.000    0.000 
#
# Total GULP energy -793986.201590 kJ/mol
# GULP energy per Si atom -12406.034400 kJ/mol
# Density = 1.972534 g / cm^3
# Si number density = 19.770335 Si / 1000 Ang^3
#
#
#
# Elastic Constant Matrix: (Units=GPa)
#
#
# Indices 1 2 3 4 5 6 
#
# 1 95.0749 39.4381 39.0466 0.0000 0.0000 0.0000
# 2 39.4381 83.9632 28.8598 0.0000 0.0000 0.0000
# 3 39.0466 28.8598 93.1516 0.0000 0.0000 0.0000
# 4 0.0000 0.0000 0.0000 35.7381 0.0000 0.0000
# 5 0.0000 0.0000 0.0000 0.0000 38.2585 0.0000
# 6 0.0000 0.0000 0.0000 0.0000 0.0000 27.1908
#
#
#
# Elastic Compliance Matrix: (Units=1/GPa)
#
#
# Indices 1 2 3 4 5 6 
#
# 1 0.014547 -0.005301 -0.004455 0.000000 0.000000 0.000000
# 2 -0.005301 0.015261 -0.002506 0.000000 0.000000 0.000000
# 3 -0.004455 -0.002506 0.013379 0.000000 0.000000 0.000000
# 4 0.000000 0.000000 0.000000 0.027981 0.000000 0.000000
# 5 0.000000 0.000000 0.000000 0.000000 0.026138 0.000000
# 6 0.000000 0.000000 0.000000 0.000000 0.000000 0.036777
#
#
# Mechanical properties :
#
#
# Convention : Reuss Voigt Hill
#
# Bulk Modulus (GPa) = 53.58443 54.09764 53.84103
# Shear Modulus (GPa) = 30.33433 31.22716 30.78075
#
# Velocity S-wave (km/s) = 3.92131 3.97860 3.95006
# Velocity P-wave (km/s) = 6.90395 6.96621 6.93515
#
# Compressibility (1/GPa) = 0.01866214
#
# Stress axis : x y z
#
# Youngs Moduli (GPa) = 68.74361 65.52457 74.74361
#
# Poissons Ratio (x) = 0.34737 0.33299
# Poissons Ratio (y) = 0.36444 0.18731
# Poissons Ratio (z) = 0.30626 0.16421
#
# Static dielectric constant tensor:
#      x y z
#    x 3.688560 0.000000 0.000000 
#    y 0.000000 3.660110 0.000000 
#    z 0.000000 0.000000 3.699510 
# 
# 
# High freq. dielectric constant tensor:
#      x y z
#    x 1.770950 0.000000 0.000000 
#    y 0.000000 1.771500 0.000000 
#    z 0.000000 0.000000 1.782530 
# 
# From -- ./inp_files/29401.got.cif
#   From: 2010.03.12/outbox.cif.g09.slc.cpg/sg59_15_cif.got.tgz:29401.got - 2010.04.16 16:29:54.
