data_PCOD8245408
_publ_section_title
;
Structure prediction by ZEFSAII (Michael W. Deem and Ramdas Pophale) SiO2 
 PCOD8245408
Probable space group: P M M N
;
_chemical_formula_sum "Si O2"
_cell_formula_units_Z 40
_cell_length_a 14.491920
_cell_length_b 17.213447
_cell_length_c 8.368422
_cell_angle_alpha 90.000000
_cell_angle_beta 90.000000
_cell_angle_gamma 90.000000
_cell_volume 2087.552215
_symmetry_space_group_name_H-M "P M M N"
_symmetry_group_IT_number 59
_space_group.IT_coordinate_system_code '2'
_symmetry_cell_setting 'orthorhombic'
loop_
_space_group_symop_operation_xyz
x,y,z
1/2-x,1/2-y,z
1/2+x,-y,-z
-x,1/2+y,-z
-x,-y,-z
1/2+x,1/2+y,-z
1/2-x,y,z
x,1/2-y,z
loop_
_atom_site_type_symbol
_atom_site_label
_atom_site_fract_x
_atom_site_fract_y
_atom_site_fract_z
Si Si1 0.750000 0.836576 0.486477
Si Si2 0.564353 0.972041 0.860145
Si Si3 0.447326 0.161744 0.356998
Si Si4 0.250000 0.838052 0.232135
Si Si5 0.250000 0.977265 0.003841
Si Si6 0.402968 0.582694 0.425737
Si Si7 0.750000 0.498350 0.364673
O O1 0.750000 0.750000 0.404529
O O2 0.840425 0.845525 0.594989
O O3 0.750000 0.907243 0.359755
O O4 0.538467 0.884460 0.809003
O O5 0.552619 0.024486 0.702550
O O6 0.500000 0.000000 0.000000
O O7 0.666184 0.973056 0.929507
O O8 0.476482 0.250000 0.324696
O O9 0.512971 0.127079 0.493108
O O10 0.250000 0.750000 0.173195
O O11 0.159796 0.853725 0.338187
O O12 0.250000 0.890369 0.073713
O O13 0.250000 0.967484 0.814659
O O14 0.341901 0.532776 0.549354
#
# Coordination Sequence:
#
# PCOD8245408 Si02
#       7
#     4   8   8   4   4   8   4
#     4  10  22  36  60  88 116 151 197 249 291 330
#     4  11  22  38  59  87 119 158 194 238 299 361
#     4  11  22  39  61  89 119 158 202 253 295 345
#     4   9  19  39  59  86 120 151 187 247 308 357
#     4  10  23  37  58  85 115 159 199 240 296 361
#     4  10  21  37  63  89 115 155 201 244 293 356
#     4  11  20  40  65  89 117 153 205 246 289 356
#
# _framework density 19.161197999999999
#
# number of rings (size 3 to 8) (size 9 to 14) (size 15 to 20)
#    0.000    1.600    2.000    3.600    2.800    0.000 
#    0.000   13.000    0.000    0.000    0.000    0.000 
#    0.000    0.000    0.000    0.000    0.000    0.000 
#
# Total GULP energy -496021.611538 kJ/mol
# GULP energy per Si atom -12400.540288 kJ/mol
# Density = 1.911759 g / cm^3
# Si number density = 19.161198 Si / 1000 Ang^3
#
#
#
# Elastic Constant Matrix: (Units=GPa)
#
#
# Indices 1 2 3 4 5 6 
#
# 1 118.8567 61.4602 59.5078 0.0000 0.0000 0.0000
# 2 61.4602 145.1278 81.0506 0.0000 0.0000 0.0000
# 3 59.5078 81.0506 149.6065 0.0000 0.0000 0.0000
# 4 0.0000 0.0000 0.0000 22.7336 0.0000 0.0000
# 5 0.0000 0.0000 0.0000 0.0000 35.8764 0.0000
# 6 0.0000 0.0000 0.0000 0.0000 0.0000 23.5892
#
#
#
# Elastic Compliance Matrix: (Units=1/GPa)
#
#
# Indices 1 2 3 4 5 6 
#
# 1 0.011527 -0.003328 -0.002782 0.000000 0.000000 0.000000
# 2 -0.003328 0.010840 -0.004549 0.000000 0.000000 0.000000
# 3 -0.002782 -0.004549 0.010255 0.000000 0.000000 0.000000
# 4 0.000000 0.000000 0.000000 0.043988 0.000000 0.000000
# 5 0.000000 0.000000 0.000000 0.000000 0.027873 0.000000
# 6 0.000000 0.000000 0.000000 0.000000 0.000000 0.042392
#
#
# Mechanical properties :
#
#
# Convention : Reuss Voigt Hill
#
# Bulk Modulus (GPa) = 88.45979 90.84756 89.65368
# Shear Modulus (GPa) = 29.07596 30.54466 29.81031
#
# Velocity S-wave (km/s) = 3.89966 3.99694 3.94860
# Velocity P-wave (km/s) = 8.15738 8.29553 8.22674
#
# Compressibility (1/GPa) = 0.01130457
#
# Stress axis : x y z
#
# Youngs Moduli (GPa) = 86.75060 92.24735 97.50947
#
# Poissons Ratio (x) = 0.30699 0.27129
# Poissons Ratio (y) = 0.28870 0.44359
# Poissons Ratio (z) = 0.24136 0.41965
#
# Static dielectric constant tensor:
#      x y z
#    x 3.647190 0.000000 0.000000 
#    y 0.000000 3.652710 0.000000 
#    z 0.000000 0.000000 3.462890 
# 
# 
# High freq. dielectric constant tensor:
#      x y z
#    x 1.764200 0.000000 0.000000 
#    y 0.000000 1.747740 0.000000 
#    z 0.000000 0.000000 1.732180 
# 
# From -- ./inp_files/8665.got.cif
#   From: 2010.03.12/outbox.cif.g09.slc.cpg/sg59_5_cif.got.tgz:8665.got - 2010.04.16 16:29:54.
