data_PCOD8245219
_publ_section_title
;
Structure prediction by ZEFSAII (Michael W. Deem and Ramdas Pophale) SiO2 
 PCOD8245219
Probable space group: P M M N
;
_chemical_formula_sum "Si O2"
_cell_formula_units_Z 64
_cell_length_a 8.922530
_cell_length_b 15.282947
_cell_length_c 24.276409
_cell_angle_alpha 90.000000
_cell_angle_beta 90.000000
_cell_angle_gamma 90.000000
_cell_volume 3310.393111
_symmetry_space_group_name_H-M "P M M N"
_symmetry_group_IT_number 59
_space_group.IT_coordinate_system_code '2'
_symmetry_cell_setting 'orthorhombic'
loop_
_space_group_symop_operation_xyz
x,y,z
1/2-x,1/2-y,z
1/2+x,-y,-z
-x,1/2+y,-z
-x,-y,-z
1/2+x,1/2+y,-z
1/2-x,y,z
x,1/2-y,z
loop_
_atom_site_type_symbol
_atom_site_label
_atom_site_fract_x
_atom_site_fract_y
_atom_site_fract_z
Si Si1 0.427038 0.151590 0.386375
Si Si2 0.572747 0.905498 0.999060
Si Si3 0.071649 0.499358 0.307643
Si Si4 0.921088 0.152341 0.893434
Si Si5 0.578252 0.151236 0.109847
Si Si6 0.084558 0.646240 0.504918
Si Si7 0.429094 0.847660 0.384427
Si Si8 0.073220 0.007155 0.183181
O O1 0.250000 0.151932 0.387637
O O2 0.488723 0.250000 0.375427
O O3 0.486767 0.088353 0.338009
O O4 0.480275 0.113506 0.445267
O O5 0.750000 0.914122 0.994760
O O6 0.528548 0.854318 0.054092
O O7 0.512940 0.853011 0.946769
O O8 0.500000 0.000000 0.000000
O O9 0.250000 0.502258 0.308240
O O10 0.008200 0.585149 0.338833
O O11 0.012051 0.499793 0.245312
O O12 0.750000 0.134329 0.912230
O O13 0.937204 0.250000 0.868474
O O14 0.969736 0.083070 0.847144
O O15 0.750000 0.124083 0.098663
O O16 0.567204 0.250000 0.132589
O O17 0.508784 0.088030 0.155177
O O18 0.250000 0.605777 0.513486
O O19 0.094845 0.750000 0.505482
O O20 0.017496 0.619246 0.445113
O O21 0.250000 0.845710 0.384830
O O22 0.490466 0.750000 0.371041
O O23 0.250000 0.024757 0.181235
#
# Coordination Sequence:
#
# PCOD8245219 Si02
#       8
#     8   8   8   8   8   8   8   8
#     4   9  17  29  45  67  98 133 166 209 263 313
#     4  12  23  37  61  90 119 150 182 221 272 326
#     4   9  18  31  48  72  99 132 177 218 257 310
#     4  10  21  37  57  84 117 149 182 224 273 324
#     4  11  24  41  61  85 114 148 184 227 276 324
#     4   8  14  26  45  69  96 127 165 209 257 312
#     4   8  14  26  46  72 101 130 163 210 263 311
#     4  10  21  37  57  80 108 145 186 229 273 321
#
# _framework density 19.333051000000001
#
# number of rings (size 3 to 8) (size 9 to 14) (size 15 to 20)
#    0.000    2.375    1.250    2.625    0.000    4.250 
#    0.000    4.375    0.000    2.250    0.000    0.000 
#    0.000    0.000    0.000    0.000    0.000    0.000 
#
# Total GULP energy -793456.350925 kJ/mol
# GULP energy per Si atom -12397.755483 kJ/mol
# Density = 1.928905 g / cm^3
# Si number density = 19.333051 Si / 1000 Ang^3
#
#
#
# Elastic Constant Matrix: (Units=GPa)
#
#
# Indices 1 2 3 4 5 6 
#
# 1 56.6575 32.9663 40.0413 0.0000 0.0000 0.0000
# 2 32.9663 129.1892 80.3027 0.0000 0.0000 0.0000
# 3 40.0413 80.3027 178.0674 0.0000 0.0000 0.0000
# 4 0.0000 0.0000 0.0000 14.7937 0.0000 0.0000
# 5 0.0000 0.0000 0.0000 0.0000 25.0217 0.0000
# 6 0.0000 0.0000 0.0000 0.0000 0.0000 18.4161
#
#
#
# Elastic Compliance Matrix: (Units=1/GPa)
#
#
# Indices 1 2 3 4 5 6 
#
# 1 0.022093 -0.003543 -0.003370 0.000000 0.000000 0.000000
# 2 -0.003543 0.011324 -0.004310 0.000000 0.000000 0.000000
# 3 -0.003370 -0.004310 0.008317 0.000000 0.000000 0.000000
# 4 0.000000 0.000000 0.000000 0.067596 0.000000 0.000000
# 5 0.000000 0.000000 0.000000 0.000000 0.039965 0.000000
# 6 0.000000 0.000000 0.000000 0.000000 0.000000 0.054300
#
#
# Mechanical properties :
#
#
# Convention : Reuss Voigt Hill
#
# Bulk Modulus (GPa) = 51.84537 74.50386 63.17462
# Shear Modulus (GPa) = 21.50801 25.68656 23.59729
#
# Velocity S-wave (km/s) = 3.33903 3.64900 3.49745
# Velocity P-wave (km/s) = 6.46071 7.50828 7.00411
#
# Compressibility (1/GPa) = 0.01928812
#
# Stress axis : x y z
#
# Youngs Moduli (GPa) = 45.26287 88.31086 120.23003
#
# Poissons Ratio (x) = 0.31286 0.40522
# Poissons Ratio (y) = 0.16035 0.51819
# Poissons Ratio (z) = 0.15255 0.38062
#
# Static dielectric constant tensor:
#      x y z
#    x 3.327330 0.000000 0.000000 
#    y 0.000000 3.696830 0.000000 
#    z 0.000000 0.000000 3.751310 
# 
# 
# High freq. dielectric constant tensor:
#      x y z
#    x 1.718060 0.000000 0.000000 
#    y 0.000000 1.758550 0.000000 
#    z 0.000000 0.000000 1.750840 
# 
# From -- ./inp_files/31683.got.cif
#   From: 2010.03.12/outbox.cif.g09.slc.cpg/sg59_16_cif.got.tgz:31683.got - 2010.04.16 16:29:54.
