data_PCOD8245248
_publ_section_title
;
Structure prediction by ZEFSAII (Michael W. Deem and Ramdas Pophale) SiO2 
 PCOD8245248
Probable space group: P M M N
;
_chemical_formula_sum "Si O2"
_cell_formula_units_Z 56
_cell_length_a 19.463734
_cell_length_b 8.785322
_cell_length_c 16.172094
_cell_angle_alpha 90.000000
_cell_angle_beta 90.000000
_cell_angle_gamma 90.000000
_cell_volume 2765.349971
_symmetry_space_group_name_H-M "P M M N"
_symmetry_group_IT_number 59
_space_group.IT_coordinate_system_code '2'
_symmetry_cell_setting 'orthorhombic'
loop_
_space_group_symop_operation_xyz
x,y,z
1/2-x,1/2-y,z
1/2+x,-y,-z
-x,1/2+y,-z
-x,-y,-z
1/2+x,1/2+y,-z
1/2-x,y,z
x,1/2-y,z
loop_
_atom_site_type_symbol
_atom_site_label
_atom_site_fract_x
_atom_site_fract_y
_atom_site_fract_z
Si Si1 0.329614 0.424170 0.673891
Si Si2 0.087036 0.429008 0.829267
Si Si3 0.173368 0.068815 0.979644
Si Si4 0.454347 0.070687 0.427788
Si Si5 0.171345 0.572440 0.502838
Si Si6 0.548322 0.428171 0.744406
Si Si7 0.329154 0.072476 0.164740
O O1 0.250000 0.434488 0.696536
O O2 0.351092 0.250000 0.653874
O O3 0.370801 0.493026 0.751217
O O4 0.348713 0.527678 0.595925
O O5 0.099653 0.250000 0.832531
O O6 0.117598 0.498961 0.914608
O O7 0.006622 0.468462 0.817079
O O8 0.250000 0.013001 0.954638
O O9 0.172610 0.250000 0.980906
O O10 0.155341 0.011820 0.071968
O O11 0.462476 0.250000 0.430381
O O12 0.500000 0.000000 0.500000
O O13 0.375007 0.022351 0.439465
O O14 0.477866 0.009850 0.338651
O O15 0.250000 0.528987 0.483999
O O16 0.157162 0.750000 0.490507
O O17 0.550038 0.250000 0.726200
O O18 0.623426 0.482138 0.771493
O O19 0.250000 0.040558 0.187949
O O20 0.346305 0.250000 0.172587
#
# Coordination Sequence:
#
# PCOD8245248 Si02
#       7
#     8   8   8   8   8   8   8
#     4   9  16  28  50  79 110 145 184 226 274 328
#     4   9  17  29  48  78 113 144 179 224 271 325
#     4   8  14  28  53  82 110 143 184 227 269 316
#     4  12  25  42  63  84 111 147 188 233 282 339
#     4  10  21  37  57  82 112 145 184 232 285 338
#     4  11  23  37  55  82 114 147 181 222 278 337
#     4   9  19  37  59  81 107 143 189 237 280 324
#
# _framework density 20.250601
#
# number of rings (size 3 to 8) (size 9 to 14) (size 15 to 20)
#    0.000    2.286    0.000    4.286    0.000    5.143 
#    0.000    0.714    0.000    1.714    0.000    2.000 
#    0.000    0.000    0.000    0.000    0.000    0.000 
#
# Total GULP energy -694376.223735 kJ/mol
# GULP energy per Si atom -12399.575424 kJ/mol
# Density = 2.020451 g / cm^3
# Si number density = 20.250601 Si / 1000 Ang^3
#
#
#
# Elastic Constant Matrix: (Units=GPa)
#
#
# Indices 1 2 3 4 5 6 
#
# 1 93.8827 38.3057 51.0975 0.0000 0.0000 0.0000
# 2 38.3057 81.2269 36.4805 0.0000 0.0000 0.0000
# 3 51.0975 36.4805 99.9161 0.0000 0.0000 0.0000
# 4 0.0000 0.0000 0.0000 23.0994 0.0000 0.0000
# 5 0.0000 0.0000 0.0000 0.0000 39.4184 0.0000
# 6 0.0000 0.0000 0.0000 0.0000 0.0000 26.2219
#
#
#
# Elastic Compliance Matrix: (Units=1/GPa)
#
#
# Indices 1 2 3 4 5 6 
#
# 1 0.016112 -0.004662 -0.006538 0.000000 0.000000 0.000000
# 2 -0.004662 0.016075 -0.003485 0.000000 0.000000 0.000000
# 3 -0.006538 -0.003485 0.014624 0.000000 0.000000 0.000000
# 4 0.000000 0.000000 0.000000 0.043291 0.000000 0.000000
# 5 0.000000 0.000000 0.000000 0.000000 0.025369 0.000000
# 6 0.000000 0.000000 0.000000 0.000000 0.000000 0.038136
#
#
# Mechanical properties :
#
#
# Convention : Reuss Voigt Hill
#
# Bulk Modulus (GPa) = 57.33323 58.53254 57.93289
# Shear Modulus (GPa) = 26.48443 27.69075 27.08759
#
# Velocity S-wave (km/s) = 3.62032 3.70185 3.66132
# Velocity P-wave (km/s) = 6.77119 6.87303 6.82230
#
# Compressibility (1/GPa) = 0.01744189
#
# Stress axis : x y z
#
# Youngs Moduli (GPa) = 62.06560 62.20868 68.38026
#
# Poissons Ratio (x) = 0.29002 0.44704
# Poissons Ratio (y) = 0.28936 0.23830
# Poissons Ratio (z) = 0.40576 0.21679
#
# Static dielectric constant tensor:
#      x y z
#    x 3.819580 0.000000 0.000000 
#    y 0.000000 3.322430 0.000000 
#    z 0.000000 0.000000 3.794340 
# 
# 
# High freq. dielectric constant tensor:
#      x y z
#    x 1.799770 0.000000 0.000000 
#    y 0.000000 1.756880 0.000000 
#    z 0.000000 0.000000 1.791270 
# 
# From -- ./inp_files/24272.got.cif
#   From: 2010.03.12/outbox.cif.g09.slc.cpg/sg59_13_cif.got.tgz:24272.got - 2010.04.16 16:29:54.
