data_PCOD8245857
_publ_section_title
;
Structure prediction by ZEFSAII (Michael W. Deem and Ramdas Pophale) SiO2 
 PCOD8245857
Probable space group: P M M N
;
_chemical_formula_sum "Si O2"
_cell_formula_units_Z 48
_cell_length_a 27.935178
_cell_length_b 8.503911
_cell_length_c 9.989740
_cell_angle_alpha 90.000000
_cell_angle_beta 90.000000
_cell_angle_gamma 90.000000
_cell_volume 2373.145327
_symmetry_space_group_name_H-M "P M M N"
_symmetry_group_IT_number 59
_space_group.IT_coordinate_system_code '2'
_symmetry_cell_setting 'orthorhombic'
loop_
_space_group_symop_operation_xyz
x,y,z
1/2-x,1/2-y,z
1/2+x,-y,-z
-x,1/2+y,-z
-x,-y,-z
1/2+x,1/2+y,-z
1/2-x,y,z
x,1/2-y,z
loop_
_atom_site_type_symbol
_atom_site_label
_atom_site_fract_x
_atom_site_fract_y
_atom_site_fract_z
Si Si1 0.128082 0.567355 0.484358
Si Si2 0.032110 0.432926 0.383516
Si Si3 0.480635 0.434000 0.862996
Si Si4 0.805931 0.066194 0.009691
Si Si5 0.693558 0.571390 0.726807
Si Si6 0.123469 0.064986 0.774059
O O1 0.114807 0.750000 0.473995
O O2 0.086838 0.461955 0.419320
O O3 0.175177 0.528628 0.399113
O O4 0.137091 0.523177 0.637867
O O5 0.021927 0.250000 0.365580
O O6 0.000000 0.500000 0.500000
O O7 0.019334 0.520826 0.247657
O O8 0.476956 0.250000 0.876785
O O9 0.427837 0.499867 0.826258
O O10 0.500000 0.500000 0.000000
O O11 0.750000 0.028107 0.030973
O O12 0.816628 0.250000 0.024213
O O13 0.835440 0.970745 0.119378
O O14 0.823631 0.008942 0.864487
O O15 0.750000 0.567343 0.716944
O O16 0.674182 0.750000 0.722641
O O17 0.121053 0.250000 0.745383
#
# Coordination Sequence:
#
# PCOD8245857 Si02
#       6
#     8   8   8   8   8   8
#     4  12  25  41  65  94 126 166 209 258 312 368
#     4  12  24  42  66  92 127 167 208 254 308 370
#     4  11  25  43  64  92 127 167 209 258 311 368
#     4  10  22  41  65  93 126 164 207 256 311 372
#     4  10  22  42  67  94 126 164 207 256 311 372
#     4  11  24  42  64  91 126 165 209 258 310 372
#
# _framework density 20.226322
#
# number of rings (size 3 to 8) (size 9 to 14) (size 15 to 20)
#    0.000    1.000    1.667    5.000    2.333    4.667 
#    0.000    0.000    0.000    0.000    0.000    0.000 
#    0.000    0.000    0.000    0.000    0.000    0.000 
#
# Total GULP energy -595508.973049 kJ/mol
# GULP energy per Si atom -12406.436939 kJ/mol
# Density = 2.018029 g / cm^3
# Si number density = 20.226322 Si / 1000 Ang^3
#
#
#
# Elastic Constant Matrix: (Units=GPa)
#
#
# Indices 1 2 3 4 5 6 
#
# 1 61.2367 22.5482 48.9886 0.0000 0.0000 0.0000
# 2 22.5482 67.4146 22.6568 0.0000 0.0000 0.0000
# 3 48.9886 22.6568 160.2122 0.0000 0.0000 0.0000
# 4 0.0000 0.0000 0.0000 41.4927 0.0000 0.0000
# 5 0.0000 0.0000 0.0000 0.0000 38.8411 0.0000
# 6 0.0000 0.0000 0.0000 0.0000 0.0000 33.8366
#
#
#
# Elastic Compliance Matrix: (Units=1/GPa)
#
#
# Indices 1 2 3 4 5 6 
#
# 1 0.023553 -0.005730 -0.006392 0.000000 0.000000 0.000000
# 2 -0.005730 0.016968 -0.000648 0.000000 0.000000 0.000000
# 3 -0.006392 -0.000648 0.008288 0.000000 0.000000 0.000000
# 4 0.000000 0.000000 0.000000 0.024101 0.000000 0.000000
# 5 0.000000 0.000000 0.000000 0.000000 0.025746 0.000000
# 6 0.000000 0.000000 0.000000 0.000000 0.000000 0.029554
#
#
# Mechanical properties :
#
#
# Convention : Reuss Voigt Hill
#
# Bulk Modulus (GPa) = 42.97255 53.02787 48.00021
# Shear Modulus (GPa) = 30.95913 35.81208 33.38560
#
# Velocity S-wave (km/s) = 3.91658 4.21238 4.06717
# Velocity P-wave (km/s) = 6.46102 7.06633 6.77044
#
# Compressibility (1/GPa) = 0.02327067
#
# Stress axis : x y z
#
# Youngs Moduli (GPa) = 42.45733 58.93584 120.66101
#
# Poissons Ratio (x) = 0.33768 0.77122
# Poissons Ratio (y) = 0.24327 0.07813
# Poissons Ratio (z) = 0.27137 0.03816
#
# Static dielectric constant tensor:
#      x y z
#    x 3.803850 0.000000 0.000000 
#    y 0.000000 3.738720 0.000000 
#    z 0.000000 0.000000 3.894540 
# 
# 
# High freq. dielectric constant tensor:
#      x y z
#    x 1.791990 0.000000 0.000000 
#    y 0.000000 1.804750 0.000000 
#    z 0.000000 0.000000 1.803460 
# 
# From -- ./inp_files/12966.got.cif
#   From: 2010.03.12/outbox.cif.g09.slc.cpg/sg59_7_cif.got.tgz:12966.got - 2010.04.16 16:29:54.
