data_PCOD8245700
_publ_section_title
;
Structure prediction by ZEFSAII (Michael W. Deem and Ramdas Pophale) SiO2 
 PCOD8245700
Probable space group: P M M N
;
_chemical_formula_sum "Si O2"
_cell_formula_units_Z 48
_cell_length_a 17.787409
_cell_length_b 21.644787
_cell_length_c 5.311404
_cell_angle_alpha 90.000000
_cell_angle_beta 90.000000
_cell_angle_gamma 90.000000
_cell_volume 2044.915393
_symmetry_space_group_name_H-M "P M M N"
_symmetry_group_IT_number 59
_space_group.IT_coordinate_system_code '2'
_symmetry_cell_setting 'orthorhombic'
loop_
_space_group_symop_operation_xyz
x,y,z
1/2-x,1/2-y,z
1/2+x,-y,-z
-x,1/2+y,-z
-x,-y,-z
1/2+x,1/2+y,-z
1/2-x,y,z
x,1/2-y,z
loop_
_atom_site_type_symbol
_atom_site_label
_atom_site_fract_x
_atom_site_fract_y
_atom_site_fract_z
Si Si1 0.537319 0.407383 0.628838
Si Si2 0.662701 0.414719 0.007937
Si Si3 0.907167 0.821694 0.047051
Si Si4 0.443981 0.678824 0.779735
Si Si5 0.837618 0.876190 0.548739
Si Si6 0.907423 0.515015 0.308821
O O1 0.516254 0.343752 0.480824
O O2 0.466627 0.432449 0.801471
O O3 0.543161 0.459083 0.412352
O O4 0.618763 0.403093 0.750908
O O5 0.750000 0.404867 0.959749
O O6 0.632204 0.361338 0.195319
O O7 0.646644 0.485065 0.097756
O O8 0.891930 0.750000 0.995238
O O9 0.863784 0.857949 0.827439
O O10 0.998718 0.833249 0.016659
O O11 0.878580 0.838716 0.324155
O O12 0.422027 0.750000 0.755551
O O13 0.750000 0.863088 0.525058
O O14 0.855377 0.949348 0.512623
#
# Coordination Sequence:
#
# PCOD8245700 Si02
#       6
#     8   8   8   8   8   8
#     4  10  21  41  68  93 128 172 225 282 338 415
#     4  11  24  40  63  95 134 175 221 287 356 412
#     4  11  25  45  68  96 135 182 233 283 341 415
#     4  10  23  43  68  94 127 175 231 285 342 415
#     4  12  25  41  67 101 139 179 226 284 348 414
#     4  10  22  40  64  95 129 174 223 276 336 414
#
# _framework density 23.472853000000001
#
# number of rings (size 3 to 8) (size 9 to 14) (size 15 to 20)
#    0.000    1.333    1.667    3.000    2.333    6.333 
#    0.000    0.000    0.000    0.000    0.000    0.000 
#    0.000    0.000    0.000    0.000    0.000    0.000 
#
# Total GULP energy -594871.063283 kJ/mol
# GULP energy per Si atom -12393.147152 kJ/mol
# Density = 2.341943 g / cm^3
# Si number density = 23.472853 Si / 1000 Ang^3
#
#
#
# Elastic Constant Matrix: (Units=GPa)
#
#
# Indices 1 2 3 4 5 6 
#
# 1 169.5095 32.1761 22.7797 0.0000 0.0000 0.0000
# 2 32.1761 89.2061 -2.3945 0.0000 0.0000 0.0000
# 3 22.7797 -2.3945 62.3721 0.0000 0.0000 0.0000
# 4 0.0000 0.0000 0.0000 20.0281 0.0000 0.0000
# 5 0.0000 0.0000 0.0000 0.0000 33.2061 0.0000
# 6 0.0000 0.0000 0.0000 0.0000 0.0000 26.6634
#
#
#
# Elastic Compliance Matrix: (Units=1/GPa)
#
#
# Indices 1 2 3 4 5 6 
#
# 1 0.006714 -0.002490 -0.002548 0.000000 0.000000 0.000000
# 2 -0.002490 0.012145 0.001376 0.000000 0.000000 0.000000
# 3 -0.002548 0.001376 0.017016 0.000000 0.000000 0.000000
# 4 0.000000 0.000000 0.000000 0.049930 0.000000 0.000000
# 5 0.000000 0.000000 0.000000 0.000000 0.030115 0.000000
# 6 0.000000 0.000000 0.000000 0.000000 0.000000 0.037505
#
#
# Mechanical properties :
#
#
# Convention : Reuss Voigt Hill
#
# Bulk Modulus (GPa) = 35.02499 47.35668 41.19084
# Shear Modulus (GPa) = 29.36566 33.88130 31.62348
#
# Velocity S-wave (km/s) = 3.54085 3.80336 3.67445
# Velocity P-wave (km/s) = 5.62768 6.28541 5.96561
#
# Compressibility (1/GPa) = 0.02855104
#
# Stress axis : x y z
#
# Youngs Moduli (GPa) = 148.93212 82.33745 58.76763
#
# Poissons Ratio (x) = 0.20504 0.14973
# Poissons Ratio (y) = 0.37088 -0.08085
# Poissons Ratio (z) = 0.37946 -0.11328
#
# Static dielectric constant tensor:
#      x y z
#    x 4.252590 0.000000 0.000000 
#    y 0.000000 4.593850 0.000000 
#    z 0.000000 0.000000 4.181480 
# 
# 
# High freq. dielectric constant tensor:
#      x y z
#    x 1.919690 0.000000 0.000000 
#    y 0.000000 1.947630 0.000000 
#    z 0.000000 0.000000 1.926140 
# 
# From -- ./inp_files/2847.got.cif
#   From: 2010.03.12/outbox.cif.g09.slc.cpg/sg59_2_cif.got.tgz:2847.got - 2010.04.16 16:29:54.
