data_PCOD8245541
_publ_section_title
;
Structure prediction by ZEFSAII (Michael W. Deem and Ramdas Pophale) SiO2 
 PCOD8245541
Probable space group: P M M N
;
_chemical_formula_sum "Si O2"
_cell_formula_units_Z 40
_cell_length_a 8.965604
_cell_length_b 8.764833
_cell_length_c 25.628715
_cell_angle_alpha 90.000000
_cell_angle_beta 90.000000
_cell_angle_gamma 90.000000
_cell_volume 2013.956241
_symmetry_space_group_name_H-M "P M M N"
_symmetry_group_IT_number 59
_space_group.IT_coordinate_system_code '2'
_symmetry_cell_setting 'orthorhombic'
loop_
_space_group_symop_operation_xyz
x,y,z
1/2-x,1/2-y,z
1/2+x,-y,-z
-x,1/2+y,-z
-x,-y,-z
1/2+x,1/2+y,-z
1/2-x,y,z
x,1/2-y,z
loop_
_atom_site_type_symbol
_atom_site_label
_atom_site_fract_x
_atom_site_fract_y
_atom_site_fract_z
Si Si1 0.576687 0.072528 0.851053
Si Si2 0.073927 0.573631 0.949867
Si Si3 0.924857 0.924946 0.354253
Si Si4 0.081472 0.070579 0.451012
Si Si5 0.921188 0.428325 0.245853
O O1 0.750000 0.041714 0.862398
O O2 0.543916 0.250000 0.841794
O O3 0.481191 0.015592 0.899489
O O4 0.528226 0.979835 0.800343
O O5 0.250000 0.555637 0.954629
O O6 0.026808 0.750000 0.945507
O O7 0.000000 0.500000 0.000000
O O8 0.750000 0.946746 0.362707
O O9 0.973456 0.750000 0.359957
O O10 0.973010 0.983448 0.297479
O O11 0.006599 0.024342 0.397127
O O12 0.250000 0.010283 0.450868
O O13 0.074052 0.250000 0.456949
O O14 0.000000 0.000000 0.500000
O O15 0.750000 0.468073 0.231515
O O16 0.941277 0.250000 0.255960
#
# Coordination Sequence:
#
# PCOD8245541 Si02
#       5
#     8   8   8   8   8
#     4  11  24  40  59  86 119 155 196 240 287 341
#     4  11  24  41  62  89 119 152 193 239 288 344
#     4  10  21  38  61  88 117 151 192 237 287 343
#     4  11  24  40  59  85 116 151 192 237 287 343
#     4  10  21  38  61  88 117 152 194 238 287 343
#
# _framework density 19.861405999999999
#
# number of rings (size 3 to 8) (size 9 to 14) (size 15 to 20)
#    0.000    1.400    0.000    4.800    0.000   15.200 
#    0.000    0.000    0.000    0.000    0.000    0.000 
#    0.000    0.000    0.000    0.000    0.000    0.000 
#
# Total GULP energy -496262.319703 kJ/mol
# GULP energy per Si atom -12406.557993 kJ/mol
# Density = 1.981620 g / cm^3
# Si number density = 19.861406 Si / 1000 Ang^3
#
#
#
# Elastic Constant Matrix: (Units=GPa)
#
#
# Indices 1 2 3 4 5 6 
#
# 1 65.7285 27.2618 40.9304 0.0000 0.0000 0.0000
# 2 27.2618 50.6858 15.2039 0.0000 0.0000 0.0000
# 3 40.9304 15.2039 119.0874 0.0000 0.0000 0.0000
# 4 0.0000 0.0000 0.0000 46.1614 0.0000 0.0000
# 5 0.0000 0.0000 0.0000 0.0000 41.6454 0.0000
# 6 0.0000 0.0000 0.0000 0.0000 0.0000 33.0081
#
#
#
# Elastic Compliance Matrix: (Units=1/GPa)
#
#
# Indices 1 2 3 4 5 6 
#
# 1 0.023982 -0.010841 -0.006858 0.000000 0.000000 0.000000
# 2 -0.010841 0.025416 0.000481 0.000000 0.000000 0.000000
# 3 -0.006858 0.000481 0.010693 0.000000 0.000000 0.000000
# 4 0.000000 0.000000 0.000000 0.021663 0.000000 0.000000
# 5 0.000000 0.000000 0.000000 0.000000 0.024012 0.000000
# 6 0.000000 0.000000 0.000000 0.000000 0.000000 0.030296
#
#
# Mechanical properties :
#
#
# Convention : Reuss Voigt Hill
#
# Bulk Modulus (GPa) = 38.98063 44.69934 41.83999
# Shear Modulus (GPa) = 27.92514 34.30332 31.11423
#
# Velocity S-wave (km/s) = 3.75373 4.16039 3.96228
# Velocity P-wave (km/s) = 6.20131 6.75522 6.48418
#
# Compressibility (1/GPa) = 0.02565376
#
# Stress axis : x y z
#
# Youngs Moduli (GPa) = 41.69861 39.34496 93.51937
#
# Poissons Ratio (x) = 0.42656 0.64139
# Poissons Ratio (y) = 0.45207 -0.04501
# Poissons Ratio (z) = 0.28598 -0.01894
#
# Static dielectric constant tensor:
#      x y z
#    x 3.816890 0.000000 0.000000 
#    y 0.000000 3.675240 0.000000 
#    z 0.000000 0.000000 12.717860 
# 
# 
# High freq. dielectric constant tensor:
#      x y z
#    x 1.778920 0.000000 0.000000 
#    y 0.000000 1.792380 0.000000 
#    z 0.000000 0.000000 1.792060 
# 
# From -- ./inp_files/31130.got.cif
#   From: 2010.03.12/outbox.cif.g09.slc.cpg/sg59_16_cif.got.tgz:31130.got - 2010.04.16 16:29:54.
