data_PCOD8245444
_publ_section_title
;
Structure prediction by ZEFSAII (Michael W. Deem and Ramdas Pophale) SiO2 
 PCOD8245444
Probable space group: P M M N
;
_chemical_formula_sum "Si O2"
_cell_formula_units_Z 64
_cell_length_a 14.638776
_cell_length_b 8.842956
_cell_length_c 24.242138
_cell_angle_alpha 90.000000
_cell_angle_beta 90.000000
_cell_angle_gamma 90.000000
_cell_volume 3138.146026
_symmetry_space_group_name_H-M "P M M N"
_symmetry_group_IT_number 59
_space_group.IT_coordinate_system_code '2'
_symmetry_cell_setting 'orthorhombic'
loop_
_space_group_symop_operation_xyz
x,y,z
1/2-x,1/2-y,z
1/2+x,-y,-z
-x,1/2+y,-z
-x,-y,-z
1/2+x,1/2+y,-z
1/2-x,y,z
x,1/2-y,z
loop_
_atom_site_type_symbol
_atom_site_label
_atom_site_fract_x
_atom_site_fract_y
_atom_site_fract_z
Si Si1 0.980284 0.428591 0.252150
Si Si2 0.354202 0.930768 0.309851
Si Si3 0.648979 0.570314 0.043101
Si Si4 0.515239 0.571395 0.137770
Si Si5 0.858167 0.576373 0.343134
Si Si6 0.141497 0.577830 0.547136
Si Si7 0.358363 0.582446 0.428920
Si Si8 0.643942 0.924813 0.919751
O O1 0.985809 0.250000 0.249919
O O2 0.905006 0.477523 0.296282
O O3 0.080569 0.494303 0.265058
O O4 0.949600 0.492952 0.193271
O O5 0.250000 0.979341 0.297083
O O6 0.363393 0.750000 0.308312
O O7 0.387228 0.993919 0.370640
O O8 0.750000 0.508277 0.057694
O O9 0.651081 0.750000 0.043257
O O10 0.578512 0.508290 0.088238
O O11 0.620946 0.516799 0.981664
O O12 0.522920 0.750000 0.145200
O O13 0.411670 0.524884 0.123914
O O14 0.750000 0.551793 0.338751
O O15 0.885839 0.750000 0.334828
O O16 0.896769 0.523838 0.402948
O O17 0.250000 0.577055 0.549770
O O18 0.106035 0.750000 0.553751
O O19 0.110368 0.505769 0.487265
O O20 0.250000 0.593010 0.427433
O O21 0.399766 0.750000 0.430398
O O22 0.750000 0.948836 0.906617
O O23 0.616431 0.750000 0.912653
#
# Coordination Sequence:
#
# PCOD8245444 Si02
#       8
#     8   8   8   8   8   8   8   8
#     4  12  26  41  56  77 109 148 192 236 277 328
#     4   9  18  36  61  84 108 141 182 230 282 333
#     4   8  16  33  58  87 116 145 177 215 265 324
#     4  11  22  36  57  83 111 145 186 231 274 316
#     4  10  21  38  59  81 107 141 182 230 281 330
#     4   8  13  25  49  80 110 138 170 211 267 335
#     4   7  11  23  48  80 108 135 169 213 270 333
#     4   9  18  35  59  86 117 150 180 214 263 322
#
# _framework density 20.394207000000002
#
# number of rings (size 3 to 8) (size 9 to 14) (size 15 to 20)
#    0.000    2.750    0.000    4.500    0.000    2.250 
#    0.000    3.125    0.000    4.875    0.000    0.000 
#    0.000    0.000    0.000    0.000    0.000    0.000 
#
# Total GULP energy -793132.368771 kJ/mol
# GULP energy per Si atom -12392.693262 kJ/mol
# Density = 2.034779 g / cm^3
# Si number density = 20.394207 Si / 1000 Ang^3
#
#
#
# Elastic Constant Matrix: (Units=GPa)
#
#
# Indices 1 2 3 4 5 6 
#
# 1 34.7965 16.1793 7.7731 0.0000 0.0000 0.0000
# 2 16.1793 65.9140 21.5713 0.0000 0.0000 0.0000
# 3 7.7731 21.5713 85.6451 0.0000 0.0000 0.0000
# 4 0.0000 0.0000 0.0000 25.6569 0.0000 0.0000
# 5 0.0000 0.0000 0.0000 0.0000 69.2424 0.0000
# 6 0.0000 0.0000 0.0000 0.0000 0.0000 23.9124
#
#
#
# Elastic Compliance Matrix: (Units=1/GPa)
#
#
# Indices 1 2 3 4 5 6 
#
# 1 0.032524 -0.007648 -0.001026 0.000000 0.000000 0.000000
# 2 -0.007648 0.018332 -0.003923 0.000000 0.000000 0.000000
# 3 -0.001026 -0.003923 0.012757 0.000000 0.000000 0.000000
# 4 0.000000 0.000000 0.000000 0.038976 0.000000 0.000000
# 5 0.000000 0.000000 0.000000 0.000000 0.014442 0.000000
# 6 0.000000 0.000000 0.000000 0.000000 0.000000 0.041819
#
#
# Mechanical properties :
#
#
# Convention : Reuss Voigt Hill
#
# Bulk Modulus (GPa) = 26.02789 30.82253 28.42521
# Shear Modulus (GPa) = 25.40000 33.15111 29.27556
#
# Velocity S-wave (km/s) = 3.53292 4.03614 3.79289
# Velocity P-wave (km/s) = 5.42514 6.07180 5.75756
#
# Compressibility (1/GPa) = 0.03842033
#
# Stress axis : x y z
#
# Youngs Moduli (GPa) = 30.74695 54.54815 78.38631
#
# Poissons Ratio (x) = 0.41716 0.08039
# Poissons Ratio (y) = 0.23514 0.30753
# Poissons Ratio (z) = 0.03153 0.21401
#
# Static dielectric constant tensor:
#      x y z
#    x 3.571280 0.000000 0.000000 
#    y 0.000000 3.355650 0.000000 
#    z 0.000000 0.000000 4.054300 
# 
# 
# High freq. dielectric constant tensor:
#      x y z
#    x 1.787240 0.000000 0.000000 
#    y 0.000000 1.762230 0.000000 
#    z 0.000000 0.000000 1.809980 
# 
# From -- ./inp_files/32187.got.cif
#   From: 2010.03.12/outbox.cif.g09.slc.cpg/sg59_17_cif.got.tgz:32187.got - 2010.04.16 16:29:54.
