data_PCOD8245267
_publ_section_title
;
Structure prediction by ZEFSAII (Michael W. Deem and Ramdas Pophale) SiO2 
 PCOD8245267
Probable space group: P M M N
;
_chemical_formula_sum "Si O2"
_cell_formula_units_Z 40
_cell_length_a 15.735667
_cell_length_b 8.997548
_cell_length_c 14.542885
_cell_angle_alpha 90.000000
_cell_angle_beta 90.000000
_cell_angle_gamma 90.000000
_cell_volume 2059.016840
_symmetry_space_group_name_H-M "P M M N"
_symmetry_group_IT_number 59
_space_group.IT_coordinate_system_code '2'
_symmetry_cell_setting 'orthorhombic'
loop_
_space_group_symop_operation_xyz
x,y,z
1/2-x,1/2-y,z
1/2+x,-y,-z
-x,1/2+y,-z
-x,-y,-z
1/2+x,1/2+y,-z
1/2-x,y,z
x,1/2-y,z
loop_
_atom_site_type_symbol
_atom_site_label
_atom_site_fract_x
_atom_site_fract_y
_atom_site_fract_z
Si Si1 0.003645 0.426934 0.598739
Si Si2 0.345773 0.578092 0.705612
Si Si3 0.157922 0.926484 0.287934
Si Si4 0.914187 0.078215 0.101246
Si Si5 0.408916 0.575593 0.099795
O O1 0.003476 0.250000 0.590004
O O2 0.088976 0.475619 0.650817
O O3 0.000000 0.500000 0.500000
O O4 0.920312 0.488380 0.652153
O O5 0.250000 0.540132 0.673471
O O6 0.367402 0.750000 0.684803
O O7 0.349852 0.546474 0.815315
O O8 0.250000 0.982916 0.325372
O O9 0.154917 0.750000 0.292114
O O10 0.151121 0.982770 0.181919
O O11 0.940350 0.250000 0.097614
O O12 0.873676 0.031254 0.001908
O O13 0.998220 0.986219 0.118853
O O14 0.417305 0.750000 0.108669
#
# Coordination Sequence:
#
# PCOD8245267 Si02
#       5
#     8   8   8   8   8
#     4  11  23  40  61  83 109 142 184 233 289 342
#     4  10  21  37  57  83 115 150 187 228 276 329
#     4   9  18  33  55  82 109 139 178 223 272 328
#     4   9  17  29  50  79 112 146 181 222 268 319
#     4   9  16  29  51  79 109 144 183 222 267 324
#
# _framework density 19.426748
#
# number of rings (size 3 to 8) (size 9 to 14) (size 15 to 20)
#    0.000    2.400    2.000    0.600    0.000    2.000 
#    0.000    6.000    0.000    4.800    0.000    5.600 
#    0.000    0.000    0.000    0.000    0.000    0.000 
#
# Total GULP energy -495665.670763 kJ/mol
# GULP energy per Si atom -12391.641769 kJ/mol
# Density = 1.938253 g / cm^3
# Si number density = 19.426748 Si / 1000 Ang^3
#
#
#
# Elastic Constant Matrix: (Units=GPa)
#
#
# Indices 1 2 3 4 5 6 
#
# 1 134.1993 28.8644 71.9492 0.0000 0.0000 0.0000
# 2 28.8644 33.8793 35.6483 0.0000 0.0000 0.0000
# 3 71.9492 35.6483 136.0652 0.0000 0.0000 0.0000
# 4 0.0000 0.0000 0.0000 26.5001 0.0000 0.0000
# 5 0.0000 0.0000 0.0000 0.0000 14.0739 0.0000
# 6 0.0000 0.0000 0.0000 0.0000 0.0000 23.8967
#
#
#
# Elastic Compliance Matrix: (Units=1/GPa)
#
#
# Indices 1 2 3 4 5 6 
#
# 1 0.010862 -0.004432 -0.004582 0.000000 0.000000 0.000000
# 2 -0.004432 0.042559 -0.008806 0.000000 0.000000 0.000000
# 3 -0.004582 -0.008806 0.012080 0.000000 0.000000 0.000000
# 4 0.000000 0.000000 0.000000 0.037736 0.000000 0.000000
# 5 0.000000 0.000000 0.000000 0.000000 0.071053 0.000000
# 6 0.000000 0.000000 0.000000 0.000000 0.000000 0.041847
#
#
# Mechanical properties :
#
#
# Convention : Reuss Voigt Hill
#
# Bulk Modulus (GPa) = 33.49150 64.11862 48.80506
# Shear Modulus (GPa) = 19.10356 24.07294 21.58825
#
# Velocity S-wave (km/s) = 3.13927 3.52400 3.33718
# Velocity P-wave (km/s) = 5.51519 7.04521 6.32662
#
# Compressibility (1/GPa) = 0.02985832
#
# Stress axis : x y z
#
# Youngs Moduli (GPa) = 92.06716 23.49670 82.78387
#
# Poissons Ratio (x) = 0.10415 0.37933
# Poissons Ratio (y) = 0.40808 0.72903
# Poissons Ratio (z) = 0.42187 0.20692
#
# Static dielectric constant tensor:
#      x y z
#    x 3.492510 0.000000 0.000000 
#    y 0.000000 3.307200 0.000000 
#    z 0.000000 0.000000 3.856680 
# 
# 
# High freq. dielectric constant tensor:
#      x y z
#    x 1.749180 0.000000 0.000000 
#    y 0.000000 1.726350 0.000000 
#    z 0.000000 0.000000 1.768720 
# 
# From -- ./inp_files/19836.got.cif
#   From: 2010.03.12/outbox.cif.g09.slc.cpg/sg59_10_cif.got.tgz:19836.got - 2010.04.16 16:29:54.
