data_PCOD8245753
_publ_section_title
;
Structure prediction by ZEFSAII (Michael W. Deem and Ramdas Pophale) SiO2 
 PCOD8245753
Probable space group: P M M N
;
_chemical_formula_sum "Si O2"
_cell_formula_units_Z 48
_cell_length_a 8.728171
_cell_length_b 19.187220
_cell_length_c 15.124405
_cell_angle_alpha 90.000000
_cell_angle_beta 90.000000
_cell_angle_gamma 90.000000
_cell_volume 2532.874081
_symmetry_space_group_name_H-M "P M M N"
_symmetry_group_IT_number 59
_space_group.IT_coordinate_system_code '2'
_symmetry_cell_setting 'orthorhombic'
loop_
_space_group_symop_operation_xyz
x,y,z
1/2-x,1/2-y,z
1/2+x,-y,-z
-x,1/2+y,-z
-x,-y,-z
1/2+x,1/2+y,-z
1/2-x,y,z
x,1/2-y,z
loop_
_atom_site_type_symbol
_atom_site_label
_atom_site_fract_x
_atom_site_fract_y
_atom_site_fract_z
Si Si1 0.572598 0.068364 0.458411
Si Si2 0.074094 0.830523 0.383852
Si Si3 0.068018 0.327633 0.931207
Si Si4 0.068613 0.435728 0.271663
Si Si5 0.429913 0.083794 0.767990
Si Si6 0.567888 0.828037 0.872272
O O1 0.750000 0.052728 0.442624
O O2 0.544463 0.133709 0.521972
O O3 0.496120 0.087372 0.365766
O O4 0.500000 0.000000 0.500000
O O5 0.250000 0.841511 0.354120
O O6 0.031917 0.750000 0.394685
O O7 0.962536 0.863403 0.311565
O O8 0.250000 0.325824 0.927560
O O9 0.005426 0.250000 0.909248
O O10 0.006779 0.382191 0.858829
O O11 0.012040 0.350090 0.029249
O O12 0.250000 0.432365 0.276083
O O13 0.000980 0.382383 0.198692
O O14 0.020297 0.513061 0.246372
O O15 0.250000 0.068234 0.771874
O O16 0.750000 0.828941 0.869624
O O17 0.508731 0.750000 0.850024
#
# Coordination Sequence:
#
# PCOD8245753 Si02
#       6
#     8   8   8   8   8   8
#     4  11  22  38  59  80 108 146 183 221 272 330
#     4  10  22  39  58  81 110 143 179 223 278 334
#     4   8  15  30  52  78 108 142 182 229 276 321
#     4  11  22  35  55  82 111 145 184 228 278 328
#     4  11  21  33  54  83 113 146 185 227 273 327
#     4   8  16  33  55  78 107 144 186 230 275 326
#
# _framework density 18.950803000000001
#
# number of rings (size 3 to 8) (size 9 to 14) (size 15 to 20)
#    0.000    2.167    1.667    3.000    0.000    3.000 
#    0.000    0.000    0.000    4.500    0.000    9.333 
#    0.000    0.000    0.000    0.000    0.000    0.000 
#
# Total GULP energy -595198.403468 kJ/mol
# GULP energy per Si atom -12399.966739 kJ/mol
# Density = 1.890767 g / cm^3
# Si number density = 18.950803 Si / 1000 Ang^3
#
#
#
# Elastic Constant Matrix: (Units=GPa)
#
#
# Indices 1 2 3 4 5 6 
#
# 1 52.0748 25.0714 35.1854 0.0000 0.0000 0.0000
# 2 25.0714 122.5518 76.0246 0.0000 0.0000 0.0000
# 3 35.1854 76.0246 160.9346 0.0000 0.0000 0.0000
# 4 0.0000 0.0000 0.0000 41.9776 0.0000 0.0000
# 5 0.0000 0.0000 0.0000 0.0000 22.7003 0.0000
# 6 0.0000 0.0000 0.0000 0.0000 0.0000 7.5681
#
#
#
# Elastic Compliance Matrix: (Units=1/GPa)
#
#
# Indices 1 2 3 4 5 6 
#
# 1 0.022958 -0.002239 -0.003962 0.000000 0.000000 0.000000
# 2 -0.002239 0.011761 -0.005066 0.000000 0.000000 0.000000
# 3 -0.003962 -0.005066 0.009473 0.000000 0.000000 0.000000
# 4 0.000000 0.000000 0.000000 0.023822 0.000000 0.000000
# 5 0.000000 0.000000 0.000000 0.000000 0.044052 0.000000
# 6 0.000000 0.000000 0.000000 0.000000 0.000000 0.132134
#
#
# Mechanical properties :
#
#
# Convention : Reuss Voigt Hill
#
# Bulk Modulus (GPa) = 46.17247 67.56932 56.87089
# Shear Modulus (GPa) = 18.25132 27.73452 22.99292
#
# Velocity S-wave (km/s) = 3.10674 3.82972 3.48702
# Velocity P-wave (km/s) = 6.10626 7.43561 6.80348
#
# Compressibility (1/GPa) = 0.02165793
#
# Stress axis : x y z
#
# Youngs Moduli (GPa) = 43.55804 85.02945 105.56290
#
# Poissons Ratio (x) = 0.19039 0.41819
# Poissons Ratio (y) = 0.09753 0.53479
# Poissons Ratio (z) = 0.17256 0.43077
#
# Static dielectric constant tensor:
#      x y z
#    x 3.212990 0.000000 0.000000 
#    y 0.000000 3.628570 0.000000 
#    z 0.000000 0.000000 3.866220 
# 
# 
# High freq. dielectric constant tensor:
#      x y z
#    x 1.710570 0.000000 0.000000 
#    y 0.000000 1.740550 0.000000 
#    z 0.000000 0.000000 1.750450 
# 
# From -- ./inp_files/20446.got.cif
#   From: 2010.03.12/outbox.cif.g09.slc.cpg/sg59_11_cif.got.tgz:20446.got - 2010.04.16 16:29:54.
