data_PCOD8245359
_publ_section_title
;
Structure prediction by ZEFSAII (Michael W. Deem and Ramdas Pophale) SiO2 
 PCOD8245359
Probable space group: P M M N
;
_chemical_formula_sum "Si O2"
_cell_formula_units_Z 64
_cell_length_a 30.864862
_cell_length_b 8.795628
_cell_length_c 11.948440
_cell_angle_alpha 90.000000
_cell_angle_beta 90.000000
_cell_angle_gamma 90.000000
_cell_volume 3243.712839
_symmetry_space_group_name_H-M "P M M N"
_symmetry_group_IT_number 59
_space_group.IT_coordinate_system_code '2'
_symmetry_cell_setting 'orthorhombic'
loop_
_space_group_symop_operation_xyz
x,y,z
1/2-x,1/2-y,z
1/2+x,-y,-z
-x,1/2+y,-z
-x,-y,-z
1/2+x,1/2+y,-z
1/2-x,y,z
x,1/2-y,z
loop_
_atom_site_type_symbol
_atom_site_label
_atom_site_fract_x
_atom_site_fract_y
_atom_site_fract_z
Si Si1 0.201651 0.925233 0.974227
Si Si2 0.124877 0.929554 0.381932
Si Si3 0.954629 0.073444 0.474216
Si Si4 0.546687 0.571555 0.015216
Si Si5 0.122173 0.569972 0.128529
Si Si6 0.298582 0.076360 0.512413
Si Si7 0.580804 0.425398 0.232865
Si Si8 0.171093 0.074761 0.756532
O O1 0.250000 0.945599 0.025487
O O2 0.193125 0.750000 0.941797
O O3 0.199205 0.027844 0.863644
O O4 0.165964 0.980165 0.064172
O O5 0.121848 0.750000 0.382017
O O6 0.083441 0.998140 0.448403
O O7 0.125364 0.991737 0.255239
O O8 0.168932 0.972081 0.443898
O O9 0.958056 0.250000 0.500269
O O10 0.945124 0.041024 0.345277
O O11 0.000000 0.000000 0.500000
O O12 0.543622 0.750000 0.996302
O O13 0.580211 0.504295 0.926364
O O14 0.500000 0.500000 0.000000
O O15 0.562106 0.536159 0.139739
O O16 0.116279 0.750000 0.124861
O O17 0.250000 0.035225 0.474018
O O18 0.310039 0.250000 0.484198
O O19 0.300970 0.048826 0.645365
O O20 0.576548 0.250000 0.194995
O O21 0.630560 0.463176 0.252630
O O22 0.156354 0.250000 0.768682
#
# Coordination Sequence:
#
# PCOD8245359 Si02
#       8
#     8   8   8   8   8   8   8   8
#     4  10  21  37  59  87 120 160 201 246 305 364
#     4  10  22  41  62  88 119 158 205 251 299 357
#     4  10  23  40  61  90 123 158 200 248 300 357
#     4  12  26  43  65  93 124 160 204 248 301 361
#     4  10  22  41  63  88 124 161 201 254 303 355
#     4  10  22  39  59  87 123 161 202 251 305 359
#     4  11  22  40  64  92 126 159 198 251 303 358
#     4  11  21  36  60  90 122 159 201 252 306 358
#
# _framework density 19.730477
#
# number of rings (size 3 to 8) (size 9 to 14) (size 15 to 20)
#    0.000    1.500    2.500    2.250    1.750    4.000 
#    0.000    1.250    0.000    0.000    0.000    0.000 
#    0.000    0.000    0.000    0.000    0.000    0.000 
#
# Total GULP energy -793781.809793 kJ/mol
# GULP energy per Si atom -12402.840778 kJ/mol
# Density = 1.968557 g / cm^3
# Si number density = 19.730477 Si / 1000 Ang^3
#
#
#
# Elastic Constant Matrix: (Units=GPa)
#
#
# Indices 1 2 3 4 5 6 
#
# 1 130.1033 21.7124 44.3535 0.0000 0.0000 0.0000
# 2 21.7124 29.7765 40.1569 0.0000 0.0000 0.0000
# 3 44.3535 40.1569 111.2410 0.0000 0.0000 0.0000
# 4 0.0000 0.0000 0.0000 23.8993 0.0000 0.0000
# 5 0.0000 0.0000 0.0000 0.0000 75.1411 0.0000
# 6 0.0000 0.0000 0.0000 0.0000 0.0000 33.2836
#
#
#
# Elastic Compliance Matrix: (Units=1/GPa)
#
#
# Indices 1 2 3 4 5 6 
#
# 1 0.009067 -0.003383 -0.002394 0.000000 0.000000 0.000000
# 2 -0.003383 0.066706 -0.022731 0.000000 0.000000 0.000000
# 3 -0.002394 -0.022731 0.018150 0.000000 0.000000 0.000000
# 4 0.000000 0.000000 0.000000 0.041842 0.000000 0.000000
# 5 0.000000 0.000000 0.000000 0.000000 0.013308 0.000000
# 6 0.000000 0.000000 0.000000 0.000000 0.000000 0.030045
#
#
# Mechanical properties :
#
#
# Convention : Reuss Voigt Hill
#
# Bulk Modulus (GPa) = 27.09562 53.72960 40.41261
# Shear Modulus (GPa) = 20.12583 37.45801 28.79192
#
# Velocity S-wave (km/s) = 3.19727 4.36189 3.82417
# Velocity P-wave (km/s) = 5.23381 7.25665 6.32660
#
# Compressibility (1/GPa) = 0.03690633
#
# Stress axis : x y z
#
# Youngs Moduli (GPa) = 110.29171 14.99109 55.09698
#
# Poissons Ratio (x) = 0.05071 0.13190
# Poissons Ratio (y) = 0.37311 1.25244
# Poissons Ratio (z) = 0.26403 0.34077
#
# Static dielectric constant tensor:
#      x y z
#    x 3.841910 0.000000 0.000000 
#    y 0.000000 3.514190 0.000000 
#    z 0.000000 0.000000 3.722180 
# 
# 
# High freq. dielectric constant tensor:
#      x y z
#    x 1.782240 0.000000 0.000000 
#    y 0.000000 1.761690 0.000000 
#    z 0.000000 0.000000 1.773900 
# 
# From -- ./inp_files/19206.got.cif
#   From: 2010.03.12/outbox.cif.g09.slc.cpg/sg59_10_cif.got.tgz:19206.got - 2010.04.16 16:29:54.
