data_PCOD8245763
_publ_section_title
;
Structure prediction by ZEFSAII (Michael W. Deem and Ramdas Pophale) SiO2 
 PCOD8245763
Probable space group: P M M N
;
_chemical_formula_sum "Si O2"
_cell_formula_units_Z 56
_cell_length_a 18.880879
_cell_length_b 8.997473
_cell_length_c 17.665570
_cell_angle_alpha 90.000000
_cell_angle_beta 90.000000
_cell_angle_gamma 90.000000
_cell_volume 3001.030547
_symmetry_space_group_name_H-M "P M M N"
_symmetry_group_IT_number 59
_space_group.IT_coordinate_system_code '2'
_symmetry_cell_setting 'orthorhombic'
loop_
_space_group_symop_operation_xyz
x,y,z
1/2-x,1/2-y,z
1/2+x,-y,-z
-x,1/2+y,-z
-x,-y,-z
1/2+x,1/2+y,-z
1/2-x,y,z
x,1/2-y,z
loop_
_atom_site_type_symbol
_atom_site_label
_atom_site_fract_x
_atom_site_fract_y
_atom_site_fract_z
Si Si1 0.436765 0.425411 0.805620
Si Si2 0.169202 0.424193 0.374724
Si Si3 0.083437 0.074889 0.226982
Si Si4 0.330720 0.076705 0.673457
Si Si5 0.831718 0.080358 0.901727
Si Si6 0.334225 0.582380 0.524151
Si Si7 0.066704 0.921751 0.962432
O O1 0.443853 0.250000 0.818056
O O2 0.510428 0.487218 0.774939
O O3 0.376171 0.468095 0.746124
O O4 0.414374 0.500794 0.883788
O O5 0.250000 0.475196 0.359681
O O6 0.165388 0.250000 0.388809
O O7 0.123305 0.473844 0.303123
O O8 0.136628 0.502111 0.449025
O O9 0.069066 0.250000 0.224093
O O10 0.131442 0.031307 0.155996
O O11 0.250000 0.026746 0.689337
O O12 0.335199 0.250000 0.656123
O O13 0.363159 0.995171 0.600025
O O14 0.750000 0.036396 0.908150
O O15 0.841897 0.250000 0.873533
O O16 0.865288 0.060128 0.984375
O O17 0.250000 0.571587 0.524068
O O18 0.362115 0.750000 0.523457
O O19 0.047490 0.750000 0.948259
O O20 0.000000 0.000000 0.000000
#
# Coordination Sequence:
#
# PCOD8245763 Si02
#       7
#     8   8   8   8   8   8   8
#     4  11  23  38  58  83 112 147 187 229 280 338
#     4   9  18  33  53  78 109 145 185 227 272 327
#     4  11  22  36  56  82 113 150 190 230 276 332
#     4   9  19  37  59  81 108 144 186 232 281 333
#     4  10  22  39  59  84 114 147 184 230 282 332
#     4   9  17  30  52  82 111 141 180 227 280 332
#     4  11  22  38  60  83 111 148 187 226 275 334
#
# _framework density 18.660254999999999
#
# number of rings (size 3 to 8) (size 9 to 14) (size 15 to 20)
#    0.000    2.000    1.429    2.143    0.000    6.000 
#    0.000    2.143    0.000    0.000    0.000    0.000 
#    0.000    0.000    0.000    0.000    0.000    0.000 
#
# Total GULP energy -694581.893082 kJ/mol
# GULP energy per Si atom -12403.248091 kJ/mol
# Density = 1.861778 g / cm^3
# Si number density = 18.660255 Si / 1000 Ang^3
#
#
#
# Elastic Constant Matrix: (Units=GPa)
#
#
# Indices 1 2 3 4 5 6 
#
# 1 93.8293 41.2457 60.4277 0.0000 0.0000 0.0000
# 2 41.2457 87.3627 73.7919 0.0000 0.0000 0.0000
# 3 60.4277 73.7919 172.4908 0.0000 0.0000 0.0000
# 4 0.0000 0.0000 0.0000 35.8699 0.0000 0.0000
# 5 0.0000 0.0000 0.0000 0.0000 33.5099 0.0000
# 6 0.0000 0.0000 0.0000 0.0000 0.0000 18.1667
#
#
#
# Elastic Compliance Matrix: (Units=1/GPa)
#
#
# Indices 1 2 3 4 5 6 
#
# 1 0.014617 -0.004033 -0.003395 0.000000 0.000000 0.000000
# 2 -0.004033 0.019036 -0.006731 0.000000 0.000000 0.000000
# 3 -0.003395 -0.006731 0.009866 0.000000 0.000000 0.000000
# 4 0.000000 0.000000 0.000000 0.027879 0.000000 0.000000
# 5 0.000000 0.000000 0.000000 0.000000 0.029842 0.000000
# 6 0.000000 0.000000 0.000000 0.000000 0.000000 0.055046
#
#
# Mechanical properties :
#
#
# Convention : Reuss Voigt Hill
#
# Bulk Modulus (GPa) = 65.78533 78.29039 72.03786
# Shear Modulus (GPa) = 26.36144 29.39046 27.87595
#
# Velocity S-wave (km/s) = 3.76267 3.97297 3.86925
# Velocity P-wave (km/s) = 7.36259 7.94310 7.65835
#
# Compressibility (1/GPa) = 0.01520096
#
# Stress axis : x y z
#
# Youngs Moduli (GPa) = 68.41243 52.53269 101.35542
#
# Poissons Ratio (x) = 0.21187 0.34414
# Poissons Ratio (y) = 0.27592 0.68219
# Poissons Ratio (z) = 0.23229 0.35358
#
# Static dielectric constant tensor:
#      x y z
#    x 3.384540 0.000000 0.000000 
#    y 0.000000 3.508900 0.000000 
#    z 0.000000 0.000000 3.634200 
# 
# 
# High freq. dielectric constant tensor:
#      x y z
#    x 1.707890 0.000000 0.000000 
#    y 0.000000 1.731470 0.000000 
#    z 0.000000 0.000000 1.737800 
# 
# From -- ./inp_files/28036.got.cif
#   From: 2010.03.12/outbox.cif.g09.slc.cpg/sg59_15_cif.got.tgz:28036.got - 2010.04.16 16:29:54.
