data_PCOD8245460
_publ_section_title
;
Structure prediction by ZEFSAII (Michael W. Deem and Ramdas Pophale) SiO2 
 PCOD8245460
Probable space group: P M M N
;
_chemical_formula_sum "Si O2"
_cell_formula_units_Z 56
_cell_length_a 8.659429
_cell_length_b 15.326672
_cell_length_c 21.273540
_cell_angle_alpha 90.000000
_cell_angle_beta 90.000000
_cell_angle_gamma 90.000000
_cell_volume 2823.429079
_symmetry_space_group_name_H-M "P M M N"
_symmetry_group_IT_number 59
_space_group.IT_coordinate_system_code '2'
_symmetry_cell_setting 'orthorhombic'
loop_
_space_group_symop_operation_xyz
x,y,z
1/2-x,1/2-y,z
1/2+x,-y,-z
-x,1/2+y,-z
-x,-y,-z
1/2+x,1/2+y,-z
1/2-x,y,z
x,1/2-y,z
loop_
_atom_site_type_symbol
_atom_site_label
_atom_site_fract_x
_atom_site_fract_y
_atom_site_fract_z
Si Si1 0.933383 0.008351 0.217916
Si Si2 0.569147 0.849848 0.421728
Si Si3 0.929366 0.150390 0.445047
Si Si4 0.068490 0.405278 0.995337
Si Si5 0.425274 0.652875 0.880535
Si Si6 0.433158 0.154594 0.861599
Si Si7 0.569246 0.989691 0.646554
O O1 0.750000 0.009515 0.230893
O O2 0.991615 0.917795 0.187322
O O3 0.985981 0.085667 0.171473
O O4 0.026618 0.022206 0.281243
O O5 0.750000 0.864632 0.412035
O O6 0.521792 0.750000 0.406070
O O7 0.526435 0.873005 0.493112
O O8 0.479027 0.913608 0.375089
O O9 0.750000 0.136560 0.460763
O O10 0.961929 0.250000 0.423504
O O11 0.978792 0.085154 0.390593
O O12 0.250000 0.412149 0.991087
O O13 0.023685 0.349271 0.055930
O O14 0.001994 0.361609 0.931811
O O15 0.000000 0.500000 0.000000
O O16 0.250000 0.628097 0.898170
O O17 0.437501 0.750000 0.851915
O O18 0.250000 0.150374 0.864100
O O19 0.490093 0.250000 0.838710
O O20 0.750000 0.976576 0.636144
#
# Coordination Sequence:
#
# PCOD8245460 Si02
#       7
#     8   8   8   8   8   8   8
#     4  10  21  39  57  78 111 153 199 241 283 342
#     4  10  21  39  64  92 121 155 196 241 289 343
#     4  10  21  39  64  92 121 154 194 241 292 345
#     4  11  20  34  58  86 116 147 187 236 290 347
#     4  10  21  38  59  84 114 149 190 238 292 347
#     4   9  18  34  57  82 108 142 186 235 286 341
#     4  12  25  39  58  86 122 159 197 243 293 348
#
# _framework density 19.834038
#
# number of rings (size 3 to 8) (size 9 to 14) (size 15 to 20)
#    0.000    1.714    1.429    3.429    0.000    4.286 
#    0.000    2.857    0.000    1.714    0.000    0.000 
#    0.000    0.000    0.000    0.000    0.000    0.000 
#
# Total GULP energy -694526.039243 kJ/mol
# GULP energy per Si atom -12402.250701 kJ/mol
# Density = 1.978889 g / cm^3
# Si number density = 19.834038 Si / 1000 Ang^3
#
#
#
# Elastic Constant Matrix: (Units=GPa)
#
#
# Indices 1 2 3 4 5 6 
#
# 1 46.9438 12.7059 7.2272 0.0000 0.0000 0.0000
# 2 12.7059 105.8510 24.5578 0.0000 0.0000 0.0000
# 3 7.2272 24.5578 78.4975 0.0000 0.0000 0.0000
# 4 0.0000 0.0000 0.0000 17.1588 0.0000 0.0000
# 5 0.0000 0.0000 0.0000 0.0000 33.8379 0.0000
# 6 0.0000 0.0000 0.0000 0.0000 0.0000 24.0972
#
#
#
# Elastic Compliance Matrix: (Units=1/GPa)
#
#
# Indices 1 2 3 4 5 6 
#
# 1 0.022140 -0.002356 -0.001301 0.000000 0.000000 0.000000
# 2 -0.002356 0.010437 -0.003048 0.000000 0.000000 0.000000
# 3 -0.001301 -0.003048 0.013813 0.000000 0.000000 0.000000
# 4 0.000000 0.000000 0.000000 0.058279 0.000000 0.000000
# 5 0.000000 0.000000 0.000000 0.000000 0.029553 0.000000
# 6 0.000000 0.000000 0.000000 0.000000 0.000000 0.041499
#
#
# Mechanical properties :
#
#
# Convention : Reuss Voigt Hill
#
# Bulk Modulus (GPa) = 30.32228 35.58600 32.95414
# Shear Modulus (GPa) = 24.98447 27.47222 26.22834
#
# Velocity S-wave (km/s) = 3.55304 3.72574 3.64041
# Velocity P-wave (km/s) = 5.67039 6.04061 5.85843
#
# Compressibility (1/GPa) = 0.03297905
#
# Stress axis : x y z
#
# Youngs Moduli (GPa) = 45.16706 95.81074 72.39680
#
# Poissons Ratio (x) = 0.22570 0.09422
# Poissons Ratio (y) = 0.10640 0.22069
# Poissons Ratio (z) = 0.05878 0.29207
#
# Static dielectric constant tensor:
#      x y z
#    x 3.577300 0.000000 0.000000 
#    y 0.000000 3.927740 0.000000 
#    z 0.000000 0.000000 3.591920 
# 
# 
# High freq. dielectric constant tensor:
#      x y z
#    x 1.758590 0.000000 0.000000 
#    y 0.000000 1.791710 0.000000 
#    z 0.000000 0.000000 1.768540 
# 
# From -- ./inp_files/28969.got.cif
#   From: 2010.03.12/outbox.cif.g09.slc.cpg/sg59_15_cif.got.tgz:28969.got - 2010.04.16 16:29:54.
