data_PCOD8245581
_publ_section_title
;
Structure prediction by ZEFSAII (Michael W. Deem and Ramdas Pophale) SiO2 
 PCOD8245581
Probable space group: P M M N
;
_chemical_formula_sum "Si O2"
_cell_formula_units_Z 48
_cell_length_a 8.638926
_cell_length_b 16.605695
_cell_length_c 16.314961
_cell_angle_alpha 90.000000
_cell_angle_beta 90.000000
_cell_angle_gamma 90.000000
_cell_volume 2340.468771
_symmetry_space_group_name_H-M "P M M N"
_symmetry_group_IT_number 59
_space_group.IT_coordinate_system_code '2'
_symmetry_cell_setting 'orthorhombic'
loop_
_space_group_symop_operation_xyz
x,y,z
1/2-x,1/2-y,z
1/2+x,-y,-z
-x,1/2+y,-z
-x,-y,-z
1/2+x,1/2+y,-z
1/2-x,y,z
x,1/2-y,z
loop_
_atom_site_type_symbol
_atom_site_label
_atom_site_fract_x
_atom_site_fract_y
_atom_site_fract_z
Si Si1 0.571212 0.057542 0.224347
Si Si2 0.568980 0.607437 0.313322
Si Si3 0.068587 0.076022 0.049362
Si Si4 0.568074 0.087376 0.514146
Si Si5 0.420393 0.157524 0.358647
Si Si6 0.066593 0.250000 0.799999
Si Si7 0.065579 0.250000 0.983688
O O1 0.750000 0.060786 0.197704
O O2 0.466297 0.063133 0.144411
O O3 0.531569 0.128700 0.286144
O O4 0.530648 0.977733 0.274169
O O5 0.750000 0.617866 0.332990
O O6 0.475191 0.620326 0.396657
O O7 0.507718 0.672020 0.248194
O O8 0.250000 0.074387 0.032714
O O9 0.004374 0.165726 0.024255
O O10 0.000000 0.000000 0.000000
O O11 0.750000 0.084246 0.502719
O O12 0.497924 0.146334 0.446753
O O13 0.500000 0.000000 0.500000
O O14 0.250000 0.115138 0.355866
O O15 0.396471 0.250000 0.342490
O O16 0.250000 0.250000 0.806168
O O17 0.998665 0.250000 0.891415
O O18 0.250000 0.250000 0.987225
#
# Coordination Sequence:
#
# PCOD8245581 Si02
#       7
#     8   8   8   8   8   4   4
#     4  11  23  40  64  93 127 167 212 260 316 378
#     4  10  21  38  62  91 122 162 208 257 313 374
#     4  11  23  41  66  95 129 168 216 267 323 388
#     4  12  24  40  62  88 122 163 209 257 312 373
#     4  11  25  43  64  90 124 166 214 262 314 375
#     4   9  18  36  63  90 119 156 205 253 306 375
#     4   9  20  40  65  92 123 166 209 257 320 387
#
# _framework density 20.508711000000002
#
# number of rings (size 3 to 8) (size 9 to 14) (size 15 to 20)
#    0.000    1.333    1.667    4.000    2.333    4.667 
#    0.000    1.250    0.000    2.000    0.000    0.000 
#    0.000    0.000    0.000    0.000    0.000    0.000 
#
# Total GULP energy -595222.344340 kJ/mol
# GULP energy per Si atom -12400.465507 kJ/mol
# Density = 2.046203 g / cm^3
# Si number density = 20.508711 Si / 1000 Ang^3
#
#
#
# Elastic Constant Matrix: (Units=GPa)
#
#
# Indices 1 2 3 4 5 6 
#
# 1 61.0652 39.0038 24.9042 0.0000 0.0000 0.0000
# 2 39.0038 103.1400 41.7013 0.0000 0.0000 0.0000
# 3 24.9042 41.7013 135.6696 0.0000 0.0000 0.0000
# 4 0.0000 0.0000 0.0000 526.8914 0.0000 0.0000
# 5 0.0000 0.0000 0.0000 0.0000 36.2615 0.0000
# 6 0.0000 0.0000 0.0000 0.0000 0.0000 25.7175
#
#
#
# Elastic Compliance Matrix: (Units=1/GPa)
#
#
# Indices 1 2 3 4 5 6 
#
# 1 0.021924 -0.007609 -0.001686 0.000000 0.000000 0.000000
# 2 -0.007609 0.013712 -0.002818 0.000000 0.000000 0.000000
# 3 -0.001686 -0.002818 0.008546 0.000000 0.000000 0.000000
# 4 0.000000 0.000000 0.000000 0.001898 0.000000 0.000000
# 5 0.000000 0.000000 0.000000 0.000000 0.027577 0.000000
# 6 0.000000 0.000000 0.000000 0.000000 0.000000 0.038884
#
#
# Mechanical properties :
#
#
# Convention : Reuss Voigt Hill
#
# Bulk Modulus (GPa) = 50.10808 56.78816 53.44812
# Shear Modulus (GPa) = 34.86268 130.72509 82.79389
#
# Velocity S-wave (km/s) = 4.12745 7.99247 6.36064
# Velocity P-wave (km/s) = 6.87023 10.62651 8.94770
#
# Compressibility (1/GPa) = 0.01995686
#
# Stress axis : x y z
#
# Youngs Moduli (GPa) = 45.61309 72.92630 117.00758
#
# Poissons Ratio (x) = 0.55491 0.19722
# Poissons Ratio (y) = 0.34708 0.32974
# Poissons Ratio (z) = 0.07688 0.20551
#
# Static dielectric constant tensor:
#      x y z
#    x 3.643550 0.000000 0.000000 
#    y 0.000000 3.894490 0.000000 
#    z 0.000000 0.000000 4.052770 
# 
# 
# High freq. dielectric constant tensor:
#      x y z
#    x 1.789600 0.000000 0.000000 
#    y 0.000000 1.812140 0.000000 
#    z 0.000000 0.000000 1.816530 
# 
# From -- ./inp_files/20542.got.cif
#   From: 2010.03.12/outbox.cif.g09.slc.cpg/sg59_11_cif.got.tgz:20542.got - 2010.04.16 16:29:54.
