data_PCOD8245726
_publ_section_title
;
Structure prediction by ZEFSAII (Michael W. Deem and Ramdas Pophale) SiO2 
 PCOD8245726
Probable space group: P M M N
;
_chemical_formula_sum "Si O2"
_cell_formula_units_Z 56
_cell_length_a 8.485362
_cell_length_b 14.584156
_cell_length_c 23.937976
_cell_angle_alpha 90.000000
_cell_angle_beta 90.000000
_cell_angle_gamma 90.000000
_cell_volume 2962.368651
_symmetry_space_group_name_H-M "P M M N"
_symmetry_group_IT_number 59
_space_group.IT_coordinate_system_code '2'
_symmetry_cell_setting 'orthorhombic'
loop_
_space_group_symop_operation_xyz
x,y,z
1/2-x,1/2-y,z
1/2+x,-y,-z
-x,1/2+y,-z
-x,-y,-z
1/2+x,1/2+y,-z
1/2-x,y,z
x,1/2-y,z
loop_
_atom_site_type_symbol
_atom_site_label
_atom_site_fract_x
_atom_site_fract_y
_atom_site_fract_z
Si Si1 0.437402 0.850246 0.089714
Si Si2 0.571216 0.750000 0.580024
Si Si3 0.570026 0.250000 0.535588
Si Si4 0.067673 0.037944 0.135397
Si Si5 0.564935 0.415869 0.357136
Si Si6 0.066391 0.852613 0.762244
Si Si7 0.560972 0.049879 0.556073
Si Si8 0.069914 0.855712 0.963980
O O1 0.250000 0.847951 0.086997
O O2 0.499587 0.750000 0.110646
O O3 0.493881 0.932152 0.130585
O O4 0.496595 0.869030 0.026652
O O5 0.750000 0.750000 0.557096
O O6 0.446104 0.750000 0.530702
O O7 0.542822 0.838421 0.616633
O O8 0.750000 0.250000 0.552860
O O9 0.496594 0.154844 0.558149
O O10 0.250000 0.039985 0.150929
O O11 0.976345 0.090782 0.183231
O O12 0.041660 0.086014 0.076108
O O13 0.750000 0.396829 0.366724
O O14 0.520437 0.414417 0.291541
O O15 0.513159 0.509250 0.387299
O O16 0.250000 0.836356 0.762649
O O17 0.987623 0.750000 0.761073
O O18 0.750000 0.044068 0.556217
O O19 0.500000 0.000000 0.500000
O O20 0.250000 0.890116 0.958379
O O21 0.059226 0.750000 0.945977
#
# Coordination Sequence:
#
# PCOD8245726 Si02
#       8
#     8   4   4   8   8   8   8   8
#     4   8  16  32  52  73 100 137 178 213 255 315
#     4  12  22  32  56  88 116 146 182 225 270 325
#     4  10  22  38  56  80 120 156 180 215 266 327
#     4  11  21  31  50  80 107 132 169 224 271 303
#     4  11  22  39  59  80 109 146 187 229 271 323
#     4  10  22  40  58  75 102 144 180 209 260 328
#     4  11  22  36  57  86 116 150 185 223 271 323
#     4   9  17  31  51  73 102 142 176 203 251 325
#
# _framework density 18.903790999999998
#
# number of rings (size 3 to 8) (size 9 to 14) (size 15 to 20)
#    0.000    1.857    2.143    3.643    0.000    4.000 
#    0.000    0.714    1.571    3.429    0.000    0.000 
#    0.000    0.000    0.000    0.000    0.000    0.000 
#
# Total GULP energy -694081.901346 kJ/mol
# GULP energy per Si atom -12394.319667 kJ/mol
# Density = 1.886076 g / cm^3
# Si number density = 18.903791 Si / 1000 Ang^3
#
#
#
# Elastic Constant Matrix: (Units=GPa)
#
#
# Indices 1 2 3 4 5 6 
#
# 1 28.0248 18.9672 10.7865 0.0000 0.0000 0.0000
# 2 18.9672 154.2369 72.9862 0.0000 0.0000 0.0000
# 3 10.7865 72.9862 99.8259 0.0000 0.0000 0.0000
# 4 0.0000 0.0000 0.0000 30.6418 0.0000 0.0000
# 5 0.0000 0.0000 0.0000 0.0000 25.1824 0.0000
# 6 0.0000 0.0000 0.0000 0.0000 0.0000 23.5475
#
#
#
# Elastic Compliance Matrix: (Units=1/GPa)
#
#
# Indices 1 2 3 4 5 6 
#
# 1 0.038998 -0.004284 -0.001082 0.000000 0.000000 0.000000
# 2 -0.004284 0.010384 -0.007129 0.000000 0.000000 0.000000
# 3 -0.001082 -0.007129 0.015347 0.000000 0.000000 0.000000
# 4 0.000000 0.000000 0.000000 0.032635 0.000000 0.000000
# 5 0.000000 0.000000 0.000000 0.000000 0.039710 0.000000
# 6 0.000000 0.000000 0.000000 0.000000 0.000000 0.042467
#
#
# Mechanical properties :
#
#
# Convention : Reuss Voigt Hill
#
# Bulk Modulus (GPa) = 25.16402 54.17415 39.66908
# Shear Modulus (GPa) = 22.95918 27.83086 25.39502
#
# Velocity S-wave (km/s) = 3.48879 3.84114 3.66919
# Velocity P-wave (km/s) = 5.43777 6.95647 6.24347
#
# Compressibility (1/GPa) = 0.03973928
#
# Stress axis : x y z
#
# Youngs Moduli (GPa) = 25.64212 96.30278 65.16055
#
# Poissons Ratio (x) = 0.41255 0.07049
# Poissons Ratio (y) = 0.10985 0.46454
# Poissons Ratio (z) = 0.02774 0.68656
#
# Static dielectric constant tensor:
#      x y z
#    x 3.251890 0.000000 0.000000 
#    y 0.000000 3.922940 0.000000 
#    z 0.000000 0.000000 3.396840 
# 
# 
# High freq. dielectric constant tensor:
#      x y z
#    x 1.718760 0.000000 0.000000 
#    y 0.000000 1.744870 0.000000 
#    z 0.000000 0.000000 1.715230 
# 
# From -- ./inp_files/29188.got.cif
#   From: 2010.03.12/outbox.cif.g09.slc.cpg/sg59_15_cif.got.tgz:29188.got - 2010.04.16 16:29:54.
