data_PCOD8245528
_publ_section_title
;
Structure prediction by ZEFSAII (Michael W. Deem and Ramdas Pophale) SiO2 
 PCOD8245528
Probable space group: P M M N
;
_chemical_formula_sum "Si O2"
_cell_formula_units_Z 64
_cell_length_a 8.740125
_cell_length_b 23.087685
_cell_length_c 16.055250
_cell_angle_alpha 90.000000
_cell_angle_beta 90.000000
_cell_angle_gamma 90.000000
_cell_volume 3239.776902
_symmetry_space_group_name_H-M "P M M N"
_symmetry_group_IT_number 59
_space_group.IT_coordinate_system_code '2'
_symmetry_cell_setting 'orthorhombic'
loop_
_space_group_symop_operation_xyz
x,y,z
1/2-x,1/2-y,z
1/2+x,-y,-z
-x,1/2+y,-z
-x,-y,-z
1/2+x,1/2+y,-z
1/2-x,y,z
x,1/2-y,z
loop_
_atom_site_type_symbol
_atom_site_label
_atom_site_fract_x
_atom_site_fract_y
_atom_site_fract_z
Si Si1 0.928719 0.006274 0.091013
Si Si2 0.419442 0.682656 0.976260
Si Si3 0.572010 0.881276 0.833051
Si Si4 0.431624 0.182160 0.335933
Si Si5 0.927244 0.091284 0.460595
Si Si6 0.929516 0.188082 0.840814
Si Si7 0.925627 0.965578 0.386018
Si Si8 0.427506 0.929590 0.220391
O O1 0.750000 0.011857 0.078736
O O2 0.986255 0.059015 0.148602
O O3 0.972361 0.949693 0.142474
O O4 0.000000 0.000000 0.000000
O O5 0.250000 0.653662 0.963632
O O6 0.401670 0.750000 0.962467
O O7 0.542059 0.660201 0.910603
O O8 0.489019 0.669214 0.067615
O O9 0.750000 0.894978 0.824699
O O10 0.512577 0.849196 0.749155
O O11 0.250000 0.178784 0.344283
O O12 0.484402 0.250000 0.337010
O O13 0.505648 0.146959 0.412688
O O14 0.750000 0.103132 0.480092
O O15 0.016848 0.081183 0.546705
O O16 0.949404 0.032217 0.409805
O O17 0.750000 0.196361 0.852677
O O18 0.001569 0.250000 0.812381
O O19 0.964847 0.139150 0.772384
O O20 0.750000 0.951644 0.366525
O O21 0.027741 0.960238 0.304833
O O22 0.250000 0.941604 0.201664
#
# Coordination Sequence:
#
# PCOD8245528 Si02
#       8
#     8   8   8   8   8   8   8   8
#     4  12  25  40  57  81 116 155 196 243 297 352
#     4   9  17  31  52  76 104 143 190 235 278 324
#     4  11  22  36  55  80 112 151 195 240 288 346
#     4  10  22  39  58  83 119 160 196 236 293 359
#     4  10  21  38  61  87 111 142 188 238 287 342
#     4   8  16  32  53  76 103 137 176 219 265 312
#     4  10  21  38  61  87 116 149 185 231 287 345
#     4  11  21  35  58  86 114 145 185 229 275 333
#
# _framework density 19.754446000000002
#
# number of rings (size 3 to 8) (size 9 to 14) (size 15 to 20)
#    0.000    1.875    0.000    5.250    0.000    6.500 
#    0.000    1.250    0.000    5.250    0.000    0.000 
#    0.000    0.000    0.000    0.000    0.000    0.000 
#
# Total GULP energy -793332.423577 kJ/mol
# GULP energy per Si atom -12395.819118 kJ/mol
# Density = 1.970948 g / cm^3
# Si number density = 19.754446 Si / 1000 Ang^3
#
#
#
# Elastic Constant Matrix: (Units=GPa)
#
#
# Indices 1 2 3 4 5 6 
#
# 1 76.9940 41.9905 26.1186 0.0000 0.0000 0.0000
# 2 41.9905 105.9591 45.5724 0.0000 0.0000 0.0000
# 3 26.1186 45.5724 72.9396 0.0000 0.0000 0.0000
# 4 0.0000 0.0000 0.0000 34.5533 0.0000 0.0000
# 5 0.0000 0.0000 0.0000 0.0000 31.6457 0.0000
# 6 0.0000 0.0000 0.0000 0.0000 0.0000 28.0713
#
#
#
# Elastic Compliance Matrix: (Units=1/GPa)
#
#
# Indices 1 2 3 4 5 6 
#
# 1 0.016910 -0.005602 -0.002555 0.000000 0.000000 0.000000
# 2 -0.005602 0.014762 -0.007217 0.000000 0.000000 0.000000
# 3 -0.002555 -0.007217 0.019134 0.000000 0.000000 0.000000
# 4 0.000000 0.000000 0.000000 0.028941 0.000000 0.000000
# 5 0.000000 0.000000 0.000000 0.000000 0.031600 0.000000
# 6 0.000000 0.000000 0.000000 0.000000 0.000000 0.035624
#
#
# Mechanical properties :
#
#
# Convention : Reuss Voigt Hill
#
# Bulk Modulus (GPa) = 49.85712 53.69505 51.77609
# Shear Modulus (GPa) = 27.11431 28.33480 27.72455
#
# Velocity S-wave (km/s) = 3.70884 3.79139 3.75034
# Velocity P-wave (km/s) = 6.60559 6.81223 6.70971
#
# Compressibility (1/GPa) = 0.02005731
#
# Stress axis : x y z
#
# Youngs Moduli (GPa) = 59.13601 67.74253 52.26313
#
# Poissons Ratio (x) = 0.37953 0.13353
# Poissons Ratio (y) = 0.33131 0.37718
# Poissons Ratio (z) = 0.15108 0.48889
#
# Static dielectric constant tensor:
#      x y z
#    x -2.070870 0.000000 0.000000 
#    y 0.000000 3.860320 0.000000 
#    z 0.000000 0.000000 3.626100 
# 
# 
# High freq. dielectric constant tensor:
#      x y z
#    x 1.760680 0.000000 0.000000 
#    y 0.000000 1.778590 0.000000 
#    z 0.000000 0.000000 1.763340 
# 
# From -- ./inp_files/21569.got.cif
#   From: 2010.03.12/outbox.cif.g09.slc.cpg/sg59_11_cif.got.tgz:21569.got - 2010.04.16 16:29:54.
