data_PCOD8245772
_publ_section_title
;
Structure prediction by ZEFSAII (Michael W. Deem and Ramdas Pophale) SiO2 
 PCOD8245772
Probable space group: P M M N
;
_chemical_formula_sum "Si O2"
_cell_formula_units_Z 56
_cell_length_a 8.871653
_cell_length_b 21.732421
_cell_length_c 14.878095
_cell_angle_alpha 90.000000
_cell_angle_beta 90.000000
_cell_angle_gamma 90.000000
_cell_volume 2868.533881
_symmetry_space_group_name_H-M "P M M N"
_symmetry_group_IT_number 59
_space_group.IT_coordinate_system_code '2'
_symmetry_cell_setting 'orthorhombic'
loop_
_space_group_symop_operation_xyz
x,y,z
1/2-x,1/2-y,z
1/2+x,-y,-z
-x,1/2+y,-z
-x,-y,-z
1/2+x,1/2+y,-z
1/2-x,y,z
x,1/2-y,z
loop_
_atom_site_type_symbol
_atom_site_label
_atom_site_fract_x
_atom_site_fract_y
_atom_site_fract_z
Si Si1 0.075846 0.373717 0.967652
Si Si2 0.577929 0.179737 0.464471
Si Si3 0.925863 0.136539 0.656144
Si Si4 0.427457 0.318541 0.283269
Si Si5 0.072152 0.052066 0.791350
Si Si6 0.926484 0.750000 0.252342
Si Si7 0.073008 0.750000 0.060477
Si Si8 0.074767 0.072671 0.156264
O O1 0.250000 0.355777 0.960036
O O2 0.020614 0.406134 0.875972
O O3 0.986458 0.311230 0.988134
O O4 0.047290 0.419976 0.050015
O O5 0.750000 0.175502 0.433556
O O6 0.537503 0.250000 0.492506
O O7 0.547816 0.134520 0.548813
O O8 0.478828 0.157029 0.380817
O O9 0.750000 0.149011 0.677773
O O10 0.982136 0.073723 0.702480
O O11 0.031215 0.189970 0.693022
O O12 0.250000 0.314503 0.283492
O O13 0.495442 0.250000 0.264841
O O14 0.481122 0.365517 0.206488
O O15 0.250000 0.056825 0.775132
O O16 0.028461 0.982127 0.809032
O O17 0.750000 0.750000 0.230401
O O18 0.019060 0.750000 0.161812
O O19 0.250000 0.750000 0.055751
O O20 0.250000 0.058741 0.176955
#
# Coordination Sequence:
#
# PCOD8245772 Si02
#       8
#     8   8   8   8   8   4   4   8
#     4  10  22  39  60  84 116 155 194 240 291 340
#     4   9  18  34  56  84 116 149 185 231 293 346
#     4  11  21  36  58  85 118 154 193 233 284 347
#     4   9  19  36  59  87 113 143 190 241 289 343
#     4  11  23  38  57  85 118 154 196 239 285 343
#     4  12  22  34  54  83 120 155 190 235 288 338
#     4  12  24  36  56  87 120 155 192 237 288 338
#     4  10  22  40  62  83 111 155 198 237 289 345
#
# _framework density 19.522168000000001
#
# number of rings (size 3 to 8) (size 9 to 14) (size 15 to 20)
#    0.000    1.714    2.143    2.571    1.000    2.857 
#    0.000    0.714    0.000    0.000    0.000    0.000 
#    0.000    0.000    0.000    0.000    0.000    0.000 
#
# Total GULP energy -694499.710409 kJ/mol
# GULP energy per Si atom -12401.780543 kJ/mol
# Density = 1.947773 g / cm^3
# Si number density = 19.522168 Si / 1000 Ang^3
#
#
#
# Elastic Constant Matrix: (Units=GPa)
#
#
# Indices 1 2 3 4 5 6 
#
# 1 43.8988 38.4537 24.5762 0.0000 0.0000 0.0000
# 2 38.4537 89.9407 32.7668 0.0000 0.0000 0.0000
# 3 24.5762 32.7668 86.6184 0.0000 0.0000 0.0000
# 4 0.0000 0.0000 0.0000 23.8981 0.0000 0.0000
# 5 0.0000 0.0000 0.0000 0.0000 27.4031 0.0000
# 6 0.0000 0.0000 0.0000 0.0000 0.0000 43.3812
#
#
#
# Elastic Compliance Matrix: (Units=1/GPa)
#
#
# Indices 1 2 3 4 5 6 
#
# 1 0.038516 -0.014482 -0.005450 0.000000 0.000000 0.000000
# 2 -0.014482 0.018341 -0.002829 0.000000 0.000000 0.000000
# 3 -0.005450 -0.002829 0.014161 0.000000 0.000000 0.000000
# 4 0.000000 0.000000 0.000000 0.041844 0.000000 0.000000
# 5 0.000000 0.000000 0.000000 0.000000 0.036492 0.000000
# 6 0.000000 0.000000 0.000000 0.000000 0.000000 0.023051
#
#
# Mechanical properties :
#
#
# Convention : Reuss Voigt Hill
#
# Bulk Modulus (GPa) = 39.22092 45.78348 42.50220
# Shear Modulus (GPa) = 22.08210 27.24722 24.66466
#
# Velocity S-wave (km/s) = 3.36688 3.73997 3.55832
# Velocity P-wave (km/s) = 5.93705 6.49252 6.22099
#
# Compressibility (1/GPa) = 0.02549660
#
# Stress axis : x y z
#
# Youngs Moduli (GPa) = 25.96295 54.52301 70.61441
#
# Poissons Ratio (x) = 0.78960 0.38484
# Poissons Ratio (y) = 0.37600 0.19978
# Poissons Ratio (z) = 0.14149 0.15426
#
# Static dielectric constant tensor:
#      x y z
#    x 3.495500 0.000000 0.000000 
#    y 0.000000 3.592310 0.000000 
#    z 0.000000 0.000000 3.626690 
# 
# 
# High freq. dielectric constant tensor:
#      x y z
#    x 1.756840 0.000000 0.000000 
#    y 0.000000 1.749130 0.000000 
#    z 0.000000 0.000000 1.761300 
# 
# From -- ./inp_files/21151.got.cif
#   From: 2010.03.12/outbox.cif.g09.slc.cpg/sg59_11_cif.got.tgz:21151.got - 2010.04.16 16:29:54.
