data_PCOD8245832
_publ_section_title
;
Structure prediction by ZEFSAII (Michael W. Deem and Ramdas Pophale) SiO2 
 PCOD8245832
Probable space group: P M M N
;
_chemical_formula_sum "Si O2"
_cell_formula_units_Z 64
_cell_length_a 16.933090
_cell_length_b 15.151510
_cell_length_c 11.595387
_cell_angle_alpha 90.000000
_cell_angle_beta 90.000000
_cell_angle_gamma 90.000000
_cell_volume 2974.934317
_symmetry_space_group_name_H-M "P M M N"
_symmetry_group_IT_number 59
_space_group.IT_coordinate_system_code '2'
_symmetry_cell_setting 'orthorhombic'
loop_
_space_group_symop_operation_xyz
x,y,z
1/2-x,1/2-y,z
1/2+x,-y,-z
-x,1/2+y,-z
-x,-y,-z
1/2+x,1/2+y,-z
1/2-x,y,z
x,1/2-y,z
loop_
_atom_site_type_symbol
_atom_site_label
_atom_site_fract_x
_atom_site_fract_y
_atom_site_fract_z
Si Si1 0.161003 0.492396 0.407509
Si Si2 0.090468 0.071625 0.795847
Si Si3 0.842206 0.851744 0.978628
Si Si4 0.577952 0.499058 0.831222
Si Si5 0.904178 0.348501 0.463850
Si Si6 0.841439 0.150470 0.974856
Si Si7 0.160217 0.606233 0.771691
Si Si8 0.075323 0.148354 0.550464
O O1 0.250000 0.480812 0.361955
O O2 0.101346 0.493436 0.301565
O O3 0.156149 0.584296 0.476692
O O4 0.142162 0.411629 0.492837
O O5 0.124893 0.136083 0.892745
O O6 0.068764 0.131399 0.686768
O O7 0.156942 0.999976 0.763487
O O8 0.015869 0.014096 0.840513
O O9 0.750000 0.878996 0.972359
O O10 0.853340 0.750000 0.942062
O O11 0.893825 0.912225 0.894137
O O12 0.615496 0.412405 0.886206
O O13 0.887955 0.250000 0.511401
O O14 0.893859 0.349829 0.326057
O O15 0.992862 0.378168 0.491988
O O16 0.750000 0.124931 0.972728
O O17 0.856974 0.250000 0.933158
O O18 0.872939 0.138469 0.104941
O O19 0.250000 0.637919 0.753601
O O20 0.097120 0.250000 0.528166
#
# Coordination Sequence:
#
# PCOD8245832 Si02
#       8
#     8   8   8   8   8   8   8   8
#     4  12  25  42  68  98 133 178 224 271 330 402
#     4  12  23  43  70  98 129 173 224 276 332 398
#     4  11  25  45  69  98 133 176 225 279 338 398
#     4  12  25  44  68  95 137 178 220 273 329 404
#     4  11  23  42  67  95 132 175 218 274 334 396
#     4  10  22  40  63  93 129 168 213 269 330 389
#     4  11  22  39  67  97 128 167 216 276 334 387
#     4  11  25  46  69  96 136 177 221 277 334 395
#
# _framework density 21.513079000000001
#
# number of rings (size 3 to 8) (size 9 to 14) (size 15 to 20)
#    0.000    0.750    3.750    4.125    0.000    4.250 
#    0.000    0.625    0.000    0.000    0.000    0.000 
#    0.000    0.000    0.000    0.000    0.000    0.000 
#
# Total GULP energy -793961.233632 kJ/mol
# GULP energy per Si atom -12405.644276 kJ/mol
# Density = 2.146411 g / cm^3
# Si number density = 21.513079 Si / 1000 Ang^3
#
#
#
# Elastic Constant Matrix: (Units=GPa)
#
#
# Indices 1 2 3 4 5 6 
#
# 1 71.0566 31.9228 16.6384 0.0000 0.0000 0.0000
# 2 31.9228 117.7666 34.2889 0.0000 0.0000 0.0000
# 3 16.6384 34.2889 105.4881 0.0000 0.0000 0.0000
# 4 0.0000 0.0000 0.0000 25.6044 0.0000 0.0000
# 5 0.0000 0.0000 0.0000 0.0000 30.6331 0.0000
# 6 0.0000 0.0000 0.0000 0.0000 0.0000 15.9560
#
#
#
# Elastic Compliance Matrix: (Units=1/GPa)
#
#
# Indices 1 2 3 4 5 6 
#
# 1 0.016171 -0.004021 -0.001243 0.000000 0.000000 0.000000
# 2 -0.004021 0.010379 -0.002739 0.000000 0.000000 0.000000
# 3 -0.001243 -0.002739 0.010566 0.000000 0.000000 0.000000
# 4 0.000000 0.000000 0.000000 0.039056 0.000000 0.000000
# 5 0.000000 0.000000 0.000000 0.000000 0.032644 0.000000
# 6 0.000000 0.000000 0.000000 0.000000 0.000000 0.062672
#
#
# Mechanical properties :
#
#
# Convention : Reuss Voigt Hill
#
# Bulk Modulus (GPa) = 47.37574 51.11241 49.24407
# Shear Modulus (GPa) = 25.70251 28.53612 27.11932
#
# Velocity S-wave (km/s) = 3.46025 3.64600 3.55434
# Velocity P-wave (km/s) = 6.16718 6.44475 6.30749
#
# Compressibility (1/GPa) = 0.02110785
#
# Stress axis : x y z
#
# Youngs Moduli (GPa) = 61.83863 96.34777 94.64026
#
# Poissons Ratio (x) = 0.38746 0.11768
# Poissons Ratio (y) = 0.24868 0.25926
# Poissons Ratio (z) = 0.07689 0.26394
#
# Static dielectric constant tensor:
#      x y z
#    x 3.846980 0.000000 0.000000 
#    y 0.000000 3.876700 0.000000 
#    z 0.000000 0.000000 3.892720 
# 
# 
# High freq. dielectric constant tensor:
#      x y z
#    x 1.842000 0.000000 0.000000 
#    y 0.000000 1.853480 0.000000 
#    z 0.000000 0.000000 1.850190 
# 
# From -- ./inp_files/17812.got.cif
#   From: 2010.03.12/outbox.cif.g09.slc.cpg/sg59_9_cif.got.tgz:17812.got - 2010.04.16 16:29:54.
