data_PCOD8245795
_publ_section_title
;
Structure prediction by ZEFSAII (Michael W. Deem and Ramdas Pophale) SiO2 
 PCOD8245795
Probable space group: P M M N
;
_chemical_formula_sum "Si O2"
_cell_formula_units_Z 56
_cell_length_a 8.933751
_cell_length_b 15.245478
_cell_length_c 21.459693
_cell_angle_alpha 90.000000
_cell_angle_beta 90.000000
_cell_angle_gamma 90.000000
_cell_volume 2922.795258
_symmetry_space_group_name_H-M "P M M N"
_symmetry_group_IT_number 59
_space_group.IT_coordinate_system_code '2'
_symmetry_cell_setting 'orthorhombic'
loop_
_space_group_symop_operation_xyz
x,y,z
1/2-x,1/2-y,z
1/2+x,-y,-z
-x,1/2+y,-z
-x,-y,-z
1/2+x,1/2+y,-z
1/2-x,y,z
x,1/2-y,z
loop_
_atom_site_type_symbol
_atom_site_label
_atom_site_fract_x
_atom_site_fract_y
_atom_site_fract_z
Si Si1 0.427569 0.000708 0.154565
Si Si2 0.421025 0.650840 0.633893
Si Si3 0.078476 0.151146 0.625013
Si Si4 0.572838 0.002938 0.705156
Si Si5 0.073481 0.150850 0.064126
Si Si6 0.073748 0.849181 0.064927
Si Si7 0.423807 0.593512 0.496131
O O1 0.250000 0.002191 0.156770
O O2 0.490922 0.001499 0.224565
O O3 0.484222 0.913071 0.119542
O O4 0.486528 0.086952 0.118412
O O5 0.250000 0.625204 0.649367
O O6 0.456416 0.750000 0.655201
O O7 0.530649 0.586340 0.670238
O O8 0.448815 0.644865 0.560209
O O9 0.250000 0.120964 0.617231
O O10 0.067316 0.250000 0.651255
O O11 0.998584 0.087141 0.673070
O O12 0.999954 0.149386 0.558057
O O13 0.750000 0.013914 0.703508
O O14 0.250000 0.142326 0.055995
O O15 0.025959 0.250000 0.081731
O O16 0.001035 0.121148 0.999367
O O17 0.250000 0.857880 0.055704
O O18 0.027143 0.750000 0.082877
O O19 0.500000 0.500000 0.500000
O O20 0.250000 0.581095 0.480229
#
# Coordination Sequence:
#
# PCOD8245795 Si02
#       7
#     8   8   8   8   8   8   8
#     4   9  19  34  52  76 105 140 180 218 267 324
#     4  10  22  40  60  82 113 150 184 225 281 338
#     4  11  24  41  60  83 114 151 190 234 285 338
#     4  11  23  38  58  83 111 148 193 238 279 330
#     4   9  17  31  52  77 106 137 171 215 265 318
#     4   9  17  31  52  77 105 135 171 218 267 317
#     4  11  21  36  62  90 116 146 183 230 285 338
#
# _framework density 19.159739999999999
#
# number of rings (size 3 to 8) (size 9 to 14) (size 15 to 20)
#    0.000    2.000    1.429    2.143    0.000    3.714 
#    0.000    5.714    0.000    3.429    0.000    0.000 
#    0.000    0.000    0.000    0.000    0.000    0.000 
#
# Total GULP energy -694509.460040 kJ/mol
# GULP energy per Si atom -12401.954644 kJ/mol
# Density = 1.911613 g / cm^3
# Si number density = 19.159740 Si / 1000 Ang^3
#
#
#
# Elastic Constant Matrix: (Units=GPa)
#
#
# Indices 1 2 3 4 5 6 
#
# 1 74.6232 41.5048 47.9204 0.0000 0.0000 0.0000
# 2 41.5048 126.9120 71.1337 0.0000 0.0000 0.0000
# 3 47.9204 71.1337 148.9187 0.0000 0.0000 0.0000
# 4 0.0000 0.0000 0.0000 6.1245 0.0000 0.0000
# 5 0.0000 0.0000 0.0000 0.0000 26.9996 0.0000
# 6 0.0000 0.0000 0.0000 0.0000 0.0000 19.7921
#
#
#
# Elastic Compliance Matrix: (Units=1/GPa)
#
#
# Indices 1 2 3 4 5 6 
#
# 1 0.018026 -0.003611 -0.004076 0.000000 0.000000 0.000000
# 2 -0.003611 0.011484 -0.004323 0.000000 0.000000 0.000000
# 3 -0.004076 -0.004323 0.010092 0.000000 0.000000 0.000000
# 4 0.000000 0.000000 0.000000 0.163278 0.000000 0.000000
# 5 0.000000 0.000000 0.000000 0.000000 0.037038 0.000000
# 6 0.000000 0.000000 0.000000 0.000000 0.000000 0.050525
#
#
# Mechanical properties :
#
#
# Convention : Reuss Voigt Hill
#
# Bulk Modulus (GPa) = 64.17852 74.61907 69.39880
# Shear Modulus (GPa) = 15.64179 23.24290 19.44235
#
# Velocity S-wave (km/s) = 2.86035 3.48675 3.18897
# Velocity P-wave (km/s) = 6.66919 7.43238 7.06110
#
# Compressibility (1/GPa) = 0.01558154
#
# Stress axis : x y z
#
# Youngs Moduli (GPa) = 55.47431 87.08084 99.08984
#
# Poissons Ratio (x) = 0.31442 0.40389
# Poissons Ratio (y) = 0.20030 0.42841
# Poissons Ratio (z) = 0.22611 0.37649
#
# Static dielectric constant tensor:
#      x y z
#    x 3.463470 0.000000 0.000000 
#    y 0.000000 3.666900 0.000000 
#    z 0.000000 0.000000 3.699820 
# 
# 
# High freq. dielectric constant tensor:
#      x y z
#    x 1.733150 0.000000 0.000000 
#    y 0.000000 1.760100 0.000000 
#    z 0.000000 0.000000 1.741130 
# 
# From -- ./inp_files/29179.got.cif
#   From: 2010.03.12/outbox.cif.g09.slc.cpg/sg59_15_cif.got.tgz:29179.got - 2010.04.16 16:29:54.
