data_PCOD8245172
_publ_section_title
;
Structure prediction by ZEFSAII (Michael W. Deem and Ramdas Pophale) SiO2 
 PCOD8245172
Probable space group: P M M N
;
_chemical_formula_sum "Si O2"
_cell_formula_units_Z 48
_cell_length_a 8.880634
_cell_length_b 20.078305
_cell_length_c 15.171385
_cell_angle_alpha 90.000000
_cell_angle_beta 90.000000
_cell_angle_gamma 90.000000
_cell_volume 2705.180501
_symmetry_space_group_name_H-M "P M M N"
_symmetry_group_IT_number 59
_space_group.IT_coordinate_system_code '2'
_symmetry_cell_setting 'orthorhombic'
loop_
_space_group_symop_operation_xyz
x,y,z
1/2-x,1/2-y,z
1/2+x,-y,-z
-x,1/2+y,-z
-x,-y,-z
1/2+x,1/2+y,-z
1/2-x,y,z
x,1/2-y,z
loop_
_atom_site_type_symbol
_atom_site_label
_atom_site_fract_x
_atom_site_fract_y
_atom_site_fract_z
Si Si1 0.427896 0.065598 0.958406
Si Si2 0.572385 0.041919 0.779710
Si Si3 0.417486 0.433400 0.604668
Si Si4 0.075640 0.597048 0.752724
Si Si5 0.083090 0.588900 0.562232
Si Si6 0.423226 0.826409 0.924400
O O1 0.250000 0.055500 0.954527
O O2 0.492476 0.078569 0.861090
O O3 0.467394 0.129794 0.016133
O O4 0.500000 0.000000 0.000000
O O5 0.750000 0.048211 0.789651
O O6 0.521324 0.078592 0.689955
O O7 0.526754 0.964601 0.781835
O O8 0.250000 0.408071 0.625943
O O9 0.477483 0.391941 0.520053
O O10 0.419065 0.510446 0.580156
O O11 0.250000 0.572551 0.750257
O O12 0.029610 0.622878 0.654457
O O13 0.051708 0.656560 0.821396
O O14 0.250000 0.612874 0.536731
O O15 0.250000 0.840349 0.950779
O O16 0.467179 0.750000 0.938762
#
# Coordination Sequence:
#
# PCOD8245172 Si02
#       6
#     8   8   8   8   8   8
#     4  12  23  36  54  77 104 137 177 222 269 320
#     4  11  20  30  48  73 100 133 170 214 262 314
#     4   9  16  26  40  63  96 130 162 205 252 301
#     4   9  17  30  48  70 100 135 170 209 254 308
#     4   8  14  24  39  62  93 130 165 200 244 297
#     4  10  21  37  56  78 106 140 177 218 264 316
#
# _framework density 17.743732999999999
#
# number of rings (size 3 to 8) (size 9 to 14) (size 15 to 20)
#    0.000    2.167    1.667    4.500    0.000    4.333 
#    0.000    0.000    0.000    0.000    0.000    1.167 
#    0.000    6.667    0.000    0.000    0.000    0.000 
#
# Total GULP energy -595079.171759 kJ/mol
# GULP energy per Si atom -12397.482745 kJ/mol
# Density = 1.770335 g / cm^3
# Si number density = 17.743733 Si / 1000 Ang^3
#
#
#
# Elastic Constant Matrix: (Units=GPa)
#
#
# Indices 1 2 3 4 5 6 
#
# 1 131.2272 31.1326 64.8953 0.0000 0.0000 0.0000
# 2 31.1326 52.4827 39.5096 0.0000 0.0000 0.0000
# 3 64.8953 39.5096 142.9837 0.0000 0.0000 0.0000
# 4 0.0000 0.0000 0.0000 15.0722 0.0000 0.0000
# 5 0.0000 0.0000 0.0000 0.0000 34.5590 0.0000
# 6 0.0000 0.0000 0.0000 0.0000 0.0000 15.5597
#
#
#
# Elastic Compliance Matrix: (Units=1/GPa)
#
#
# Indices 1 2 3 4 5 6 
#
# 1 0.010248 -0.003255 -0.003752 0.000000 0.000000 0.000000
# 2 -0.003255 0.025092 -0.005456 0.000000 0.000000 0.000000
# 3 -0.003752 -0.005456 0.010204 0.000000 0.000000 0.000000
# 4 0.000000 0.000000 0.000000 0.066347 0.000000 0.000000
# 5 0.000000 0.000000 0.000000 0.000000 0.028936 0.000000
# 6 0.000000 0.000000 0.000000 0.000000 0.000000 0.064269
#
#
# Mechanical properties :
#
#
# Convention : Reuss Voigt Hill
#
# Bulk Modulus (GPa) = 48.49951 66.41874 57.45913
# Shear Modulus (GPa) = 21.10638 25.78190 23.44414
#
# Velocity S-wave (km/s) = 3.45267 3.81598 3.63886
# Velocity P-wave (km/s) = 6.57930 7.54514 7.07871
#
# Compressibility (1/GPa) = 0.02061877
#
# Stress axis : x y z
#
# Youngs Moduli (GPa) = 97.58117 39.85307 97.99740
#
# Poissons Ratio (x) = 0.12971 0.36767
# Poissons Ratio (y) = 0.31759 0.53471
# Poissons Ratio (z) = 0.36611 0.21745
#
# Static dielectric constant tensor:
#      x y z
#    x 3.372870 0.000000 0.000000 
#    y 0.000000 2.747370 0.000000 
#    z 0.000000 0.000000 3.763130 
# 
# 
# High freq. dielectric constant tensor:
#      x y z
#    x 1.691050 0.000000 0.000000 
#    y 0.000000 1.612360 0.000000 
#    z 0.000000 0.000000 1.709800 
# 
# From -- ./inp_files/20744.got.cif
#   From: 2010.03.12/outbox.cif.g09.slc.cpg/sg59_11_cif.got.tgz:20744.got - 2010.04.16 16:29:54.
