data_PCOD8245936
_publ_section_title
;
Structure prediction by ZEFSAII (Michael W. Deem and Ramdas Pophale) SiO2 
 PCOD8245936
Probable space group: P M M N
;
_chemical_formula_sum "Si O2"
_cell_formula_units_Z 48
_cell_length_a 8.831109
_cell_length_b 26.139186
_cell_length_c 11.914743
_cell_angle_alpha 90.000000
_cell_angle_beta 90.000000
_cell_angle_gamma 90.000000
_cell_volume 2750.375453
_symmetry_space_group_name_H-M "P M M N"
_symmetry_group_IT_number 59
_space_group.IT_coordinate_system_code '2'
_symmetry_cell_setting 'orthorhombic'
loop_
_space_group_symop_operation_xyz
x,y,z
1/2-x,1/2-y,z
1/2+x,-y,-z
-x,1/2+y,-z
-x,-y,-z
1/2+x,1/2+y,-z
1/2-x,y,z
x,1/2-y,z
loop_
_atom_site_type_symbol
_atom_site_label
_atom_site_fract_x
_atom_site_fract_y
_atom_site_fract_z
Si Si1 0.580546 0.888120 0.841521
Si Si2 0.074345 0.432144 0.735809
Si Si3 0.571785 0.885746 0.487344
Si Si4 0.072822 0.945811 0.031235
Si Si5 0.930718 0.692932 0.663843
Si Si6 0.579437 0.970657 0.650598
O O1 0.750000 0.876810 0.886420
O O2 0.516552 0.838821 0.773747
O O3 0.584290 0.936882 0.761992
O O4 0.473340 0.900692 0.946381
O O5 0.250000 0.431118 0.770166
O O6 0.034977 0.386719 0.645932
O O7 0.973621 0.426157 0.845833
O O8 0.038923 0.484345 0.670924
O O9 0.750000 0.887085 0.509217
O O10 0.508021 0.835052 0.549982
O O11 0.510915 0.937293 0.547978
O O12 0.250000 0.954354 0.027707
O O13 0.000000 0.000000 0.000000
O O14 0.750000 0.694833 0.661934
O O15 0.999891 0.750000 0.668332
O O16 0.750000 0.991446 0.627079
#
# Coordination Sequence:
#
# PCOD8245936 Si02
#       6
#     8   8   8   8   8   8
#     4   9  17  30  49  74 101 127 161 204 245 287
#     4  11  20  29  44  67  99 135 168 198 235 285
#     4   8  16  28  43  69 100 128 160 200 243 285
#     4  12  23  34  48  67  96 134 173 207 245 293
#     4   8  14  28  53  80 102 124 154 200 255 298
#     4   9  16  28  45  65  96 131 161 197 237 281
#
# _framework density 17.452162000000001
#
# number of rings (size 3 to 8) (size 9 to 14) (size 15 to 20)
#    0.000    2.500    1.667    4.500    0.000    0.000 
#    0.000    0.833    0.000    2.500    0.000    4.667 
#    0.000    0.000    0.000    0.000    0.000    0.000 
#
# Total GULP energy -594874.283757 kJ/mol
# GULP energy per Si atom -12393.214245 kJ/mol
# Density = 1.741244 g / cm^3
# Si number density = 17.452162 Si / 1000 Ang^3
#
#
#
# Elastic Constant Matrix: (Units=GPa)
#
#
# Indices 1 2 3 4 5 6 
#
# 1 67.2022 24.6738 40.3833 0.0000 0.0000 0.0000
# 2 24.6738 97.4680 56.0416 0.0000 0.0000 0.0000
# 3 40.3833 56.0416 129.8015 0.0000 0.0000 0.0000
# 4 0.0000 0.0000 0.0000 11.1924 0.0000 0.0000
# 5 0.0000 0.0000 0.0000 0.0000 21.4975 0.0000
# 6 0.0000 0.0000 0.0000 0.0000 0.0000 13.2229
#
#
#
# Elastic Compliance Matrix: (Units=1/GPa)
#
#
# Indices 1 2 3 4 5 6 
#
# 1 0.018545 -0.001832 -0.004979 0.000000 0.000000 0.000000
# 2 -0.001832 0.013829 -0.005401 0.000000 0.000000 0.000000
# 3 -0.004979 -0.005401 0.011585 0.000000 0.000000 0.000000
# 4 0.000000 0.000000 0.000000 0.089346 0.000000 0.000000
# 5 0.000000 0.000000 0.000000 0.000000 0.046517 0.000000
# 6 0.000000 0.000000 0.000000 0.000000 0.000000 0.075626
#
#
# Mechanical properties :
#
#
# Convention : Reuss Voigt Hill
#
# Bulk Modulus (GPa) = 51.18787 59.62990 55.40888
# Shear Modulus (GPa) = 17.45917 20.74075 19.09996
#
# Velocity S-wave (km/s) = 3.16634 3.45111 3.31179
# Velocity P-wave (km/s) = 6.53924 7.07969 6.81483
#
# Compressibility (1/GPa) = 0.01953588
#
# Stress axis : x y z
#
# Youngs Moduli (GPa) = 53.92323 72.31313 86.32084
#
# Poissons Ratio (x) = 0.13248 0.42976
# Poissons Ratio (y) = 0.09879 0.46618
# Poissons Ratio (z) = 0.26846 0.39053
#
# Static dielectric constant tensor:
#      x y z
#    x 2.984780 0.000000 0.000000 
#    y 0.000000 3.281530 0.000000 
#    z 0.000000 0.000000 3.454010 
# 
# 
# High freq. dielectric constant tensor:
#      x y z
#    x 1.645020 0.000000 0.000000 
#    y 0.000000 1.639270 0.000000 
#    z 0.000000 0.000000 1.682370 
# 
# From -- ./inp_files/14465.got.cif
#   From: 2010.03.12/outbox.cif.g09.slc.cpg/sg59_8_cif.got.tgz:14465.got - 2010.04.16 16:29:54.
