data_PCOD8245422
_publ_section_title
;
Structure prediction by ZEFSAII (Michael W. Deem and Ramdas Pophale) SiO2 
 PCOD8245422
Probable space group: P M M N
;
_chemical_formula_sum "Si O2"
_cell_formula_units_Z 32
_cell_length_a 13.385414
_cell_length_b 13.793700
_cell_length_c 9.004243
_cell_angle_alpha 90.000000
_cell_angle_beta 90.000000
_cell_angle_gamma 90.000000
_cell_volume 1662.492870
_symmetry_space_group_name_H-M "P M M N"
_symmetry_group_IT_number 59
_space_group.IT_coordinate_system_code '2'
_symmetry_cell_setting 'orthorhombic'
loop_
_space_group_symop_operation_xyz
x,y,z
1/2-x,1/2-y,z
1/2+x,-y,-z
-x,1/2+y,-z
-x,-y,-z
1/2+x,1/2+y,-z
1/2-x,y,z
x,1/2-y,z
loop_
_atom_site_type_symbol
_atom_site_label
_atom_site_fract_x
_atom_site_fract_y
_atom_site_fract_z
Si Si1 0.363658 0.862469 0.347156
Si Si2 0.250000 0.145095 0.453038
Si Si3 0.534156 0.634159 0.578161
Si Si4 0.250000 0.355375 0.100928
Si Si5 0.069845 0.023127 0.134432
O O1 0.250000 0.881111 0.404297
O O2 0.379474 0.750000 0.306841
O O3 0.443312 0.895958 0.471693
O O4 0.382791 0.924571 0.199896
O O5 0.250000 0.250000 0.531970
O O6 0.357761 0.094537 0.489550
O O7 0.250000 0.155345 0.277027
O O8 0.540689 0.750000 0.600367
O O9 0.514043 0.584412 0.736860
O O10 0.250000 0.250000 0.023505
O O11 0.347006 0.413407 0.051676
O O12 0.000000 0.000000 0.000000
#
# Coordination Sequence:
#
# PCOD8245422 Si02
#       5
#     8   4   8   4   8
#     4  10  21  38  57  81 118 158 191 231 285 351
#     4   7  12  26  53  80 102 130 174 230 275 320
#     4   9  18  35  59  86 111 146 195 239 287 342
#     4   9  18  36  58  78 108 150 191 234 288 348
#     4  11  21  36  58  86 117 150 193 242 296 351
#
# _framework density 19.248204000000001
#
# number of rings (size 3 to 8) (size 9 to 14) (size 15 to 20)
#    0.000    2.500    1.250    3.000    0.000    2.000 
#    2.250    1.250    0.000    1.500    0.000    0.000 
#    0.000    0.000    0.000    0.000    0.000    0.000 
#
# Total GULP energy -396463.769293 kJ/mol
# GULP energy per Si atom -12389.492790 kJ/mol
# Density = 1.920439 g / cm^3
# Si number density = 19.248204 Si / 1000 Ang^3
#
#
#
# Elastic Constant Matrix: (Units=GPa)
#
#
# Indices 1 2 3 4 5 6 
#
# 1 183.7755 69.2404 75.9166 0.0000 0.0000 0.0000
# 2 69.2404 79.5406 47.0778 0.0000 0.0000 0.0000
# 3 75.9166 47.0778 69.6799 0.0000 0.0000 0.0000
# 4 0.0000 0.0000 0.0000 17.5106 0.0000 0.0000
# 5 0.0000 0.0000 0.0000 0.0000 36.3040 0.0000
# 6 0.0000 0.0000 0.0000 0.0000 0.0000 32.3459
#
#
#
# Elastic Compliance Matrix: (Units=1/GPa)
#
#
# Indices 1 2 3 4 5 6 
#
# 1 0.010603 -0.003987 -0.008858 0.000000 0.000000 0.000000
# 2 -0.003987 0.022449 -0.010823 0.000000 0.000000 0.000000
# 3 -0.008858 -0.010823 0.031315 0.000000 0.000000 0.000000
# 4 0.000000 0.000000 0.000000 0.057108 0.000000 0.000000
# 5 0.000000 0.000000 0.000000 0.000000 0.027545 0.000000
# 6 0.000000 0.000000 0.000000 0.000000 0.000000 0.030916
#
#
# Mechanical properties :
#
#
# Convention : Reuss Voigt Hill
#
# Bulk Modulus (GPa) = 58.72071 79.71841 69.21956
# Shear Modulus (GPa) = 21.46395 26.61621 24.04008
#
# Velocity S-wave (km/s) = 3.34296 3.72262 3.53789
# Velocity P-wave (km/s) = 6.74343 7.74488 7.26144
#
# Compressibility (1/GPa) = 0.01702977
#
# Stress axis : x y z
#
# Youngs Moduli (GPa) = 94.31477 44.54577 31.93375
#
# Poissons Ratio (x) = 0.17760 0.28287
# Poissons Ratio (y) = 0.37602 0.34563
# Poissons Ratio (z) = 0.83545 0.48213
#
# Static dielectric constant tensor:
#      x y z
#    x 3.304940 0.000000 0.000000 
#    y 0.000000 3.941070 0.000000 
#    z 0.000000 0.000000 2.949360 
# 
# 
# High freq. dielectric constant tensor:
#      x y z
#    x 1.764710 0.000000 0.000000 
#    y 0.000000 1.770470 0.000000 
#    z 0.000000 0.000000 1.689340 
# 
# From -- ./inp_files/6828.got.cif
#   From: 2010.03.12/outbox.cif.g09.slc.cpg/sg59_4_cif.got.tgz:6828.got - 2010.04.16 16:29:54.
