data_PCOD8245393
_publ_section_title
;
Structure prediction by ZEFSAII (Michael W. Deem and Ramdas Pophale) SiO2 
 PCOD8245393
Probable space group: P M M N
;
_chemical_formula_sum "Si O2"
_cell_formula_units_Z 56
_cell_length_a 19.384536
_cell_length_b 8.921752
_cell_length_c 15.929649
_cell_angle_alpha 90.000000
_cell_angle_beta 90.000000
_cell_angle_gamma 90.000000
_cell_volume 2754.937580
_symmetry_space_group_name_H-M "P M M N"
_symmetry_group_IT_number 59
_space_group.IT_coordinate_system_code '2'
_symmetry_cell_setting 'orthorhombic'
loop_
_space_group_symop_operation_xyz
x,y,z
1/2-x,1/2-y,z
1/2+x,-y,-z
-x,1/2+y,-z
-x,-y,-z
1/2+x,1/2+y,-z
1/2-x,y,z
x,1/2-y,z
loop_
_atom_site_type_symbol
_atom_site_label
_atom_site_fract_x
_atom_site_fract_y
_atom_site_fract_z
Si Si1 0.671103 0.424884 0.022408
Si Si2 0.172714 0.421358 0.150873
Si Si3 0.827470 0.573144 0.317461
Si Si4 0.173045 0.577798 0.514962
Si Si5 0.461227 0.075110 0.247925
Si Si6 0.581899 0.572134 0.162651
Si Si7 0.960719 0.424091 0.576557
O O1 0.750000 0.464266 0.047859
O O2 0.655909 0.250000 0.033611
O O3 0.618097 0.518768 0.077963
O O4 0.657728 0.469258 0.926457
O O5 0.250000 0.449222 0.186346
O O6 0.164420 0.250000 0.119594
O O7 0.118600 0.456261 0.224920
O O8 0.750000 0.512346 0.304120
O O9 0.829249 0.750000 0.321323
O O10 0.856862 0.511769 0.405153
O O11 0.872718 0.513975 0.240757
O O12 0.250000 0.521462 0.489574
O O13 0.174912 0.750000 0.541935
O O14 0.121446 0.552594 0.437329
O O15 0.477127 0.250000 0.255785
O O16 0.507247 0.004077 0.173390
O O17 0.480892 0.997866 0.335543
O O18 0.573734 0.750000 0.160073
O O19 0.981233 0.250000 0.580280
O O20 0.000000 0.500000 0.500000
#
# Coordination Sequence:
#
# PCOD8245393 Si02
#       7
#     8   8   8   8   8   8   8
#     4  10  21  37  60  90 120 151 189 234 283 333
#     4   9  20  41  65  86 112 149 192 237 287 344
#     4   9  18  32  51  77 108 143 184 228 273 324
#     4   9  19  35  54  77 105 139 180 227 279 332
#     4  11  24  40  59  85 115 147 187 238 292 343
#     4  11  22  36  56  82 116 156 195 233 278 340
#     4  11  23  39  59  82 112 150 190 233 283 342
#
# _framework density 20.32714
#
# number of rings (size 3 to 8) (size 9 to 14) (size 15 to 20)
#    0.000    2.000    0.000    3.000    0.000    8.286 
#    0.000    1.429    0.000    0.000    0.000    0.000 
#    0.000    0.000    0.000    0.000    0.000    0.000 
#
# Total GULP energy -694530.375268 kJ/mol
# GULP energy per Si atom -12402.328130 kJ/mol
# Density = 2.028088 g / cm^3
# Si number density = 20.327140 Si / 1000 Ang^3
#
#
#
# Elastic Constant Matrix: (Units=GPa)
#
#
# Indices 1 2 3 4 5 6 
#
# 1 94.0654 45.5397 42.3935 0.0000 0.0000 0.0000
# 2 45.5397 88.9504 39.9280 0.0000 0.0000 0.0000
# 3 42.3935 39.9280 79.5079 0.0000 0.0000 0.0000
# 4 0.0000 0.0000 0.0000 34.1417 0.0000 0.0000
# 5 0.0000 0.0000 0.0000 0.0000 35.1545 0.0000
# 6 0.0000 0.0000 0.0000 0.0000 0.0000 29.8598
#
#
#
# Elastic Compliance Matrix: (Units=1/GPa)
#
#
# Indices 1 2 3 4 5 6 
#
# 1 0.015892 -0.005593 -0.005665 0.000000 0.000000 0.000000
# 2 -0.005593 0.016483 -0.005295 0.000000 0.000000 0.000000
# 3 -0.005665 -0.005295 0.018257 0.000000 0.000000 0.000000
# 4 0.000000 0.000000 0.000000 0.029290 0.000000 0.000000
# 5 0.000000 0.000000 0.000000 0.000000 0.028446 0.000000
# 6 0.000000 0.000000 0.000000 0.000000 0.000000 0.033490
#
#
# Mechanical properties :
#
#
# Convention : Reuss Voigt Hill
#
# Bulk Modulus (GPa) = 57.06022 57.58288 57.32155
# Shear Modulus (GPa) = 27.65423 28.80869 28.23146
#
# Velocity S-wave (km/s) = 3.69244 3.76873 3.73078
# Velocity P-wave (km/s) = 6.80520 6.87948 6.84244
#
# Compressibility (1/GPa) = 0.01752534
#
# Stress axis : x y z
#
# Youngs Moduli (GPa) = 62.92597 60.66975 54.77415
#
# Poissons Ratio (x) = 0.33935 0.31027
# Poissons Ratio (y) = 0.35197 0.29003
# Poissons Ratio (z) = 0.35644 0.32125
#
# Static dielectric constant tensor:
#      x y z
#    x 4.026890 0.000000 0.000000 
#    y 0.000000 3.647470 0.000000 
#    z 0.000000 0.000000 3.469400 
# 
# 
# High freq. dielectric constant tensor:
#      x y z
#    x 1.807230 0.000000 0.000000 
#    y 0.000000 1.795780 0.000000 
#    z 0.000000 0.000000 1.779310 
# 
# From -- ./inp_files/24280.got.cif
#   From: 2010.03.12/outbox.cif.g09.slc.cpg/sg59_13_cif.got.tgz:24280.got - 2010.04.16 16:29:54.
