data_PCOD8245437
_publ_section_title
;
Structure prediction by ZEFSAII (Michael W. Deem and Ramdas Pophale) SiO2 
 PCOD8245437
Probable space group: P M M N
;
_chemical_formula_sum "Si O2"
_cell_formula_units_Z 64
_cell_length_a 9.034105
_cell_length_b 13.957707
_cell_length_c 26.066607
_cell_angle_alpha 90.000000
_cell_angle_beta 90.000000
_cell_angle_gamma 90.000000
_cell_volume 3286.878991
_symmetry_space_group_name_H-M "P M M N"
_symmetry_group_IT_number 59
_space_group.IT_coordinate_system_code '2'
_symmetry_cell_setting 'orthorhombic'
loop_
_space_group_symop_operation_xyz
x,y,z
1/2-x,1/2-y,z
1/2+x,-y,-z
-x,1/2+y,-z
-x,-y,-z
1/2+x,1/2+y,-z
1/2-x,y,z
x,1/2-y,z
loop_
_atom_site_type_symbol
_atom_site_label
_atom_site_fract_x
_atom_site_fract_y
_atom_site_fract_z
Si Si1 0.922316 0.640452 0.925233
Si Si2 0.924178 0.639128 0.129128
Si Si3 0.076496 0.955978 0.627327
Si Si4 0.075493 0.028330 0.176912
Si Si5 0.082994 0.863836 0.025392
Si Si6 0.418404 0.637143 0.524898
Si Si7 0.076962 0.143919 0.577318
Si Si8 0.075975 0.862473 0.731027
O O1 0.750000 0.632548 0.937571
O O2 0.970123 0.750000 0.916236
O O3 0.967650 0.583826 0.874696
O O4 0.007530 0.594401 0.973900
O O5 0.750000 0.621641 0.127476
O O6 0.962158 0.750000 0.140189
O O7 0.997656 0.576020 0.174413
O O8 0.993088 0.603605 0.075384
O O9 0.250000 0.934260 0.627926
O O10 0.009103 0.906341 0.576523
O O11 0.010904 0.910902 0.679182
O O12 0.041787 0.070224 0.623774
O O13 0.250000 0.015210 0.183681
O O14 0.012905 0.089865 0.223212
O O15 0.250000 0.903605 0.030293
O O16 0.080669 0.750000 0.021585
O O17 0.250000 0.601840 0.518531
O O18 0.429128 0.750000 0.530030
O O19 0.506734 0.602355 0.474831
O O20 0.250000 0.149227 0.567099
O O21 0.014726 0.250000 0.591536
O O22 0.250000 0.882459 0.738192
O O23 0.041678 0.750000 0.729264
#
# Coordination Sequence:
#
# PCOD8245437 Si02
#       8
#     8   8   8   8   8   8   8   8
#     4   9  18  33  52  75 106 143 179 214 258 317
#     4  10  21  38  59  81 107 140 178 219 262 314
#     4   9  17  31  51  73  99 135 178 218 259 312
#     4  11  23  38  57  80 107 140 177 221 274 325
#     4   9  17  30  51  80 111 141 174 215 263 313
#     4   9  16  27  46  72 101 134 172 213 258 309
#     4   9  17  29  46  71 104 138 170 208 256 310
#     4  10  21  38  59  80 103 134 176 225 271 318
#
# _framework density 19.471359
#
# number of rings (size 3 to 8) (size 9 to 14) (size 15 to 20)
#    0.000    2.500    0.000    2.250    0.000    6.000 
#    0.000    3.125    0.000    3.750    0.000    0.000 
#    0.000    0.000    0.000    0.000    0.000    0.000 
#
# Total GULP energy -793537.275094 kJ/mol
# GULP energy per Si atom -12399.019923 kJ/mol
# Density = 1.942704 g / cm^3
# Si number density = 19.471359 Si / 1000 Ang^3
#
#
#
# Elastic Constant Matrix: (Units=GPa)
#
#
# Indices 1 2 3 4 5 6 
#
# 1 71.0443 42.8738 50.5323 0.0000 0.0000 0.0000
# 2 42.8738 92.9237 75.9397 0.0000 0.0000 0.0000
# 3 50.5323 75.9397 120.5166 0.0000 0.0000 0.0000
# 4 0.0000 0.0000 0.0000 35.1586 0.0000 0.0000
# 5 0.0000 0.0000 0.0000 0.0000 27.6861 0.0000
# 6 0.0000 0.0000 0.0000 0.0000 0.0000 21.6884
#
#
#
# Elastic Compliance Matrix: (Units=1/GPa)
#
#
# Indices 1 2 3 4 5 6 
#
# 1 0.021206 -0.005191 -0.005621 0.000000 0.000000 0.000000
# 2 -0.005191 0.023457 -0.012604 0.000000 0.000000 0.000000
# 3 -0.005621 -0.012604 0.018597 0.000000 0.000000 0.000000
# 4 0.000000 0.000000 0.000000 0.028443 0.000000 0.000000
# 5 0.000000 0.000000 0.000000 0.000000 0.036119 0.000000
# 6 0.000000 0.000000 0.000000 0.000000 0.000000 0.046108
#
#
# Mechanical properties :
#
#
# Convention : Reuss Voigt Hill
#
# Bulk Modulus (GPa) = 60.87142 69.24180 65.05661
# Shear Modulus (GPa) = 22.10074 24.58255 23.34165
#
# Velocity S-wave (km/s) = 3.37269 3.55702 3.46608
# Velocity P-wave (km/s) = 6.81884 7.24623 7.03578
#
# Compressibility (1/GPa) = 0.01642807
#
# Stress axis : x y z
#
# Youngs Moduli (GPa) = 47.15586 42.63140 53.77328
#
# Poissons Ratio (x) = 0.22129 0.30226
# Poissons Ratio (y) = 0.24477 0.67777
# Poissons Ratio (z) = 0.26506 0.53733
#
# Static dielectric constant tensor:
#      x y z
#    x 3.435870 0.000000 0.000000 
#    y 0.000000 3.771730 0.000000 
#    z 0.000000 0.000000 3.546820 
# 
# 
# High freq. dielectric constant tensor:
#      x y z
#    x 1.739730 0.000000 0.000000 
#    y 0.000000 1.773410 0.000000 
#    z 0.000000 0.000000 1.743080 
# 
# From -- ./inp_files/31592.got.cif
#   From: 2010.03.12/outbox.cif.g09.slc.cpg/sg59_16_cif.got.tgz:31592.got - 2010.04.16 16:29:54.
