data_PCOD8245767
_publ_section_title
;
Structure prediction by ZEFSAII (Michael W. Deem and Ramdas Pophale) SiO2 
 PCOD8245767
Probable space group: P M M N
;
_chemical_formula_sum "Si O2"
_cell_formula_units_Z 56
_cell_length_a 9.104091
_cell_length_b 16.134187
_cell_length_c 19.295992
_cell_angle_alpha 90.000000
_cell_angle_beta 90.000000
_cell_angle_gamma 90.000000
_cell_volume 2834.332435
_symmetry_space_group_name_H-M "P M M N"
_symmetry_group_IT_number 59
_space_group.IT_coordinate_system_code '2'
_symmetry_cell_setting 'orthorhombic'
loop_
_space_group_symop_operation_xyz
x,y,z
1/2-x,1/2-y,z
1/2+x,-y,-z
-x,1/2+y,-z
-x,-y,-z
1/2+x,1/2+y,-z
1/2-x,y,z
x,1/2-y,z
loop_
_atom_site_type_symbol
_atom_site_label
_atom_site_fract_x
_atom_site_fract_y
_atom_site_fract_z
Si Si1 0.915775 0.996440 0.167842
Si Si2 0.924103 0.750000 0.766792
Si Si3 0.076951 0.069408 0.047155
Si Si4 0.076964 0.250000 0.075667
Si Si5 0.084464 0.843229 0.358824
Si Si6 0.416508 0.842161 0.196419
Si Si7 0.916646 0.098488 0.300808
Si Si8 0.922465 0.988323 0.427534
O O1 0.750000 0.002440 0.138679
O O2 0.970550 0.902373 0.157631
O O3 0.925212 0.021476 0.247857
O O4 0.023790 0.056229 0.125596
O O5 0.750000 0.750000 0.767426
O O6 0.989269 0.750000 0.845528
O O7 0.977020 0.670555 0.723953
O O8 0.250000 0.056750 0.040294
O O9 0.031619 0.166294 0.032827
O O10 0.000000 0.000000 0.000000
O O11 0.250000 0.250000 0.086084
O O12 0.250000 0.874547 0.374225
O O13 0.064539 0.750000 0.387054
O O14 0.053417 0.844723 0.277613
O O15 0.967984 0.899951 0.397292
O O16 0.250000 0.870335 0.180219
O O17 0.444381 0.750000 0.167520
O O18 0.750000 0.132620 0.304246
O O19 0.967797 0.062649 0.375105
O O20 0.750000 0.988155 0.439083
O O21 0.000000 0.000000 0.500000
#
# Coordination Sequence:
#
# PCOD8245767 Si02
#       8
#     8   4   8   4   8   8   8   8
#     4  11  21  36  60  90 120 156 197 246 305 362
#     4  11  21  37  65  97 119 152 203 254 309 363
#     4  11  23  43  65  91 124 163 208 257 310 371
#     4   9  20  39  65  93 125 160 201 254 311 363
#     4   9  18  34  57  83 111 146 186 231 286 344
#     4   9  18  33  55  84 116 150 190 236 285 342
#     4  10  22  39  59  87 122 155 194 249 309 366
#     4  11  23  40  59  83 116 157 200 246 304 364
#
# _framework density 19.757739000000001
#
# number of rings (size 3 to 8) (size 9 to 14) (size 15 to 20)
#    0.000    1.857    2.857    2.357    0.000    2.286 
#    2.571    2.857    0.000    0.000    0.000    0.000 
#    0.000    0.000    0.000    0.000    0.000    0.000 
#
# Total GULP energy -694229.269158 kJ/mol
# GULP energy per Si atom -12396.951235 kJ/mol
# Density = 1.971277 g / cm^3
# Si number density = 19.757739 Si / 1000 Ang^3
#
#
#
# Elastic Constant Matrix: (Units=GPa)
#
#
# Indices 1 2 3 4 5 6 
#
# 1 84.9413 58.2306 32.9321 0.0000 0.0000 0.0000
# 2 58.2306 144.0667 39.6858 0.0000 0.0000 0.0000
# 3 32.9321 39.6858 66.9588 0.0000 0.0000 0.0000
# 4 0.0000 0.0000 0.0000 24.8718 0.0000 0.0000
# 5 0.0000 0.0000 0.0000 0.0000 31.4143 0.0000
# 6 0.0000 0.0000 0.0000 0.0000 0.0000 37.9063
#
#
#
# Elastic Compliance Matrix: (Units=1/GPa)
#
#
# Indices 1 2 3 4 5 6 
#
# 1 0.017758 -0.005703 -0.005354 0.000000 0.000000 0.000000
# 2 -0.005703 0.010127 -0.003197 0.000000 0.000000 0.000000
# 3 -0.005354 -0.003197 0.019463 0.000000 0.000000 0.000000
# 4 0.000000 0.000000 0.000000 0.040206 0.000000 0.000000
# 5 0.000000 0.000000 0.000000 0.000000 0.031833 0.000000
# 6 0.000000 0.000000 0.000000 0.000000 0.000000 0.026381
#
#
# Mechanical properties :
#
#
# Convention : Reuss Voigt Hill
#
# Bulk Modulus (GPa) = 53.07937 61.96263 57.52100
# Shear Modulus (GPa) = 27.69230 29.84638 28.76934
#
# Velocity S-wave (km/s) = 3.74785 3.89088 3.82003
# Velocity P-wave (km/s) = 6.75662 7.18433 6.97375
#
# Compressibility (1/GPa) = 0.01883971
#
# Stress axis : x y z
#
# Youngs Moduli (GPa) = 56.31240 98.74538 51.38010
#
# Poissons Ratio (x) = 0.56313 0.27508
# Poissons Ratio (y) = 0.32114 0.16428
# Poissons Ratio (z) = 0.30149 0.31573
#
# Static dielectric constant tensor:
#      x y z
#    x 3.560700 0.000000 0.000000 
#    y 0.000000 2.632490 0.000000 
#    z 0.000000 0.000000 3.576240 
# 
# 
# High freq. dielectric constant tensor:
#      x y z
#    x 1.766060 0.000000 0.000000 
#    y 0.000000 1.780350 0.000000 
#    z 0.000000 0.000000 1.752360 
# 
# From -- ./inp_files/29251.got.cif
#   From: 2010.03.12/outbox.cif.g09.slc.cpg/sg59_15_cif.got.tgz:29251.got - 2010.04.16 16:29:54.
