data_PCOD8245574
_publ_section_title
;
Structure prediction by ZEFSAII (Michael W. Deem and Ramdas Pophale) SiO2 
 PCOD8245574
Probable space group: P M M N
;
_chemical_formula_sum "Si O2"
_cell_formula_units_Z 56
_cell_length_a 22.567593
_cell_length_b 8.582265
_cell_length_c 14.614857
_cell_angle_alpha 90.000000
_cell_angle_beta 90.000000
_cell_angle_gamma 90.000000
_cell_volume 2830.621047
_symmetry_space_group_name_H-M "P M M N"
_symmetry_group_IT_number 59
_space_group.IT_coordinate_system_code '2'
_symmetry_cell_setting 'orthorhombic'
loop_
_space_group_symop_operation_xyz
x,y,z
1/2-x,1/2-y,z
1/2+x,-y,-z
-x,1/2+y,-z
-x,-y,-z
1/2+x,1/2+y,-z
1/2-x,y,z
x,1/2-y,z
loop_
_atom_site_type_symbol
_atom_site_label
_atom_site_fract_x
_atom_site_fract_y
_atom_site_fract_z
Si Si1 0.050384 0.431495 0.619541
Si Si2 0.518126 0.068854 0.903340
Si Si3 0.642066 0.569102 0.873323
Si Si4 0.914609 0.430106 0.203542
Si Si5 0.926897 0.931999 0.587011
Si Si6 0.317204 0.571848 0.940571
Si Si7 0.683050 0.069211 0.691818
O O1 0.057561 0.250000 0.638788
O O2 0.092064 0.527538 0.689667
O O3 0.074309 0.478153 0.519705
O O4 0.981358 0.477072 0.633874
O O5 0.533360 0.250000 0.914541
O O6 0.574051 0.978629 0.863295
O O7 0.465341 0.043961 0.833069
O O8 0.500000 0.000000 0.000000
O O9 0.649170 0.750000 0.852086
O O10 0.679854 0.475776 0.798621
O O11 0.664913 0.535730 0.975022
O O12 0.932207 0.250000 0.190207
O O13 0.854610 0.469924 0.149497
O O14 0.939023 0.750000 0.600177
O O15 0.864155 0.974144 0.631953
O O16 0.250000 0.539641 0.912612
O O17 0.327936 0.750000 0.970813
O O18 0.750000 0.032536 0.657641
O O19 0.668214 0.250000 0.680856
#
# Coordination Sequence:
#
# PCOD8245574 Si02
#       7
#     8   8   8   8   8   8   8
#     4  10  21  38  62  90 120 152 189 239 297 353
#     4  12  23  37  57  84 118 153 192 240 292 345
#     4  12  24  38  59  86 117 155 196 240 292 350
#     4  11  22  37  59  86 118 154 193 238 287 345
#     4  10  21  39  63  90 119 151 191 240 296 353
#     4  10  22  40  59  79 110 153 197 241 286 335
#     4  11  24  41  61  86 119 159 200 245 297 354
#
# _framework density 19.783646000000001
#
# number of rings (size 3 to 8) (size 9 to 14) (size 15 to 20)
#    0.000    1.143    1.429    5.571    0.000    5.429 
#    0.000    0.714    0.000    2.571    0.000    0.000 
#    0.000    0.000    0.000    0.000    0.000    0.000 
#
# Total GULP energy -694684.628757 kJ/mol
# GULP energy per Si atom -12405.082656 kJ/mol
# Density = 1.973862 g / cm^3
# Si number density = 19.783646 Si / 1000 Ang^3
#
#
#
# Elastic Constant Matrix: (Units=GPa)
#
#
# Indices 1 2 3 4 5 6 
#
# 1 112.7833 22.3291 45.5285 0.0000 0.0000 0.0000
# 2 22.3291 52.3559 24.0056 0.0000 0.0000 0.0000
# 3 45.5285 24.0056 104.2557 0.0000 0.0000 0.0000
# 4 0.0000 0.0000 0.0000 33.3610 0.0000 0.0000
# 5 0.0000 0.0000 0.0000 0.0000 27.6197 0.0000
# 6 0.0000 0.0000 0.0000 0.0000 0.0000 26.4886
#
#
#
# Elastic Compliance Matrix: (Units=1/GPa)
#
#
# Indices 1 2 3 4 5 6 
#
# 1 0.011123 -0.002814 -0.004210 0.000000 0.000000 0.000000
# 2 -0.002814 0.022066 -0.003852 0.000000 0.000000 0.000000
# 3 -0.004210 -0.003852 0.012317 0.000000 0.000000 0.000000
# 4 0.000000 0.000000 0.000000 0.029975 0.000000 0.000000
# 5 0.000000 0.000000 0.000000 0.000000 0.036206 0.000000
# 6 0.000000 0.000000 0.000000 0.000000 0.000000 0.037752
#
#
# Mechanical properties :
#
#
# Convention : Reuss Voigt Hill
#
# Bulk Modulus (GPa) = 42.09542 50.34681 46.22112
# Shear Modulus (GPa) = 27.91599 29.32930 28.62264
#
# Velocity S-wave (km/s) = 3.76049 3.85450 3.80779
# Velocity P-wave (km/s) = 6.33870 6.73153 6.53807
#
# Compressibility (1/GPa) = 0.02375555
#
# Stress axis : x y z
#
# Youngs Moduli (GPa) = 89.90438 45.31798 81.18800
#
# Poissons Ratio (x) = 0.12751 0.34176
# Poissons Ratio (y) = 0.25296 0.31275
# Poissons Ratio (z) = 0.37845 0.17457
#
# Static dielectric constant tensor:
#      x y z
#    x 3.615340 0.000000 0.000000 
#    y 0.000000 3.573360 0.000000 
#    z 0.000000 0.000000 3.835180 
# 
# 
# High freq. dielectric constant tensor:
#      x y z
#    x 1.765290 0.000000 0.000000 
#    y 0.000000 1.781080 0.000000 
#    z 0.000000 0.000000 1.774040 
# 
# From -- ./inp_files/24262.got.cif
#   From: 2010.03.12/outbox.cif.g09.slc.cpg/sg59_13_cif.got.tgz:24262.got - 2010.04.16 16:29:54.
