data_PCOD8245960
_publ_section_title
;
Structure prediction by ZEFSAII (Michael W. Deem and Ramdas Pophale) SiO2 
 PCOD8245960
Probable space group: P M M N
;
_chemical_formula_sum "Si O2"
_cell_formula_units_Z 48
_cell_length_a 30.469405
_cell_length_b 9.020615
_cell_length_c 9.929104
_cell_angle_alpha 90.000000
_cell_angle_beta 90.000000
_cell_angle_gamma 90.000000
_cell_volume 2729.041756
_symmetry_space_group_name_H-M "P M M N"
_symmetry_group_IT_number 59
_space_group.IT_coordinate_system_code '2'
_symmetry_cell_setting 'orthorhombic'
loop_
_space_group_symop_operation_xyz
x,y,z
1/2-x,1/2-y,z
1/2+x,-y,-z
-x,1/2+y,-z
-x,-y,-z
1/2+x,1/2+y,-z
1/2-x,y,z
x,1/2-y,z
loop_
_atom_site_type_symbol
_atom_site_label
_atom_site_fract_x
_atom_site_fract_y
_atom_site_fract_z
Si Si1 0.365795 0.925210 0.112241
Si Si2 0.464215 0.086167 0.828701
Si Si3 0.953129 0.585398 0.852991
Si Si4 0.132327 0.426625 0.827609
Si Si5 0.798514 0.574196 0.389556
Si Si6 0.698549 0.580551 0.692706
O O1 0.368921 0.750000 0.097350
O O2 0.411005 0.984364 0.177523
O O3 0.326011 0.969290 0.208524
O O4 0.356181 0.995760 0.967401
O O5 0.474105 0.250000 0.771970
O O6 0.416694 0.029595 0.776809
O O7 0.503539 0.980098 0.779537
O O8 0.461906 0.091432 0.989247
O O9 0.944682 0.750000 0.795464
O O10 0.135290 0.250000 0.849806
O O11 0.166248 0.487962 0.716610
O O12 0.750000 0.511149 0.354080
O O13 0.797020 0.750000 0.381524
O O14 0.812028 0.528039 0.540480
O O15 0.750000 0.568021 0.721832
O O16 0.682829 0.750000 0.716172
#
# Coordination Sequence:
#
# PCOD8245960 Si02
#       6
#     8   8   8   8   8   8
#     4  11  21  31  46  71 102 130 158 196 239 281
#     4   8  14  24  40  65  96 125 152 188 237 286
#     4   9  16  27  44  65  91 124 161 197 234 279
#     4   9  17  30  49  74 101 127 158 197 240 285
#     4   8  15  30  53  76  94 119 159 200 236 280
#     4   9  18  34  54  72  92 123 162 199 236 282
#
# _framework density 17.588591000000001
#
# number of rings (size 3 to 8) (size 9 to 14) (size 15 to 20)
#    0.000    3.000    0.000    4.000    0.000    5.000 
#    0.000    2.500    0.000    2.000    0.000    0.000 
#    0.000    0.000    0.000    0.000    0.000    0.000 
#
# Total GULP energy -594978.705899 kJ/mol
# GULP energy per Si atom -12395.389706 kJ/mol
# Density = 1.754856 g / cm^3
# Si number density = 17.588591 Si / 1000 Ang^3
#
#
#
# Elastic Constant Matrix: (Units=GPa)
#
#
# Indices 1 2 3 4 5 6 
#
# 1 107.4521 45.5840 55.9371 0.0000 0.0000 0.0000
# 2 45.5840 79.1611 34.8671 0.0000 0.0000 0.0000
# 3 55.9371 34.8671 64.6124 0.0000 0.0000 0.0000
# 4 0.0000 0.0000 0.0000 7.6807 0.0000 0.0000
# 5 0.0000 0.0000 0.0000 0.0000 4.0125 0.0000
# 6 0.0000 0.0000 0.0000 0.0000 0.0000 27.8527
#
#
#
# Elastic Compliance Matrix: (Units=1/GPa)
#
#
# Indices 1 2 3 4 5 6 
#
# 1 0.018150 -0.004631 -0.013214 0.000000 0.000000 0.000000
# 2 -0.004631 0.017753 -0.005571 0.000000 0.000000 0.000000
# 3 -0.013214 -0.005571 0.029923 0.000000 0.000000 0.000000
# 4 0.000000 0.000000 0.000000 0.130196 0.000000 0.000000
# 5 0.000000 0.000000 0.000000 0.000000 0.249224 0.000000
# 6 0.000000 0.000000 0.000000 0.000000 0.000000 0.035903
#
#
# Mechanical properties :
#
#
# Convention : Reuss Voigt Hill
#
# Bulk Modulus (GPa) = 52.64804 58.22244 55.43524
# Shear Modulus (GPa) = 9.35783 15.56500 12.46142
#
# Velocity S-wave (km/s) = 2.30910 2.97804 2.66464
# Velocity P-wave (km/s) = 6.09158 6.70814 6.40728
#
# Compressibility (1/GPa) = 0.01899406
#
# Stress axis : x y z
#
# Youngs Moduli (GPa) = 55.09633 56.32857 33.41952
#
# Poissons Ratio (x) = 0.26088 0.44160
# Poissons Ratio (y) = 0.25517 0.18617
# Poissons Ratio (z) = 0.72803 0.31378
#
# Static dielectric constant tensor:
#      x y z
#    x 3.681820 0.000000 0.000000 
#    y 0.000000 3.167590 0.000000 
#    z 0.000000 0.000000 2.978880 
# 
# 
# High freq. dielectric constant tensor:
#      x y z
#    x 1.694060 0.000000 0.000000 
#    y 0.000000 1.661040 0.000000 
#    z 0.000000 0.000000 1.636740 
# 
# From -- ./inp_files/12961.got.cif
#   From: 2010.03.12/outbox.cif.g09.slc.cpg/sg59_7_cif.got.tgz:12961.got - 2010.04.16 16:29:54.
