data_PCOD8245929
_publ_section_title
;
Structure prediction by ZEFSAII (Michael W. Deem and Ramdas Pophale) SiO2 
 PCOD8245929
Probable space group: P M M N
;
_chemical_formula_sum "Si O2"
_cell_formula_units_Z 32
_cell_length_a 17.744546
_cell_length_b 11.267928
_cell_length_c 7.677136
_cell_angle_alpha 90.000000
_cell_angle_beta 90.000000
_cell_angle_gamma 90.000000
_cell_volume 1534.999328
_symmetry_space_group_name_H-M "P M M N"
_symmetry_group_IT_number 59
_space_group.IT_coordinate_system_code '2'
_symmetry_cell_setting 'orthorhombic'
loop_
_space_group_symop_operation_xyz
x,y,z
1/2-x,1/2-y,z
1/2+x,-y,-z
-x,1/2+y,-z
-x,-y,-z
1/2+x,1/2+y,-z
1/2-x,y,z
x,1/2-y,z
loop_
_atom_site_type_symbol
_atom_site_label
_atom_site_fract_x
_atom_site_fract_y
_atom_site_fract_z
Si Si1 0.161142 0.997587 0.960237
Si Si2 0.574558 0.387811 0.342012
Si Si3 0.587546 0.985899 0.691004
Si Si4 0.338935 0.250000 0.821854
Si Si5 0.660725 0.750000 0.568375
O O1 0.250000 0.988459 0.989160
O O2 0.134298 0.132706 0.922422
O O3 0.139137 0.913506 0.799326
O O4 0.117823 0.952875 0.132614
O O5 0.553781 0.250000 0.345747
O O6 0.501332 0.463877 0.291609
O O7 0.605164 0.426295 0.531093
O O8 0.632807 0.864562 0.669455
O O9 0.250000 0.250000 0.801719
O O10 0.373631 0.250000 0.627025
O O11 0.750000 0.750000 0.569734
#
# Coordination Sequence:
#
# PCOD8245929 Si02
#       5
#     8   8   8   4   4
#     4  11  23  41  65  94 126 164 211 263 318 373
#     4  11  25  43  62  91 131 173 210 255 315 384
#     4  11  23  42  65  94 127 168 215 263 317 376
#     4   9  19  35  61  96 127 155 199 267 323 361
#     4  11  19  37  69  98 124 159 213 275 324 363
#
# _framework density 20.846914999999999
#
# number of rings (size 3 to 8) (size 9 to 14) (size 15 to 20)
#    0.000    1.250    3.750    2.250    0.000    3.500 
#    0.000    0.000    0.000    0.000    0.000    0.000 
#    0.000    0.000    0.000    0.000    0.000    0.000 
#
# Total GULP energy -396996.818489 kJ/mol
# GULP energy per Si atom -12406.150578 kJ/mol
# Density = 2.079947 g / cm^3
# Si number density = 20.846915 Si / 1000 Ang^3
#
#
#
# Elastic Constant Matrix: (Units=GPa)
#
#
# Indices 1 2 3 4 5 6 
#
# 1 58.5193 13.4002 30.0012 0.0000 0.0000 0.0000
# 2 13.4002 64.2938 34.2723 0.0000 0.0000 0.0000
# 3 30.0012 34.2723 147.1663 0.0000 0.0000 0.0000
# 4 0.0000 0.0000 0.0000 14.5278 0.0000 0.0000
# 5 0.0000 0.0000 0.0000 0.0000 38.1872 0.0000
# 6 0.0000 0.0000 0.0000 0.0000 0.0000 27.3420
#
#
#
# Elastic Compliance Matrix: (Units=1/GPa)
#
#
# Indices 1 2 3 4 5 6 
#
# 1 0.019353 -0.002204 -0.003432 0.000000 0.000000 0.000000
# 2 -0.002204 0.018009 -0.003745 0.000000 0.000000 0.000000
# 3 -0.003432 -0.003745 0.008367 0.000000 0.000000 0.000000
# 4 0.000000 0.000000 0.000000 0.068834 0.000000 0.000000
# 5 0.000000 0.000000 0.000000 0.000000 0.026187 0.000000
# 6 0.000000 0.000000 0.000000 0.000000 0.000000 0.036574
#
#
# Mechanical properties :
#
#
# Convention : Reuss Voigt Hill
#
# Bulk Modulus (GPa) = 37.08229 47.25854 42.17041
# Shear Modulus (GPa) = 24.38158 28.83177 26.60667
#
# Velocity S-wave (km/s) = 3.42358 3.72294 3.57639
# Velocity P-wave (km/s) = 5.78398 6.41864 6.10955
#
# Compressibility (1/GPa) = 0.02696705
#
# Stress axis : x y z
#
# Youngs Moduli (GPa) = 51.67284 55.52750 119.52107
#
# Poissons Ratio (x) = 0.12239 0.41019
# Poissons Ratio (y) = 0.11389 0.44757
# Poissons Ratio (z) = 0.17734 0.20793
#
# Static dielectric constant tensor:
#      x y z
#    x 3.585660 0.000000 0.000000 
#    y 0.000000 3.645180 0.000000 
#    z 0.000000 0.000000 3.973540 
# 
# 
# High freq. dielectric constant tensor:
#      x y z
#    x 1.809030 0.000000 0.000000 
#    y 0.000000 1.797700 0.000000 
#    z 0.000000 0.000000 1.833840 
# 
# From -- ./inp_files/8300.got.cif
#   From: 2010.03.12/outbox.cif.g09.slc.cpg/sg59_5_cif.got.tgz:8300.got - 2010.04.16 16:29:54.
