data_PCOD8245261
_publ_section_title
;
Structure prediction by ZEFSAII (Michael W. Deem and Ramdas Pophale) SiO2 
 PCOD8245261
Probable space group: P M M N
;
_chemical_formula_sum "Si O2"
_cell_formula_units_Z 64
_cell_length_a 8.980744
_cell_length_b 14.529075
_cell_length_c 25.865724
_cell_angle_alpha 90.000000
_cell_angle_beta 90.000000
_cell_angle_gamma 90.000000
_cell_volume 3375.008893
_symmetry_space_group_name_H-M "P M M N"
_symmetry_group_IT_number 59
_space_group.IT_coordinate_system_code '2'
_symmetry_cell_setting 'orthorhombic'
loop_
_space_group_symop_operation_xyz
x,y,z
1/2-x,1/2-y,z
1/2+x,-y,-z
-x,1/2+y,-z
-x,-y,-z
1/2+x,1/2+y,-z
1/2-x,y,z
x,1/2-y,z
loop_
_atom_site_type_symbol
_atom_site_label
_atom_site_fract_x
_atom_site_fract_y
_atom_site_fract_z
Si Si1 0.082212 0.856686 0.123087
Si Si2 0.422809 0.142776 0.242706
Si Si3 0.925552 0.500663 0.312083
Si Si4 0.422633 0.643237 0.509014
Si Si5 0.423828 0.498020 0.945071
Si Si6 0.076772 0.000761 0.420537
Si Si7 0.420364 0.643726 0.241614
Si Si8 0.076601 0.644615 0.862042
O O1 0.250000 0.892239 0.113017
O O2 0.071765 0.750000 0.109710
O O3 0.036894 0.874683 0.182257
O O4 0.967778 0.906915 0.085749
O O5 0.250000 0.117627 0.244290
O O6 0.453592 0.250000 0.250422
O O7 0.486283 0.108954 0.187689
O O8 0.505294 0.092560 0.289373
O O9 0.750000 0.489846 0.314627
O O10 0.987815 0.518848 0.368716
O O11 0.967547 0.586770 0.276569
O O12 0.250000 0.636127 0.524768
O O13 0.471202 0.750000 0.502554
O O14 0.452608 0.588712 0.455920
O O15 0.519032 0.595199 0.553680
O O16 0.250000 0.498131 0.954793
O O17 0.473939 0.586646 0.911783
O O18 0.500000 0.500000 0.000000
O O19 0.250000 0.013550 0.408204
O O20 0.250000 0.613156 0.251981
O O21 0.440714 0.750000 0.255822
O O22 0.250000 0.630615 0.849584
O O23 0.037734 0.750000 0.874579
#
# Coordination Sequence:
#
# PCOD8245261 Si02
#       8
#     8   8   8   8   8   8   8   8
#     4   9  19  37  59  80 105 140 179 221 272 327
#     4  10  21  37  58  83 109 141 183 227 273 329
#     4  12  24  36  54  82 118 154 185 226 275 320
#     4   9  19  38  62  84 108 142 183 227 277 329
#     4  11  23  36  53  79 108 141 180 222 270 323
#     4  10  21  37  57  83 113 146 186 228 272 324
#     4   9  19  37  60  84 111 146 185 223 269 326
#     4   9  19  37  58  79 106 140 177 219 271 329
#
# _framework density 18.962913
#
# number of rings (size 3 to 8) (size 9 to 14) (size 15 to 20)
#    0.000    2.125    0.000    3.750    0.000    7.000 
#    0.000    3.750    0.000    0.000    0.000    0.000 
#    0.000    0.000    0.000    0.000    0.000    0.000 
#
# Total GULP energy -793818.385189 kJ/mol
# GULP energy per Si atom -12403.412269 kJ/mol
# Density = 1.891975 g / cm^3
# Si number density = 18.962913 Si / 1000 Ang^3
#
#
#
# Elastic Constant Matrix: (Units=GPa)
#
#
# Indices 1 2 3 4 5 6 
#
# 1 86.5418 38.5957 48.7145 0.0000 0.0000 0.0000
# 2 38.5957 101.6162 46.6630 0.0000 0.0000 0.0000
# 3 48.7145 46.6630 103.9472 0.0000 0.0000 0.0000
# 4 0.0000 0.0000 0.0000 2.1083 0.0000 0.0000
# 5 0.0000 0.0000 0.0000 0.0000 38.2018 0.0000
# 6 0.0000 0.0000 0.0000 0.0000 0.0000 32.5298
#
#
#
# Elastic Compliance Matrix: (Units=1/GPa)
#
#
# Indices 1 2 3 4 5 6 
#
# 1 0.016599 -0.003442 -0.006234 0.000000 0.000000 0.000000
# 2 -0.003442 0.013110 -0.004272 0.000000 0.000000 0.000000
# 3 -0.006234 -0.004272 0.014460 0.000000 0.000000 0.000000
# 4 0.000000 0.000000 0.000000 0.474308 0.000000 0.000000
# 5 0.000000 0.000000 0.000000 0.000000 0.026177 0.000000
# 6 0.000000 0.000000 0.000000 0.000000 0.000000 0.030741
#
#
# Mechanical properties :
#
#
# Convention : Reuss Voigt Hill
#
# Bulk Modulus (GPa) = 61.45297 62.22796 61.84047
# Shear Modulus (GPa) = 8.21401 25.11014 16.66207
#
# Velocity S-wave (km/s) = 2.08351 3.64286 2.96745
# Velocity P-wave (km/s) = 6.18590 7.11202 6.66506
#
# Compressibility (1/GPa) = 0.01627261
#
# Stress axis : x y z
#
# Youngs Moduli (GPa) = 60.24350 76.27701 69.15789
#
# Poissons Ratio (x) = 0.26254 0.43113
# Poissons Ratio (y) = 0.20736 0.29546
# Poissons Ratio (z) = 0.37556 0.32587
#
# Static dielectric constant tensor:
#      x y z
#    x 3.605260 0.000000 0.000000 
#    y 0.000000 3.538710 0.000000 
#    z 0.000000 0.000000 3.476690 
# 
# 
# High freq. dielectric constant tensor:
#      x y z
#    x 1.739440 0.000000 0.000000 
#    y 0.000000 1.745050 0.000000 
#    z 0.000000 0.000000 1.736160 
# 
# From -- ./inp_files/31416.got.cif
#   From: 2010.03.12/outbox.cif.g09.slc.cpg/sg59_16_cif.got.tgz:31416.got - 2010.04.16 16:29:54.
