data_PCOD8245484
_publ_section_title
;
Structure prediction by ZEFSAII (Michael W. Deem and Ramdas Pophale) SiO2 
 PCOD8245484
Probable space group: P M M N
;
_chemical_formula_sum "Si O2"
_cell_formula_units_Z 48
_cell_length_a 8.845148
_cell_length_b 15.207510
_cell_length_c 18.315939
_cell_angle_alpha 90.000000
_cell_angle_beta 90.000000
_cell_angle_gamma 90.000000
_cell_volume 2463.725980
_symmetry_space_group_name_H-M "P M M N"
_symmetry_group_IT_number 59
_space_group.IT_coordinate_system_code '2'
_symmetry_cell_setting 'orthorhombic'
loop_
_space_group_symop_operation_xyz
x,y,z
1/2-x,1/2-y,z
1/2+x,-y,-z
-x,1/2+y,-z
-x,-y,-z
1/2+x,1/2+y,-z
1/2-x,y,z
x,1/2-y,z
loop_
_atom_site_type_symbol
_atom_site_label
_atom_site_fract_x
_atom_site_fract_y
_atom_site_fract_z
Si Si1 0.424853 0.913682 0.969143
Si Si2 0.573795 0.484940 0.180706
Si Si3 0.426438 0.648701 0.562079
Si Si4 0.921993 0.654667 0.096815
Si Si5 0.071770 0.489940 0.330864
Si Si6 0.073314 0.350374 0.592967
O O1 0.250000 0.916096 0.986311
O O2 0.452347 0.909809 0.881524
O O3 0.496580 0.836183 0.017574
O O4 0.500000 0.000000 0.000000
O O5 0.750000 0.489809 0.203385
O O6 0.514031 0.579386 0.150331
O O7 0.473377 0.459221 0.249825
O O8 0.250000 0.624994 0.566792
O O9 0.456291 0.750000 0.583936
O O10 0.519802 0.586672 0.615264
O O11 0.482714 0.630038 0.480724
O O12 0.750000 0.629239 0.080057
O O13 0.937241 0.750000 0.135486
O O14 0.250000 0.502841 0.337516
O O15 0.989087 0.582670 0.346519
O O16 0.250000 0.367685 0.579211
O O17 0.045647 0.250000 0.619374
#
# Coordination Sequence:
#
# PCOD8245484 Si02
#       6
#     8   8   8   8   8   8
#     4   9  17  31  52  74  97 129 168 209 252 302
#     4   9  19  35  52  73 105 143 180 216 261 319
#     4  10  21  39  62  84 108 141 184 233 279 327
#     4   9  18  33  54  79 106 137 173 215 264 318
#     4  12  24  36  55  83 115 149 185 228 278 332
#     4  10  21  38  60  84 112 147 186 228 273 325
#
# _framework density 19.482686999999999
#
# number of rings (size 3 to 8) (size 9 to 14) (size 15 to 20)
#    0.000    2.167    0.000    4.500    0.000    6.333 
#    0.000    2.500    0.000    1.000    0.000    0.000 
#    0.000    0.000    0.000    0.000    0.000    0.000 
#
# Total GULP energy -594970.034281 kJ/mol
# GULP energy per Si atom -12395.209048 kJ/mol
# Density = 1.943834 g / cm^3
# Si number density = 19.482687 Si / 1000 Ang^3
#
#
#
# Elastic Constant Matrix: (Units=GPa)
#
#
# Indices 1 2 3 4 5 6 
#
# 1 76.3927 15.4773 20.8910 0.0000 0.0000 0.0000
# 2 15.4773 45.3184 8.6210 0.0000 0.0000 0.0000
# 3 20.8910 8.6210 69.5669 0.0000 0.0000 0.0000
# 4 0.0000 0.0000 0.0000 18.0928 0.0000 0.0000
# 5 0.0000 0.0000 0.0000 0.0000 34.9870 0.0000
# 6 0.0000 0.0000 0.0000 0.0000 0.0000 26.6119
#
#
#
# Elastic Compliance Matrix: (Units=1/GPa)
#
#
# Indices 1 2 3 4 5 6 
#
# 1 0.015068 -0.004389 -0.003981 0.000000 0.000000 0.000000
# 2 -0.004389 0.023877 -0.001641 0.000000 0.000000 0.000000
# 3 -0.003981 -0.001641 0.015774 0.000000 0.000000 0.000000
# 4 0.000000 0.000000 0.000000 0.055271 0.000000 0.000000
# 5 0.000000 0.000000 0.000000 0.000000 0.028582 0.000000
# 6 0.000000 0.000000 0.000000 0.000000 0.000000 0.037577
#
#
# Mechanical properties :
#
#
# Convention : Reuss Voigt Hill
#
# Bulk Modulus (GPa) = 28.82091 31.25074 30.03582
# Shear Modulus (GPa) = 24.06901 25.69092 24.87996
#
# Velocity S-wave (km/s) = 3.51865 3.63527 3.57743
# Velocity P-wave (km/s) = 5.59759 5.80477 5.70212
#
# Compressibility (1/GPa) = 0.03469704
#
# Stress axis : x y z
#
# Youngs Moduli (GPa) = 66.36522 41.88105 63.39733
#
# Poissons Ratio (x) = 0.18381 0.25239
# Poissons Ratio (y) = 0.29126 0.10404
# Poissons Ratio (z) = 0.26421 0.06873
#
# Static dielectric constant tensor:
#      x y z
#    x 3.747160 0.000000 0.000000 
#    y 0.000000 3.695090 0.000000 
#    z 0.000000 0.000000 3.641730 
# 
# 
# High freq. dielectric constant tensor:
#      x y z
#    x 1.763780 0.000000 0.000000 
#    y 0.000000 1.750920 0.000000 
#    z 0.000000 0.000000 1.751530 
# 
# From -- ./inp_files/25499.got.cif
#   From: 2010.03.12/outbox.cif.g09.slc.cpg/sg59_13_cif.got.tgz:25499.got - 2010.04.16 16:29:54.
