data_PCOD8245291
_publ_section_title
;
Structure prediction by ZEFSAII (Michael W. Deem and Ramdas Pophale) SiO2 
 PCOD8245291
Probable space group: P M M N
;
_chemical_formula_sum "Si O2"
_cell_formula_units_Z 56
_cell_length_a 9.009143
_cell_length_b 14.675930
_cell_length_c 21.356236
_cell_angle_alpha 90.000000
_cell_angle_beta 90.000000
_cell_angle_gamma 90.000000
_cell_volume 2823.669244
_symmetry_space_group_name_H-M "P M M N"
_symmetry_group_IT_number 59
_space_group.IT_coordinate_system_code '2'
_symmetry_cell_setting 'orthorhombic'
loop_
_space_group_symop_operation_xyz
x,y,z
1/2-x,1/2-y,z
1/2+x,-y,-z
-x,1/2+y,-z
-x,-y,-z
1/2+x,1/2+y,-z
1/2-x,y,z
x,1/2-y,z
loop_
_atom_site_type_symbol
_atom_site_label
_atom_site_fract_x
_atom_site_fract_y
_atom_site_fract_z
Si Si1 0.577772 0.511368 0.354614
Si Si2 0.585745 0.641697 0.994662
Si Si3 0.079279 0.487185 0.790563
Si Si4 0.425725 0.147016 0.143831
Si Si5 0.575832 0.855221 0.577815
Si Si6 0.422261 0.643866 0.448645
Si Si7 0.419999 0.857542 0.116184
O O1 0.750000 0.508484 0.373903
O O2 0.557259 0.534144 0.282087
O O3 0.502993 0.413835 0.368491
O O4 0.493784 0.590550 0.391387
O O5 0.750000 0.602783 0.008670
O O6 0.592552 0.750000 0.993988
O O7 0.475432 0.606209 0.048504
O O8 0.530539 0.610753 0.925796
O O9 0.250000 0.495070 0.809208
O O10 0.002135 0.583009 0.805532
O O11 0.009133 0.403653 0.828059
O O12 0.250000 0.142732 0.152215
O O13 0.482791 0.250000 0.154715
O O14 0.750000 0.876064 0.576179
O O15 0.542747 0.750000 0.592732
O O16 0.506742 0.884855 0.511645
O O17 0.250000 0.617583 0.455762
O O18 0.443686 0.750000 0.434532
O O19 0.250000 0.886355 0.122379
O O20 0.444117 0.750000 0.122206
#
# Coordination Sequence:
#
# PCOD8245291 Si02
#       7
#     8   8   8   8   8   8   8
#     4  11  24  40  57  80 114 153 191 231 274 325
#     4   8  15  31  56  83 109 139 177 224 281 338
#     4  11  25  40  55  79 111 152 194 228 273 332
#     4   9  19  37  60  84 111 144 183 231 283 332
#     4  10  21  38  62  90 117 147 184 226 274 327
#     4  10  21  38  62  90 117 146 182 227 278 328
#     4  10  21  37  58  83 110 142 183 233 284 333
#
# _framework density 19.832350999999999
#
# number of rings (size 3 to 8) (size 9 to 14) (size 15 to 20)
#    0.000    2.143    0.000    3.429    0.000    7.429 
#    0.000    7.143    0.000    0.000    0.000    0.000 
#    0.000    0.000    0.000    0.000    0.000    0.000 
#
# Total GULP energy -694548.640670 kJ/mol
# GULP energy per Si atom -12402.654298 kJ/mol
# Density = 1.978721 g / cm^3
# Si number density = 19.832351 Si / 1000 Ang^3
#
#
#
# Elastic Constant Matrix: (Units=GPa)
#
#
# Indices 1 2 3 4 5 6 
#
# 1 90.7930 21.8163 30.4914 0.0000 0.0000 0.0000
# 2 21.8163 41.4853 6.2236 0.0000 0.0000 0.0000
# 3 30.4914 6.2236 56.3895 0.0000 0.0000 0.0000
# 4 0.0000 0.0000 0.0000 29.5378 0.0000 0.0000
# 5 0.0000 0.0000 0.0000 0.0000 34.5874 0.0000
# 6 0.0000 0.0000 0.0000 0.0000 0.0000 31.9420
#
#
#
# Elastic Compliance Matrix: (Units=1/GPa)
#
#
# Indices 1 2 3 4 5 6 
#
# 1 0.015160 -0.006856 -0.007441 0.000000 0.000000 0.000000
# 2 -0.006856 0.027612 0.000660 0.000000 0.000000 0.000000
# 3 -0.007441 0.000660 0.021685 0.000000 0.000000 0.000000
# 4 0.000000 0.000000 0.000000 0.033855 0.000000 0.000000
# 5 0.000000 0.000000 0.000000 0.000000 0.028912 0.000000
# 6 0.000000 0.000000 0.000000 0.000000 0.000000 0.031307
#
#
# Mechanical properties :
#
#
# Convention : Reuss Voigt Hill
#
# Bulk Modulus (GPa) = 26.89483 33.97006 30.43244
# Shear Modulus (GPa) = 25.22715 27.88920 26.55818
#
# Velocity S-wave (km/s) = 3.57041 3.75407 3.66339
# Velocity P-wave (km/s) = 5.53061 5.99637 5.76819
#
# Compressibility (1/GPa) = 0.03718187
#
# Stress axis : x y z
#
# Youngs Moduli (GPa) = 65.96097 36.21675 46.11585
#
# Poissons Ratio (x) = 0.24831 0.34315
# Poissons Ratio (y) = 0.45225 -0.03044
# Poissons Ratio (z) = 0.49081 -0.02390
#
# Static dielectric constant tensor:
#      x y z
#    x 3.742720 0.000000 0.000000 
#    y 0.000000 3.539740 0.000000 
#    z 0.000000 0.000000 3.587960 
# 
# 
# High freq. dielectric constant tensor:
#      x y z
#    x 1.781780 0.000000 0.000000 
#    y 0.000000 1.776920 0.000000 
#    z 0.000000 0.000000 1.769930 
# 
# From -- ./inp_files/29004.got.cif
#   From: 2010.03.12/outbox.cif.g09.slc.cpg/sg59_15_cif.got.tgz:29004.got - 2010.04.16 16:29:54.
