data_PCOD8245841
_publ_section_title
;
Structure prediction by ZEFSAII (Michael W. Deem and Ramdas Pophale) SiO2 
 PCOD8245841
Probable space group: P M M N
;
_chemical_formula_sum "Si O2"
_cell_formula_units_Z 48
_cell_length_a 12.951947
_cell_length_b 27.943834
_cell_length_c 6.756034
_cell_angle_alpha 90.000000
_cell_angle_beta 90.000000
_cell_angle_gamma 90.000000
_cell_volume 2445.191502
_symmetry_space_group_name_H-M "P M M N"
_symmetry_group_IT_number 59
_space_group.IT_coordinate_system_code '2'
_symmetry_cell_setting 'orthorhombic'
loop_
_space_group_symop_operation_xyz
x,y,z
1/2-x,1/2-y,z
1/2+x,-y,-z
-x,1/2+y,-z
-x,-y,-z
1/2+x,1/2+y,-z
1/2-x,y,z
x,1/2-y,z
loop_
_atom_site_type_symbol
_atom_site_label
_atom_site_fract_x
_atom_site_fract_y
_atom_site_fract_z
Si Si1 0.631783 0.882131 0.043499
Si Si2 0.365642 0.804625 0.003649
Si Si3 0.371049 0.546950 0.526141
Si Si4 0.959519 0.805461 0.305173
Si Si5 0.973984 0.525829 0.201037
Si Si6 0.989849 0.361877 0.311167
O O1 0.750000 0.896801 0.018897
O O2 0.623057 0.832590 0.165950
O O3 0.571415 0.921732 0.168652
O O4 0.585403 0.878538 0.823499
O O5 0.250000 0.821067 0.053030
O O6 0.371297 0.750000 0.933587
O O7 0.428550 0.812607 0.205249
O O8 0.406200 0.835298 0.821959
O O9 0.250000 0.557856 0.502289
O O10 0.388012 0.504713 0.683493
O O11 0.417932 0.529865 0.317611
O O12 0.433493 0.593509 0.591578
O O13 0.926725 0.750000 0.316108
O O14 0.963283 0.826591 0.524850
O O15 0.000000 0.500000 0.000000
#
# Coordination Sequence:
#
# PCOD8245841 Si02
#       6
#     8   8   8   8   8   8
#     4  11  24  43  66  89 124 170 213 264 319 371
#     4   9  19  35  58  88 122 162 203 247 307 374
#     4  11  24  40  66  98 129 163 204 255 313 379
#     4  10  22  41  62  88 126 166 211 267 314 371
#     4  11  23  46  63  93 130 164 211 258 313 381
#     4  11  21  40  60  94 127 158 207 260 310 379
#
# _framework density 19.630364
#
# number of rings (size 3 to 8) (size 9 to 14) (size 15 to 20)
#    0.000    1.500    3.333    1.500    0.000    4.333 
#    0.000    1.667    0.000    0.000    0.000    0.000 
#    0.000    0.000    0.000    0.000    0.000    0.000 
#
# Total GULP energy -595395.804143 kJ/mol
# GULP energy per Si atom -12404.079253 kJ/mol
# Density = 1.958568 g / cm^3
# Si number density = 19.630364 Si / 1000 Ang^3
#
#
#
# Elastic Constant Matrix: (Units=GPa)
#
#
# Indices 1 2 3 4 5 6 
#
# 1 103.0132 26.4725 43.6169 0.0000 0.0000 0.0000
# 2 26.4725 108.5244 49.1637 0.0000 0.0000 0.0000
# 3 43.6169 49.1637 122.5278 0.0000 0.0000 0.0000
# 4 0.0000 0.0000 0.0000 45.0199 0.0000 0.0000
# 5 0.0000 0.0000 0.0000 0.0000 15.0545 0.0000
# 6 0.0000 0.0000 0.0000 0.0000 0.0000 21.9754
#
#
#
# Elastic Compliance Matrix: (Units=1/GPa)
#
#
# Indices 1 2 3 4 5 6 
#
# 1 0.011550 -0.001167 -0.003643 0.000000 0.000000 0.000000
# 2 -0.001167 0.011379 -0.004151 0.000000 0.000000 0.000000
# 3 -0.003643 -0.004151 0.011124 0.000000 0.000000 0.000000
# 4 0.000000 0.000000 0.000000 0.022212 0.000000 0.000000
# 5 0.000000 0.000000 0.000000 0.000000 0.066425 0.000000
# 6 0.000000 0.000000 0.000000 0.000000 0.000000 0.045505
#
#
# Mechanical properties :
#
#
# Convention : Reuss Voigt Hill
#
# Bulk Modulus (GPa) = 61.99003 63.61907 62.80455
# Shear Modulus (GPa) = 26.11034 30.73078 28.42056
#
# Velocity S-wave (km/s) = 3.65101 3.96090 3.80911
# Velocity P-wave (km/s) = 7.02996 7.30733 7.16999
#
# Compressibility (1/GPa) = 0.01613163
#
# Stress axis : x y z
#
# Youngs Moduli (GPa) = 86.58022 87.87770 89.89797
#
# Poissons Ratio (x) = 0.10255 0.32752
# Poissons Ratio (y) = 0.10103 0.37313
# Poissons Ratio (z) = 0.31544 0.36474
#
# Static dielectric constant tensor:
#      x y z
#    x 3.445480 0.000000 0.000000 
#    y 0.000000 3.817850 0.000000 
#    z 0.000000 0.000000 3.635970 
# 
# 
# High freq. dielectric constant tensor:
#      x y z
#    x 1.753920 0.000000 0.000000 
#    y 0.000000 1.781630 0.000000 
#    z 0.000000 0.000000 1.774540 
# 
# From -- ./inp_files/2145.got.cif
#   From: 2010.03.12/outbox.cif.g09.slc.cpg/sg59_2_cif.got.tgz:2145.got - 2010.04.16 16:29:54.
