data_PCOD8245875
_publ_section_title
;
Structure prediction by ZEFSAII (Michael W. Deem and Ramdas Pophale) SiO2 
 PCOD8245875
Probable space group: P M M N
;
_chemical_formula_sum "Si O2"
_cell_formula_units_Z 48
_cell_length_a 13.881166
_cell_length_b 16.475511
_cell_length_c 9.546754
_cell_angle_alpha 90.000000
_cell_angle_beta 90.000000
_cell_angle_gamma 90.000000
_cell_volume 2183.335987
_symmetry_space_group_name_H-M "P M M N"
_symmetry_group_IT_number 59
_space_group.IT_coordinate_system_code '2'
_symmetry_cell_setting 'orthorhombic'
loop_
_space_group_symop_operation_xyz
x,y,z
1/2-x,1/2-y,z
1/2+x,-y,-z
-x,1/2+y,-z
-x,-y,-z
1/2+x,1/2+y,-z
1/2-x,y,z
x,1/2-y,z
loop_
_atom_site_type_symbol
_atom_site_label
_atom_site_fract_x
_atom_site_fract_y
_atom_site_fract_z
Si Si1 0.862601 0.162023 0.479858
Si Si2 0.856319 0.346490 0.782295
Si Si3 0.140857 0.343230 0.458102
Si Si4 0.476588 0.154906 0.986128
Si Si5 0.360195 0.083250 0.754147
Si Si6 0.513671 0.072058 0.276354
O O1 0.750000 0.171800 0.472753
O O2 0.913282 0.250000 0.474719
O O3 0.889239 0.119008 0.629062
O O4 0.893820 0.115376 0.341919
O O5 0.750000 0.379557 0.822413
O O6 0.853438 0.250000 0.767653
O O7 0.929173 0.374581 0.901206
O O8 0.250000 0.359368 0.408387
O O9 0.111210 0.250000 0.422498
O O10 0.131472 0.355243 0.624484
O O11 0.074771 0.411223 0.382993
O O12 0.478744 0.250000 0.019742
O O13 0.381436 0.133483 0.896490
O O14 0.478056 0.105969 0.129184
O O15 0.250000 0.048070 0.762598
O O16 0.447385 0.018733 0.740865
#
# Coordination Sequence:
#
# PCOD8245875 Si02
#       6
#     8   8   8   8   8   8
#     4   9  17  31  54  83 116 158 205 253 306 366
#     4   8  16  32  54  82 116 156 204 252 299 358
#     4  10  22  42  68  95 123 162 214 265 311 369
#     4  11  23  39  62  90 122 167 217 262 312 372
#     4  11  25  44  64  89 127 174 216 255 309 379
#     4  12  23  39  61  94 130 158 198 262 330 378
#
# _framework density 21.984705999999999
#
# number of rings (size 3 to 8) (size 9 to 14) (size 15 to 20)
#    0.000    1.833    0.000    5.500    0.000    4.333 
#    0.000    4.167    0.000    0.000    0.000    0.000 
#    0.000    0.000    0.000    0.000    0.000    0.000 
#
# Total GULP energy -594789.514911 kJ/mol
# GULP energy per Si atom -12391.448227 kJ/mol
# Density = 2.193467 g / cm^3
# Si number density = 21.984706 Si / 1000 Ang^3
#
#
#
# Elastic Constant Matrix: (Units=GPa)
#
#
# Indices 1 2 3 4 5 6 
#
# 1 102.6363 30.4489 35.0984 0.0000 0.0000 0.0000
# 2 30.4489 58.9796 6.3610 0.0000 0.0000 0.0000
# 3 35.0984 6.3610 115.3458 0.0000 0.0000 0.0000
# 4 0.0000 0.0000 0.0000 27.1132 0.0000 0.0000
# 5 0.0000 0.0000 0.0000 0.0000 23.7966 0.0000
# 6 0.0000 0.0000 0.0000 0.0000 0.0000 32.9127
#
#
#
# Elastic Compliance Matrix: (Units=1/GPa)
#
#
# Indices 1 2 3 4 5 6 
#
# 1 0.012806 -0.006228 -0.003553 0.000000 0.000000 0.000000
# 2 -0.006228 0.020085 0.000787 0.000000 0.000000 0.000000
# 3 -0.003553 0.000787 0.009707 0.000000 0.000000 0.000000
# 4 0.000000 0.000000 0.000000 0.036882 0.000000 0.000000
# 5 0.000000 0.000000 0.000000 0.000000 0.042023 0.000000
# 6 0.000000 0.000000 0.000000 0.000000 0.000000 0.030383
#
#
# Mechanical properties :
#
#
# Convention : Reuss Voigt Hill
#
# Bulk Modulus (GPa) = 40.63209 46.75316 43.69262
# Shear Modulus (GPa) = 28.07751 30.43471 29.25611
#
# Velocity S-wave (km/s) = 3.57758 3.72473 3.65190
# Velocity P-wave (km/s) = 5.96553 6.30956 6.13996
#
# Compressibility (1/GPa) = 0.02461109
#
# Stress axis : x y z
#
# Youngs Moduli (GPa) = 78.08913 49.78754 103.01458
#
# Poissons Ratio (x) = 0.31008 0.36603
# Poissons Ratio (y) = 0.48634 -0.08112
# Poissons Ratio (z) = 0.27747 -0.03921
#
# Static dielectric constant tensor:
#      x y z
#    x 4.190810 0.000000 0.000000 
#    y 0.000000 3.794100 0.000000 
#    z 0.000000 0.000000 4.037730 
# 
# 
# High freq. dielectric constant tensor:
#      x y z
#    x 1.876900 0.000000 0.000000 
#    y 0.000000 1.845130 0.000000 
#    z 0.000000 0.000000 1.863170 
# 
# From -- ./inp_files/9018.got.cif
#   From: 2010.03.12/outbox.cif.g09.slc.cpg/sg59_5_cif.got.tgz:9018.got - 2010.04.16 16:29:54.
