data_PCOD8245046
_publ_section_title
;
Structure prediction by ZEFSAII (Michael W. Deem and Ramdas Pophale) SiO2 
 PCOD8245046
Probable space group: P M M N
;
_chemical_formula_sum "Si O2"
_cell_formula_units_Z 64
_cell_length_a 31.114049
_cell_length_b 8.893921
_cell_length_c 12.155440
_cell_angle_alpha 90.000000
_cell_angle_beta 90.000000
_cell_angle_gamma 90.000000
_cell_volume 3363.724998
_symmetry_space_group_name_H-M "P M M N"
_symmetry_group_IT_number 59
_space_group.IT_coordinate_system_code '2'
_symmetry_cell_setting 'orthorhombic'
loop_
_space_group_symop_operation_xyz
x,y,z
1/2-x,1/2-y,z
1/2+x,-y,-z
-x,1/2+y,-z
-x,-y,-z
1/2+x,1/2+y,-z
1/2-x,y,z
x,1/2-y,z
loop_
_atom_site_type_symbol
_atom_site_label
_atom_site_fract_x
_atom_site_fract_y
_atom_site_fract_z
Si Si1 0.625038 0.072684 0.867637
Si Si2 0.941837 0.571262 0.244160
Si Si3 0.700173 0.419255 0.263048
Si Si4 0.489930 0.077475 0.385315
Si Si5 0.866994 0.927403 0.405470
Si Si6 0.110610 0.078819 0.356812
Si Si7 0.202215 0.570772 0.983101
Si Si8 0.046574 0.571516 0.981868
O O1 0.628890 0.250000 0.866493
O O2 0.629446 0.014405 0.744174
O O3 0.665446 0.005828 0.936579
O O4 0.579401 0.024499 0.920882
O O5 0.942985 0.750000 0.229501
O O6 0.906001 0.514401 0.329821
O O7 0.932062 0.493003 0.128424
O O8 0.987559 0.513747 0.287554
O O9 0.750000 0.422056 0.291901
O O10 0.681968 0.250000 0.271913
O O11 0.677637 0.522579 0.353349
O O12 0.691994 0.485278 0.140842
O O13 0.505710 0.250000 0.389165
O O14 0.440254 0.067766 0.358939
O O15 0.500000 0.000000 0.500000
O O16 0.869918 0.750000 0.412132
O O17 0.871211 0.991481 0.529345
O O18 0.125771 0.250000 0.342065
O O19 0.250000 0.514236 0.019437
O O20 0.202260 0.750000 0.981164
O O21 0.041444 0.750000 0.973436
O O22 0.000000 0.500000 0.000000
#
# Coordination Sequence:
#
# PCOD8245046 Si02
#       8
#     8   8   8   8   8   8   8   8
#     4  10  21  36  56  82 109 142 187 232 276 332
#     4  11  22  37  56  81 111 143 186 232 276 331
#     4   9  18  34  58  86 111 137 174 223 276 332
#     4  11  21  36  56  78 107 145 188 233 279 328
#     4  10  21  37  54  77 110 145 179 220 272 328
#     4  10  22  39  54  74 109 149 185 223 272 328
#     4   8  15  32  58  84 110 137 169 220 282 332
#     4  11  23  38  55  80 113 149 188 232 284 339
#
# _framework density 19.026526
#
# number of rings (size 3 to 8) (size 9 to 14) (size 15 to 20)
#    0.000    2.000    1.250    3.375    0.000    6.750 
#    0.000    1.250    0.000    3.375    0.000    0.000 
#    0.000    0.000    0.000    0.000    0.000    0.000 
#
# Total GULP energy -793633.362337 kJ/mol
# GULP energy per Si atom -12400.521287 kJ/mol
# Density = 1.898322 g / cm^3
# Si number density = 19.026526 Si / 1000 Ang^3
#
#
#
# Elastic Constant Matrix: (Units=GPa)
#
#
# Indices 1 2 3 4 5 6 
#
# 1 101.5807 26.8955 64.7947 0.0000 0.0000 0.0000
# 2 26.8955 38.4153 33.2212 0.0000 0.0000 0.0000
# 3 64.7947 33.2212 154.3099 0.0000 0.0000 0.0000
# 4 0.0000 0.0000 0.0000 34.3833 0.0000 0.0000
# 5 0.0000 0.0000 0.0000 0.0000 34.7764 0.0000
# 6 0.0000 0.0000 0.0000 0.0000 0.0000 26.8125
#
#
#
# Elastic Compliance Matrix: (Units=1/GPa)
#
#
# Indices 1 2 3 4 5 6 
#
# 1 0.014490 -0.006000 -0.004793 0.000000 0.000000 0.000000
# 2 -0.006000 0.034471 -0.004902 0.000000 0.000000 0.000000
# 3 -0.004793 -0.004902 0.009548 0.000000 0.000000 0.000000
# 4 0.000000 0.000000 0.000000 0.029084 0.000000 0.000000
# 5 0.000000 0.000000 0.000000 0.000000 0.028755 0.000000
# 6 0.000000 0.000000 0.000000 0.000000 0.000000 0.037296
#
#
# Mechanical properties :
#
#
# Convention : Reuss Voigt Hill
#
# Bulk Modulus (GPa) = 36.87280 60.45871 48.66576
# Shear Modulus (GPa) = 25.76338 30.48742 28.12540
#
# Velocity S-wave (km/s) = 3.68377 4.00730 3.84893
# Velocity P-wave (km/s) = 6.12497 7.29769 6.73690
#
# Compressibility (1/GPa) = 0.02712026
#
# Stress axis : x y z
#
# Youngs Moduli (GPa) = 69.01256 29.00969 104.73207
#
# Poissons Ratio (x) = 0.17407 0.50194
# Poissons Ratio (y) = 0.41409 0.51337
# Poissons Ratio (z) = 0.33075 0.14220
#
# Static dielectric constant tensor:
#      x y z
#    x 3.502980 0.000000 0.000000 
#    y 0.000000 3.337460 0.000000 
#    z 0.000000 0.000000 2.043770 
# 
# 
# High freq. dielectric constant tensor:
#      x y z
#    x 1.736600 0.000000 0.000000 
#    y 0.000000 1.723100 0.000000 
#    z 0.000000 0.000000 1.747370 
# 
# From -- ./inp_files/19225.got.cif
#   From: 2010.03.12/outbox.cif.g09.slc.cpg/sg59_10_cif.got.tgz:19225.got - 2010.04.16 16:29:54.
