data_PCOD8245805
_publ_section_title
;
Structure prediction by ZEFSAII (Michael W. Deem and Ramdas Pophale) SiO2 
 PCOD8245805
Probable space group: P M M N
;
_chemical_formula_sum "Si O2"
_cell_formula_units_Z 64
_cell_length_a 25.503855
_cell_length_b 8.915987
_cell_length_c 14.329450
_cell_angle_alpha 90.000000
_cell_angle_beta 90.000000
_cell_angle_gamma 90.000000
_cell_volume 3258.402862
_symmetry_space_group_name_H-M "P M M N"
_symmetry_group_IT_number 59
_space_group.IT_coordinate_system_code '2'
_symmetry_cell_setting 'orthorhombic'
loop_
_space_group_symop_operation_xyz
x,y,z
1/2-x,1/2-y,z
1/2+x,-y,-z
-x,1/2+y,-z
-x,-y,-z
1/2+x,1/2+y,-z
1/2-x,y,z
x,1/2-y,z
loop_
_atom_site_type_symbol
_atom_site_label
_atom_site_fract_x
_atom_site_fract_y
_atom_site_fract_z
Si Si1 0.688936 0.920437 0.578688
Si Si2 0.496963 0.927443 0.208569
Si Si3 0.133261 0.922129 0.584053
Si Si4 0.690013 0.076740 0.227320
Si Si5 0.310643 0.422648 0.207510
Si Si6 0.602002 0.072776 0.907707
Si Si7 0.524629 0.926070 0.409849
Si Si8 0.601493 0.927849 0.108770
O O1 0.750000 0.946177 0.561853
O O2 0.673468 0.750000 0.552847
O O3 0.674347 0.954714 0.685437
O O4 0.657391 0.035973 0.515483
O O5 0.498450 0.750000 0.201435
O O6 0.446604 0.990040 0.153616
O O7 0.492943 0.976641 0.317052
O O8 0.550694 0.990833 0.163811
O O9 0.114917 0.750000 0.580003
O O10 0.175827 0.950403 0.664572
O O11 0.084176 0.026347 0.605510
O O12 0.750000 0.026573 0.212769
O O13 0.681968 0.250000 0.200313
O O14 0.654265 0.977804 0.160233
O O15 0.250000 0.459937 0.189495
O O16 0.322407 0.250000 0.182364
O O17 0.343979 0.531491 0.142585
O O18 0.598955 0.250000 0.921159
O O19 0.599531 0.994435 0.006462
O O20 0.522179 0.750000 0.424128
O O21 0.500000 0.000000 0.500000
O O22 0.601231 0.750000 0.102305
#
# Coordination Sequence:
#
# PCOD8245805 Si02
#       8
#     8   8   8   8   8   8   8   8
#     4   9  19  36  58  84 116 155 198 244 293 348
#     4   9  21  41  63  87 121 155 193 244 295 353
#     4  11  22  37  59  88 122 160 200 246 300 360
#     4  10  22  40  61  88 123 161 203 252 304 360
#     4   9  20  40  61  85 119 156 197 245 294 350
#     4  11  23  39  62  91 119 153 195 246 303 361
#     4  11  23  41  61  89 125 161 199 244 298 357
#     4  11  22  41  64  88 117 155 199 249 303 357
#
# _framework density 19.641524
#
# number of rings (size 3 to 8) (size 9 to 14) (size 15 to 20)
#    0.000    1.875    1.250    3.000    1.750    2.750 
#    0.000    5.000    0.000    0.000    0.000    0.000 
#    0.000    0.000    0.000    0.000    0.000    0.000 
#
# Total GULP energy -793793.093875 kJ/mol
# GULP energy per Si atom -12403.017092 kJ/mol
# Density = 1.959682 g / cm^3
# Si number density = 19.641524 Si / 1000 Ang^3
#
#
#
# Elastic Constant Matrix: (Units=GPa)
#
#
# Indices 1 2 3 4 5 6 
#
# 1 113.2896 41.8822 64.2201 0.0000 0.0000 0.0000
# 2 41.8822 72.8760 55.9281 0.0000 0.0000 0.0000
# 3 64.2201 55.9281 137.6884 0.0000 0.0000 0.0000
# 4 0.0000 0.0000 0.0000 32.7701 0.0000 0.0000
# 5 0.0000 0.0000 0.0000 0.0000 34.5399 0.0000
# 6 0.0000 0.0000 0.0000 0.0000 0.0000 31.0523
#
#
#
# Elastic Compliance Matrix: (Units=1/GPa)
#
#
# Indices 1 2 3 4 5 6 
#
# 1 0.012761 -0.004019 -0.004320 0.000000 0.000000 0.000000
# 2 -0.004019 0.021203 -0.006738 0.000000 0.000000 0.000000
# 3 -0.004320 -0.006738 0.012014 0.000000 0.000000 0.000000
# 4 0.000000 0.000000 0.000000 0.030516 0.000000 0.000000
# 5 0.000000 0.000000 0.000000 0.000000 0.028952 0.000000
# 6 0.000000 0.000000 0.000000 0.000000 0.000000 0.032204
#
#
# Mechanical properties :
#
#
# Convention : Reuss Voigt Hill
#
# Bulk Modulus (GPa) = 63.18928 71.99053 67.58991
# Shear Modulus (GPa) = 28.88876 30.46069 29.67472
#
# Velocity S-wave (km/s) = 3.83926 3.94233 3.89114
# Velocity P-wave (km/s) = 7.20377 7.57987 7.39421
#
# Compressibility (1/GPa) = 0.01582547
#
# Stress axis : x y z
#
# Youngs Moduli (GPa) = 78.36152 47.16413 83.23351
#
# Poissons Ratio (x) = 0.18955 0.35954
# Poissons Ratio (y) = 0.31493 0.56081
# Poissons Ratio (z) = 0.33849 0.31778
#
# Static dielectric constant tensor:
#      x y z
#    x 3.707010 0.000000 0.000000 
#    y 0.000000 3.498800 0.000000 
#    z 0.000000 0.000000 3.709190 
# 
# 
# High freq. dielectric constant tensor:
#      x y z
#    x 1.771140 0.000000 0.000000 
#    y 0.000000 1.756530 0.000000 
#    z 0.000000 0.000000 1.777300 
# 
# From -- ./inp_files/24722.got.cif
#   From: 2010.03.12/outbox.cif.g09.slc.cpg/sg59_13_cif.got.tgz:24722.got - 2010.04.16 16:29:54.
