data_PCOD8245180
_publ_section_title
;
Structure prediction by ZEFSAII (Michael W. Deem and Ramdas Pophale) SiO2 
 PCOD8245180
Probable space group: P M M N
;
_chemical_formula_sum "Si O2"
_cell_formula_units_Z 64
_cell_length_a 20.940744
_cell_length_b 8.920305
_cell_length_c 17.423932
_cell_angle_alpha 90.000000
_cell_angle_beta 90.000000
_cell_angle_gamma 90.000000
_cell_volume 3254.752573
_symmetry_space_group_name_H-M "P M M N"
_symmetry_group_IT_number 59
_space_group.IT_coordinate_system_code '2'
_symmetry_cell_setting 'orthorhombic'
loop_
_space_group_symop_operation_xyz
x,y,z
1/2-x,1/2-y,z
1/2+x,-y,-z
-x,1/2+y,-z
-x,-y,-z
1/2+x,1/2+y,-z
1/2-x,y,z
x,1/2-y,z
loop_
_atom_site_type_symbol
_atom_site_label
_atom_site_fract_x
_atom_site_fract_y
_atom_site_fract_z
Si Si1 0.860160 0.919755 0.850664
Si Si2 0.434375 0.574078 0.587091
Si Si3 0.820452 0.581702 0.007972
Si Si4 0.499989 0.079528 0.083244
Si Si5 0.678124 0.072532 0.696208
Si Si6 0.176522 0.926207 0.701691
Si Si7 0.388996 0.428863 0.845775
Si Si8 0.565042 0.073034 0.588484
O O1 0.837925 0.750000 0.830868
O O2 0.932703 0.924514 0.875740
O O3 0.844637 0.024105 0.779660
O O4 0.822488 0.991962 0.923651
O O5 0.445120 0.750000 0.594459
O O6 0.371046 0.523283 0.633268
O O7 0.423641 0.524259 0.499379
O O8 0.498632 0.496671 0.620096
O O9 0.750000 0.582557 0.041905
O O10 0.847587 0.750000 0.995980
O O11 0.862272 0.504504 0.073483
O O12 0.523570 0.250000 0.071330
O O13 0.540116 0.994402 0.150017
O O14 0.500000 0.000000 0.000000
O O15 0.750000 0.011902 0.677947
O O16 0.678793 0.250000 0.692743
O O17 0.626272 0.010128 0.635108
O O18 0.250000 0.970687 0.681653
O O19 0.171267 0.750000 0.716197
O O20 0.154066 0.010120 0.777562
O O21 0.388149 0.250000 0.841312
O O22 0.558978 0.250000 0.597623
#
# Coordination Sequence:
#
# PCOD8245180 Si02
#       8
#     8   8   8   8   8   8   8   8
#     4  10  21  37  56  78 108 147 190 232 277 335
#     4   9  19  37  61  86 114 150 190 232 282 342
#     4   9  17  32  53  74 100 139 185 227 270 326
#     4  11  22  38  58  83 111 145 192 244 295 346
#     4  10  22  38  56  84 119 149 185 235 286 337
#     4  10  22  39  58  85 119 152 191 240 291 345
#     4  11  22  37  56  81 113 151 192 236 288 344
#     4   9  19  37  60  86 115 150 189 231 282 341
#
# _framework density 19.663551999999999
#
# number of rings (size 3 to 8) (size 9 to 14) (size 15 to 20)
#    0.000    2.125    1.250    1.500    1.750    4.000 
#    0.000    2.500    0.000    2.250    0.000    5.250 
#    0.000    0.000    0.000    0.000    0.000    0.000 
#
# Total GULP energy -793184.021501 kJ/mol
# GULP energy per Si atom -12393.500336 kJ/mol
# Density = 1.961880 g / cm^3
# Si number density = 19.663552 Si / 1000 Ang^3
#
#
#
# Elastic Constant Matrix: (Units=GPa)
#
#
# Indices 1 2 3 4 5 6 
#
# 1 148.6272 39.2376 67.9445 0.0000 0.0000 0.0000
# 2 39.2376 37.9226 31.2644 0.0000 0.0000 0.0000
# 3 67.9445 31.2644 108.1205 0.0000 0.0000 0.0000
# 4 0.0000 0.0000 0.0000 28.9047 0.0000 0.0000
# 5 0.0000 0.0000 0.0000 0.0000 33.7776 0.0000
# 6 0.0000 0.0000 0.0000 0.0000 0.0000 27.0950
#
#
#
# Elastic Compliance Matrix: (Units=1/GPa)
#
#
# Indices 1 2 3 4 5 6 
#
# 1 0.010794 -0.007322 -0.004666 0.000000 0.000000 0.000000
# 2 -0.007322 0.039590 -0.006847 0.000000 0.000000 0.000000
# 3 -0.004666 -0.006847 0.014161 0.000000 0.000000 0.000000
# 4 0.000000 0.000000 0.000000 0.034597 0.000000 0.000000
# 5 0.000000 0.000000 0.000000 0.000000 0.029605 0.000000
# 6 0.000000 0.000000 0.000000 0.000000 0.000000 0.036907
#
#
# Mechanical properties :
#
#
# Convention : Reuss Voigt Hill
#
# Bulk Modulus (GPa) = 37.20819 63.50704 50.35762
# Shear Modulus (GPa) = 23.55357 28.37037 25.96197
#
# Velocity S-wave (km/s) = 3.46472 3.80253 3.63755
# Velocity P-wave (km/s) = 5.91348 7.18651 6.58085
#
# Compressibility (1/GPa) = 0.02687580
#
# Stress axis : x y z
#
# Youngs Moduli (GPa) = 92.64162 25.25906 70.61629
#
# Poissons Ratio (x) = 0.18494 0.32950
# Poissons Ratio (y) = 0.67830 0.48350
# Poissons Ratio (z) = 0.43228 0.17294
#
# Static dielectric constant tensor:
#      x y z
#    x 3.918360 0.000000 0.000000 
#    y 0.000000 3.450200 0.000000 
#    z 0.000000 0.000000 3.751210 
# 
# 
# High freq. dielectric constant tensor:
#      x y z
#    x 1.784070 0.000000 0.000000 
#    y 0.000000 1.742980 0.000000 
#    z 0.000000 0.000000 1.766200 
# 
# From -- ./inp_files/28205.got.cif
#   From: 2010.03.12/outbox.cif.g09.slc.cpg/sg59_15_cif.got.tgz:28205.got - 2010.04.16 16:29:54.
