data_PCOD8245272
_publ_section_title
;
Structure prediction by ZEFSAII (Michael W. Deem and Ramdas Pophale) SiO2 
 PCOD8245272
Probable space group: P M M N
;
_chemical_formula_sum "Si O2"
_cell_formula_units_Z 64
_cell_length_a 8.634116
_cell_length_b 14.542686
_cell_length_c 25.939830
_cell_angle_alpha 90.000000
_cell_angle_beta 90.000000
_cell_angle_gamma 90.000000
_cell_volume 3257.089045
_symmetry_space_group_name_H-M "P M M N"
_symmetry_group_IT_number 59
_space_group.IT_coordinate_system_code '2'
_symmetry_cell_setting 'orthorhombic'
loop_
_space_group_symop_operation_xyz
x,y,z
1/2-x,1/2-y,z
1/2+x,-y,-z
-x,1/2+y,-z
-x,-y,-z
1/2+x,1/2+y,-z
1/2-x,y,z
x,1/2-y,z
loop_
_atom_site_type_symbol
_atom_site_label
_atom_site_fract_x
_atom_site_fract_y
_atom_site_fract_z
Si Si1 0.070070 0.856196 0.134624
Si Si2 0.571154 0.145040 0.233096
Si Si3 0.070808 0.493656 0.309424
Si Si4 0.429846 0.856407 0.494137
Si Si5 0.431501 0.495383 0.943541
Si Si6 0.928625 0.998022 0.419271
Si Si7 0.570240 0.643395 0.241941
Si Si8 0.571276 0.643147 0.873667
O O1 0.250000 0.875478 0.144119
O O2 0.035753 0.750000 0.123386
O O3 0.011648 0.910976 0.085390
O O4 0.978794 0.890489 0.185180
O O5 0.750000 0.131098 0.219009
O O6 0.533297 0.250000 0.247126
O O7 0.528613 0.085739 0.282622
O O8 0.471736 0.111904 0.184087
O O9 0.250000 0.472989 0.300664
O O10 0.035357 0.494110 0.369616
O O11 0.027237 0.591926 0.285441
O O12 0.250000 0.863383 0.478993
O O13 0.481465 0.750000 0.500478
O O14 0.528952 0.904544 0.449407
O O15 0.461756 0.910780 0.547130
O O16 0.250000 0.477808 0.946280
O O17 0.466461 0.590483 0.914660
O O18 0.500000 0.500000 0.000000
O O19 0.750000 0.992052 0.402772
O O20 0.750000 0.621361 0.249694
O O21 0.531094 0.750000 0.248644
O O22 0.750000 0.619163 0.883503
O O23 0.534853 0.750000 0.881175
#
# Coordination Sequence:
#
# PCOD8245272 Si02
#       8
#     8   8   8   8   8   8   8   8
#     4  10  21  39  62  86 114 148 186 229 279 337
#     4  10  21  38  60  85 114 150 191 232 277 332
#     4  12  24  37  56  83 119 156 189 233 284 333
#     4   9  19  38  62  84 109 145 187 231 281 335
#     4  12  25  40  59  83 113 147 187 234 283 337
#     4  10  21  37  57  84 115 147 188 233 279 332
#     4  10  21  38  60  85 113 148 191 234 278 333
#     4  10  21  39  62  86 114 148 187 231 279 335
#
# _framework density 19.649448
#
# number of rings (size 3 to 8) (size 9 to 14) (size 15 to 20)
#    0.000    1.625    0.000    4.875    0.000    5.250 
#    0.000    1.250    0.000    0.000    0.000    0.000 
#    0.000    0.000    0.000    0.000    0.000    0.000 
#
# Total GULP energy -793983.465908 kJ/mol
# GULP energy per Si atom -12405.991655 kJ/mol
# Density = 1.960472 g / cm^3
# Si number density = 19.649448 Si / 1000 Ang^3
#
#
#
# Elastic Constant Matrix: (Units=GPa)
#
#
# Indices 1 2 3 4 5 6 
#
# 1 58.8599 26.4163 18.2703 0.0000 0.0000 0.0000
# 2 26.4163 111.3757 47.6187 0.0000 0.0000 0.0000
# 3 18.2703 47.6187 108.1662 0.0000 0.0000 0.0000
# 4 0.0000 0.0000 0.0000 -8.6543 0.0000 0.0000
# 5 0.0000 0.0000 0.0000 0.0000 36.7230 0.0000
# 6 0.0000 0.0000 0.0000 0.0000 0.0000 30.8442
#
#
#
# Elastic Compliance Matrix: (Units=1/GPa)
#
#
# Indices 1 2 3 4 5 6 
#
# 1 0.019216 -0.003905 -0.001527 0.000000 0.000000 0.000000
# 2 -0.003905 0.011854 -0.004559 0.000000 0.000000 0.000000
# 3 -0.001527 -0.004559 0.011510 0.000000 0.000000 0.000000
# 4 0.000000 0.000000 0.000000 -0.115550 0.000000 0.000000
# 5 0.000000 0.000000 0.000000 0.000000 0.027231 0.000000
# 6 0.000000 0.000000 0.000000 0.000000 0.000000 0.032421
#
#
# Mechanical properties :
#
#
# Convention : Reuss Voigt Hill
#
# Bulk Modulus (GPa) = 44.25034 51.44580 47.84807
# Shear Modulus (GPa) = 352.20831 24.18901 188.19866
#
# Velocity S-wave (km/s) = 13.40280 3.51241 9.79725
# Velocity P-wave (km/s) = 16.18895 6.53360 12.34443
#
# Compressibility (1/GPa) = 0.02259870
#
# Stress axis : x y z
#
# Youngs Moduli (GPa) = 52.04017 84.35980 86.88153
#
# Poissons Ratio (x) = 0.32942 0.13264
# Poissons Ratio (y) = 0.20321 0.39609
# Poissons Ratio (z) = 0.07945 0.38459
#
# Static dielectric constant tensor:
#      x y z
#    x 3.545560 0.000000 0.000000 
#    y 0.000000 3.674530 0.000000 
#    z 0.000000 0.000000 3.530120 
# 
# 
# High freq. dielectric constant tensor:
#      x y z
#    x 1.777780 0.000000 0.000000 
#    y 0.000000 1.775780 0.000000 
#    z 0.000000 0.000000 1.762150 
# 
# From -- ./inp_files/31413.got.cif
#   From: 2010.03.12/outbox.cif.g09.slc.cpg/sg59_16_cif.got.tgz:31413.got - 2010.04.16 16:29:54.
