data_PCOD8245158
_publ_section_title
;
Structure prediction by ZEFSAII (Michael W. Deem and Ramdas Pophale) SiO2 
 PCOD8245158
Probable space group: P M M N
;
_chemical_formula_sum "Si O2"
_cell_formula_units_Z 48
_cell_length_a 8.781478
_cell_length_b 9.481816
_cell_length_c 31.370967
_cell_angle_alpha 90.000000
_cell_angle_beta 90.000000
_cell_angle_gamma 90.000000
_cell_volume 2612.083446
_symmetry_space_group_name_H-M "P M M N"
_symmetry_group_IT_number 59
_space_group.IT_coordinate_system_code '2'
_symmetry_cell_setting 'orthorhombic'
loop_
_space_group_symop_operation_xyz
x,y,z
1/2-x,1/2-y,z
1/2+x,-y,-z
-x,1/2+y,-z
-x,-y,-z
1/2+x,1/2+y,-z
1/2-x,y,z
x,1/2-y,z
loop_
_atom_site_type_symbol
_atom_site_label
_atom_site_fract_x
_atom_site_fract_y
_atom_site_fract_z
Si Si1 0.567827 0.591695 0.220050
Si Si2 0.571729 0.587513 0.612619
Si Si3 0.931142 0.909683 0.037313
Si Si4 0.417289 0.082259 0.871145
Si Si5 0.070057 0.087626 0.538384
Si Si6 0.575580 0.413218 0.298860
O O1 0.750000 0.585859 0.217487
O O2 0.511982 0.750000 0.229746
O O3 0.500958 0.538846 0.173728
O O4 0.506879 0.494247 0.258118
O O5 0.750000 0.563768 0.605895
O O6 0.526752 0.750000 0.602629
O O7 0.480416 0.482811 0.582352
O O8 0.526573 0.547433 0.660611
O O9 0.750000 0.923039 0.037699
O O10 0.982291 0.750000 0.028911
O O11 0.997065 0.961631 0.083898
O O12 0.000000 0.000000 0.000000
O O13 0.250000 0.012991 0.871123
O O14 0.400690 0.250000 0.871069
O O15 0.250000 0.080865 0.534417
O O16 0.013622 0.250000 0.536666
O O17 0.000000 0.000000 0.500000
O O18 0.750000 0.457645 0.308349
O O19 0.564119 0.250000 0.287740
#
# Coordination Sequence:
#
# PCOD8245158 Si02
#       6
#     8   8   8   8   8   8
#     4   8  13  23  42  66  89 115 151 194 237 283
#     4  10  21  37  56  77 103 138 177 210 242 286
#     4   9  17  29  45  65  90 120 155 195 239 289
#     4   7  11  22  40  61  85 114 148 188 235 284
#     4  11  24  40  59  84 111 138 170 208 250 295
#     4   9  17  29  46  70  99 127 155 194 245 292
#
# _framework density 18.376137
#
# number of rings (size 3 to 8) (size 9 to 14) (size 15 to 20)
#    0.000    3.000    0.000    3.500    0.000    5.333 
#    0.000    2.500    0.000    4.000    0.000    4.667 
#    0.000    0.000    0.000    0.000    0.000    0.000 
#
# Total GULP energy -594697.555358 kJ/mol
# GULP energy per Si atom -12389.532403 kJ/mol
# Density = 1.833431 g / cm^3
# Si number density = 18.376137 Si / 1000 Ang^3
#
#
#
# Elastic Constant Matrix: (Units=GPa)
#
#
# Indices 1 2 3 4 5 6 
#
# 1 31.4595 27.6637 28.3785 0.0000 0.0000 0.0000
# 2 27.6637 91.7044 84.0950 0.0000 0.0000 0.0000
# 3 28.3785 84.0950 173.9365 0.0000 0.0000 0.0000
# 4 0.0000 0.0000 0.0000 37.8505 0.0000 0.0000
# 5 0.0000 0.0000 0.0000 0.0000 24.3406 0.0000
# 6 0.0000 0.0000 0.0000 0.0000 0.0000 19.8974
#
#
#
# Elastic Compliance Matrix: (Units=1/GPa)
#
#
# Indices 1 2 3 4 5 6 
#
# 1 0.043439 -0.011865 -0.001351 0.000000 0.000000 0.000000
# 2 -0.011865 0.022831 -0.009103 0.000000 0.000000 0.000000
# 3 -0.001351 -0.009103 0.010370 0.000000 0.000000 0.000000
# 4 0.000000 0.000000 0.000000 0.026420 0.000000 0.000000
# 5 0.000000 0.000000 0.000000 0.000000 0.041084 0.000000
# 6 0.000000 0.000000 0.000000 0.000000 0.000000 0.050258
#
#
# Mechanical properties :
#
#
# Convention : Reuss Voigt Hill
#
# Bulk Modulus (GPa) = 31.24650 64.15277 47.69963
# Shear Modulus (GPa) = 20.02351 26.88190 23.45270
#
# Velocity S-wave (km/s) = 3.30456 3.82890 3.57635
# Velocity P-wave (km/s) = 5.62147 7.38471 6.56258
#
# Compressibility (1/GPa) = 0.03200359
#
# Stress axis : x y z
#
# Youngs Moduli (GPa) = 23.02086 43.79975 96.42739
#
# Poissons Ratio (x) = 0.51970 0.13023
# Poissons Ratio (y) = 0.27315 0.87774
# Poissons Ratio (z) = 0.03109 0.39869
#
# Static dielectric constant tensor:
#      x y z
#    x 3.019430 0.000000 0.000000 
#    y 0.000000 3.341770 0.000000 
#    z 0.000000 0.000000 4.941820 
# 
# 
# High freq. dielectric constant tensor:
#      x y z
#    x 1.669970 0.000000 0.000000 
#    y 0.000000 1.690500 0.000000 
#    z 0.000000 0.000000 1.739910 
# 
# From -- ./inp_files/32922.got.cif
#   From: 2010.03.12/outbox.cif.g09.slc.cpg/sg59_17_cif.got.tgz:32922.got - 2010.04.16 16:29:54.
