data_PCOD8245427
_publ_section_title
;
Structure prediction by ZEFSAII (Michael W. Deem and Ramdas Pophale) SiO2 
 PCOD8245427
Probable space group: P M M N
;
_chemical_formula_sum "Si O2"
_cell_formula_units_Z 40
_cell_length_a 19.121775
_cell_length_b 13.869210
_cell_length_c 7.121872
_cell_angle_alpha 90.000000
_cell_angle_beta 90.000000
_cell_angle_gamma 90.000000
_cell_volume 1888.748323
_symmetry_space_group_name_H-M "P M M N"
_symmetry_group_IT_number 59
_space_group.IT_coordinate_system_code '2'
_symmetry_cell_setting 'orthorhombic'
loop_
_space_group_symop_operation_xyz
x,y,z
1/2-x,1/2-y,z
1/2+x,-y,-z
-x,1/2+y,-z
-x,-y,-z
1/2+x,1/2+y,-z
1/2-x,y,z
x,1/2-y,z
loop_
_atom_site_type_symbol
_atom_site_label
_atom_site_fract_x
_atom_site_fract_y
_atom_site_fract_z
Si Si1 0.171155 0.997915 0.195584
Si Si2 0.945603 0.855584 0.882943
Si Si3 0.483061 0.142953 0.549255
Si Si4 0.391213 0.974584 0.573978
Si Si5 0.100963 0.637280 0.939359
O O1 0.250000 0.023503 0.135761
O O2 0.169429 0.999351 0.423646
O O3 0.118895 0.072008 0.089004
O O4 0.148490 0.893393 0.115422
O O5 0.923942 0.750000 0.960912
O O6 0.961229 0.846792 0.664523
O O7 0.018970 0.890013 0.978837
O O8 0.487254 0.250000 0.643485
O O9 0.556509 0.087824 0.557729
O O10 0.426008 0.074562 0.651738
O O11 0.366925 0.914609 0.753856
O O12 0.108136 0.750000 0.902978
#
# Coordination Sequence:
#
# PCOD8245427 Si02
#       5
#     8   8   8   8   8
#     4  11  23  36  53  81 113 143 178 220 272 332
#     4   8  16  34  59  82 105 139 181 225 273 319
#     4   8  14  28  54  84 106 128 170 223 266 313
#     4   9  18  34  54  76 105 140 174 212 266 321
#     4  10  21  38  58  79 106 142 187 231 266 312
#
# _framework density 21.178045000000001
#
# number of rings (size 3 to 8) (size 9 to 14) (size 15 to 20)
#    0.000    2.800    0.000    3.600    0.000    3.200 
#    0.000    3.000    0.000    0.000    0.000    2.800 
#    0.000    0.000    0.000    0.000    0.000    0.000 
#
# Total GULP energy -495682.913504 kJ/mol
# GULP energy per Si atom -12392.072838 kJ/mol
# Density = 2.112984 g / cm^3
# Si number density = 21.178045 Si / 1000 Ang^3
#
#
#
# Elastic Constant Matrix: (Units=GPa)
#
#
# Indices 1 2 3 4 5 6 
#
# 1 106.9802 32.1440 18.7186 0.0000 0.0000 0.0000
# 2 32.1440 113.3053 6.6854 0.0000 0.0000 0.0000
# 3 18.7186 6.6854 25.6586 0.0000 0.0000 0.0000
# 4 0.0000 0.0000 0.0000 22.4044 0.0000 0.0000
# 5 0.0000 0.0000 0.0000 0.0000 22.9951 0.0000
# 6 0.0000 0.0000 0.0000 0.0000 0.0000 9.3306
#
#
#
# Elastic Compliance Matrix: (Units=1/GPa)
#
#
# Indices 1 2 3 4 5 6 
#
# 1 0.011539 -0.002820 -0.007683 0.000000 0.000000 0.000000
# 2 -0.002820 0.009653 -0.000458 0.000000 0.000000 0.000000
# 3 -0.007683 -0.000458 0.044698 0.000000 0.000000 0.000000
# 4 0.000000 0.000000 0.000000 0.044634 0.000000 0.000000
# 5 0.000000 0.000000 0.000000 0.000000 0.043487 0.000000
# 6 0.000000 0.000000 0.000000 0.000000 0.000000 0.107174
#
#
# Mechanical properties :
#
#
# Convention : Reuss Voigt Hill
#
# Bulk Modulus (GPa) = 22.74413 40.11555 31.42984
# Shear Modulus (GPa) = 16.79185 23.50577 20.14881
#
# Velocity S-wave (km/s) = 2.81888 3.33515 3.08783
# Velocity P-wave (km/s) = 4.62143 5.81499 5.25223
#
# Compressibility (1/GPa) = 0.04396738
#
# Stress axis : x y z
#
# Youngs Moduli (GPa) = 86.66029 103.59680 22.37247
#
# Poissons Ratio (x) = 0.29217 0.17190
# Poissons Ratio (y) = 0.24441 0.01024
# Poissons Ratio (z) = 0.66585 0.04740
#
# Static dielectric constant tensor:
#      x y z
#    x 3.525980 0.000000 0.000000 
#    y 0.000000 4.392070 0.000000 
#    z 0.000000 0.000000 3.527830 
# 
# 
# High freq. dielectric constant tensor:
#      x y z
#    x 1.780750 0.000000 0.000000 
#    y 0.000000 1.839530 0.000000 
#    z 0.000000 0.000000 1.822710 
# 
# From -- ./inp_files/10116.got.cif
#   From: 2010.03.12/outbox.cif.g09.slc.cpg/sg59_6_cif.got.tgz:10116.got - 2010.04.16 16:29:54.
