data_PCOD8245487
_publ_section_title
;
Structure prediction by ZEFSAII (Michael W. Deem and Ramdas Pophale) SiO2 
 PCOD8245487
Probable space group: P M M N
;
_chemical_formula_sum "Si O2"
_cell_formula_units_Z 56
_cell_length_a 20.313843
_cell_length_b 8.836574
_cell_length_c 15.962504
_cell_angle_alpha 90.000000
_cell_angle_beta 90.000000
_cell_angle_gamma 90.000000
_cell_volume 2865.345719
_symmetry_space_group_name_H-M "P M M N"
_symmetry_group_IT_number 59
_space_group.IT_coordinate_system_code '2'
_symmetry_cell_setting 'orthorhombic'
loop_
_space_group_symop_operation_xyz
x,y,z
1/2-x,1/2-y,z
1/2+x,-y,-z
-x,1/2+y,-z
-x,-y,-z
1/2+x,1/2+y,-z
1/2-x,y,z
x,1/2-y,z
loop_
_atom_site_type_symbol
_atom_site_label
_atom_site_fract_x
_atom_site_fract_y
_atom_site_fract_z
Si Si1 0.890464 0.072199 0.722208
Si Si2 0.750000 0.430202 0.467175
Si Si3 0.131730 0.927228 0.648051
Si Si4 0.250000 0.570966 0.344908
Si Si5 0.998860 0.926719 0.409660
Si Si6 0.910095 0.077608 0.057672
Si Si7 0.826000 0.918702 0.188633
Si Si8 0.442417 0.423629 0.110236
O O1 0.893646 0.250000 0.742849
O O2 0.815636 0.018172 0.703747
O O3 0.934705 0.033685 0.641044
O O4 0.917560 0.979422 0.800253
O O5 0.750000 0.250000 0.465503
O O6 0.815596 0.488432 0.419988
O O7 0.750000 0.497144 0.560977
O O8 0.119210 0.750000 0.636712
O O9 0.063297 0.013365 0.641080
O O10 0.159239 0.959740 0.739792
O O11 0.250000 0.750000 0.353971
O O12 0.992035 0.750000 0.422443
O O13 0.000000 0.000000 0.500000
O O14 0.885491 0.250000 0.060842
O O15 0.979248 0.059692 0.105195
O O16 0.859969 0.967631 0.103160
O O17 0.911095 0.027402 0.961304
O O18 0.750000 0.917790 0.168091
O O19 0.849955 0.750000 0.214929
O O20 0.421120 0.250000 0.096977
#
# Coordination Sequence:
#
# PCOD8245487 Si02
#       8
#     8   4   8   4   8   8   8   8
#     4  10  21  38  60  84 113 151 198 244 291 349
#     4   9  18  34  57  82 111 152 199 243 288 343
#     4  11  21  36  59  86 117 156 200 244 293 356
#     4   9  18  36  59  80 105 144 195 243 282 331
#     4  11  23  38  58  87 120 155 197 251 307 358
#     4  10  21  38  62  88 114 150 195 237 283 348
#     4  11  23  38  56  84 123 159 193 238 294 349
#     4  10  21  38  61  88 117 148 187 238 295 350
#
# _framework density 19.543890999999999
#
# number of rings (size 3 to 8) (size 9 to 14) (size 15 to 20)
#    0.000    1.714    0.714    3.857    0.000    8.286 
#    1.286    0.357    0.000    1.714    0.000    0.000 
#    0.000    0.000    0.000    0.000    0.000    0.000 
#
# Total GULP energy -694580.435449 kJ/mol
# GULP energy per Si atom -12403.222062 kJ/mol
# Density = 1.949941 g / cm^3
# Si number density = 19.543891 Si / 1000 Ang^3
#
#
#
# Elastic Constant Matrix: (Units=GPa)
#
#
# Indices 1 2 3 4 5 6 
#
# 1 108.7486 54.3918 47.5203 0.0000 0.0000 0.0000
# 2 54.3918 67.4947 47.9911 0.0000 0.0000 0.0000
# 3 47.5203 47.9911 111.7851 0.0000 0.0000 0.0000
# 4 0.0000 0.0000 0.0000 33.7993 0.0000 0.0000
# 5 0.0000 0.0000 0.0000 0.0000 33.9832 0.0000
# 6 0.0000 0.0000 0.0000 0.0000 0.0000 26.3754
#
#
#
# Elastic Compliance Matrix: (Units=1/GPa)
#
#
# Indices 1 2 3 4 5 6 
#
# 1 0.015647 -0.011343 -0.001782 0.000000 0.000000 0.000000
# 2 -0.011343 0.029548 -0.007864 0.000000 0.000000 0.000000
# 3 -0.001782 -0.007864 0.013079 0.000000 0.000000 0.000000
# 4 0.000000 0.000000 0.000000 0.029586 0.000000 0.000000
# 5 0.000000 0.000000 0.000000 0.000000 0.029426 0.000000
# 6 0.000000 0.000000 0.000000 0.000000 0.000000 0.037914
#
#
# Mechanical properties :
#
#
# Convention : Reuss Voigt Hill
#
# Bulk Modulus (GPa) = 61.35774 65.31498 63.33636
# Shear Modulus (GPa) = 24.67785 28.03993 26.35889
#
# Velocity S-wave (km/s) = 3.55729 3.79187 3.67645
# Velocity P-wave (km/s) = 6.95237 7.25695 7.10629
#
# Compressibility (1/GPa) = 0.01629786
#
# Stress axis : x y z
#
# Youngs Moduli (GPa) = 63.90837 33.84339 76.45636
#
# Poissons Ratio (x) = 0.38387 0.13626
# Poissons Ratio (y) = 0.72488 0.60122
# Poissons Ratio (z) = 0.11390 0.26613
#
# Static dielectric constant tensor:
#      x y z
#    x 3.655540 0.000000 0.000000 
#    y 0.000000 3.523260 0.000000 
#    z 0.000000 0.000000 3.529230 
# 
# 
# High freq. dielectric constant tensor:
#      x y z
#    x 1.764780 0.000000 0.000000 
#    y 0.000000 1.756070 0.000000 
#    z 0.000000 0.000000 1.767540 
# 
# From -- ./inp_files/24349.got.cif
#   From: 2010.03.12/outbox.cif.g09.slc.cpg/sg59_13_cif.got.tgz:24349.got - 2010.04.16 16:29:54.
