data_PCOD8245226
_publ_section_title
;
Structure prediction by ZEFSAII (Michael W. Deem and Ramdas Pophale) SiO2 
 PCOD8245226
Probable space group: P M M N
;
_chemical_formula_sum "Si O2"
_cell_formula_units_Z 64
_cell_length_a 8.904722
_cell_length_b 18.370657
_cell_length_c 21.074005
_cell_angle_alpha 90.000000
_cell_angle_beta 90.000000
_cell_angle_gamma 90.000000
_cell_volume 3447.403616
_symmetry_space_group_name_H-M "P M M N"
_symmetry_group_IT_number 59
_space_group.IT_coordinate_system_code '2'
_symmetry_cell_setting 'orthorhombic'
loop_
_space_group_symop_operation_xyz
x,y,z
1/2-x,1/2-y,z
1/2+x,-y,-z
-x,1/2+y,-z
-x,-y,-z
1/2+x,1/2+y,-z
1/2-x,y,z
x,1/2-y,z
loop_
_atom_site_type_symbol
_atom_site_label
_atom_site_fract_x
_atom_site_fract_y
_atom_site_fract_z
Si Si1 0.077307 0.167511 0.265486
Si Si2 0.578563 0.334836 0.395210
Si Si3 0.578662 0.107699 0.747502
Si Si4 0.573380 0.531386 0.062528
Si Si5 0.072361 0.167975 0.624874
Si Si6 0.927245 0.921630 0.495886
Si Si7 0.575126 0.332405 0.882237
Si Si8 0.077879 0.464280 0.180440
O O1 0.250000 0.156256 0.286474
O O2 0.048409 0.250000 0.242577
O O3 0.036323 0.115117 0.207017
O O4 0.971251 0.147084 0.323935
O O5 0.750000 0.360553 0.404139
O O6 0.559763 0.250000 0.409596
O O7 0.469823 0.376980 0.442030
O O8 0.750000 0.123129 0.727735
O O9 0.473446 0.129251 0.689740
O O10 0.533146 0.155638 0.808613
O O11 0.552832 0.022883 0.763542
O O12 0.750000 0.531139 0.054295
O O13 0.519062 0.614151 0.073060
O O14 0.528833 0.480299 0.121363
O O15 0.500000 0.500000 0.000000
O O16 0.250000 0.171199 0.621945
O O17 0.005897 0.250000 0.621349
O O18 0.010194 0.121128 0.565768
O O19 0.750000 0.930751 0.492526
O O20 0.000000 0.000000 0.500000
O O21 0.750000 0.350458 0.892112
O O22 0.535932 0.250000 0.901617
O O23 0.250000 0.468426 0.156750
#
# Coordination Sequence:
#
# PCOD8245226 Si02
#       8
#     8   8   8   8   8   8   8   8
#     4   9  18  34  58  85 111 144 185 229 279 333
#     4  10  21  37  57  81 108 140 181 230 281 335
#     4   9  18  32  53  81 111 143 178 216 266 327
#     4  11  22  37  58  83 113 152 193 232 275 324
#     4  10  22  38  54  75 105 139 175 221 274 326
#     4  11  24  40  56  76 104 141 185 232 283 336
#     4   9  18  35  58  84 115 148 183 226 275 327
#     4   9  19  36  56  81 113 147 183 226 275 329
#
# _framework density 18.564696000000001
#
# number of rings (size 3 to 8) (size 9 to 14) (size 15 to 20)
#    0.000    2.250    0.000    3.375    1.750    5.750 
#    0.000    0.625    0.000    2.250    0.000    0.000 
#    0.000    0.000    0.000    0.000    0.000    0.000 
#
# Total GULP energy -793764.215632 kJ/mol
# GULP energy per Si atom -12402.565869 kJ/mol
# Density = 1.852244 g / cm^3
# Si number density = 18.564696 Si / 1000 Ang^3
#
#
#
# Elastic Constant Matrix: (Units=GPa)
#
#
# Indices 1 2 3 4 5 6 
#
# 1 75.5445 48.9743 44.1836 0.0000 0.0000 0.0000
# 2 48.9743 121.7938 78.3065 0.0000 0.0000 0.0000
# 3 44.1836 78.3065 101.7177 0.0000 0.0000 0.0000
# 4 0.0000 0.0000 0.0000 25.5808 0.0000 0.0000
# 5 0.0000 0.0000 0.0000 0.0000 33.8989 0.0000
# 6 0.0000 0.0000 0.0000 0.0000 0.0000 28.9171
#
#
#
# Elastic Compliance Matrix: (Units=1/GPa)
#
#
# Indices 1 2 3 4 5 6 
#
# 1 0.018970 -0.004614 -0.004688 0.000000 0.000000 0.000000
# 2 -0.004614 0.017380 -0.011375 0.000000 0.000000 0.000000
# 3 -0.004688 -0.011375 0.020625 0.000000 0.000000 0.000000
# 4 0.000000 0.000000 0.000000 0.039092 0.000000 0.000000
# 5 0.000000 0.000000 0.000000 0.000000 0.029499 0.000000
# 6 0.000000 0.000000 0.000000 0.000000 0.000000 0.034582
#
#
# Mechanical properties :
#
#
# Convention : Reuss Voigt Hill
#
# Bulk Modulus (GPa) = 64.02163 71.33165 67.67664
# Shear Modulus (GPa) = 24.18855 26.18548 25.18702
#
# Velocity S-wave (km/s) = 3.61353 3.75974 3.68736
# Velocity P-wave (km/s) = 7.20907 7.57325 7.39340
#
# Compressibility (1/GPa) = 0.01561972
#
# Stress axis : x y z
#
# Youngs Moduli (GPa) = 52.71378 57.53875 48.48509
#
# Poissons Ratio (x) = 0.26547 0.22732
# Poissons Ratio (y) = 0.24321 0.55154
# Poissons Ratio (z) = 0.24714 0.65453
#
# Static dielectric constant tensor:
#      x y z
#    x 3.412760 0.000000 0.000000 
#    y 0.000000 3.570330 0.000000 
#    z 0.000000 0.000000 3.285980 
# 
# 
# High freq. dielectric constant tensor:
#      x y z
#    x 1.716170 0.000000 0.000000 
#    y 0.000000 1.730460 0.000000 
#    z 0.000000 0.000000 1.710460 
# 
# From -- ./inp_files/29454.got.cif
#   From: 2010.03.12/outbox.cif.g09.slc.cpg/sg59_15_cif.got.tgz:29454.got - 2010.04.16 16:29:54.
