data_PCOD8245980
_publ_section_title
;
Structure prediction by ZEFSAII (Michael W. Deem and Ramdas Pophale) SiO2 
 PCOD8245980
Probable space group: P M M N
;
_chemical_formula_sum "Si O2"
_cell_formula_units_Z 56
_cell_length_a 8.557136
_cell_length_b 14.554132
_cell_length_c 23.587815
_cell_angle_alpha 90.000000
_cell_angle_beta 90.000000
_cell_angle_gamma 90.000000
_cell_volume 2937.666270
_symmetry_space_group_name_H-M "P M M N"
_symmetry_group_IT_number 59
_space_group.IT_coordinate_system_code '2'
_symmetry_cell_setting 'orthorhombic'
loop_
_space_group_symop_operation_xyz
x,y,z
1/2-x,1/2-y,z
1/2+x,-y,-z
-x,1/2+y,-z
-x,-y,-z
1/2+x,1/2+y,-z
1/2-x,y,z
x,1/2-y,z
loop_
_atom_site_type_symbol
_atom_site_label
_atom_site_fract_x
_atom_site_fract_y
_atom_site_fract_z
Si Si1 0.925638 0.750000 0.037920
Si Si2 0.434979 0.149041 0.471818
Si Si3 0.065468 0.354380 0.598854
Si Si4 0.934993 0.930145 0.850238
Si Si5 0.564613 0.948048 0.055260
Si Si6 0.574378 0.750000 0.904835
Si Si7 0.934096 0.536478 0.634668
Si Si8 0.933800 0.356404 0.260970
O O1 0.750000 0.750000 0.061393
O O2 0.006928 0.655568 0.057799
O O3 0.929992 0.750000 0.970993
O O4 0.250000 0.151576 0.474741
O O5 0.496260 0.250000 0.452960
O O6 0.497258 0.127071 0.534963
O O7 0.491289 0.073200 0.426844
O O8 0.250000 0.368368 0.603339
O O9 0.021060 0.250000 0.617557
O O10 0.982279 0.429135 0.639554
O O11 0.750000 0.941339 0.856905
O O12 0.007699 0.840159 0.880416
O O13 0.982201 0.922682 0.784705
O O14 0.016521 0.012521 0.883825
O O15 0.750000 0.945656 0.047864
O O16 0.500000 0.000000 0.000000
O O17 0.750000 0.750000 0.880817
O O18 0.750000 0.547512 0.644068
O O19 0.022810 0.600370 0.679063
O O20 0.750000 0.360737 0.251447
O O21 0.992443 0.250000 0.257255
#
# Coordination Sequence:
#
# PCOD8245980 Si02
#       8
#     4   8   8   8   8   4   8   8
#     4   9  18  34  54  80 116 152 182 215 268 325
#     4   8  15  29  50  78 111 145 181 219 268 331
#     4   9  18  34  55  77 106 146 187 229 275 325
#     4  11  21  37  59  83 112 147 183 226 278 332
#     4  11  21  35  56  84 115 151 189 229 273 326
#     4   9  16  30  54  82 112 146 180 213 264 329
#     4  11  21  33  54  82 112 146 182 226 277 329
#     4  11  24  40  58  83 112 143 183 228 272 327
#
# _framework density 19.062752
#
# number of rings (size 3 to 8) (size 9 to 14) (size 15 to 20)
#    0.000    2.000    2.143    3.429    0.000    1.714 
#    0.000    2.857    1.571    1.714    0.000    0.000 
#    0.000    0.000    0.000    0.000    0.000    0.000 
#
# Total GULP energy -694077.583567 kJ/mol
# GULP energy per Si atom -12394.242564 kJ/mol
# Density = 1.901936 g / cm^3
# Si number density = 19.062752 Si / 1000 Ang^3
#
#
#
# Elastic Constant Matrix: (Units=GPa)
#
#
# Indices 1 2 3 4 5 6 
#
# 1 46.0549 30.6063 15.9488 0.0000 0.0000 0.0000
# 2 30.6063 138.9554 48.8099 0.0000 0.0000 0.0000
# 3 15.9488 48.8099 66.0595 0.0000 0.0000 0.0000
# 4 0.0000 0.0000 0.0000 37.6009 0.0000 0.0000
# 5 0.0000 0.0000 0.0000 0.0000 27.2445 0.0000
# 6 0.0000 0.0000 0.0000 0.0000 0.0000 27.7797
#
#
#
# Elastic Compliance Matrix: (Units=1/GPa)
#
#
# Indices 1 2 3 4 5 6 
#
# 1 0.025799 -0.004719 -0.002742 0.000000 0.000000 0.000000
# 2 -0.004719 0.010582 -0.006680 0.000000 0.000000 0.000000
# 3 -0.002742 -0.006680 0.020735 0.000000 0.000000 0.000000
# 4 0.000000 0.000000 0.000000 0.026595 0.000000 0.000000
# 5 0.000000 0.000000 0.000000 0.000000 0.036705 0.000000
# 6 0.000000 0.000000 0.000000 0.000000 0.000000 0.035997
#
#
# Mechanical properties :
#
#
# Convention : Reuss Voigt Hill
#
# Bulk Modulus (GPa) = 34.67982 49.08886 41.88434
# Shear Modulus (GPa) = 25.73247 28.90533 27.31890
#
# Velocity S-wave (km/s) = 3.67806 3.89823 3.78974
# Velocity P-wave (km/s) = 6.02241 6.78739 6.41631
#
# Compressibility (1/GPa) = 0.02883521
#
# Stress axis : x y z
#
# Youngs Moduli (GPa) = 38.76119 94.49665 48.22713
#
# Poissons Ratio (x) = 0.44597 0.13222
# Poissons Ratio (y) = 0.18293 0.32214
# Poissons Ratio (z) = 0.10627 0.63121
#
# Static dielectric constant tensor:
#      x y z
#    x 3.244490 0.000000 0.000000 
#    y 0.000000 3.788720 0.000000 
#    z 0.000000 0.000000 3.378260 
# 
# 
# High freq. dielectric constant tensor:
#      x y z
#    x 1.719750 0.000000 0.000000 
#    y 0.000000 1.751420 0.000000 
#    z 0.000000 0.000000 1.723600 
# 
# From -- ./inp_files/29192.got.cif
#   From: 2010.03.12/outbox.cif.g09.slc.cpg/sg59_15_cif.got.tgz:29192.got - 2010.04.16 16:29:54.
