data_PCOD8245549
_publ_section_title
;
Structure prediction by ZEFSAII (Michael W. Deem and Ramdas Pophale) SiO2 
 PCOD8245549
Probable space group: P M M N
;
_chemical_formula_sum "Si O2"
_cell_formula_units_Z 56
_cell_length_a 8.797095
_cell_length_b 22.240474
_cell_length_c 14.745960
_cell_angle_alpha 90.000000
_cell_angle_beta 90.000000
_cell_angle_gamma 90.000000
_cell_volume 2885.070116
_symmetry_space_group_name_H-M "P M M N"
_symmetry_group_IT_number 59
_space_group.IT_coordinate_system_code '2'
_symmetry_cell_setting 'orthorhombic'
loop_
_space_group_symop_operation_xyz
x,y,z
1/2-x,1/2-y,z
1/2+x,-y,-z
-x,1/2+y,-z
-x,-y,-z
1/2+x,1/2+y,-z
1/2-x,y,z
x,1/2-y,z
loop_
_atom_site_type_symbol
_atom_site_label
_atom_site_fract_x
_atom_site_fract_y
_atom_site_fract_z
Si Si1 0.070726 0.084657 0.208215
Si Si2 0.076809 0.182653 0.064522
Si Si3 0.575440 0.317588 0.690435
Si Si4 0.427615 0.557169 0.611648
Si Si5 0.572188 0.578689 0.424498
Si Si6 0.075583 0.859266 0.111829
Si Si7 0.428004 0.016555 0.904811
O O1 0.250000 0.077843 0.207407
O O2 0.016886 0.139274 0.144083
O O3 0.013141 0.094539 0.310223
O O4 0.995497 0.023652 0.174299
O O5 0.250000 0.165573 0.037891
O O6 0.067202 0.250000 0.103034
O O7 0.971478 0.178530 0.976253
O O8 0.750000 0.331245 0.665190
O O9 0.529833 0.250000 0.658865
O O10 0.471702 0.367443 0.642726
O O11 0.552851 0.319361 0.798800
O O12 0.250000 0.567639 0.622724
O O13 0.480735 0.586153 0.517519
O O14 0.469475 0.486216 0.618450
O O15 0.750000 0.582080 0.445938
O O16 0.250000 0.880321 0.101183
O O17 0.964831 0.915645 0.120758
O O18 0.250000 0.006446 0.910988
O O19 0.500000 0.000000 0.000000
#
# Coordination Sequence:
#
# PCOD8245549 Si02
#       7
#     8   8   8   8   8   8   8
#     4  11  22  37  58  85 117 152 192 239 288 343
#     4  10  22  39  57  78 110 153 197 240 284 334
#     4  10  22  39  58  84 119 157 196 239 290 349
#     4  10  21  38  62  89 117 150 189 237 294 353
#     4  10  21  38  61  89 116 147 189 239 293 350
#     4  11  22  37  59  85 115 154 197 241 290 348
#     4  12  23  36  55  83 117 152 191 239 292 345
#
# _framework density 19.410271999999999
#
# number of rings (size 3 to 8) (size 9 to 14) (size 15 to 20)
#    0.000    1.429    1.429    4.286    0.000    6.857 
#    0.000    0.714    0.000    2.571    0.000    0.000 
#    0.000    0.000    0.000    0.000    0.000    0.000 
#
# Total GULP energy -694611.482917 kJ/mol
# GULP energy per Si atom -12403.776481 kJ/mol
# Density = 1.936609 g / cm^3
# Si number density = 19.410272 Si / 1000 Ang^3
#
#
#
# Elastic Constant Matrix: (Units=GPa)
#
#
# Indices 1 2 3 4 5 6 
#
# 1 81.7702 21.1419 46.1084 0.0000 0.0000 0.0000
# 2 21.1419 84.7459 40.4921 0.0000 0.0000 0.0000
# 3 46.1084 40.4921 105.7779 0.0000 0.0000 0.0000
# 4 0.0000 0.0000 0.0000 21.8813 0.0000 0.0000
# 5 0.0000 0.0000 0.0000 0.0000 37.0073 0.0000
# 6 0.0000 0.0000 0.0000 0.0000 0.0000 26.3722
#
#
#
# Elastic Compliance Matrix: (Units=1/GPa)
#
#
# Indices 1 2 3 4 5 6 
#
# 1 0.016261 -0.000820 -0.006774 0.000000 0.000000 0.000000
# 2 -0.000820 0.014483 -0.005187 0.000000 0.000000 0.000000
# 3 -0.006774 -0.005187 0.014392 0.000000 0.000000 0.000000
# 4 0.000000 0.000000 0.000000 0.045701 0.000000 0.000000
# 5 0.000000 0.000000 0.000000 0.000000 0.027022 0.000000
# 6 0.000000 0.000000 0.000000 0.000000 0.000000 0.037919
#
#
# Mechanical properties :
#
#
# Convention : Reuss Voigt Hill
#
# Bulk Modulus (GPa) = 51.08737 54.19765 52.64251
# Shear Modulus (GPa) = 26.61492 28.02225 27.31859
#
# Velocity S-wave (km/s) = 3.70696 3.80370 3.75564
# Velocity P-wave (km/s) = 6.68573 6.87558 6.78132
#
# Compressibility (1/GPa) = 0.01957431
#
# Stress axis : x y z
#
# Youngs Moduli (GPa) = 61.49554 69.04769 69.48207
#
# Poissons Ratio (x) = 0.05661 0.47070
# Poissons Ratio (y) = 0.05042 0.36038
# Poissons Ratio (z) = 0.41660 0.35813
#
# Static dielectric constant tensor:
#      x y z
#    x 3.399630 0.000000 0.000000 
#    y 0.000000 3.433360 0.000000 
#    z 0.000000 0.000000 3.552940 
# 
# 
# High freq. dielectric constant tensor:
#      x y z
#    x 1.763410 0.000000 0.000000 
#    y 0.000000 1.748540 0.000000 
#    z 0.000000 0.000000 1.756470 
# 
# From -- ./inp_files/20965.got.cif
#   From: 2010.03.12/outbox.cif.g09.slc.cpg/sg59_11_cif.got.tgz:20965.got - 2010.04.16 16:29:54.
