data_PCOD8245181
_publ_section_title
;
Structure prediction by ZEFSAII (Michael W. Deem and Ramdas Pophale) SiO2 
 PCOD8245181
Probable space group: P M M N
;
_chemical_formula_sum "Si O2"
_cell_formula_units_Z 64
_cell_length_a 18.492994
_cell_length_b 8.857384
_cell_length_c 20.063012
_cell_angle_alpha 90.000000
_cell_angle_beta 90.000000
_cell_angle_gamma 90.000000
_cell_volume 3286.312321
_symmetry_space_group_name_H-M "P M M N"
_symmetry_group_IT_number 59
_space_group.IT_coordinate_system_code '2'
_symmetry_cell_setting 'orthorhombic'
loop_
_space_group_symop_operation_xyz
x,y,z
1/2-x,1/2-y,z
1/2+x,-y,-z
-x,1/2+y,-z
-x,-y,-z
1/2+x,1/2+y,-z
1/2-x,y,z
x,1/2-y,z
loop_
_atom_site_type_symbol
_atom_site_label
_atom_site_fract_x
_atom_site_fract_y
_atom_site_fract_z
Si Si1 0.667148 0.072018 0.934489
Si Si2 0.943567 0.926925 0.188723
Si Si3 0.430691 0.427295 0.965280
Si Si4 0.907156 0.572877 0.810010
Si Si5 0.666233 0.421352 0.691740
Si Si6 0.415470 0.071744 0.570953
Si Si7 0.919586 0.072517 0.563985
Si Si8 0.668514 0.929331 0.299650
O O1 0.750000 0.027683 0.919802
O O2 0.657038 0.250000 0.940044
O O3 0.615050 0.012119 0.877052
O O4 0.642314 0.995611 0.003325
O O5 0.959139 0.750000 0.198679
O O6 0.926377 0.967100 0.112508
O O7 0.876742 0.980671 0.234672
O O8 0.013807 0.018253 0.212549
O O9 0.433982 0.250000 0.977832
O O10 0.500000 0.500000 0.000000
O O11 0.906186 0.750000 0.823531
O O12 0.850497 0.530881 0.752908
O O13 0.750000 0.426985 0.675945
O O14 0.641506 0.250000 0.709144
O O15 0.626264 0.483477 0.626671
O O16 0.408398 0.250000 0.567823
O O17 0.498564 0.020155 0.578518
O O18 0.369702 0.007460 0.633329
O O19 0.385840 0.004082 0.501822
O O20 0.913947 0.250000 0.553785
O O21 0.750000 0.994983 0.294485
O O22 0.670999 0.750000 0.302803
#
# Coordination Sequence:
#
# PCOD8245181 Si02
#       8
#     8   8   8   8   8   8   8   8
#     4  11  24  41  61  85 117 156 194 236 290 349
#     4  10  21  38  62  86 113 151 191 233 281 341
#     4  11  22  37  61  89 118 152 193 242 290 346
#     4  12  24  37  58  85 114 148 188 238 287 341
#     4  10  21  37  56  78 109 149 188 228 279 339
#     4   9  17  31  53  79 108 143 183 234 283 326
#     4   9  18  33  53  77 107 145 190 232 275 337
#     4   9  18  34  57  85 114 147 191 237 283 339
#
# _framework density 19.474716999999998
#
# number of rings (size 3 to 8) (size 9 to 14) (size 15 to 20)
#    0.000    1.875    1.250    3.000    0.000    6.750 
#    0.000    4.375    0.000    1.125    0.000    0.000 
#    0.000    0.000    0.000    0.000    0.000    0.000 
#
# Total GULP energy -793807.623294 kJ/mol
# GULP energy per Si atom -12403.244114 kJ/mol
# Density = 1.943039 g / cm^3
# Si number density = 19.474717 Si / 1000 Ang^3
#
#
#
# Elastic Constant Matrix: (Units=GPa)
#
#
# Indices 1 2 3 4 5 6 
#
# 1 100.5259 26.7414 47.3701 0.0000 0.0000 0.0000
# 2 26.7414 51.2390 30.8433 0.0000 0.0000 0.0000
# 3 47.3701 30.8433 120.9605 0.0000 0.0000 0.0000
# 4 0.0000 0.0000 0.0000 31.7340 0.0000 0.0000
# 5 0.0000 0.0000 0.0000 0.0000 30.5574 0.0000
# 6 0.0000 0.0000 0.0000 0.0000 0.0000 23.3514
#
#
#
# Elastic Compliance Matrix: (Units=1/GPa)
#
#
# Indices 1 2 3 4 5 6 
#
# 1 0.012984 -0.004389 -0.003966 0.000000 0.000000 0.000000
# 2 -0.004389 0.024539 -0.004538 0.000000 0.000000 0.000000
# 3 -0.003966 -0.004538 0.010977 0.000000 0.000000 0.000000
# 4 0.000000 0.000000 0.000000 0.031512 0.000000 0.000000
# 5 0.000000 0.000000 0.000000 0.000000 0.032725 0.000000
# 6 0.000000 0.000000 0.000000 0.000000 0.000000 0.042824
#
#
# Mechanical properties :
#
#
# Convention : Reuss Voigt Hill
#
# Bulk Modulus (GPa) = 44.02526 53.62610 48.82568
# Shear Modulus (GPa) = 26.46645 28.31328 27.38987
#
# Velocity S-wave (km/s) = 3.69048 3.81707 3.75431
# Velocity P-wave (km/s) = 6.38866 6.85732 6.62713
#
# Compressibility (1/GPa) = 0.02271423
#
# Stress axis : x y z
#
# Youngs Moduli (GPa) = 77.01826 40.75174 91.09706
#
# Poissons Ratio (x) = 0.17887 0.36125
# Poissons Ratio (y) = 0.33805 0.41341
# Poissons Ratio (z) = 0.30542 0.18494
#
# Static dielectric constant tensor:
#      x y z
#    x 3.696150 0.000000 0.000000 
#    y 0.000000 3.385120 0.000000 
#    z 0.000000 0.000000 3.840630 
# 
# 
# High freq. dielectric constant tensor:
#      x y z
#    x 1.759210 0.000000 0.000000 
#    y 0.000000 1.737820 0.000000 
#    z 0.000000 0.000000 1.770470 
# 
# From -- ./inp_files/30763.got.cif
#   From: 2010.03.12/outbox.cif.g09.slc.cpg/sg59_16_cif.got.tgz:30763.got - 2010.04.16 16:29:54.
