data_PCOD8245605
_publ_section_title
;
Structure prediction by ZEFSAII (Michael W. Deem and Ramdas Pophale) SiO2 
 PCOD8245605
Probable space group: P M M N
;
_chemical_formula_sum "Si O2"
_cell_formula_units_Z 48
_cell_length_a 16.208787
_cell_length_b 8.695033
_cell_length_c 17.928255
_cell_angle_alpha 90.000000
_cell_angle_beta 90.000000
_cell_angle_gamma 90.000000
_cell_volume 2526.735433
_symmetry_space_group_name_H-M "P M M N"
_symmetry_group_IT_number 59
_space_group.IT_coordinate_system_code '2'
_symmetry_cell_setting 'orthorhombic'
loop_
_space_group_symop_operation_xyz
x,y,z
1/2-x,1/2-y,z
1/2+x,-y,-z
-x,1/2+y,-z
-x,-y,-z
1/2+x,1/2+y,-z
1/2-x,y,z
x,1/2-y,z
loop_
_atom_site_type_symbol
_atom_site_label
_atom_site_fract_x
_atom_site_fract_y
_atom_site_fract_z
Si Si1 0.415102 0.932394 0.031518
Si Si2 0.156803 0.573958 0.319121
Si Si3 0.010733 0.573864 0.420558
Si Si4 0.750000 0.432661 0.221953
Si Si5 0.750000 0.432284 0.051697
Si Si6 0.436552 0.069860 0.188824
Si Si7 0.583010 0.566766 0.275683
O O1 0.420446 0.750000 0.026198
O O2 0.403109 0.985603 0.115906
O O3 0.334143 0.993987 0.987046
O O4 0.500000 0.000000 0.000000
O O5 0.250000 0.538958 0.341470
O O6 0.143341 0.750000 0.291902
O O7 0.104007 0.543434 0.393372
O O8 0.130046 0.460915 0.253200
O O9 0.990689 0.750000 0.432072
O O10 0.000000 0.500000 0.500000
O O11 0.949207 0.509585 0.356683
O O12 0.750000 0.250000 0.226320
O O13 0.750000 0.491169 0.136791
O O14 0.673085 0.500291 0.265929
O O15 0.750000 0.250000 0.047977
O O16 0.445770 0.250000 0.173472
O O17 0.525388 0.002087 0.210913
O O18 0.581141 0.750000 0.269285
#
# Coordination Sequence:
#
# PCOD8245605 Si02
#       7
#     8   8   8   4   4   8   8
#     4  11  22  39  59  83 114 155 196 242 299 354
#     4   9  19  37  59  82 110 149 192 232 283 346
#     4   9  19  36  58  83 115 149 186 231 283 340
#     4  11  21  37  61  89 116 145 192 249 289 332
#     4   9  22  39  57  81 114 151 192 237 291 348
#     4  11  22  36  56  84 116 148 191 244 290 343
#     4  10  21  39  60  84 114 156 197 233 285 349
#
# _framework density 18.996845
#
# number of rings (size 3 to 8) (size 9 to 14) (size 15 to 20)
#    0.000    2.000    0.000    4.750    1.167    5.000 
#    1.500    3.750    0.000    0.000    0.000    0.000 
#    0.000    0.000    0.000    0.000    0.000    0.000 
#
# Total GULP energy -595226.506836 kJ/mol
# GULP energy per Si atom -12400.552226 kJ/mol
# Density = 1.895361 g / cm^3
# Si number density = 18.996845 Si / 1000 Ang^3
#
#
#
# Elastic Constant Matrix: (Units=GPa)
#
#
# Indices 1 2 3 4 5 6 
#
# 1 174.3104 40.1604 64.0098 0.0000 0.0000 0.0000
# 2 40.1604 69.5444 29.4919 0.0000 0.0000 0.0000
# 3 64.0098 29.4919 109.3874 0.0000 0.0000 0.0000
# 4 0.0000 0.0000 0.0000 34.4246 0.0000 0.0000
# 5 0.0000 0.0000 0.0000 0.0000 22.4382 0.0000
# 6 0.0000 0.0000 0.0000 0.0000 0.0000 29.6175
#
#
#
# Elastic Compliance Matrix: (Units=1/GPa)
#
#
# Indices 1 2 3 4 5 6 
#
# 1 0.007792 -0.002897 -0.003778 0.000000 0.000000 0.000000
# 2 -0.002897 0.017313 -0.002972 0.000000 0.000000 0.000000
# 3 -0.003778 -0.002972 0.012154 0.000000 0.000000 0.000000
# 4 0.000000 0.000000 0.000000 0.029049 0.000000 0.000000
# 5 0.000000 0.000000 0.000000 0.000000 0.044567 0.000000
# 6 0.000000 0.000000 0.000000 0.000000 0.000000 0.033764
#
#
# Mechanical properties :
#
#
# Convention : Reuss Voigt Hill
#
# Bulk Modulus (GPa) = 55.67028 68.95183 62.31105
# Shear Modulus (GPa) = 29.42518 31.93473 30.67995
#
# Velocity S-wave (km/s) = 3.93994 4.10451 4.02307
# Velocity P-wave (km/s) = 7.07574 7.67059 7.37916
#
# Compressibility (1/GPa) = 0.01796290
#
# Stress axis : x y z
#
# Youngs Moduli (GPa) = 128.33784 57.76024 82.27611
#
# Poissons Ratio (x) = 0.16735 0.31087
# Poissons Ratio (y) = 0.37184 0.24455
# Poissons Ratio (z) = 0.48491 0.17168
#
# Static dielectric constant tensor:
#      x y z
#    x 3.691450 0.000000 0.000000 
#    y 0.000000 3.442140 0.000000 
#    z 0.000000 0.000000 3.778600 
# 
# 
# High freq. dielectric constant tensor:
#      x y z
#    x 1.748430 0.000000 0.000000 
#    y 0.000000 1.734000 0.000000 
#    z 0.000000 0.000000 1.738400 
# 
# From -- ./inp_files/27422.got.cif
#   From: 2010.03.12/outbox.cif.g09.slc.cpg/sg59_14_cif.got.tgz:27422.got - 2010.04.16 16:29:54.
