data_PCOD8245421
_publ_section_title
;
Structure prediction by ZEFSAII (Michael W. Deem and Ramdas Pophale) SiO2 
 PCOD8245421
Probable space group: P M M N
;
_chemical_formula_sum "Si O2"
_cell_formula_units_Z 64
_cell_length_a 8.754767
_cell_length_b 15.424784
_cell_length_c 23.934697
_cell_angle_alpha 90.000000
_cell_angle_beta 90.000000
_cell_angle_gamma 90.000000
_cell_volume 3232.150816
_symmetry_space_group_name_H-M "P M M N"
_symmetry_group_IT_number 59
_space_group.IT_coordinate_system_code '2'
_symmetry_cell_setting 'orthorhombic'
loop_
_space_group_symop_operation_xyz
x,y,z
1/2-x,1/2-y,z
1/2+x,-y,-z
-x,1/2+y,-z
-x,-y,-z
1/2+x,1/2+y,-z
1/2-x,y,z
x,1/2-y,z
loop_
_atom_site_type_symbol
_atom_site_label
_atom_site_fract_x
_atom_site_fract_y
_atom_site_fract_z
Si Si1 0.425941 0.846745 0.138254
Si Si2 0.070720 0.414185 0.755391
Si Si3 0.070378 0.497208 0.060655
Si Si4 0.429156 0.399743 0.243298
Si Si5 0.574949 0.347544 0.131973
Si Si6 0.568857 0.845420 0.363749
Si Si7 0.574358 0.348141 0.357752
Si Si8 0.930661 0.000709 0.439211
O O1 0.250000 0.865131 0.154347
O O2 0.445146 0.750000 0.113044
O O3 0.530086 0.851950 0.193345
O O4 0.484422 0.916741 0.093347
O O5 0.250000 0.435898 0.754243
O O6 0.016850 0.367702 0.698825
O O7 0.974588 0.500842 0.762299
O O8 0.250000 0.496126 0.054325
O O9 0.020497 0.411316 0.093058
O O10 0.000000 0.500000 0.000000
O O11 0.250000 0.389299 0.234641
O O12 0.513680 0.346577 0.195106
O O13 0.474218 0.361044 0.302923
O O14 0.750000 0.378557 0.131926
O O15 0.559909 0.250000 0.108139
O O16 0.750000 0.845617 0.366715
O O17 0.504955 0.750000 0.379799
O O18 0.503539 0.917045 0.406350
O O19 0.750000 0.369108 0.342360
O O20 0.555018 0.250000 0.379851
O O21 0.517467 0.412647 0.406421
O O22 0.750000 0.996725 0.444269
O O23 0.000000 0.000000 0.500000
#
# Coordination Sequence:
#
# PCOD8245421 Si02
#       8
#     8   8   8   8   8   8   8   8
#     4  10  22  40  61  89 125 160 195 242 303 360
#     4  11  20  35  61  89 119 155 197 240 291 357
#     4  11  24  42  64  90 123 165 207 254 302 351
#     4  12  23  36  59  91 125 157 192 241 302 362
#     4  11  24  42  65  92 123 161 203 250 305 361
#     4   9  18  34  57  84 113 146 186 234 286 341
#     4  10  21  39  61  84 114 154 197 240 290 351
#     4  10  21  38  57  81 112 150 194 240 289 343
#
# _framework density 19.801055000000002
#
# number of rings (size 3 to 8) (size 9 to 14) (size 15 to 20)
#    0.000    1.500    2.500    3.000    0.000    5.500 
#    0.000    1.250    0.000    1.500    0.000    0.000 
#    0.000    0.000    0.000    0.000    0.000    0.000 
#
# Total GULP energy -793789.089047 kJ/mol
# GULP energy per Si atom -12402.954516 kJ/mol
# Density = 1.975599 g / cm^3
# Si number density = 19.801055 Si / 1000 Ang^3
#
#
#
# Elastic Constant Matrix: (Units=GPa)
#
#
# Indices 1 2 3 4 5 6 
#
# 1 48.6406 26.8795 32.2843 0.0000 0.0000 0.0000
# 2 26.8795 148.6756 66.2343 0.0000 0.0000 0.0000
# 3 32.2843 66.2343 155.8817 0.0000 0.0000 0.0000
# 4 0.0000 0.0000 0.0000 14.7467 0.0000 0.0000
# 5 0.0000 0.0000 0.0000 0.0000 35.6342 0.0000
# 6 0.0000 0.0000 0.0000 0.0000 0.0000 25.1104
#
#
#
# Elastic Compliance Matrix: (Units=1/GPa)
#
#
# Indices 1 2 3 4 5 6 
#
# 1 0.024681 -0.002695 -0.003966 0.000000 0.000000 0.000000
# 2 -0.002695 0.008591 -0.003092 0.000000 0.000000 0.000000
# 3 -0.003966 -0.003092 0.008550 0.000000 0.000000 0.000000
# 4 0.000000 0.000000 0.000000 0.067812 0.000000 0.000000
# 5 0.000000 0.000000 0.000000 0.000000 0.028063 0.000000
# 6 0.000000 0.000000 0.000000 0.000000 0.000000 0.039824
#
#
# Mechanical properties :
#
#
# Convention : Reuss Voigt Hill
#
# Bulk Modulus (GPa) = 44.81304 67.11047 55.96175
# Shear Modulus (GPa) = 24.45387 30.28491 27.36939
#
# Velocity S-wave (km/s) = 3.51804 3.91507 3.72185
# Velocity P-wave (km/s) = 6.25962 7.37584 6.84054
#
# Compressibility (1/GPa) = 0.02231493
#
# Stress axis : x y z
#
# Youngs Moduli (GPa) = 40.51703 116.40343 116.95326
#
# Poissons Ratio (x) = 0.31372 0.46389
# Poissons Ratio (y) = 0.10920 0.36163
# Poissons Ratio (z) = 0.16071 0.35993
#
# Static dielectric constant tensor:
#      x y z
#    x 3.460100 0.000000 0.000000 
#    y 0.000000 3.893830 0.000000 
#    z 0.000000 0.000000 3.573020 
# 
# 
# High freq. dielectric constant tensor:
#      x y z
#    x 1.758940 0.000000 0.000000 
#    y 0.000000 1.790160 0.000000 
#    z 0.000000 0.000000 1.767050 
# 
# From -- ./inp_files/31443.got.cif
#   From: 2010.03.12/outbox.cif.g09.slc.cpg/sg59_16_cif.got.tgz:31443.got - 2010.04.16 16:29:54.
