data_PCOD8245223
_publ_section_title
;
Structure prediction by ZEFSAII (Michael W. Deem and Ramdas Pophale) SiO2 
 PCOD8245223
Probable space group: P M M N
;
_chemical_formula_sum "Si O2"
_cell_formula_units_Z 64
_cell_length_a 8.993862
_cell_length_b 18.718648
_cell_length_c 20.300536
_cell_angle_alpha 90.000000
_cell_angle_beta 90.000000
_cell_angle_gamma 90.000000
_cell_volume 3417.654857
_symmetry_space_group_name_H-M "P M M N"
_symmetry_group_IT_number 59
_space_group.IT_coordinate_system_code '2'
_symmetry_cell_setting 'orthorhombic'
loop_
_space_group_symop_operation_xyz
x,y,z
1/2-x,1/2-y,z
1/2+x,-y,-z
-x,1/2+y,-z
-x,-y,-z
1/2+x,1/2+y,-z
1/2-x,y,z
x,1/2-y,z
loop_
_atom_site_type_symbol
_atom_site_label
_atom_site_fract_x
_atom_site_fract_y
_atom_site_fract_z
Si Si1 0.585439 0.665189 0.917444
Si Si2 0.578641 0.592983 0.305459
Si Si3 0.078690 0.929716 0.666176
Si Si4 0.922367 0.666335 0.770661
Si Si5 0.573287 0.570968 0.528683
Si Si6 0.576971 0.166645 0.574304
Si Si7 0.924184 0.668760 0.172823
Si Si8 0.916001 0.164823 0.956960
O O1 0.750000 0.633866 0.928033
O O2 0.591163 0.750000 0.922433
O O3 0.527392 0.644257 0.844689
O O4 0.483256 0.633027 0.975320
O O5 0.750000 0.614341 0.319679
O O6 0.556570 0.508548 0.305338
O O7 0.473825 0.627513 0.359776
O O8 0.525525 0.621555 0.234747
O O9 0.250000 0.916026 0.646627
O O10 0.030106 0.874488 0.721561
O O11 0.974679 0.917388 0.603457
O O12 0.750000 0.645746 0.759065
O O13 0.945547 0.750000 0.758786
O O14 0.500000 0.500000 0.500000
O O15 0.750000 0.564194 0.523346
O O16 0.518019 0.638705 0.487226
O O17 0.750000 0.150052 0.562121
O O18 0.545546 0.250000 0.582106
O O19 0.750000 0.665259 0.161478
O O20 0.976972 0.750000 0.185735
O O21 0.997582 0.636374 0.107102
O O22 0.750000 0.135825 0.951782
O O23 0.923577 0.250000 0.958819
#
# Coordination Sequence:
#
# PCOD8245223 Si02
#       8
#     8   8   8   8   8   8   8   8
#     4   8  14  27  48  72 100 136 178 223 272 330
#     4  10  21  37  57  80 110 150 190 228 274 332
#     4  11  23  38  59  86 114 147 184 226 276 332
#     4   9  19  36  57  82 111 144 184 230 281 336
#     4  12  24  41  64  86 112 148 188 230 278 333
#     4  11  24  40  61  90 119 148 186 232 280 330
#     4   9  17  30  49  73 103 141 184 226 269 322
#     4   9  16  25  41  70 105 138 174 220 276 329
#
# _framework density 18.726292000000001
#
# number of rings (size 3 to 8) (size 9 to 14) (size 15 to 20)
#    0.000    2.125    1.250    3.375    0.000    5.250 
#    0.000    2.500    0.000    0.750    0.000    0.000 
#    0.000    0.000    0.000    0.000    0.000    0.000 
#
# Total GULP energy -793646.503463 kJ/mol
# GULP energy per Si atom -12400.726617 kJ/mol
# Density = 1.868367 g / cm^3
# Si number density = 18.726292 Si / 1000 Ang^3
#
#
#
# Elastic Constant Matrix: (Units=GPa)
#
#
# Indices 1 2 3 4 5 6 
#
# 1 100.4015 35.4855 58.4569 0.0000 0.0000 0.0000
# 2 35.4855 57.5977 38.8415 0.0000 0.0000 0.0000
# 3 58.4569 38.8415 148.5270 0.0000 0.0000 0.0000
# 4 0.0000 0.0000 0.0000 7.2901 0.0000 0.0000
# 5 0.0000 0.0000 0.0000 0.0000 34.6246 0.0000
# 6 0.0000 0.0000 0.0000 0.0000 0.0000 16.6505
#
#
#
# Elastic Compliance Matrix: (Units=1/GPa)
#
#
# Indices 1 2 3 4 5 6 
#
# 1 0.014536 -0.006189 -0.004103 0.000000 0.000000 0.000000
# 2 -0.006189 0.023714 -0.003766 0.000000 0.000000 0.000000
# 3 -0.004103 -0.003766 0.009332 0.000000 0.000000 0.000000
# 4 0.000000 0.000000 0.000000 0.137171 0.000000 0.000000
# 5 0.000000 0.000000 0.000000 0.000000 0.028881 0.000000
# 6 0.000000 0.000000 0.000000 0.000000 0.000000 0.060058
#
#
# Mechanical properties :
#
#
# Convention : Reuss Voigt Hill
#
# Bulk Modulus (GPa) = 51.36627 63.56601 57.46614
# Shear Modulus (GPa) = 16.21811 23.29586 19.75698
#
# Velocity S-wave (km/s) = 2.94608 3.53089 3.25166
# Velocity P-wave (km/s) = 6.24997 7.11628 6.69715
#
# Compressibility (1/GPa) = 0.01946803
#
# Stress axis : x y z
#
# Youngs Moduli (GPa) = 68.79443 42.16884 107.15533
#
# Poissons Ratio (x) = 0.26098 0.43961
# Poissons Ratio (y) = 0.42576 0.40351
# Poissons Ratio (z) = 0.28224 0.15880
#
# Static dielectric constant tensor:
#      x y z
#    x 3.569940 0.000000 0.000000 
#    y 0.000000 3.198970 0.000000 
#    z 0.000000 0.000000 3.701800 
# 
# 
# High freq. dielectric constant tensor:
#      x y z
#    x 1.730540 0.000000 0.000000 
#    y 0.000000 1.694960 0.000000 
#    z 0.000000 0.000000 1.743310 
# 
# From -- ./inp_files/29462.got.cif
#   From: 2010.03.12/outbox.cif.g09.slc.cpg/sg59_15_cif.got.tgz:29462.got - 2010.04.16 16:29:54.
