data_PCOD8245889
_publ_section_title
;
Structure prediction by ZEFSAII (Michael W. Deem and Ramdas Pophale) SiO2 
 PCOD8245889
Probable space group: P M M N
;
_chemical_formula_sum "Si O2"
_cell_formula_units_Z 64
_cell_length_a 31.029884
_cell_length_b 8.960727
_cell_length_c 11.933094
_cell_angle_alpha 90.000000
_cell_angle_beta 90.000000
_cell_angle_gamma 90.000000
_cell_volume 3318.000598
_symmetry_space_group_name_H-M "P M M N"
_symmetry_group_IT_number 59
_space_group.IT_coordinate_system_code '2'
_symmetry_cell_setting 'orthorhombic'
loop_
_space_group_symop_operation_xyz
x,y,z
1/2-x,1/2-y,z
1/2+x,-y,-z
-x,1/2+y,-z
-x,-y,-z
1/2+x,1/2+y,-z
1/2-x,y,z
x,1/2-y,z
loop_
_atom_site_type_symbol
_atom_site_label
_atom_site_fract_x
_atom_site_fract_y
_atom_site_fract_z
Si Si1 0.869386 0.578792 0.393945
Si Si2 0.943822 0.421063 0.258823
Si Si3 0.624049 0.578526 0.882355
Si Si4 0.046452 0.577321 0.995388
Si Si5 0.601498 0.581729 0.636436
Si Si6 0.299006 0.575033 0.991070
Si Si7 0.200185 0.582048 0.734864
Si Si8 0.514733 0.424446 0.613773
O O1 0.878670 0.750000 0.363758
O O2 0.905032 0.479038 0.334088
O O3 0.869077 0.552385 0.527554
O O4 0.822978 0.531219 0.348719
O O5 0.952484 0.250000 0.290971
O O6 0.932895 0.438695 0.128076
O O7 0.986790 0.514594 0.283118
O O8 0.619747 0.750000 0.918955
O O9 0.629541 0.561186 0.748451
O O10 0.667522 0.512767 0.933139
O O11 0.580372 0.496340 0.920087
O O12 0.040482 0.750000 0.028474
O O13 0.000000 0.500000 0.000000
O O14 0.582081 0.750000 0.631651
O O15 0.563916 0.460778 0.638647
O O16 0.250000 0.531244 0.024416
O O17 0.306271 0.750000 0.008636
O O18 0.307670 0.531310 0.862406
O O19 0.250000 0.576272 0.704183
O O20 0.182303 0.750000 0.718194
O O21 0.500000 0.500000 0.500000
O O22 0.507633 0.250000 0.602513
#
# Coordination Sequence:
#
# PCOD8245889 Si02
#       8
#     8   8   8   8   8   8   8   8
#     4  11  22  36  57  83 111 145 186 231 279 333
#     4  11  23  38  57  82 113 147 186 234 285 334
#     4  11  23  39  60  85 117 156 197 244 297 351
#     4  11  24  40  58  83 117 154 193 241 293 348
#     4  10  23  41  56  78 115 155 194 237 284 335
#     4   9  19  38  63  89 117 150 189 236 293 355
#     4   9  19  37  60  85 115 147 178 224 286 344
#     4  12  23  36  57  83 111 148 193 238 283 334
#
# _framework density 19.288724999999999
#
# number of rings (size 3 to 8) (size 9 to 14) (size 15 to 20)
#    0.000    1.500    1.250    4.875    0.000   10.500 
#    0.000    1.875    0.000    3.750    0.000    0.000 
#    0.000    0.000    0.000    0.000    0.000    0.000 
#
# Total GULP energy -793807.144758 kJ/mol
# GULP energy per Si atom -12403.236637 kJ/mol
# Density = 1.924482 g / cm^3
# Si number density = 19.288725 Si / 1000 Ang^3
#
#
#
# Elastic Constant Matrix: (Units=GPa)
#
#
# Indices 1 2 3 4 5 6 
#
# 1 108.2898 55.5846 57.1254 0.0000 0.0000 0.0000
# 2 55.5846 127.8823 59.7032 0.0000 0.0000 0.0000
# 3 57.1254 59.7032 116.4275 0.0000 0.0000 0.0000
# 4 0.0000 0.0000 0.0000 29.4350 0.0000 0.0000
# 5 0.0000 0.0000 0.0000 0.0000 33.2217 0.0000
# 6 0.0000 0.0000 0.0000 0.0000 0.0000 38.3640
#
#
#
# Elastic Compliance Matrix: (Units=1/GPa)
#
#
# Indices 1 2 3 4 5 6 
#
# 1 0.013670 -0.003695 -0.004812 0.000000 0.000000 0.000000
# 2 -0.003695 0.011280 -0.003971 0.000000 0.000000 0.000000
# 3 -0.004812 -0.003971 0.012987 0.000000 0.000000 0.000000
# 4 0.000000 0.000000 0.000000 0.033973 0.000000 0.000000
# 5 0.000000 0.000000 0.000000 0.000000 0.030101 0.000000
# 6 0.000000 0.000000 0.000000 0.000000 0.000000 0.026066
#
#
# Mechanical properties :
#
#
# Convention : Reuss Voigt Hill
#
# Bulk Modulus (GPa) = 77.04714 77.49180 77.26947
# Shear Modulus (GPa) = 31.77440 32.21657 31.99549
#
# Velocity S-wave (km/s) = 4.06310 4.09128 4.07721
# Velocity P-wave (km/s) = 7.87671 7.91075 7.89375
#
# Compressibility (1/GPa) = 0.01297907
#
# Stress axis : x y z
#
# Youngs Moduli (GPa) = 73.15469 88.65478 77.00219
#
# Poissons Ratio (x) = 0.32757 0.37056
# Poissons Ratio (y) = 0.27030 0.30579
# Poissons Ratio (z) = 0.35204 0.35207
#
# Static dielectric constant tensor:
#      x y z
#    x 3.432220 0.000000 0.000000 
#    y 0.000000 3.726620 0.000000 
#    z 0.000000 0.000000 3.781750 
# 
# 
# High freq. dielectric constant tensor:
#      x y z
#    x 1.742180 0.000000 0.000000 
#    y 0.000000 1.759620 0.000000 
#    z 0.000000 0.000000 1.755840 
# 
# From -- ./inp_files/19235.got.cif
#   From: 2010.03.12/outbox.cif.g09.slc.cpg/sg59_10_cif.got.tgz:19235.got - 2010.04.16 16:29:54.
