data_PCOD8245588
_publ_section_title
;
Structure prediction by ZEFSAII (Michael W. Deem and Ramdas Pophale) SiO2 
 PCOD8245588
Probable space group: P M M N
;
_chemical_formula_sum "Si O2"
_cell_formula_units_Z 56
_cell_length_a 22.921999
_cell_length_b 8.930509
_cell_length_c 13.682337
_cell_angle_alpha 90.000000
_cell_angle_beta 90.000000
_cell_angle_gamma 90.000000
_cell_volume 2800.844415
_symmetry_space_group_name_H-M "P M M N"
_symmetry_group_IT_number 59
_space_group.IT_coordinate_system_code '2'
_symmetry_cell_setting 'orthorhombic'
loop_
_space_group_symop_operation_xyz
x,y,z
1/2-x,1/2-y,z
1/2+x,-y,-z
-x,1/2+y,-z
-x,-y,-z
1/2+x,1/2+y,-z
1/2-x,y,z
x,1/2-y,z
loop_
_atom_site_type_symbol
_atom_site_label
_atom_site_fract_x
_atom_site_fract_y
_atom_site_fract_z
Si Si1 0.156838 0.925112 0.355088
Si Si2 0.536118 0.075599 0.732028
Si Si3 0.683985 0.576543 0.443186
Si Si4 0.907061 0.926794 0.284854
Si Si5 0.354168 0.082033 0.918409
Si Si6 0.250000 0.428394 0.218721
Si Si7 0.455023 0.416478 0.067354
Si Si8 0.250000 0.575867 0.008696
O O1 0.170666 0.750000 0.345000
O O2 0.087351 0.956973 0.345763
O O3 0.177707 0.981560 0.459272
O O4 0.191902 0.010362 0.270590
O O5 0.530216 0.250000 0.755774
O O6 0.473194 0.015576 0.693152
O O7 0.554841 0.998211 0.831386
O O8 0.750000 0.558673 0.402822
O O9 0.670601 0.750000 0.466926
O O10 0.638901 0.508638 0.363645
O O11 0.904613 0.750000 0.292519
O O12 0.889693 0.977868 0.175785
O O13 0.329357 0.250000 0.897786
O O14 0.393623 0.088048 0.013796
O O15 0.304344 0.963064 0.940163
O O16 0.250000 0.250000 0.224558
O O17 0.250000 0.477432 0.106379
O O18 0.478704 0.250000 0.087123
O O19 0.500000 0.500000 0.000000
O O20 0.250000 0.750000 0.036725
#
# Coordination Sequence:
#
# PCOD8245588 Si02
#       8
#     8   8   8   8   8   4   8   4
#     4  11  23  39  64  92 122 154 191 248 314 362
#     4  10  21  39  60  88 122 160 199 243 298 356
#     4  10  21  38  63  90 115 155 204 247 293 354
#     4   9  19  38  62  87 119 159 206 248 286 347
#     4  10  21  39  62  86 117 162 208 245 289 351
#     4  12  24  42  65  88 117 154 205 250 294 362
#     4  11  21  35  59  88 120 159 200 242 292 351
#     4  12  26  40  57  88 127 158 193 248 308 350
#
# _framework density 19.993970000000001
#
# number of rings (size 3 to 8) (size 9 to 14) (size 15 to 20)
#    0.000    1.571    2.143    3.000    1.000    5.143 
#    0.000    1.429    0.000    0.000    0.000    0.000 
#    0.000    0.000    0.000    0.000    0.000    0.000 
#
# Total GULP energy -694436.229577 kJ/mol
# GULP energy per Si atom -12400.646957 kJ/mol
# Density = 1.994846 g / cm^3
# Si number density = 19.993970 Si / 1000 Ang^3
#
#
#
# Elastic Constant Matrix: (Units=GPa)
#
#
# Indices 1 2 3 4 5 6 
#
# 1 141.7146 44.2269 43.7634 0.0000 0.0000 0.0000
# 2 44.2269 80.6414 21.0723 0.0000 0.0000 0.0000
# 3 43.7634 21.0723 68.1169 0.0000 0.0000 0.0000
# 4 0.0000 0.0000 0.0000 26.2040 0.0000 0.0000
# 5 0.0000 0.0000 0.0000 0.0000 37.1367 0.0000
# 6 0.0000 0.0000 0.0000 0.0000 0.0000 25.9679
#
#
#
# Elastic Compliance Matrix: (Units=1/GPa)
#
#
# Indices 1 2 3 4 5 6 
#
# 1 0.009912 -0.004104 -0.005098 0.000000 0.000000 0.000000
# 2 -0.004104 0.015190 -0.002063 0.000000 0.000000 0.000000
# 3 -0.005098 -0.002063 0.018594 0.000000 0.000000 0.000000
# 4 0.000000 0.000000 0.000000 0.038162 0.000000 0.000000
# 5 0.000000 0.000000 0.000000 0.000000 0.026928 0.000000
# 6 0.000000 0.000000 0.000000 0.000000 0.000000 0.038509
#
#
# Mechanical properties :
#
#
# Convention : Reuss Voigt Hill
#
# Bulk Modulus (GPa) = 47.24428 56.51090 51.87759
# Shear Modulus (GPa) = 28.26777 29.95574 29.11176
#
# Velocity S-wave (km/s) = 3.76415 3.87491 3.81993
# Velocity P-wave (km/s) = 6.52475 6.95307 6.74231
#
# Compressibility (1/GPa) = 0.02116658
#
# Stress axis : x y z
#
# Youngs Moduli (GPa) = 100.89196 65.83210 53.77974
#
# Poissons Ratio (x) = 0.27015 0.27419
# Poissons Ratio (y) = 0.41402 0.11093
# Poissons Ratio (z) = 0.51439 0.13579
#
# Static dielectric constant tensor:
#      x y z
#    x 3.989330 0.000000 0.000000 
#    y 0.000000 3.552000 0.000000 
#    z 0.000000 0.000000 3.551770 
# 
# 
# High freq. dielectric constant tensor:
#      x y z
#    x 1.795990 0.000000 0.000000 
#    y 0.000000 1.764380 0.000000 
#    z 0.000000 0.000000 1.775070 
# 
# From -- ./inp_files/24392.got.cif
#   From: 2010.03.12/outbox.cif.g09.slc.cpg/sg59_13_cif.got.tgz:24392.got - 2010.04.16 16:29:54.
