data_PCOD8245993
_publ_section_title
;
Structure prediction by ZEFSAII (Michael W. Deem and Ramdas Pophale) SiO2 
 PCOD8245993
Probable space group: P M M N
;
_chemical_formula_sum "Si O2"
_cell_formula_units_Z 64
_cell_length_a 24.045327
_cell_length_b 8.942333
_cell_length_c 15.180873
_cell_angle_alpha 90.000000
_cell_angle_beta 90.000000
_cell_angle_gamma 90.000000
_cell_volume 3264.211368
_symmetry_space_group_name_H-M "P M M N"
_symmetry_group_IT_number 59
_space_group.IT_coordinate_system_code '2'
_symmetry_cell_setting 'orthorhombic'
loop_
_space_group_symop_operation_xyz
x,y,z
1/2-x,1/2-y,z
1/2+x,-y,-z
-x,1/2+y,-z
-x,-y,-z
1/2+x,1/2+y,-z
1/2-x,y,z
x,1/2-y,z
loop_
_atom_site_type_symbol
_atom_site_label
_atom_site_fract_x
_atom_site_fract_y
_atom_site_fract_z
Si Si1 0.187842 0.927964 0.016449
Si Si2 0.112257 0.574752 0.169857
Si Si3 0.185781 0.421830 0.698634
Si Si4 0.004578 0.071609 0.904481
Si Si5 0.631341 0.421335 0.450718
Si Si6 0.383361 0.572693 0.848815
Si Si7 0.591726 0.075222 0.640411
Si Si8 0.989908 0.420264 0.409311
O O1 0.250000 0.995449 0.010739
O O2 0.190899 0.750000 0.019143
O O3 0.158283 0.995050 0.104248
O O4 0.152486 0.980785 0.932629
O O5 0.113147 0.750000 0.153576
O O6 0.127662 0.537612 0.271994
O O7 0.050399 0.518522 0.147488
O O8 0.250000 0.442001 0.723429
O O9 0.167229 0.250000 0.706994
O O10 0.176980 0.477077 0.597734
O O11 0.149501 0.524828 0.762090
O O12 0.009494 0.250000 0.912264
O O13 0.057106 0.007202 0.851511
O O14 0.000000 0.000000 0.000000
O O15 0.651923 0.250000 0.455192
O O16 0.621606 0.482637 0.550879
O O17 0.575706 0.433576 0.389669
O O18 0.392449 0.750000 0.847759
O O19 0.580673 0.250000 0.629536
O O20 0.531117 0.001324 0.659031
O O21 0.008730 0.250000 0.416166
O O22 0.000000 0.500000 0.500000
#
# Coordination Sequence:
#
# PCOD8245993 Si02
#       8
#     8   8   8   8   8   8   8   8
#     4   9  17  32  56  83 110 145 188 231 277 332
#     4   9  18  33  53  82 118 150 187 234 283 339
#     4  11  25  42  59  82 112 150 197 244 294 354
#     4  11  21  36  57  86 122 159 195 237 292 352
#     4   9  19  35  54  79 109 141 185 235 283 336
#     4  11  22  38  60  87 117 150 192 242 295 353
#     4   9  18  33  54  80 112 147 183 228 280 333
#     4   9  17  30  49  76 106 137 177 223 270 328
#
# _framework density 19.606572
#
# number of rings (size 3 to 8) (size 9 to 14) (size 15 to 20)
#    0.000    2.250    1.250    2.625    1.750    4.000 
#    0.000    1.250    0.000    2.250    0.000    0.000 
#    0.000    0.000    0.000    0.000    0.000    0.000 
#
# Total GULP energy -793244.335532 kJ/mol
# GULP energy per Si atom -12394.442743 kJ/mol
# Density = 1.956195 g / cm^3
# Si number density = 19.606572 Si / 1000 Ang^3
#
#
#
# Elastic Constant Matrix: (Units=GPa)
#
#
# Indices 1 2 3 4 5 6 
#
# 1 93.9930 20.5337 38.0979 0.0000 0.0000 0.0000
# 2 20.5337 55.4304 21.1035 0.0000 0.0000 0.0000
# 3 38.0979 21.1035 110.9814 0.0000 0.0000 0.0000
# 4 0.0000 0.0000 0.0000 21.7262 0.0000 0.0000
# 5 0.0000 0.0000 0.0000 0.0000 27.3778 0.0000
# 6 0.0000 0.0000 0.0000 0.0000 0.0000 25.3298
#
#
#
# Elastic Compliance Matrix: (Units=1/GPa)
#
#
# Indices 1 2 3 4 5 6 
#
# 1 0.012907 -0.003336 -0.003796 0.000000 0.000000 0.000000
# 2 -0.003336 0.020311 -0.002717 0.000000 0.000000 0.000000
# 3 -0.003796 -0.002717 0.010830 0.000000 0.000000 0.000000
# 4 0.000000 0.000000 0.000000 0.046027 0.000000 0.000000
# 5 0.000000 0.000000 0.000000 0.000000 0.036526 0.000000
# 6 0.000000 0.000000 0.000000 0.000000 0.000000 0.039479
#
#
# Mechanical properties :
#
#
# Convention : Reuss Voigt Hill
#
# Bulk Modulus (GPa) = 41.06865 46.65279 43.86072
# Shear Modulus (GPa) = 25.78714 26.93139 26.35926
#
# Velocity S-wave (km/s) = 3.63054 3.71022 3.67060
# Velocity P-wave (km/s) = 6.21018 6.49618 6.35479
#
# Compressibility (1/GPa) = 0.02434947
#
# Stress axis : x y z
#
# Youngs Moduli (GPa) = 77.47990 49.23484 92.33292
#
# Poissons Ratio (x) = 0.16424 0.35052
# Poissons Ratio (y) = 0.25846 0.25087
# Poissons Ratio (z) = 0.29414 0.13377
#
# Static dielectric constant tensor:
#      x y z
#    x 3.917210 0.000000 0.000000 
#    y 0.000000 3.533330 0.000000 
#    z 0.000000 0.000000 3.670520 
# 
# 
# High freq. dielectric constant tensor:
#      x y z
#    x 1.753230 0.000000 0.000000 
#    y 0.000000 1.739570 0.000000 
#    z 0.000000 0.000000 1.771020 
# 
# From -- ./inp_files/24663.got.cif
#   From: 2010.03.12/outbox.cif.g09.slc.cpg/sg59_13_cif.got.tgz:24663.got - 2010.04.16 16:29:54.
