data_PCOD8245037
_publ_section_title
;
Structure prediction by ZEFSAII (Michael W. Deem and Ramdas Pophale) SiO2 
 PCOD8245037
Probable space group: P M M N
;
_chemical_formula_sum "Si O2"
_cell_formula_units_Z 64
_cell_length_a 8.983924
_cell_length_b 14.376002
_cell_length_c 26.108149
_cell_angle_alpha 90.000000
_cell_angle_beta 90.000000
_cell_angle_gamma 90.000000
_cell_volume 3371.943402
_symmetry_space_group_name_H-M "P M M N"
_symmetry_group_IT_number 59
_space_group.IT_coordinate_system_code '2'
_symmetry_cell_setting 'orthorhombic'
loop_
_space_group_symop_operation_xyz
x,y,z
1/2-x,1/2-y,z
1/2+x,-y,-z
-x,1/2+y,-z
-x,-y,-z
1/2+x,1/2+y,-z
1/2-x,y,z
x,1/2-y,z
loop_
_atom_site_type_symbol
_atom_site_label
_atom_site_fract_x
_atom_site_fract_y
_atom_site_fract_z
Si Si1 0.925968 0.490897 0.945335
Si Si2 0.077593 0.002792 0.420353
Si Si3 0.421801 0.642409 0.507868
Si Si4 0.080259 0.859855 0.233323
Si Si5 0.923891 0.354481 0.237463
Si Si6 0.075860 0.145103 0.134612
Si Si7 0.574804 0.515293 0.312676
Si Si8 0.579830 0.859929 0.130460
O O1 0.750000 0.480574 0.951365
O O2 0.971751 0.581831 0.913010
O O3 0.990269 0.400273 0.917498
O O4 0.000000 0.500000 0.000000
O O5 0.250000 0.015128 0.406247
O O6 0.050739 0.911466 0.454805
O O7 0.981575 0.988113 0.370121
O O8 0.022871 0.096327 0.448425
O O9 0.250000 0.633598 0.524735
O O10 0.468239 0.750000 0.500689
O O11 0.250000 0.894156 0.229044
O O12 0.070625 0.750000 0.238282
O O13 0.004564 0.900261 0.283869
O O14 0.993587 0.895543 0.183131
O O15 0.750000 0.356791 0.227091
O O16 0.979351 0.250000 0.250054
O O17 0.968421 0.418619 0.285188
O O18 0.000521 0.393229 0.186194
O O19 0.250000 0.140689 0.144036
O O20 0.021997 0.250000 0.122600
O O21 0.750000 0.533284 0.312233
O O22 0.750000 0.894269 0.129380
O O23 0.568586 0.750000 0.125844
#
# Coordination Sequence:
#
# PCOD8245037 Si02
#       8
#     8   8   8   8   8   8   8   8
#     4  11  23  37  55  80 109 141 179 224 275 330
#     4  10  21  36  55  83 114 143 182 229 276 326
#     4   9  19  38  61  80 104 143 186 228 277 330
#     4  10  21  37  57  81 110 145 184 226 274 328
#     4   9  19  35  54  77 105 139 178 216 258 313
#     4   9  19  36  56  77 103 136 173 215 265 319
#     4  11  22  35  54  81 115 151 183 222 271 322
#     4  10  21  38  59  81 108 143 182 226 276 331
#
# _framework density 18.980152
#
# number of rings (size 3 to 8) (size 9 to 14) (size 15 to 20)
#    0.000    2.125    0.000    2.625    0.000    7.750 
#    0.000    3.750    0.000    0.000    0.000    0.000 
#    0.000    0.000    0.000    0.000    0.000    0.000 
#
# Total GULP energy -793852.613992 kJ/mol
# GULP energy per Si atom -12403.947094 kJ/mol
# Density = 1.893695 g / cm^3
# Si number density = 18.980152 Si / 1000 Ang^3
#
#
#
# Elastic Constant Matrix: (Units=GPa)
#
#
# Indices 1 2 3 4 5 6 
#
# 1 94.7055 44.9109 55.5826 0.0000 0.0000 0.0000
# 2 44.9109 79.6961 45.2700 0.0000 0.0000 0.0000
# 3 55.5826 45.2700 126.9845 0.0000 0.0000 0.0000
# 4 0.0000 0.0000 0.0000 20.0812 0.0000 0.0000
# 5 0.0000 0.0000 0.0000 0.0000 41.0147 0.0000
# 6 0.0000 0.0000 0.0000 0.0000 0.0000 28.9275
#
#
#
# Elastic Compliance Matrix: (Units=1/GPa)
#
#
# Indices 1 2 3 4 5 6 
#
# 1 0.016538 -0.006530 -0.004911 0.000000 0.000000 0.000000
# 2 -0.006530 0.018312 -0.003670 0.000000 0.000000 0.000000
# 3 -0.004911 -0.003670 0.011333 0.000000 0.000000 0.000000
# 4 0.000000 0.000000 0.000000 0.049798 0.000000 0.000000
# 5 0.000000 0.000000 0.000000 0.000000 0.024381 0.000000
# 6 0.000000 0.000000 0.000000 0.000000 0.000000 0.034569
#
#
# Mechanical properties :
#
#
# Convention : Reuss Voigt Hill
#
# Bulk Modulus (GPa) = 62.65220 65.87923 64.26572
# Shear Modulus (GPa) = 26.25033 28.37950 27.31492
#
# Velocity S-wave (km/s) = 3.72296 3.87100 3.79770
# Velocity P-wave (km/s) = 7.18064 7.40030 7.29130
#
# Compressibility (1/GPa) = 0.01596113
#
# Stress axis : x y z
#
# Youngs Moduli (GPa) = 60.46728 54.60833 88.23867
#
# Poissons Ratio (x) = 0.35659 0.43333
# Poissons Ratio (y) = 0.39485 0.32384
# Poissons Ratio (z) = 0.29695 0.20042
#
# Static dielectric constant tensor:
#      x y z
#    x 3.607480 0.000000 0.000000 
#    y 0.000000 3.621800 0.000000 
#    z 0.000000 0.000000 3.479910 
# 
# 
# High freq. dielectric constant tensor:
#      x y z
#    x 1.746360 0.000000 0.000000 
#    y 0.000000 1.744770 0.000000 
#    z 0.000000 0.000000 1.734920 
# 
# From -- ./inp_files/31526.got.cif
#   From: 2010.03.12/outbox.cif.g09.slc.cpg/sg59_16_cif.got.tgz:31526.got - 2010.04.16 16:29:54.
