data_PCOD8245904
_publ_section_title
;
Structure prediction by ZEFSAII (Michael W. Deem and Ramdas Pophale) SiO2 
 PCOD8245904
Probable space group: P M M N
;
_chemical_formula_sum "Si O2"
_cell_formula_units_Z 48
_cell_length_a 26.896883
_cell_length_b 14.060959
_cell_length_c 5.503360
_cell_angle_alpha 90.000000
_cell_angle_beta 90.000000
_cell_angle_gamma 90.000000
_cell_volume 2081.348568
_symmetry_space_group_name_H-M "P M M N"
_symmetry_group_IT_number 59
_space_group.IT_coordinate_system_code '2'
_symmetry_cell_setting 'orthorhombic'
loop_
_space_group_symop_operation_xyz
x,y,z
1/2-x,1/2-y,z
1/2+x,-y,-z
-x,1/2+y,-z
-x,-y,-z
1/2+x,1/2+y,-z
1/2-x,y,z
x,1/2-y,z
loop_
_atom_site_type_symbol
_atom_site_label
_atom_site_fract_x
_atom_site_fract_y
_atom_site_fract_z
Si Si1 0.694463 0.640712 0.331027
Si Si2 0.038718 0.352107 0.091726
Si Si3 0.986988 0.395208 0.575184
Si Si4 0.194503 0.537994 0.355400
Si Si5 0.122382 0.017136 0.971899
Si Si6 0.387467 0.858466 0.618867
O O1 0.750000 0.633040 0.209492
O O2 0.683828 0.750000 0.408145
O O3 0.693988 0.572620 0.565523
O O4 0.650006 0.604058 0.162720
O O5 0.064783 0.250000 0.050331
O O6 0.009070 0.372428 0.840185
O O7 0.079757 0.434409 0.136633
O O8 0.006713 0.338142 0.337719
O O9 0.928119 0.369952 0.597167
O O10 0.000000 0.500000 0.500000
O O11 0.250000 0.576114 0.314883
O O12 0.164107 0.543087 0.108770
O O13 0.167960 0.609497 0.542519
O O14 0.094497 0.937174 0.813410
O O15 0.385179 0.750000 0.715995
#
# Coordination Sequence:
#
# PCOD8245904 Si02
#       6
#     8   8   8   8   8   8
#     4   9  19  37  61  90 127 169 215 269 334 410
#     4  12  26  43  70 106 146 186 231 285 348 422
#     4  12  25  48  70 102 142 190 234 287 347 411
#     4  10  23  43  65  94 130 171 222 284 346 404
#     4  11  23  40  64  96 131 176 219 279 343 413
#     4  11  25  44  68  94 128 174 227 282 341 411
#
# _framework density 23.061972999999998
#
# number of rings (size 3 to 8) (size 9 to 14) (size 15 to 20)
#    0.000    1.167    1.667    4.000    4.667    3.000 
#    0.000    1.667    0.000    0.000    0.000    0.000 
#    0.000    0.000    0.000    0.000    0.000    0.000 
#
# Total GULP energy -594647.752679 kJ/mol
# GULP energy per Si atom -12388.494847 kJ/mol
# Density = 2.300948 g / cm^3
# Si number density = 23.061973 Si / 1000 Ang^3
#
#
#
# Elastic Constant Matrix: (Units=GPa)
#
#
# Indices 1 2 3 4 5 6 
#
# 1 121.6686 28.6030 24.1110 0.0000 0.0000 0.0000
# 2 28.6030 147.7551 -2.8499 0.0000 0.0000 0.0000
# 3 24.1110 -2.8499 85.4623 0.0000 0.0000 0.0000
# 4 0.0000 0.0000 0.0000 -7.1584 0.0000 0.0000
# 5 0.0000 0.0000 0.0000 0.0000 32.7089 0.0000
# 6 0.0000 0.0000 0.0000 0.0000 0.0000 27.4559
#
#
#
# Elastic Compliance Matrix: (Units=1/GPa)
#
#
# Indices 1 2 3 4 5 6 
#
# 1 0.009173 -0.001827 -0.002649 0.000000 0.000000 0.000000
# 2 -0.001827 0.007136 0.000753 0.000000 0.000000 0.000000
# 3 -0.002649 0.000753 0.012474 0.000000 0.000000 0.000000
# 4 0.000000 0.000000 0.000000 -0.139697 0.000000 0.000000
# 5 0.000000 0.000000 0.000000 0.000000 0.030573 0.000000
# 6 0.000000 0.000000 0.000000 0.000000 0.000000 0.036422
#
#
# Mechanical properties :
#
#
# Convention : Reuss Voigt Hill
#
# Bulk Modulus (GPa) = 46.86451 50.51270 48.68860
# Shear Modulus (GPa) = -170.29472 30.93607 -69.67932
#
# Velocity S-wave (km/s) = -8.60247 3.66653 -5.50268
# Velocity P-wave (km/s) = 8.84900 6.31468 4.38347
#
# Compressibility (1/GPa) = 0.02133811
#
# Stress axis : x y z
#
# Youngs Moduli (GPa) = 109.00976 140.13157 80.16973
#
# Poissons Ratio (x) = 0.25601 0.21237
# Poissons Ratio (y) = 0.19915 -0.06040
# Poissons Ratio (z) = 0.28877 -0.10557
#
# Static dielectric constant tensor:
#      x y z
#    x 4.419100 0.000000 0.000000 
#    y 0.000000 4.149450 0.000000 
#    z 0.000000 0.000000 4.403940 
# 
# 
# High freq. dielectric constant tensor:
#      x y z
#    x 1.919530 0.000000 0.000000 
#    y 0.000000 1.920580 0.000000 
#    z 0.000000 0.000000 1.892040 
# 
# From -- ./inp_files/2150.got.cif
#   From: 2010.03.12/outbox.cif.g09.slc.cpg/sg59_2_cif.got.tgz:2150.got - 2010.04.16 16:29:54.
