data_PCOD8245150
_publ_section_title
;
Structure prediction by ZEFSAII (Michael W. Deem and Ramdas Pophale) SiO2 
 PCOD8245150
Probable space group: P M M N
;
_chemical_formula_sum "Si O2"
_cell_formula_units_Z 48
_cell_length_a 28.079428
_cell_length_b 9.219620
_cell_length_c 10.065398
_cell_angle_alpha 90.000000
_cell_angle_beta 90.000000
_cell_angle_gamma 90.000000
_cell_volume 2605.746902
_symmetry_space_group_name_H-M "P M M N"
_symmetry_group_IT_number 59
_space_group.IT_coordinate_system_code '2'
_symmetry_cell_setting 'orthorhombic'
loop_
_space_group_symop_operation_xyz
x,y,z
1/2-x,1/2-y,z
1/2+x,-y,-z
-x,1/2+y,-z
-x,-y,-z
1/2+x,1/2+y,-z
1/2-x,y,z
x,1/2-y,z
loop_
_atom_site_type_symbol
_atom_site_label
_atom_site_fract_x
_atom_site_fract_y
_atom_site_fract_z
Si Si1 0.049133 0.419555 0.974172
Si Si2 0.802846 0.081927 0.367385
Si Si3 0.899314 0.415083 0.254470
Si Si4 0.802376 0.917840 0.636153
Si Si5 0.100937 0.417351 0.242567
Si Si6 0.048150 0.917217 0.471897
O O1 0.038483 0.250000 0.959055
O O2 0.085616 0.452713 0.093010
O O3 0.072963 0.475754 0.839814
O O4 0.000000 0.500000 0.000000
O O5 0.750000 0.040021 0.313471
O O6 0.805588 0.250000 0.405105
O O7 0.842728 0.046564 0.255736
O O8 0.815267 0.998719 0.501370
O O9 0.908296 0.250000 0.206120
O O10 0.916887 0.436438 0.404328
O O11 0.750000 0.965162 0.690341
O O12 0.802518 0.750000 0.599237
O O13 0.842622 0.952585 0.746033
O O14 0.090082 0.250000 0.278523
O O15 0.071551 0.517777 0.340782
O O16 0.036436 0.750000 0.444310
O O17 0.000000 0.000000 0.500000
#
# Coordination Sequence:
#
# PCOD8245150 Si02
#       6
#     8   8   8   8   8   8
#     4  11  24  40  57  78 107 148 189 228 276 329
#     4   9  17  32  55  82 112 143 176 220 272 322
#     4  10  21  37  55  80 111 143 181 224 270 325
#     4   9  17  31  54  82 110 140 174 217 271 325
#     4  10  21  37  55  79 110 141 179 225 272 324
#     4  11  22  35  54  81 108 138 180 228 277 325
#
# _framework density 18.420822000000001
#
# number of rings (size 3 to 8) (size 9 to 14) (size 15 to 20)
#    0.000    2.000    1.667    2.000    0.000    7.333 
#    0.000    0.833    0.000    1.000    0.000    0.000 
#    0.000    0.000    0.000    0.000    0.000    0.000 
#
# Total GULP energy -595157.492758 kJ/mol
# GULP energy per Si atom -12399.114432 kJ/mol
# Density = 1.837890 g / cm^3
# Si number density = 18.420822 Si / 1000 Ang^3
#
#
#
# Elastic Constant Matrix: (Units=GPa)
#
#
# Indices 1 2 3 4 5 6 
#
# 1 120.6660 41.6783 20.2479 0.0000 0.0000 0.0000
# 2 41.6783 75.2491 29.5146 0.0000 0.0000 0.0000
# 3 20.2479 29.5146 48.2998 0.0000 0.0000 0.0000
# 4 0.0000 0.0000 0.0000 29.0961 0.0000 0.0000
# 5 0.0000 0.0000 0.0000 0.0000 30.3717 0.0000
# 6 0.0000 0.0000 0.0000 0.0000 0.0000 27.6648
#
#
#
# Elastic Compliance Matrix: (Units=1/GPa)
#
#
# Indices 1 2 3 4 5 6 
#
# 1 0.010292 -0.005271 -0.001093 0.000000 0.000000 0.000000
# 2 -0.005271 0.020178 -0.010121 0.000000 0.000000 0.000000
# 3 -0.001093 -0.010121 0.027347 0.000000 0.000000 0.000000
# 4 0.000000 0.000000 0.000000 0.034369 0.000000 0.000000
# 5 0.000000 0.000000 0.000000 0.000000 0.032925 0.000000
# 6 0.000000 0.000000 0.000000 0.000000 0.000000 0.036147
#
#
# Mechanical properties :
#
#
# Convention : Reuss Voigt Hill
#
# Bulk Modulus (GPa) = 40.24738 47.45515 43.85127
# Shear Modulus (GPa) = 24.69010 27.61146 26.15078
#
# Velocity S-wave (km/s) = 3.66503 3.87580 3.77189
# Velocity P-wave (km/s) = 6.30922 6.77102 6.54419
#
# Compressibility (1/GPa) = 0.02484633
#
# Stress axis : x y z
#
# Youngs Moduli (GPa) = 97.16732 49.55782 36.56750
#
# Poissons Ratio (x) = 0.26124 0.03997
# Poissons Ratio (y) = 0.51221 0.37009
# Poissons Ratio (z) = 0.10622 0.50156
#
# Static dielectric constant tensor:
#      x y z
#    x 4.139690 0.000000 0.000000 
#    y 0.000000 3.488960 0.000000 
#    z 0.000000 0.000000 3.206230 
# 
# 
# High freq. dielectric constant tensor:
#      x y z
#    x 1.736980 0.000000 0.000000 
#    y 0.000000 1.719370 0.000000 
#    z 0.000000 0.000000 1.687440 
# 
# From -- ./inp_files/6311.got.cif
#   From: 2010.03.12/outbox.cif.g09.slc.cpg/sg59_4_cif.got.tgz:6311.got - 2010.04.16 16:29:54.
