data_PCOD8245475
_publ_section_title
;
Structure prediction by ZEFSAII (Michael W. Deem and Ramdas Pophale) SiO2 
 PCOD8245475
Probable space group: P M M N
;
_chemical_formula_sum "Si O2"
_cell_formula_units_Z 48
_cell_length_a 30.278811
_cell_length_b 8.499733
_cell_length_c 9.357599
_cell_angle_alpha 90.000000
_cell_angle_beta 90.000000
_cell_angle_gamma 90.000000
_cell_volume 2408.288607
_symmetry_space_group_name_H-M "P M M N"
_symmetry_group_IT_number 59
_space_group.IT_coordinate_system_code '2'
_symmetry_cell_setting 'orthorhombic'
loop_
_space_group_symop_operation_xyz
x,y,z
1/2-x,1/2-y,z
1/2+x,-y,-z
-x,1/2+y,-z
-x,-y,-z
1/2+x,1/2+y,-z
1/2-x,y,z
x,1/2-y,z
loop_
_atom_site_type_symbol
_atom_site_label
_atom_site_fract_x
_atom_site_fract_y
_atom_site_fract_z
Si Si1 0.073926 0.931655 0.664782
Si Si2 0.324288 0.429626 0.346312
Si Si3 0.924523 0.932532 0.639987
Si Si4 0.996852 0.433538 0.842599
Si Si5 0.668459 0.566273 0.326002
Si Si6 0.750000 0.428763 0.839484
Si Si7 0.750000 0.933511 0.146428
O O1 0.063834 0.750000 0.695712
O O2 0.063628 0.966410 0.499318
O O3 0.124156 0.970209 0.705626
O O4 0.042675 0.037858 0.762152
O O5 0.312590 0.250000 0.308201
O O6 0.374891 0.469174 0.307966
O O7 0.315156 0.462362 0.512774
O O8 0.293547 0.541172 0.253152
O O9 0.928644 0.750000 0.597348
O O10 0.957149 0.974975 0.766666
O O11 0.985893 0.250000 0.845558
O O12 0.000000 0.500000 0.000000
O O13 0.658228 0.750000 0.300999
O O14 0.705852 0.497552 0.220215
O O15 0.750000 0.250000 0.891106
O O16 0.750000 0.536585 0.978895
O O17 0.750000 0.750000 0.179200
#
# Coordination Sequence:
#
# PCOD8245475 Si02
#       7
#     8   8   8   8   8   4   4
#     4  11  22  38  61  89 119 153 191 236 286 340
#     4   9  19  38  63  85 110 145 188 234 284 339
#     4  10  21  40  64  89 115 149 193 241 287 339
#     4  12  25  41  60  85 118 155 193 237 288 345
#     4   9  19  38  63  88 110 143 192 242 287 338
#     4  12  25  36  52  82 120 154 189 232 280 336
#     4  10  21  38  60  82 112 152 191 232 286 346
#
# _framework density 19.931166999999999
#
# number of rings (size 3 to 8) (size 9 to 14) (size 15 to 20)
#    0.000    1.667    0.000    6.250    0.000    6.667 
#    0.000    2.500    0.000    0.000    0.000    0.000 
#    0.000    0.000    0.000    0.000    0.000    0.000 
#
# Total GULP energy -595453.986608 kJ/mol
# GULP energy per Si atom -12405.291388 kJ/mol
# Density = 1.988580 g / cm^3
# Si number density = 19.931167 Si / 1000 Ang^3
#
#
#
# Elastic Constant Matrix: (Units=GPa)
#
#
# Indices 1 2 3 4 5 6 
#
# 1 116.8549 19.9263 65.6143 0.0000 0.0000 0.0000
# 2 19.9263 56.1612 7.9471 0.0000 0.0000 0.0000
# 3 65.6143 7.9471 98.2605 0.0000 0.0000 0.0000
# 4 0.0000 0.0000 0.0000 28.1273 0.0000 0.0000
# 5 0.0000 0.0000 0.0000 0.0000 4.1726 0.0000
# 6 0.0000 0.0000 0.0000 0.0000 0.0000 32.1169
#
#
#
# Elastic Compliance Matrix: (Units=1/GPa)
#
#
# Indices 1 2 3 4 5 6 
#
# 1 0.014453 -0.003806 -0.009343 0.000000 0.000000 0.000000
# 2 -0.003806 0.019014 0.001004 0.000000 0.000000 0.000000
# 3 -0.009343 0.001004 0.016335 0.000000 0.000000 0.000000
# 4 0.000000 0.000000 0.000000 0.035553 0.000000 0.000000
# 5 0.000000 0.000000 0.000000 0.000000 0.239656 0.000000
# 6 0.000000 0.000000 0.000000 0.000000 0.000000 0.031136
#
#
# Mechanical properties :
#
#
# Convention : Reuss Voigt Hill
#
# Bulk Modulus (GPa) = 39.19888 50.91691 45.05789
# Shear Modulus (GPa) = 12.85540 24.73597 18.79568
#
# Velocity S-wave (km/s) = 2.54242 3.52670 3.07421
# Velocity P-wave (km/s) = 5.32244 6.49503 5.93775
#
# Compressibility (1/GPa) = 0.02551093
#
# Stress axis : x y z
#
# Youngs Moduli (GPa) = 69.19065 52.59226 61.21874
#
# Poissons Ratio (x) = 0.20016 0.57198
# Poissons Ratio (y) = 0.26333 -0.06144
# Poissons Ratio (z) = 0.64646 -0.05278
#
# Static dielectric constant tensor:
#      x y z
#    x 3.756430 0.000000 0.000000 
#    y 0.000000 3.532080 0.000000 
#    z 0.000000 0.000000 3.517520 
# 
# 
# High freq. dielectric constant tensor:
#      x y z
#    x 1.792300 0.000000 0.000000 
#    y 0.000000 1.774070 0.000000 
#    z 0.000000 0.000000 1.772200 
# 
# From -- ./inp_files/13075.got.cif
#   From: 2010.03.12/outbox.cif.g09.slc.cpg/sg59_7_cif.got.tgz:13075.got - 2010.04.16 16:29:54.
