data_PCOD8245131
_publ_section_title
;
Structure prediction by ZEFSAII (Michael W. Deem and Ramdas Pophale) SiO2 
 PCOD8245131
Probable space group: P M M N
;
_chemical_formula_sum "Si O2"
_cell_formula_units_Z 56
_cell_length_a 13.764559
_cell_length_b 9.128361
_cell_length_c 23.534138
_cell_angle_alpha 90.000000
_cell_angle_beta 90.000000
_cell_angle_gamma 90.000000
_cell_volume 2957.014160
_symmetry_space_group_name_H-M "P M M N"
_symmetry_group_IT_number 59
_space_group.IT_coordinate_system_code '2'
_symmetry_cell_setting 'orthorhombic'
loop_
_space_group_symop_operation_xyz
x,y,z
1/2-x,1/2-y,z
1/2+x,-y,-z
-x,1/2+y,-z
-x,-y,-z
1/2+x,1/2+y,-z
1/2-x,y,z
x,1/2-y,z
loop_
_atom_site_type_symbol
_atom_site_label
_atom_site_fract_x
_atom_site_fract_y
_atom_site_fract_z
Si Si1 0.139471 0.921887 0.030442
Si Si2 0.531001 0.076798 0.307761
Si Si3 0.861491 0.421537 0.644100
Si Si4 0.134554 0.086818 0.466322
Si Si5 0.531716 0.077945 0.084185
Si Si6 0.140745 0.575746 0.804341
Si Si7 0.635645 0.581816 0.407759
O O1 0.250000 0.976884 0.037152
O O2 0.131761 0.750000 0.041019
O O3 0.072839 0.001661 0.077055
O O4 0.103127 0.963334 0.967470
O O5 0.519342 0.250000 0.307038
O O6 0.587778 0.019739 0.252390
O O7 0.424308 0.003105 0.307756
O O8 0.588080 0.028226 0.363625
O O9 0.750000 0.465912 0.653935
O O10 0.878016 0.250000 0.648638
O O11 0.899692 0.473131 0.581972
O O12 0.250000 0.090027 0.469335
O O13 0.096608 0.250000 0.450649
O O14 0.096955 0.039429 0.528935
O O15 0.513244 0.250000 0.087685
O O16 0.581639 0.017093 0.141270
O O17 0.250000 0.511498 0.805519
O O18 0.145164 0.750000 0.805842
O O19 0.750000 0.559838 0.403852
O O20 0.607456 0.750000 0.393752
#
# Coordination Sequence:
#
# PCOD8245131 Si02
#       7
#     8   8   8   8   8   8   8
#     4   9  17  30  50  78 111 143 172 207 255 304
#     4  11  22  34  52  76 100 130 169 212 254 298
#     4  10  21  37  55  73  95 126 165 210 259 310
#     4   8  15  30  52  75  98 126 161 202 250 304
#     4   9  17  31  53  78 104 138 178 215 251 294
#     4   9  18  34  55  78 103 132 170 212 249 291
#     4   9  18  33  52  75 105 136 163 199 251 307
#
# _framework density 18.938022
#
# number of rings (size 3 to 8) (size 9 to 14) (size 15 to 20)
#    0.000    2.714    0.000    2.571    0.000    4.857 
#    0.000    3.571    0.000    7.286    0.000    0.000 
#    0.000    0.000    0.000    0.000    0.000    0.000 
#
# Total GULP energy -694353.039967 kJ/mol
# GULP energy per Si atom -12399.161428 kJ/mol
# Density = 1.889492 g / cm^3
# Si number density = 18.938022 Si / 1000 Ang^3
#
#
#
# Elastic Constant Matrix: (Units=GPa)
#
#
# Indices 1 2 3 4 5 6 
#
# 1 132.7231 39.5703 79.2511 0.0000 0.0000 0.0000
# 2 39.5703 54.8195 40.2354 0.0000 0.0000 0.0000
# 3 79.2511 40.2354 121.5869 0.0000 0.0000 0.0000
# 4 0.0000 0.0000 0.0000 24.3910 0.0000 0.0000
# 5 0.0000 0.0000 0.0000 0.0000 33.8330 0.0000
# 6 0.0000 0.0000 0.0000 0.0000 0.0000 30.1360
#
#
#
# Elastic Compliance Matrix: (Units=1/GPa)
#
#
# Indices 1 2 3 4 5 6 
#
# 1 0.013025 -0.004188 -0.007104 0.000000 0.000000 0.000000
# 2 -0.004188 0.025440 -0.005689 0.000000 0.000000 0.000000
# 3 -0.007104 -0.005689 0.014737 0.000000 0.000000 0.000000
# 4 0.000000 0.000000 0.000000 0.040999 0.000000 0.000000
# 5 0.000000 0.000000 0.000000 0.000000 0.029557 0.000000
# 6 0.000000 0.000000 0.000000 0.000000 0.000000 0.033183
#
#
# Mechanical properties :
#
#
# Convention : Reuss Voigt Hill
#
# Bulk Modulus (GPa) = 51.97187 69.69366 60.83277
# Shear Modulus (GPa) = 25.34009 27.67686 26.50847
#
# Velocity S-wave (km/s) = 3.66191 3.82703 3.74538
# Velocity P-wave (km/s) = 6.73663 7.51059 7.13411
#
# Compressibility (1/GPa) = 0.01924118
#
# Stress axis : x y z
#
# Youngs Moduli (GPa) = 76.77625 39.30818 67.85412
#
# Poissons Ratio (x) = 0.16461 0.48203
# Poissons Ratio (y) = 0.32152 0.38602
# Poissons Ratio (z) = 0.54541 0.22362
#
# Static dielectric constant tensor:
#      x y z
#    x 3.652770 0.000000 0.000000 
#    y 0.000000 3.266120 0.000000 
#    z 0.000000 0.000000 3.511770 
# 
# 
# High freq. dielectric constant tensor:
#      x y z
#    x 1.746580 0.000000 0.000000 
#    y 0.000000 1.716690 0.000000 
#    z 0.000000 0.000000 1.722230 
# 
# From -- ./inp_files/30387.got.cif
#   From: 2010.03.12/outbox.cif.g09.slc.cpg/sg59_16_cif.got.tgz:30387.got - 2010.04.16 16:29:54.
