data_PCOD8245849
_publ_section_title
;
Structure prediction by ZEFSAII (Michael W. Deem and Ramdas Pophale) SiO2 
 PCOD8245849
Probable space group: P M M N
;
_chemical_formula_sum "Si O2"
_cell_formula_units_Z 56
_cell_length_a 8.794403
_cell_length_b 15.144788
_cell_length_c 21.134401
_cell_angle_alpha 90.000000
_cell_angle_beta 90.000000
_cell_angle_gamma 90.000000
_cell_volume 2814.877534
_symmetry_space_group_name_H-M "P M M N"
_symmetry_group_IT_number 59
_space_group.IT_coordinate_system_code '2'
_symmetry_cell_setting 'orthorhombic'
loop_
_space_group_symop_operation_xyz
x,y,z
1/2-x,1/2-y,z
1/2+x,-y,-z
-x,1/2+y,-z
-x,-y,-z
1/2+x,1/2+y,-z
1/2-x,y,z
x,1/2-y,z
loop_
_atom_site_type_symbol
_atom_site_label
_atom_site_fract_x
_atom_site_fract_y
_atom_site_fract_z
Si Si1 0.571295 0.404191 0.497083
Si Si2 0.070337 0.491886 0.845199
Si Si3 0.928352 0.010406 0.710970
Si Si4 0.573499 0.851717 0.914509
Si Si5 0.424098 0.348732 0.620419
Si Si6 0.569156 0.847815 0.056765
Si Si7 0.074758 0.649698 0.643903
O O1 0.500000 0.500000 0.500000
O O2 0.750000 0.408941 0.510608
O O3 0.490995 0.344691 0.549877
O O4 0.535068 0.360886 0.429737
O O5 0.250000 0.486723 0.842464
O O6 0.003468 0.420004 0.894723
O O7 0.007106 0.467784 0.776957
O O8 0.021028 0.589539 0.865723
O O9 0.750000 0.014452 0.720525
O O10 0.972178 0.913418 0.686615
O O11 0.977984 0.084313 0.661449
O O12 0.750000 0.876066 0.907895
O O13 0.545041 0.750000 0.896607
O O14 0.514417 0.870852 0.985719
O O15 0.250000 0.382139 0.618784
O O16 0.434089 0.250000 0.649092
O O17 0.750000 0.847341 0.057272
O O18 0.509768 0.750000 0.076015
O O19 0.250000 0.624864 0.656080
O O20 0.040258 0.750000 0.664290
#
# Coordination Sequence:
#
# PCOD8245849 Si02
#       7
#     8   8   8   8   8   8   8
#     4  11  21  36  63  94 124 155 190 238 296 352
#     4  11  22  36  58  85 116 153 194 239 289 346
#     4  12  26  42  60  83 116 158 201 248 295 349
#     4   9  18  35  59  86 117 151 189 234 284 341
#     4  11  24  42  64  89 119 156 198 244 296 354
#     4   8  16  33  58  87 116 148 187 232 285 344
#     4  10  22  41  64  88 117 153 194 242 295 350
#
# _framework density 19.894293999999999
#
# number of rings (size 3 to 8) (size 9 to 14) (size 15 to 20)
#    0.000    1.714    1.429    4.286    0.000    4.000 
#    0.000    2.143    0.000    3.000    0.000    0.000 
#    0.000    0.000    0.000    0.000    0.000    0.000 
#
# Total GULP energy -694570.802792 kJ/mol
# GULP energy per Si atom -12403.050050 kJ/mol
# Density = 1.984901 g / cm^3
# Si number density = 19.894294 Si / 1000 Ang^3
#
#
#
# Elastic Constant Matrix: (Units=GPa)
#
#
# Indices 1 2 3 4 5 6 
#
# 1 68.5673 23.3161 16.7931 0.0000 0.0000 0.0000
# 2 23.3161 87.0459 16.2232 0.0000 0.0000 0.0000
# 3 16.7931 16.2232 67.1008 0.0000 0.0000 0.0000
# 4 0.0000 0.0000 0.0000 9.0333 0.0000 0.0000
# 5 0.0000 0.0000 0.0000 0.0000 29.0862 0.0000
# 6 0.0000 0.0000 0.0000 0.0000 0.0000 22.4871
#
#
#
# Elastic Compliance Matrix: (Units=1/GPa)
#
#
# Indices 1 2 3 4 5 6 
#
# 1 0.016693 -0.003867 -0.003243 0.000000 0.000000 0.000000
# 2 -0.003867 0.012926 -0.002157 0.000000 0.000000 0.000000
# 3 -0.003243 -0.002157 0.016236 0.000000 0.000000 0.000000
# 4 0.000000 0.000000 0.000000 0.110702 0.000000 0.000000
# 5 0.000000 0.000000 0.000000 0.000000 0.034381 0.000000
# 6 0.000000 0.000000 0.000000 0.000000 0.000000 0.044470
#
#
# Mechanical properties :
#
#
# Convention : Reuss Voigt Hill
#
# Bulk Modulus (GPa) = 36.60190 37.26432 36.93311
# Shear Modulus (GPa) = 19.00783 23.21343 21.11063
#
# Velocity S-wave (km/s) = 3.09437 3.41961 3.26105
# Velocity P-wave (km/s) = 5.58614 5.86203 5.72575
#
# Compressibility (1/GPa) = 0.02732099
#
# Stress axis : x y z
#
# Youngs Moduli (GPa) = 59.90377 77.36274 61.59098
#
# Poissons Ratio (x) = 0.29917 0.19973
# Poissons Ratio (y) = 0.23165 0.13288
# Poissons Ratio (z) = 0.19426 0.16690
#
# Static dielectric constant tensor:
#      x y z
#    x 3.521480 0.000000 0.000000 
#    y 0.000000 3.711210 0.000000 
#    z 0.000000 0.000000 3.716130 
# 
# 
# High freq. dielectric constant tensor:
#      x y z
#    x 1.764930 0.000000 0.000000 
#    y 0.000000 1.788020 0.000000 
#    z 0.000000 0.000000 1.774940 
# 
# From -- ./inp_files/28999.got.cif
#   From: 2010.03.12/outbox.cif.g09.slc.cpg/sg59_15_cif.got.tgz:28999.got - 2010.04.16 16:29:54.
