data_PCOD8245714
_publ_section_title
;
Structure prediction by ZEFSAII (Michael W. Deem and Ramdas Pophale) SiO2 
 PCOD8245714
Probable space group: P M M N
;
_chemical_formula_sum "Si O2"
_cell_formula_units_Z 48
_cell_length_a 16.519526
_cell_length_b 8.955350
_cell_length_c 17.051967
_cell_angle_alpha 90.000000
_cell_angle_beta 90.000000
_cell_angle_gamma 90.000000
_cell_volume 2522.636233
_symmetry_space_group_name_H-M "P M M N"
_symmetry_group_IT_number 59
_space_group.IT_coordinate_system_code '2'
_symmetry_cell_setting 'orthorhombic'
loop_
_space_group_symop_operation_xyz
x,y,z
1/2-x,1/2-y,z
1/2+x,-y,-z
-x,1/2+y,-z
-x,-y,-z
1/2+x,1/2+y,-z
1/2-x,y,z
x,1/2-y,z
loop_
_atom_site_type_symbol
_atom_site_label
_atom_site_fract_x
_atom_site_fract_y
_atom_site_fract_z
Si Si1 0.103743 0.925885 0.063468
Si Si2 0.250000 0.572521 0.167823
Si Si3 0.577730 0.574850 0.094303
Si Si4 0.655059 0.576163 0.257306
Si Si5 0.924782 0.076748 0.403513
Si Si6 0.750000 0.072647 0.655459
Si Si7 0.609342 0.576900 0.560824
O O1 0.110683 0.750000 0.053708
O O2 0.170304 0.988117 0.123845
O O3 0.016361 0.973528 0.097215
O O4 0.121238 0.996119 0.978630
O O5 0.250000 0.750000 0.168805
O O6 0.250000 0.510970 0.255955
O O7 0.587261 0.750000 0.082125
O O8 0.621322 0.522427 0.173555
O O9 0.750000 0.543911 0.260929
O O10 0.635448 0.750000 0.271535
O O11 0.609935 0.478418 0.321628
O O12 0.904083 0.250000 0.415817
O O13 0.020620 0.048701 0.404277
O O14 0.882680 0.983709 0.472592
O O15 0.750000 0.250000 0.651834
O O16 0.830265 0.013352 0.614996
O O17 0.633194 0.750000 0.559973
#
# Coordination Sequence:
#
# PCOD8245714 Si02
#       7
#     8   4   8   8   8   4   8
#     4   9  18  35  56  79 109 144 183 231 282 333
#     4   9  20  35  55  84 111 142 185 229 280 335
#     4   9  19  35  56  80 108 146 188 229 279 340
#     4  10  22  37  56  83 116 152 189 234 289 342
#     4  10  22  40  62  87 113 149 195 238 285 343
#     4  11  23  37  61  90 117 152 195 235 278 341
#     4  10  22  41  62  85 117 152 188 236 292 341
#
# _framework density 19.027712999999999
#
# number of rings (size 3 to 8) (size 9 to 14) (size 15 to 20)
#    0.000    2.333    0.000    1.250    4.667    3.000 
#    0.000    1.667    0.000    0.000    0.000    0.000 
#    0.000    0.000    0.000    0.000    0.000    0.000 
#
# Total GULP energy -595376.236413 kJ/mol
# GULP energy per Si atom -12403.671592 kJ/mol
# Density = 1.898440 g / cm^3
# Si number density = 19.027713 Si / 1000 Ang^3
#
#
#
# Elastic Constant Matrix: (Units=GPa)
#
#
# Indices 1 2 3 4 5 6 
#
# 1 89.3316 43.6767 74.2479 0.0000 0.0000 0.0000
# 2 43.6767 67.0334 55.4049 0.0000 0.0000 0.0000
# 3 74.2479 55.4049 159.5212 0.0000 0.0000 0.0000
# 4 0.0000 0.0000 0.0000 35.6772 0.0000 0.0000
# 5 0.0000 0.0000 0.0000 0.0000 30.7872 0.0000
# 6 0.0000 0.0000 0.0000 0.0000 0.0000 26.9170
#
#
#
# Elastic Compliance Matrix: (Units=1/GPa)
#
#
# Indices 1 2 3 4 5 6 
#
# 1 0.020800 -0.007786 -0.006977 0.000000 0.000000 0.000000
# 2 -0.007786 0.023839 -0.004656 0.000000 0.000000 0.000000
# 3 -0.006977 -0.004656 0.011133 0.000000 0.000000 0.000000
# 4 0.000000 0.000000 0.000000 0.028029 0.000000 0.000000
# 5 0.000000 0.000000 0.000000 0.000000 0.032481 0.000000
# 6 0.000000 0.000000 0.000000 0.000000 0.000000 0.037151
#
#
# Mechanical properties :
#
#
# Convention : Reuss Voigt Hill
#
# Bulk Modulus (GPa) = 59.05013 73.61614 66.33314
# Shear Modulus (GPa) = 25.26322 28.18005 26.72164
#
# Velocity S-wave (km/s) = 3.64772 3.85255 3.75154
# Velocity P-wave (km/s) = 6.98873 7.65261 7.32819
#
# Compressibility (1/GPa) = 0.01693476
#
# Stress axis : x y z
#
# Youngs Moduli (GPa) = 48.07730 41.94766 89.82122
#
# Poissons Ratio (x) = 0.32660 0.62668
# Poissons Ratio (y) = 0.37432 0.41820
# Poissons Ratio (z) = 0.33543 0.19531
#
# Static dielectric constant tensor:
#      x y z
#    x 3.587170 0.000000 0.000000 
#    y 0.000000 3.397600 0.000000 
#    z 0.000000 0.000000 3.618100 
# 
# 
# High freq. dielectric constant tensor:
#      x y z
#    x 1.747090 0.000000 0.000000 
#    y 0.000000 1.730980 0.000000 
#    z 0.000000 0.000000 1.748820 
# 
# From -- ./inp_files/20500.got.cif
#   From: 2010.03.12/outbox.cif.g09.slc.cpg/sg59_11_cif.got.tgz:20500.got - 2010.04.16 16:29:54.
