data_PCOD8245685
_publ_section_title
;
Structure prediction by ZEFSAII (Michael W. Deem and Ramdas Pophale) SiO2 
 PCOD8245685
Probable space group: P M M N
;
_chemical_formula_sum "Si O2"
_cell_formula_units_Z 48
_cell_length_a 28.356515
_cell_length_b 14.335385
_cell_length_c 4.883095
_cell_angle_alpha 90.000000
_cell_angle_beta 90.000000
_cell_angle_gamma 90.000000
_cell_volume 1984.985734
_symmetry_space_group_name_H-M "P M M N"
_symmetry_group_IT_number 59
_space_group.IT_coordinate_system_code '2'
_symmetry_cell_setting 'orthorhombic'
loop_
_space_group_symop_operation_xyz
x,y,z
1/2-x,1/2-y,z
1/2+x,-y,-z
-x,1/2+y,-z
-x,-y,-z
1/2+x,1/2+y,-z
1/2-x,y,z
x,1/2-y,z
loop_
_atom_site_type_symbol
_atom_site_label
_atom_site_fract_x
_atom_site_fract_y
_atom_site_fract_z
Si Si1 0.445073 0.648773 0.302660
Si Si2 0.601646 0.641701 0.803191
Si Si3 0.750000 0.533642 0.254926
Si Si4 0.344599 0.646576 0.487972
Si Si5 0.750000 0.089827 0.755367
Si Si6 0.350593 0.052532 0.705233
Si Si7 0.996355 0.412066 0.196601
O O1 0.455618 0.750000 0.435899
O O2 0.389283 0.629347 0.287520
O O3 0.464301 0.654035 0.993393
O O4 0.469890 0.572796 0.508892
O O5 0.615057 0.750000 0.827568
O O6 0.609842 0.588502 0.088318
O O7 0.546868 0.631534 0.730640
O O8 0.635679 0.591978 0.589018
O O9 0.750000 0.503834 0.573174
O O10 0.701501 0.591714 0.206463
O O11 0.750000 0.439599 0.071752
O O12 0.348328 0.750000 0.629022
O O13 0.297242 0.647966 0.306584
O O14 0.345812 0.560725 0.704284
O O15 0.000000 0.500000 0.000000
#
# Coordination Sequence:
#
# PCOD8245685 Si02
#       7
#     8   8   4   8   4   8   8
#     4  11  23  39  60  90 128 169 211 262 324 394
#     4  12  25  43  68  97 132 178 230 283 339 401
#     4  10  22  42  68  94 129 170 213 272 334 392
#     4  10  22  41  67  99 136 177 222 274 339 413
#     4  10  21  40  64  98 132 172 214 262 328 404
#     4  11  23  44  67  97 133 173 222 281 341 406
#     4  12  24  42  65  93 127 170 221 279 339 398
#
# _framework density 24.181536000000001
#
# number of rings (size 3 to 8) (size 9 to 14) (size 15 to 20)
#    0.000    1.000    0.000    7.750    0.000    2.667 
#    0.000   18.333    0.000    0.000    0.000    0.000 
#    0.000    0.000    0.000    0.000    0.000    0.000 
#
# Total GULP energy -594946.432086 kJ/mol
# GULP energy per Si atom -12394.717335 kJ/mol
# Density = 2.412650 g / cm^3
# Si number density = 24.181536 Si / 1000 Ang^3
#
#
#
# Elastic Constant Matrix: (Units=GPa)
#
#
# Indices 1 2 3 4 5 6 
#
# 1 175.5135 25.3306 15.1735 0.0000 0.0000 0.0000
# 2 25.3306 105.1357 10.7702 0.0000 0.0000 0.0000
# 3 15.1735 10.7702 79.0598 0.0000 0.0000 0.0000
# 4 0.0000 0.0000 0.0000 17.6081 0.0000 0.0000
# 5 0.0000 0.0000 0.0000 0.0000 29.9774 0.0000
# 6 0.0000 0.0000 0.0000 0.0000 0.0000 23.3061
#
#
#
# Elastic Compliance Matrix: (Units=1/GPa)
#
#
# Indices 1 2 3 4 5 6 
#
# 1 0.005974 -0.001341 -0.000964 0.000000 0.000000 0.000000
# 2 -0.001341 0.009947 -0.001098 0.000000 0.000000 0.000000
# 3 -0.000964 -0.001098 0.012983 0.000000 0.000000 0.000000
# 4 0.000000 0.000000 0.000000 0.056792 0.000000 0.000000
# 5 0.000000 0.000000 0.000000 0.000000 0.033358 0.000000
# 6 0.000000 0.000000 0.000000 0.000000 0.000000 0.042907
#
#
# Mechanical properties :
#
#
# Convention : Reuss Voigt Hill
#
# Bulk Modulus (GPa) = 45.24937 51.36195 48.30566
# Shear Modulus (GPa) = 28.38752 34.74063 31.56407
#
# Velocity S-wave (km/s) = 3.42999 3.79444 3.61681
# Velocity P-wave (km/s) = 5.86851 6.36265 6.12057
#
# Compressibility (1/GPa) = 0.02209975
#
# Stress axis : x y z
#
# Youngs Moduli (GPa) = 167.38092 100.53301 77.02252
#
# Poissons Ratio (x) = 0.13478 0.07425
# Poissons Ratio (y) = 0.22440 0.08455
# Poissons Ratio (z) = 0.16135 0.11036
#
# Static dielectric constant tensor:
#      x y z
#    x 4.925440 0.000000 0.000000 
#    y 0.000000 0.072890 0.000000 
#    z 0.000000 0.000000 4.399640 
# 
# 
# High freq. dielectric constant tensor:
#      x y z
#    x 1.985810 0.000000 0.000000 
#    y 0.000000 1.944080 0.000000 
#    z 0.000000 0.000000 1.949740 
# 
# From -- ./inp_files/4191.got.cif
#   From: 2010.03.12/outbox.cif.g09.slc.cpg/sg59_3_cif.got.tgz:4191.got - 2010.04.16 16:29:54.
