data_PCOD8245970
_publ_section_title
;
Structure prediction by ZEFSAII (Michael W. Deem and Ramdas Pophale) SiO2 
 PCOD8245970
Probable space group: P M M N
;
_chemical_formula_sum "Si O2"
_cell_formula_units_Z 56
_cell_length_a 8.619024
_cell_length_b 14.412040
_cell_length_c 23.536537
_cell_angle_alpha 90.000000
_cell_angle_beta 90.000000
_cell_angle_gamma 90.000000
_cell_volume 2923.654931
_symmetry_space_group_name_H-M "P M M N"
_symmetry_group_IT_number 59
_space_group.IT_coordinate_system_code '2'
_symmetry_cell_setting 'orthorhombic'
loop_
_space_group_symop_operation_xyz
x,y,z
1/2-x,1/2-y,z
1/2+x,-y,-z
-x,1/2+y,-z
-x,-y,-z
1/2+x,1/2+y,-z
1/2-x,y,z
x,1/2-y,z
loop_
_atom_site_type_symbol
_atom_site_label
_atom_site_fract_x
_atom_site_fract_y
_atom_site_fract_z
Si Si1 0.927126 0.857115 0.965881
Si Si2 0.431487 0.356982 0.242363
Si Si3 0.433902 0.148847 0.906532
Si Si4 0.068292 0.571563 0.645685
Si Si5 0.067876 0.945628 0.446022
Si Si6 0.922867 0.750000 0.594425
Si Si7 0.077645 0.250000 0.538463
Si Si8 0.569551 0.043604 0.136646
O O1 0.750000 0.892925 0.960030
O O2 0.935250 0.750000 0.947845
O O3 0.040046 0.915076 0.925461
O O4 0.993608 0.870598 0.029558
O O5 0.250000 0.361496 0.253786
O O6 0.489665 0.250000 0.245414
O O7 0.517550 0.419864 0.288960
O O8 0.467487 0.400205 0.181391
O O9 0.250000 0.153450 0.910754
O O10 0.496434 0.250000 0.884829
O O11 0.483123 0.065220 0.864447
O O12 0.250000 0.554399 0.642241
O O13 0.983493 0.487332 0.614307
O O14 0.022668 0.663139 0.612359
O O15 0.250000 0.952904 0.452434
O O16 0.016602 0.839634 0.442707
O O17 0.000000 0.000000 0.500000
O O18 0.750000 0.750000 0.623103
O O19 0.901871 0.750000 0.528234
O O20 0.250000 0.250000 0.566099
O O21 0.750000 0.053339 0.152435
#
# Coordination Sequence:
#
# PCOD8245970 Si02
#       8
#     8   8   8   8   8   4   4   8
#     4   9  17  31  51  75 107 146 182 215 269 338
#     4  11  24  41  60  80 110 149 187 227 281 345
#     4   8  16  32  53  76 104 142 184 225 270 331
#     4  12  24  39  62  89 118 151 194 243 288 340
#     4  12  24  39  61  90 124 161 198 239 290 346
#     4  11  21  35  59  89 124 160 194 233 284 345
#     4  11  23  39  61  91 126 160 198 241 288 343
#     4  11  21  32  52  81 110 139 180 232 282 327
#
# _framework density 19.154108000000001
#
# number of rings (size 3 to 8) (size 9 to 14) (size 15 to 20)
#    0.000    1.429    2.143    5.571    0.000    3.429 
#    0.000    0.714    1.571    3.429    0.000    0.000 
#    0.000    0.000    0.000    0.000    0.000    0.000 
#
# Total GULP energy -694383.281773 kJ/mol
# GULP energy per Si atom -12399.701460 kJ/mol
# Density = 1.911051 g / cm^3
# Si number density = 19.154108 Si / 1000 Ang^3
#
#
#
# Elastic Constant Matrix: (Units=GPa)
#
#
# Indices 1 2 3 4 5 6 
#
# 1 100.4999 42.1519 25.3874 0.0000 0.0000 0.0000
# 2 42.1519 125.8958 47.2747 0.0000 0.0000 0.0000
# 3 25.3874 47.2747 70.1551 0.0000 0.0000 0.0000
# 4 0.0000 0.0000 0.0000 54.9623 0.0000 0.0000
# 5 0.0000 0.0000 0.0000 0.0000 28.5486 0.0000
# 6 0.0000 0.0000 0.0000 0.0000 0.0000 28.2983
#
#
#
# Elastic Compliance Matrix: (Units=1/GPa)
#
#
# Indices 1 2 3 4 5 6 
#
# 1 0.011814 -0.003146 -0.002155 0.000000 0.000000 0.000000
# 2 -0.003146 0.011472 -0.006592 0.000000 0.000000 0.000000
# 3 -0.002155 -0.006592 0.019476 0.000000 0.000000 0.000000
# 4 0.000000 0.000000 0.000000 0.018194 0.000000 0.000000
# 5 0.000000 0.000000 0.000000 0.000000 0.035028 0.000000
# 6 0.000000 0.000000 0.000000 0.000000 0.000000 0.035338
#
#
# Mechanical properties :
#
#
# Convention : Reuss Voigt Hill
#
# Bulk Modulus (GPa) = 52.69941 58.46431 55.58186
# Shear Modulus (GPa) = 30.97244 34.47762 32.72503
#
# Velocity S-wave (km/s) = 4.02557 4.24726 4.13790
# Velocity P-wave (km/s) = 7.01285 7.39200 7.20492
#
# Compressibility (1/GPa) = 0.01897555
#
# Stress axis : x y z
#
# Youngs Moduli (GPa) = 84.64303 87.17039 51.34543
#
# Poissons Ratio (x) = 0.27427 0.11065
# Poissons Ratio (y) = 0.26632 0.33846
# Poissons Ratio (z) = 0.18241 0.57461
#
# Static dielectric constant tensor:
#      x y z
#    x 3.440130 0.000000 0.000000 
#    y 0.000000 3.851570 0.000000 
#    z 0.000000 0.000000 3.416370 
# 
# 
# High freq. dielectric constant tensor:
#      x y z
#    x 1.742630 0.000000 0.000000 
#    y 0.000000 1.751320 0.000000 
#    z 0.000000 0.000000 1.728620 
# 
# From -- ./inp_files/29257.got.cif
#   From: 2010.03.12/outbox.cif.g09.slc.cpg/sg59_15_cif.got.tgz:29257.got - 2010.04.16 16:29:54.
