data_PCOD8245006
_publ_section_title
;
Structure prediction by ZEFSAII (Michael W. Deem and Ramdas Pophale) SiO2 
 PCOD8245006
Probable space group: P M M N
;
_chemical_formula_sum "Si O2"
_cell_formula_units_Z 48
_cell_length_a 8.919453
_cell_length_b 9.197473
_cell_length_c 30.663200
_cell_angle_alpha 90.000000
_cell_angle_beta 90.000000
_cell_angle_gamma 90.000000
_cell_volume 2515.499403
_symmetry_space_group_name_H-M "P M M N"
_symmetry_group_IT_number 59
_space_group.IT_coordinate_system_code '2'
_symmetry_cell_setting 'orthorhombic'
loop_
_space_group_symop_operation_xyz
x,y,z
1/2-x,1/2-y,z
1/2+x,-y,-z
-x,1/2+y,-z
-x,-y,-z
1/2+x,1/2+y,-z
1/2-x,y,z
x,1/2-y,z
loop_
_atom_site_type_symbol
_atom_site_label
_atom_site_fract_x
_atom_site_fract_y
_atom_site_fract_z
Si Si1 0.573123 0.084022 0.960470
Si Si2 0.076801 0.920910 0.292681
Si Si3 0.074059 0.917085 0.628688
Si Si4 0.923756 0.419259 0.214736
Si Si5 0.077466 0.417704 0.125220
Si Si6 0.423068 0.079829 0.460337
O O1 0.750000 0.070579 0.965343
O O2 0.518584 0.250000 0.961165
O O3 0.520121 0.013365 0.915112
O O4 0.500000 0.000000 0.000000
O O5 0.250000 0.960938 0.299914
O O6 0.050228 0.750000 0.291171
O O7 0.980342 0.985771 0.331687
O O8 0.022505 0.987096 0.247376
O O9 0.250000 0.936451 0.622811
O O10 0.030715 0.750000 0.638288
O O11 0.996123 0.973588 0.584703
O O12 0.750000 0.459360 0.220439
O O13 0.952721 0.250000 0.224561
O O14 0.974927 0.459605 0.166131
O O15 0.250000 0.451847 0.137026
O O16 0.056831 0.250000 0.112156
O O17 0.250000 0.036952 0.459140
O O18 0.448987 0.250000 0.466775
O O19 0.500000 0.000000 0.500000
#
# Coordination Sequence:
#
# PCOD8245006 Si02
#       6
#     8   8   8   8   8   8
#     4  10  21  36  55  80 110 144 182 225 272 322
#     4  11  24  39  56  81 112 146 184 226 272 322
#     4  10  21  38  60  84 110 143 184 228 274 326
#     4  10  21  37  58  84 112 143 180 222 270 325
#     4   9  18  34  55  78 107 144 183 222 266 319
#     4  10  21  37  58  84 113 147 186 227 274 327
#
# _framework density 19.081697999999999
#
# number of rings (size 3 to 8) (size 9 to 14) (size 15 to 20)
#    0.000    2.000    0.000    3.000    0.000    9.333 
#    0.000    3.333    0.000    0.000    0.000    0.000 
#    0.000    0.000    0.000    0.000    0.000    0.000 
#
# Total GULP energy -595451.659353 kJ/mol
# GULP energy per Si atom -12405.242903 kJ/mol
# Density = 1.903827 g / cm^3
# Si number density = 19.081698 Si / 1000 Ang^3
#
#
#
# Elastic Constant Matrix: (Units=GPa)
#
#
# Indices 1 2 3 4 5 6 
#
# 1 73.6387 41.7996 45.9240 0.0000 0.0000 0.0000
# 2 41.7996 85.5523 66.5222 0.0000 0.0000 0.0000
# 3 45.9240 66.5222 134.7561 0.0000 0.0000 0.0000
# 4 0.0000 0.0000 0.0000 40.7707 0.0000 0.0000
# 5 0.0000 0.0000 0.0000 0.0000 42.7766 0.0000
# 6 0.0000 0.0000 0.0000 0.0000 0.0000 29.6939
#
#
#
# Elastic Compliance Matrix: (Units=1/GPa)
#
#
# Indices 1 2 3 4 5 6 
#
# 1 0.019590 -0.007109 -0.003167 0.000000 0.000000 0.000000
# 2 -0.007109 0.021550 -0.008216 0.000000 0.000000 0.000000
# 3 -0.003167 -0.008216 0.012556 0.000000 0.000000 0.000000
# 4 0.000000 0.000000 0.000000 0.024527 0.000000 0.000000
# 5 0.000000 0.000000 0.000000 0.000000 0.023377 0.000000
# 6 0.000000 0.000000 0.000000 0.000000 0.000000 0.033677
#
#
# Mechanical properties :
#
#
# Convention : Reuss Voigt Hill
#
# Bulk Modulus (GPa) = 59.83302 66.93763 63.38532
# Shear Modulus (GPa) = 28.11653 31.96166 30.03910
#
# Velocity S-wave (km/s) = 3.84276 4.09710 3.97197
# Velocity P-wave (km/s) = 7.14936 7.58534 7.37057
#
# Compressibility (1/GPa) = 0.01671318
#
# Stress axis : x y z
#
# Youngs Moduli (GPa) = 51.04623 46.40321 79.64559
#
# Poissons Ratio (x) = 0.32988 0.25222
# Poissons Ratio (y) = 0.36289 0.65433
# Poissons Ratio (z) = 0.16165 0.38123
#
# Static dielectric constant tensor:
#      x y z
#    x 3.557410 0.000000 0.000000 
#    y 0.000000 3.590050 0.000000 
#    z 0.000000 0.000000 3.607830 
# 
# 
# High freq. dielectric constant tensor:
#      x y z
#    x 1.749420 0.000000 0.000000 
#    y 0.000000 1.738780 0.000000 
#    z 0.000000 0.000000 1.756300 
# 
# From -- ./inp_files/32804.got.cif
#   From: 2010.03.12/outbox.cif.g09.slc.cpg/sg59_17_cif.got.tgz:32804.got - 2010.04.16 16:29:54.
