data_PCOD8245508
_publ_section_title
;
Structure prediction by ZEFSAII (Michael W. Deem and Ramdas Pophale) SiO2 
 PCOD8245508
Probable space group: P M M N
;
_chemical_formula_sum "Si O2"
_cell_formula_units_Z 64
_cell_length_a 8.711675
_cell_length_b 18.356928
_cell_length_c 20.135824
_cell_angle_alpha 90.000000
_cell_angle_beta 90.000000
_cell_angle_gamma 90.000000
_cell_volume 3220.112733
_symmetry_space_group_name_H-M "P M M N"
_symmetry_group_IT_number 59
_space_group.IT_coordinate_system_code '2'
_symmetry_cell_setting 'orthorhombic'
loop_
_space_group_symop_operation_xyz
x,y,z
1/2-x,1/2-y,z
1/2+x,-y,-z
-x,1/2+y,-z
-x,-y,-z
1/2+x,1/2+y,-z
1/2-x,y,z
x,1/2-y,z
loop_
_atom_site_type_symbol
_atom_site_label
_atom_site_fract_x
_atom_site_fract_y
_atom_site_fract_z
Si Si1 0.573688 0.084133 0.765151
Si Si2 0.425957 0.164961 0.494841
Si Si3 0.571685 0.833978 0.118014
Si Si4 0.430347 0.579527 0.998556
Si Si5 0.428654 0.834610 0.869353
Si Si6 0.071055 0.932943 0.613581
Si Si7 0.572102 0.412499 0.612559
Si Si8 0.571134 0.581697 0.751078
O O1 0.750000 0.098992 0.784442
O O2 0.463851 0.133084 0.809943
O O3 0.541296 0.106174 0.689319
O O4 0.532245 0.999418 0.776786
O O5 0.250000 0.142658 0.482153
O O6 0.451164 0.250000 0.485937
O O7 0.535892 0.125809 0.442573
O O8 0.473153 0.143206 0.569339
O O9 0.750000 0.843787 0.102177
O O10 0.522083 0.750000 0.117295
O O11 0.474893 0.876247 0.063539
O O12 0.250000 0.571435 0.996608
O O13 0.500000 0.500000 0.000000
O O14 0.489441 0.622331 0.933726
O O15 0.250000 0.850190 0.856001
O O16 0.460534 0.750000 0.882039
O O17 0.525429 0.860106 0.806308
O O18 0.250000 0.951707 0.613954
O O19 0.022682 0.900117 0.684623
O O20 0.976276 0.005194 0.596616
O O21 0.750000 0.404141 0.594385
O O22 0.750000 0.588323 0.733831
#
# Coordination Sequence:
#
# PCOD8245508 Si02
#       8
#     8   8   8   8   8   8   8   8
#     4   9  20  38  60  85 113 149 191 234 282 339
#     4  11  24  40  58  83 117 154 192 237 289 344
#     4  11  24  39  57  85 120 155 192 236 285 339
#     4  11  23  40  63  87 114 151 194 241 289 340
#     4  10  22  39  58  83 115 151 190 231 281 342
#     4  11  22  38  62  87 114 151 194 238 284 339
#     4  10  21  39  62  87 116 150 192 240 288 341
#     4  10  21  38  60  87 116 147 188 236 286 339
#
# _framework density 19.875081999999999
#
# number of rings (size 3 to 8) (size 9 to 14) (size 15 to 20)
#    0.000    1.625    0.000    5.250    0.000    9.750 
#    0.000    2.500    0.000    0.000    0.000    0.000 
#    0.000    0.000    0.000    0.000    0.000    0.000 
#
# Total GULP energy -794021.596714 kJ/mol
# GULP energy per Si atom -12406.587449 kJ/mol
# Density = 1.982985 g / cm^3
# Si number density = 19.875082 Si / 1000 Ang^3
#
#
#
# Elastic Constant Matrix: (Units=GPa)
#
#
# Indices 1 2 3 4 5 6 
#
# 1 52.6548 26.9862 25.9170 0.0000 0.0000 0.0000
# 2 26.9862 73.5508 34.0790 0.0000 0.0000 0.0000
# 3 25.9170 34.0790 94.7774 0.0000 0.0000 0.0000
# 4 0.0000 0.0000 0.0000 17.0215 0.0000 0.0000
# 5 0.0000 0.0000 0.0000 0.0000 36.0378 0.0000
# 6 0.0000 0.0000 0.0000 0.0000 0.0000 33.9807
#
#
#
# Elastic Compliance Matrix: (Units=1/GPa)
#
#
# Indices 1 2 3 4 5 6 
#
# 1 0.024706 -0.007121 -0.004195 0.000000 0.000000 0.000000
# 2 -0.007121 0.018366 -0.004657 0.000000 0.000000 0.000000
# 3 -0.004195 -0.004657 0.013373 0.000000 0.000000 0.000000
# 4 0.000000 0.000000 0.000000 0.058749 0.000000 0.000000
# 5 0.000000 0.000000 0.000000 0.000000 0.027749 0.000000
# 6 0.000000 0.000000 0.000000 0.000000 0.000000 0.029428
#
#
# Mechanical properties :
#
#
# Convention : Reuss Voigt Hill
#
# Bulk Modulus (GPa) = 40.81794 43.88303 42.35048
# Shear Modulus (GPa) = 23.53113 26.34139 24.93626
#
# Velocity S-wave (km/s) = 3.44459 3.64448 3.54595
# Velocity P-wave (km/s) = 6.03342 6.31166 6.17410
#
# Compressibility (1/GPa) = 0.02449903
#
# Stress axis : x y z
#
# Youngs Moduli (GPa) = 40.47567 54.44722 74.77904
#
# Poissons Ratio (x) = 0.38771 0.31373
# Poissons Ratio (y) = 0.28822 0.34823
# Poissons Ratio (z) = 0.16982 0.25355
#
# Static dielectric constant tensor:
#      x y z
#    x 3.649800 0.000000 0.000000 
#    y 0.000000 3.742940 0.000000 
#    z 0.000000 0.000000 3.716290 
# 
# 
# High freq. dielectric constant tensor:
#      x y z
#    x 1.782060 0.000000 0.000000 
#    y 0.000000 1.774260 0.000000 
#    z 0.000000 0.000000 1.787320 
# 
# From -- ./inp_files/29476.got.cif
#   From: 2010.03.12/outbox.cif.g09.slc.cpg/sg59_15_cif.got.tgz:29476.got - 2010.04.16 16:29:54.
