data_PCOD8245312
_publ_section_title
;
Structure prediction by ZEFSAII (Michael W. Deem and Ramdas Pophale) SiO2 
 PCOD8245312
Probable space group: P M M N
;
_chemical_formula_sum "Si O2"
_cell_formula_units_Z 56
_cell_length_a 22.432136
_cell_length_b 8.852721
_cell_length_c 14.523383
_cell_angle_alpha 90.000000
_cell_angle_beta 90.000000
_cell_angle_gamma 90.000000
_cell_volume 2884.132424
_symmetry_space_group_name_H-M "P M M N"
_symmetry_group_IT_number 59
_space_group.IT_coordinate_system_code '2'
_symmetry_cell_setting 'orthorhombic'
loop_
_space_group_symop_operation_xyz
x,y,z
1/2-x,1/2-y,z
1/2+x,-y,-z
-x,1/2+y,-z
-x,-y,-z
1/2+x,1/2+y,-z
1/2-x,y,z
x,1/2-y,z
loop_
_atom_site_type_symbol
_atom_site_label
_atom_site_fract_x
_atom_site_fract_y
_atom_site_fract_z
Si Si1 0.646792 0.427970 0.309743
Si Si2 0.030528 0.576803 0.084752
Si Si3 0.750000 0.072941 0.967087
Si Si4 0.400152 0.426979 0.338556
Si Si5 0.750000 0.429902 0.175226
Si Si6 0.353251 0.424860 0.144410
Si Si7 0.317249 0.423741 0.505182
Si Si8 0.520484 0.579063 0.281337
O O1 0.641159 0.250000 0.304071
O O2 0.690311 0.487811 0.228000
O O3 0.676105 0.472963 0.405922
O O4 0.580902 0.494152 0.304607
O O5 0.050328 0.750000 0.064491
O O6 0.084494 0.464335 0.099732
O O7 0.987018 0.571716 0.171837
O O8 0.000000 0.500000 0.000000
O O9 0.750000 0.250000 0.978212
O O10 0.693839 0.025058 0.908180
O O11 0.750000 0.003622 0.070954
O O12 0.413840 0.250000 0.338450
O O13 0.357418 0.467974 0.252295
O O14 0.364236 0.479465 0.428535
O O15 0.463742 0.509593 0.334379
O O16 0.750000 0.250000 0.175225
O O17 0.337341 0.250000 0.130298
O O18 0.250000 0.441571 0.466496
O O19 0.330045 0.250000 0.531535
O O20 0.526309 0.750000 0.316361
#
# Coordination Sequence:
#
# PCOD8245312 Si02
#       8
#     8   8   4   8   4   8   8   8
#     4  11  22  40  63  86 116 154 197 242 293 352
#     4  10  21  37  58  84 116 152 195 243 291 347
#     4  11  23  39  58  85 118 158 199 241 294 349
#     4   9  20  39  63  88 119 156 194 235 293 355
#     4   9  22  41  58  81 114 154 197 241 288 349
#     4  10  21  38  59  87 119 153 195 241 287 349
#     4  10  21  38  62  90 118 152 193 241 293 347
#     4  10  22  39  59  87 119 151 194 245 294 342
#
# _framework density 19.416584
#
# number of rings (size 3 to 8) (size 9 to 14) (size 15 to 20)
#    0.000    2.000    0.714    1.929    3.000    3.429 
#    0.000    2.143    0.000    0.000    0.000    0.000 
#    0.000    0.000    0.000    0.000    0.000    0.000 
#
# Total GULP energy -694346.148019 kJ/mol
# GULP energy per Si atom -12399.038357 kJ/mol
# Density = 1.937239 g / cm^3
# Si number density = 19.416584 Si / 1000 Ang^3
#
#
#
# Elastic Constant Matrix: (Units=GPa)
#
#
# Indices 1 2 3 4 5 6 
#
# 1 114.0804 42.8109 61.5637 0.0000 0.0000 0.0000
# 2 42.8109 62.8205 33.4937 0.0000 0.0000 0.0000
# 3 61.5637 33.4937 90.4872 0.0000 0.0000 0.0000
# 4 0.0000 0.0000 0.0000 30.0195 0.0000 0.0000
# 5 0.0000 0.0000 0.0000 0.0000 36.3030 0.0000
# 6 0.0000 0.0000 0.0000 0.0000 0.0000 32.7936
#
#
#
# Elastic Compliance Matrix: (Units=1/GPa)
#
#
# Indices 1 2 3 4 5 6 
#
# 1 0.015566 -0.006181 -0.008302 0.000000 0.000000 0.000000
# 2 -0.006181 0.022287 -0.004044 0.000000 0.000000 0.000000
# 3 -0.008302 -0.004044 0.018197 0.000000 0.000000 0.000000
# 4 0.000000 0.000000 0.000000 0.033312 0.000000 0.000000
# 5 0.000000 0.000000 0.000000 0.000000 0.027546 0.000000
# 6 0.000000 0.000000 0.000000 0.000000 0.000000 0.030494
#
#
# Mechanical properties :
#
#
# Convention : Reuss Voigt Hill
#
# Bulk Modulus (GPa) = 52.64751 60.34719 56.49735
# Shear Modulus (GPa) = 26.20722 28.45788 27.33255
#
# Velocity S-wave (km/s) = 3.67786 3.83253 3.75599
# Velocity P-wave (km/s) = 6.72377 7.12265 6.92608
#
# Compressibility (1/GPa) = 0.01899425
#
# Stress axis : x y z
#
# Youngs Moduli (GPa) = 64.24378 44.86945 54.95503
#
# Poissons Ratio (x) = 0.27735 0.45625
# Poissons Ratio (y) = 0.39711 0.22224
# Poissons Ratio (z) = 0.53337 0.18145
#
# Static dielectric constant tensor:
#      x y z
#    x -3.893080 0.000000 0.000000 
#    y 0.000000 3.138280 0.000000 
#    z 0.000000 0.000000 4.175530 
# 
# 
# High freq. dielectric constant tensor:
#      x y z
#    x 1.765060 0.000000 0.000000 
#    y 0.000000 1.753930 0.000000 
#    z 0.000000 0.000000 1.760250 
# 
# From -- ./inp_files/24342.got.cif
#   From: 2010.03.12/outbox.cif.g09.slc.cpg/sg59_13_cif.got.tgz:24342.got - 2010.04.16 16:29:54.
