data_PCOD8245459
_publ_section_title
;
Structure prediction by ZEFSAII (Michael W. Deem and Ramdas Pophale) SiO2 
 PCOD8245459
Probable space group: P M M N
;
_chemical_formula_sum "Si O2"
_cell_formula_units_Z 64
_cell_length_a 8.971160
_cell_length_b 15.266937
_cell_length_c 24.079653
_cell_angle_alpha 90.000000
_cell_angle_beta 90.000000
_cell_angle_gamma 90.000000
_cell_volume 3298.000674
_symmetry_space_group_name_H-M "P M M N"
_symmetry_group_IT_number 59
_space_group.IT_coordinate_system_code '2'
_symmetry_cell_setting 'orthorhombic'
loop_
_space_group_symop_operation_xyz
x,y,z
1/2-x,1/2-y,z
1/2+x,-y,-z
-x,1/2+y,-z
-x,-y,-z
1/2+x,1/2+y,-z
1/2-x,y,z
x,1/2-y,z
loop_
_atom_site_type_symbol
_atom_site_label
_atom_site_fract_x
_atom_site_fract_y
_atom_site_fract_z
Si Si1 0.426105 0.906679 0.001990
Si Si2 0.424084 0.150045 0.390302
Si Si3 0.925556 0.492627 0.688863
Si Si4 0.573542 0.501401 0.192825
Si Si5 0.081371 0.151869 0.890297
Si Si6 0.925522 0.648102 0.387345
Si Si7 0.573616 0.154740 0.116547
Si Si8 0.083073 0.853840 0.498656
O O1 0.250000 0.916824 0.003769
O O2 0.480832 0.856953 0.946703
O O3 0.477852 0.854151 0.055931
O O4 0.500000 0.000000 0.000000
O O5 0.250000 0.147628 0.403585
O O6 0.473154 0.250000 0.374950
O O7 0.506957 0.113485 0.444813
O O8 0.467525 0.084588 0.340647
O O9 0.750000 0.476378 0.687689
O O10 0.982967 0.499115 0.750917
O O11 0.003817 0.409224 0.661251
O O12 0.750000 0.496453 0.204804
O O13 0.529232 0.588152 0.158812
O O14 0.511337 0.419356 0.157421
O O15 0.250000 0.127151 0.908050
O O16 0.071435 0.250000 0.866464
O O17 0.750000 0.634090 0.388062
O O18 0.966701 0.750000 0.377122
O O19 0.990378 0.613039 0.445704
O O20 0.750000 0.148115 0.117296
O O21 0.518635 0.250000 0.137542
O O22 0.250000 0.892285 0.495014
O O23 0.084822 0.750000 0.498947
#
# Coordination Sequence:
#
# PCOD8245459 Si02
#       8
#     8   8   8   8   8   8   8   8
#     4  11  20  34  58  87 120 152 186 228 282 338
#     4   9  19  37  58  80 112 152 188 225 277 340
#     4  11  24  39  57  83 112 146 191 241 286 329
#     4  10  21  39  57  77 109 149 191 234 281 335
#     4  10  21  38  59  84 114 149 189 232 282 339
#     4  10  21  38  60  84 112 149 188 226 279 344
#     4   9  18  34  57  83 111 145 185 228 276 332
#     4   9  17  31  55  87 118 145 180 230 281 329
#
# _framework density 19.405695999999999
#
# number of rings (size 3 to 8) (size 9 to 14) (size 15 to 20)
#    0.000    2.125    1.250    1.875    0.000    6.000 
#    0.000    1.250    0.000    1.500    0.000    0.000 
#    0.000    0.000    0.000    0.000    0.000    0.000 
#
# Total GULP energy -793632.904184 kJ/mol
# GULP energy per Si atom -12400.514128 kJ/mol
# Density = 1.936153 g / cm^3
# Si number density = 19.405696 Si / 1000 Ang^3
#
#
#
# Elastic Constant Matrix: (Units=GPa)
#
#
# Indices 1 2 3 4 5 6 
#
# 1 75.5594 43.0850 55.7758 0.0000 0.0000 0.0000
# 2 43.0850 129.0401 73.2570 0.0000 0.0000 0.0000
# 3 55.7758 73.2570 156.7124 0.0000 0.0000 0.0000
# 4 0.0000 0.0000 0.0000 12.9518 0.0000 0.0000
# 5 0.0000 0.0000 0.0000 0.0000 35.8931 0.0000
# 6 0.0000 0.0000 0.0000 0.0000 0.0000 20.5478
#
#
#
# Elastic Compliance Matrix: (Units=1/GPa)
#
#
# Indices 1 2 3 4 5 6 
#
# 1 0.018991 -0.003408 -0.005166 0.000000 0.000000 0.000000
# 2 -0.003408 0.011161 -0.004004 0.000000 0.000000 0.000000
# 3 -0.005166 -0.004004 0.010092 0.000000 0.000000 0.000000
# 4 0.000000 0.000000 0.000000 0.077209 0.000000 0.000000
# 5 0.000000 0.000000 0.000000 0.000000 0.027860 0.000000
# 6 0.000000 0.000000 0.000000 0.000000 0.000000 0.048667
#
#
# Mechanical properties :
#
#
# Convention : Reuss Voigt Hill
#
# Bulk Modulus (GPa) = 66.28303 78.39417 72.33860
# Shear Modulus (GPa) = 22.30487 26.49149 24.39818
#
# Velocity S-wave (km/s) = 3.39396 3.69879 3.54965
# Velocity P-wave (km/s) = 7.04196 7.66333 7.35921
#
# Compressibility (1/GPa) = 0.01508682
#
# Stress axis : x y z
#
# Youngs Moduli (GPa) = 52.65520 89.60026 99.09245
#
# Poissons Ratio (x) = 0.30538 0.51192
# Poissons Ratio (y) = 0.17946 0.39678
# Poissons Ratio (z) = 0.27202 0.35877
#
# Static dielectric constant tensor:
#      x y z
#    x 3.577510 0.000000 0.000000 
#    y 0.000000 3.784330 0.000000 
#    z 0.000000 0.000000 3.621720 
# 
# 
# High freq. dielectric constant tensor:
#      x y z
#    x 1.744680 0.000000 0.000000 
#    y 0.000000 1.763920 0.000000 
#    z 0.000000 0.000000 1.752610 
# 
# From -- ./inp_files/31542.got.cif
#   From: 2010.03.12/outbox.cif.g09.slc.cpg/sg59_16_cif.got.tgz:31542.got - 2010.04.16 16:29:54.
