data_PCOD8245584
_publ_section_title
;
Structure prediction by ZEFSAII (Michael W. Deem and Ramdas Pophale) SiO2 
 PCOD8245584
Probable space group: P M M N
;
_chemical_formula_sum "Si O2"
_cell_formula_units_Z 40
_cell_length_a 8.791241
_cell_length_b 16.783528
_cell_length_c 12.734835
_cell_angle_alpha 90.000000
_cell_angle_beta 90.000000
_cell_angle_gamma 90.000000
_cell_volume 1878.999937
_symmetry_space_group_name_H-M "P M M N"
_symmetry_group_IT_number 59
_space_group.IT_coordinate_system_code '2'
_symmetry_cell_setting 'orthorhombic'
loop_
_space_group_symop_operation_xyz
x,y,z
1/2-x,1/2-y,z
1/2+x,-y,-z
-x,1/2+y,-z
-x,-y,-z
1/2+x,1/2+y,-z
1/2-x,y,z
x,1/2-y,z
loop_
_atom_site_type_symbol
_atom_site_label
_atom_site_fract_x
_atom_site_fract_y
_atom_site_fract_z
Si Si1 0.416172 0.157334 0.832695
Si Si2 0.430714 0.842695 0.750623
Si Si3 0.928649 0.919272 0.544807
Si Si4 0.915175 0.157641 0.636306
Si Si5 0.930016 0.581351 0.957720
O O1 0.250000 0.117286 0.819203
O O2 0.405281 0.250000 0.809603
O O3 0.525369 0.117572 0.744997
O O4 0.471934 0.144413 0.951177
O O5 0.250000 0.847305 0.746439
O O6 0.484708 0.750000 0.748494
O O7 0.497008 0.891389 0.653006
O O8 0.489516 0.887053 0.853849
O O9 0.750000 0.928392 0.561416
O O10 0.965190 0.853263 0.457207
O O11 0.000000 0.000000 0.500000
O O12 0.750000 0.118909 0.609758
O O13 0.892723 0.250000 0.655414
O O14 0.750000 0.573267 0.937342
O O15 0.000000 0.500000 0.000000
#
# Coordination Sequence:
#
# PCOD8245584 Si02
#       5
#     8   8   8   8   8
#     4   9  19  37  61  88 120 162 211 260 312 376
#     4  11  25  46  71  99 134 176 224 276 333 400
#     4  12  26  43  66  94 129 170 215 269 327 388
#     4  10  21  38  62  92 126 163 206 257 314 379
#     4  11  24  41  64  94 132 174 219 273 328 387
#
# _framework density 21.287918999999999
#
# number of rings (size 3 to 8) (size 9 to 14) (size 15 to 20)
#    0.000    1.400    0.000    4.800    2.800    7.600 
#    0.000    2.000    0.000    0.000    0.000    0.000 
#    0.000    0.000    0.000    0.000    0.000    0.000 
#
# Total GULP energy -495840.832353 kJ/mol
# GULP energy per Si atom -12396.020809 kJ/mol
# Density = 2.123947 g / cm^3
# Si number density = 21.287919 Si / 1000 Ang^3
#
#
#
# Elastic Constant Matrix: (Units=GPa)
#
#
# Indices 1 2 3 4 5 6 
#
# 1 130.5701 51.4238 74.4387 0.0000 0.0000 0.0000
# 2 51.4238 84.0566 55.8366 0.0000 0.0000 0.0000
# 3 74.4387 55.8366 196.3383 0.0000 0.0000 0.0000
# 4 0.0000 0.0000 0.0000 39.9446 0.0000 0.0000
# 5 0.0000 0.0000 0.0000 0.0000 38.4977 0.0000
# 6 0.0000 0.0000 0.0000 0.0000 0.0000 27.1009
#
#
#
# Elastic Compliance Matrix: (Units=1/GPa)
#
#
# Indices 1 2 3 4 5 6 
#
# 1 0.011246 -0.004990 -0.002844 0.000000 0.000000 0.000000
# 2 -0.004990 0.016882 -0.002909 0.000000 0.000000 0.000000
# 3 -0.002844 -0.002909 0.006999 0.000000 0.000000 0.000000
# 4 0.000000 0.000000 0.000000 0.025035 0.000000 0.000000
# 5 0.000000 0.000000 0.000000 0.000000 0.025976 0.000000
# 6 0.000000 0.000000 0.000000 0.000000 0.000000 0.036899
#
#
# Mechanical properties :
#
#
# Convention : Reuss Voigt Hill
#
# Bulk Modulus (GPa) = 73.31870 86.04035 79.67952
# Shear Modulus (GPa) = 33.54114 36.39302 34.96708
#
# Velocity S-wave (km/s) = 3.97368 4.13917 4.05727
# Velocity P-wave (km/s) = 7.45451 7.95920 7.71099
#
# Compressibility (1/GPa) = 0.01363909
#
# Stress axis : x y z
#
# Youngs Moduli (GPa) = 88.92226 59.23403 142.87772
#
# Poissons Ratio (x) = 0.29560 0.40641
# Poissons Ratio (y) = 0.44376 0.41564
# Poissons Ratio (z) = 0.25293 0.17232
#
# Static dielectric constant tensor:
#      x y z
#    x 3.561170 0.000000 0.000000 
#    y 0.000000 3.803310 0.000000 
#    z 0.000000 0.000000 4.253420 
# 
# 
# High freq. dielectric constant tensor:
#      x y z
#    x 1.846950 0.000000 0.000000 
#    y 0.000000 1.828370 0.000000 
#    z 0.000000 0.000000 1.854620 
# 
# From -- ./inp_files/13854.got.cif
#   From: 2010.03.12/outbox.cif.g09.slc.cpg/sg59_7_cif.got.tgz:13854.got - 2010.04.16 16:29:54.
