data_PCOD8245785
_publ_section_title
;
Structure prediction by ZEFSAII (Michael W. Deem and Ramdas Pophale) SiO2 
 PCOD8245785
Probable space group: P M M N
;
_chemical_formula_sum "Si O2"
_cell_formula_units_Z 56
_cell_length_a 8.980703
_cell_length_b 14.134326
_cell_length_c 22.942648
_cell_angle_alpha 90.000000
_cell_angle_beta 90.000000
_cell_angle_gamma 90.000000
_cell_volume 2912.252186
_symmetry_space_group_name_H-M "P M M N"
_symmetry_group_IT_number 59
_space_group.IT_coordinate_system_code '2'
_symmetry_cell_setting 'orthorhombic'
loop_
_space_group_symop_operation_xyz
x,y,z
1/2-x,1/2-y,z
1/2+x,-y,-z
-x,1/2+y,-z
-x,-y,-z
1/2+x,1/2+y,-z
1/2-x,y,z
x,1/2-y,z
loop_
_atom_site_type_symbol
_atom_site_label
_atom_site_fract_x
_atom_site_fract_y
_atom_site_fract_z
Si Si1 0.574549 0.141372 0.031940
Si Si2 0.078147 0.857056 0.646978
Si Si3 0.573480 0.401320 0.484684
Si Si4 0.426029 0.530646 0.310632
Si Si5 0.927276 0.357326 0.802230
Si Si6 0.082717 0.148015 0.592980
Si Si7 0.425272 0.967760 0.084464
O O1 0.750000 0.138240 0.041527
O O2 0.516842 0.250000 0.038382
O O3 0.499648 0.071643 0.079260
O O4 0.530506 0.101826 0.968374
O O5 0.250000 0.885139 0.653939
O O6 0.048737 0.750000 0.666873
O O7 0.028510 0.868574 0.579880
O O8 0.982033 0.922469 0.690595
O O9 0.500000 0.500000 0.500000
O O10 0.750000 0.402075 0.492806
O O11 0.498941 0.332101 0.531650
O O12 0.250000 0.533955 0.312914
O O13 0.486324 0.588573 0.255052
O O14 0.490802 0.574385 0.369359
O O15 0.750000 0.353806 0.803032
O O16 0.990533 0.250000 0.803316
O O17 0.985968 0.415995 0.857767
O O18 0.250000 0.107254 0.583822
O O19 0.089091 0.250000 0.624800
O O20 0.250000 0.984350 0.087259
#
# Coordination Sequence:
#
# PCOD8245785 Si02
#       7
#     8   8   8   8   8   8   8
#     4   9  17  30  50  78 112 147 180 217 266 319
#     4  10  22  40  59  77 103 140 177 215 264 323
#     4  11  21  35  57  82 107 136 171 214 268 323
#     4  11  22  36  57  81 105 135 175 225 271 315
#     4   9  18  34  56  81 107 137 177 222 268 318
#     4  11  23  37  54  78 109 142 174 212 262 320
#     4   9  17  31  53  79 107 142 183 225 266 312
#
# _framework density 19.229105000000001
#
# number of rings (size 3 to 8) (size 9 to 14) (size 15 to 20)
#    0.000    2.000    1.429    2.571    0.000    5.143 
#    0.000    2.143    0.000    7.286    0.000    0.000 
#    0.000    0.000    0.000    0.000    0.000    0.000 
#
# Total GULP energy -694249.530793 kJ/mol
# GULP energy per Si atom -12397.313050 kJ/mol
# Density = 1.918534 g / cm^3
# Si number density = 19.229105 Si / 1000 Ang^3
#
#
#
# Elastic Constant Matrix: (Units=GPa)
#
#
# Indices 1 2 3 4 5 6 
#
# 1 56.6407 42.8065 32.8061 0.0000 0.0000 0.0000
# 2 42.8065 158.9612 61.8015 0.0000 0.0000 0.0000
# 3 32.8061 61.8015 102.6935 0.0000 0.0000 0.0000
# 4 0.0000 0.0000 0.0000 31.8086 0.0000 0.0000
# 5 0.0000 0.0000 0.0000 0.0000 21.1858 0.0000
# 6 0.0000 0.0000 0.0000 0.0000 0.0000 28.9236
#
#
#
# Elastic Compliance Matrix: (Units=1/GPa)
#
#
# Indices 1 2 3 4 5 6 
#
# 1 0.023928 -0.004532 -0.004917 0.000000 0.000000 0.000000
# 2 -0.004532 0.009071 -0.004011 0.000000 0.000000 0.000000
# 3 -0.004917 -0.004011 0.013722 0.000000 0.000000 0.000000
# 4 0.000000 0.000000 0.000000 0.031438 0.000000 0.000000
# 5 0.000000 0.000000 0.000000 0.000000 0.047201 0.000000
# 6 0.000000 0.000000 0.000000 0.000000 0.000000 0.034574
#
#
# Mechanical properties :
#
#
# Convention : Reuss Voigt Hill
#
# Bulk Modulus (GPa) = 50.50089 65.90265 58.20177
# Shear Modulus (GPa) = 25.84596 28.44235 27.14415
#
# Velocity S-wave (km/s) = 3.67018 3.85012 3.76123
# Velocity P-wave (km/s) = 6.65433 7.35604 7.01396
#
# Compressibility (1/GPa) = 0.01980163
#
# Stress axis : x y z
#
# Youngs Moduli (GPa) = 41.79218 110.24525 72.87484
#
# Poissons Ratio (x) = 0.49964 0.35829
# Poissons Ratio (y) = 0.18941 0.29230
# Poissons Ratio (z) = 0.20547 0.44219
#
# Static dielectric constant tensor:
#      x y z
#    x 3.420350 0.000000 0.000000 
#    y 0.000000 3.803450 0.000000 
#    z 0.000000 0.000000 3.542580 
# 
# 
# High freq. dielectric constant tensor:
#      x y z
#    x 1.731060 0.000000 0.000000 
#    y 0.000000 1.766970 0.000000 
#    z 0.000000 0.000000 1.727840 
# 
# From -- ./inp_files/29172.got.cif
#   From: 2010.03.12/outbox.cif.g09.slc.cpg/sg59_15_cif.got.tgz:29172.got - 2010.04.16 16:29:54.
