data_PCOD8245333
_publ_section_title
;
Structure prediction by ZEFSAII (Michael W. Deem and Ramdas Pophale) SiO2 
 PCOD8245333
Probable space group: P M M N
;
_chemical_formula_sum "Si O2"
_cell_formula_units_Z 48
_cell_length_a 13.865650
_cell_length_b 18.951087
_cell_length_c 9.183151
_cell_angle_alpha 90.000000
_cell_angle_beta 90.000000
_cell_angle_gamma 90.000000
_cell_volume 2413.048686
_symmetry_space_group_name_H-M "P M M N"
_symmetry_group_IT_number 59
_space_group.IT_coordinate_system_code '2'
_symmetry_cell_setting 'orthorhombic'
loop_
_space_group_symop_operation_xyz
x,y,z
1/2-x,1/2-y,z
1/2+x,-y,-z
-x,1/2+y,-z
-x,-y,-z
1/2+x,1/2+y,-z
1/2-x,y,z
x,1/2-y,z
loop_
_atom_site_type_symbol
_atom_site_label
_atom_site_fract_x
_atom_site_fract_y
_atom_site_fract_z
Si Si1 0.858907 0.829630 0.163738
Si Si2 0.137375 0.973207 0.122389
Si Si3 0.489986 0.106750 0.072292
Si Si4 0.480259 0.830991 0.623342
Si Si5 0.360648 0.554867 0.453240
Si Si6 0.638594 0.598281 0.461710
O O1 0.750000 0.842726 0.106764
O O2 0.869902 0.750000 0.222487
O O3 0.882335 0.883374 0.294071
O O4 0.934562 0.841168 0.035812
O O5 0.250000 0.981847 0.080024
O O6 0.125997 0.937988 0.280190
O O7 0.086135 0.048820 0.126562
O O8 0.085001 0.925357 0.002558
O O9 0.529309 0.151640 0.206827
O O10 0.451819 0.750000 0.597683
O O11 0.411031 0.879198 0.526918
O O12 0.588661 0.845699 0.568837
O O13 0.250000 0.558146 0.499387
O O14 0.403328 0.480330 0.511730
O O15 0.750000 0.602573 0.503189
#
# Coordination Sequence:
#
# PCOD8245333 Si02
#       6
#     8   8   8   8   8   8
#     4  10  21  37  58  88 126 165 202 243 301 368
#     4  10  22  40  62  89 117 156 208 256 301 357
#     4  11  23  37  61  89 125 161 197 250 309 368
#     4  12  25  39  61  92 127 160 198 249 310 369
#     4  10  22  42  65  88 120 159 208 255 296 355
#     4  10  21  38  63  91 120 159 206 254 299 354
#
# _framework density 19.891850000000002
#
# number of rings (size 3 to 8) (size 9 to 14) (size 15 to 20)
#    0.000    1.500    1.667    3.000    4.667    2.667 
#    0.000    0.833    0.000    3.500    0.000    0.000 
#    0.000    0.000    0.000    0.000    0.000    0.000 
#
# Total GULP energy -595372.123071 kJ/mol
# GULP energy per Si atom -12403.585897 kJ/mol
# Density = 1.984658 g / cm^3
# Si number density = 19.891850 Si / 1000 Ang^3
#
#
#
# Elastic Constant Matrix: (Units=GPa)
#
#
# Indices 1 2 3 4 5 6 
#
# 1 88.9763 44.9820 45.4965 0.0000 0.0000 0.0000
# 2 44.9820 131.3546 53.1879 0.0000 0.0000 0.0000
# 3 45.4965 53.1879 104.5813 0.0000 0.0000 0.0000
# 4 0.0000 0.0000 0.0000 31.0272 0.0000 0.0000
# 5 0.0000 0.0000 0.0000 0.0000 29.4719 0.0000
# 6 0.0000 0.0000 0.0000 0.0000 0.0000 18.0621
#
#
#
# Elastic Compliance Matrix: (Units=1/GPa)
#
#
# Indices 1 2 3 4 5 6 
#
# 1 0.015478 -0.003241 -0.005085 0.000000 0.000000 0.000000
# 2 -0.003241 0.010266 -0.003811 0.000000 0.000000 0.000000
# 3 -0.005085 -0.003811 0.013712 0.000000 0.000000 0.000000
# 4 0.000000 0.000000 0.000000 0.032230 0.000000 0.000000
# 5 0.000000 0.000000 0.000000 0.000000 0.033931 0.000000
# 6 0.000000 0.000000 0.000000 0.000000 0.000000 0.055365
#
#
# Mechanical properties :
#
#
# Convention : Reuss Voigt Hill
#
# Bulk Modulus (GPa) = 65.86930 68.02721 66.94826
# Shear Modulus (GPa) = 26.27211 27.79529 27.03370
#
# Velocity S-wave (km/s) = 3.63815 3.74213 3.69051
# Velocity P-wave (km/s) = 7.12978 7.27627 7.20340
#
# Compressibility (1/GPa) = 0.01518158
#
# Stress axis : x y z
#
# Youngs Moduli (GPa) = 64.60936 97.40765 72.92752
#
# Poissons Ratio (x) = 0.31573 0.37082
# Poissons Ratio (y) = 0.20942 0.27793
# Poissons Ratio (z) = 0.32853 0.37123
#
# Static dielectric constant tensor:
#      x y z
#    x 3.678380 0.000000 0.000000 
#    y 0.000000 3.536510 0.000000 
#    z 0.000000 0.000000 3.617980 
# 
# 
# High freq. dielectric constant tensor:
#      x y z
#    x 1.781050 0.000000 0.000000 
#    y 0.000000 1.769640 0.000000 
#    z 0.000000 0.000000 1.782260 
# 
# From -- ./inp_files/9008.got.cif
#   From: 2010.03.12/outbox.cif.g09.slc.cpg/sg59_5_cif.got.tgz:9008.got - 2010.04.16 16:29:54.
