data_PCOD8245798
_publ_section_title
;
Structure prediction by ZEFSAII (Michael W. Deem and Ramdas Pophale) SiO2 
 PCOD8245798
Probable space group: P M M N
;
_chemical_formula_sum "Si O2"
_cell_formula_units_Z 64
_cell_length_a 8.951489
_cell_length_b 14.558160
_cell_length_c 25.612690
_cell_angle_alpha 90.000000
_cell_angle_beta 90.000000
_cell_angle_gamma 90.000000
_cell_volume 3337.774278
_symmetry_space_group_name_H-M "P M M N"
_symmetry_group_IT_number 59
_space_group.IT_coordinate_system_code '2'
_symmetry_cell_setting 'orthorhombic'
loop_
_space_group_symop_operation_xyz
x,y,z
1/2-x,1/2-y,z
1/2+x,-y,-z
-x,1/2+y,-z
-x,-y,-z
1/2+x,1/2+y,-z
1/2-x,y,z
x,1/2-y,z
loop_
_atom_site_type_symbol
_atom_site_label
_atom_site_fract_x
_atom_site_fract_y
_atom_site_fract_z
Si Si1 0.572647 0.498910 0.443751
Si Si2 0.924035 0.003496 0.174903
Si Si3 0.922862 0.143542 0.628005
Si Si4 0.583675 0.852035 0.894629
Si Si5 0.423962 0.356668 0.369932
Si Si6 0.576753 0.403074 0.003756
Si Si7 0.917778 0.147493 0.888164
Si Si8 0.080182 0.998355 0.282919
O O1 0.500000 0.500000 0.500000
O O2 0.750000 0.497378 0.448099
O O3 0.522642 0.592127 0.414803
O O4 0.519126 0.406353 0.414728
O O5 0.750000 0.020722 0.171297
O O6 0.963601 0.912825 0.142533
O O7 0.968966 0.993018 0.234790
O O8 0.005216 0.089555 0.149701
O O9 0.750000 0.135142 0.611079
O O10 0.972189 0.250000 0.632586
O O11 0.947594 0.093349 0.683253
O O12 0.750000 0.891592 0.904883
O O13 0.591566 0.750000 0.871762
O O14 0.495599 0.847867 0.948913
O O15 0.250000 0.365497 0.384936
O O16 0.472429 0.250000 0.364762
O O17 0.454843 0.409209 0.315589
O O18 0.750000 0.415571 0.016301
O O19 0.500000 0.500000 0.000000
O O20 0.548717 0.349997 0.949860
O O21 0.750000 0.109527 0.878310
O O22 0.933103 0.250000 0.866259
O O23 0.250000 0.000597 0.262313
#
# Coordination Sequence:
#
# PCOD8245798 Si02
#       8
#     8   8   8   8   8   8   8   8
#     4  11  22  36  56  85 123 162 198 239 286 335
#     4  12  25  39  58  85 117 150 186 237 291 340
#     4   9  19  38  63  88 114 150 196 241 287 341
#     4  11  24  41  61  84 112 149 191 234 283 341
#     4   9  19  38  63  88 114 149 194 240 288 342
#     4  11  21  36  61  88 115 148 184 225 280 341
#     4  10  22  40  61  83 111 149 189 228 276 339
#     4   9  19  37  60  85 115 150 189 234 286 347
#
# _framework density 19.174454000000001
#
# number of rings (size 3 to 8) (size 9 to 14) (size 15 to 20)
#    0.000    1.750    1.250    4.125    0.000    6.250 
#    0.000    2.500    0.000    0.000    0.000    0.000 
#    0.000    0.000    0.000    0.000    0.000    0.000 
#
# Total GULP energy -793708.270399 kJ/mol
# GULP energy per Si atom -12401.691725 kJ/mol
# Density = 1.913081 g / cm^3
# Si number density = 19.174454 Si / 1000 Ang^3
#
#
#
# Elastic Constant Matrix: (Units=GPa)
#
#
# Indices 1 2 3 4 5 6 
#
# 1 137.1887 52.8840 65.4206 0.0000 0.0000 0.0000
# 2 52.8840 142.4388 45.8309 0.0000 0.0000 0.0000
# 3 65.4206 45.8309 109.8668 0.0000 0.0000 0.0000
# 4 0.0000 0.0000 0.0000 32.1495 0.0000 0.0000
# 5 0.0000 0.0000 0.0000 0.0000 35.8268 0.0000
# 6 0.0000 0.0000 0.0000 0.0000 0.0000 21.7687
#
#
#
# Elastic Compliance Matrix: (Units=1/GPa)
#
#
# Indices 1 2 3 4 5 6 
#
# 1 0.010762 -0.002233 -0.005476 0.000000 0.000000 0.000000
# 2 -0.002233 0.008572 -0.002246 0.000000 0.000000 0.000000
# 3 -0.005476 -0.002246 0.013300 0.000000 0.000000 0.000000
# 4 0.000000 0.000000 0.000000 0.031105 0.000000 0.000000
# 5 0.000000 0.000000 0.000000 0.000000 0.027912 0.000000
# 6 0.000000 0.000000 0.000000 0.000000 0.000000 0.045937
#
#
# Mechanical properties :
#
#
# Convention : Reuss Voigt Hill
#
# Bulk Modulus (GPa) = 78.60336 79.75171 79.17754
# Shear Modulus (GPa) = 30.91364 32.97291 31.94327
#
# Velocity S-wave (km/s) = 4.01961 4.15134 4.08601
# Velocity P-wave (km/s) = 7.91365 8.04121 7.97769
#
# Compressibility (1/GPa) = 0.01272210
#
# Stress axis : x y z
#
# Youngs Moduli (GPa) = 92.92203 116.65226 75.18895
#
# Poissons Ratio (x) = 0.26054 0.41177
# Poissons Ratio (y) = 0.20754 0.16888
# Poissons Ratio (z) = 0.50888 0.26201
#
# Static dielectric constant tensor:
#      x y z
#    x 3.252900 0.000000 0.000000 
#    y 0.000000 3.642950 0.000000 
#    z 0.000000 0.000000 3.661410 
# 
# 
# High freq. dielectric constant tensor:
#      x y z
#    x 1.746560 0.000000 0.000000 
#    y 0.000000 1.755550 0.000000 
#    z 0.000000 0.000000 1.741340 
# 
# From -- ./inp_files/31648.got.cif
#   From: 2010.03.12/outbox.cif.g09.slc.cpg/sg59_16_cif.got.tgz:31648.got - 2010.04.16 16:29:54.
