data_PCOD8245972
_publ_section_title
;
Structure prediction by ZEFSAII (Michael W. Deem and Ramdas Pophale) SiO2 
 PCOD8245972
Probable space group: P M M N
;
_chemical_formula_sum "Si O2"
_cell_formula_units_Z 48
_cell_length_a 19.283338
_cell_length_b 9.009702
_cell_length_c 16.114071
_cell_angle_alpha 90.000000
_cell_angle_beta 90.000000
_cell_angle_gamma 90.000000
_cell_volume 2799.612431
_symmetry_space_group_name_H-M "P M M N"
_symmetry_group_IT_number 59
_space_group.IT_coordinate_system_code '2'
_symmetry_cell_setting 'orthorhombic'
loop_
_space_group_symop_operation_xyz
x,y,z
1/2-x,1/2-y,z
1/2+x,-y,-z
-x,1/2+y,-z
-x,-y,-z
1/2+x,1/2+y,-z
1/2-x,y,z
x,1/2-y,z
loop_
_atom_site_type_symbol
_atom_site_label
_atom_site_fract_x
_atom_site_fract_y
_atom_site_fract_z
Si Si1 0.985677 0.584748 0.260271
Si Si2 0.536088 0.927246 0.578283
Si Si3 0.361567 0.912414 0.194491
Si Si4 0.826790 0.423713 0.626800
Si Si5 0.057762 0.916823 0.890700
Si Si6 0.098942 0.415573 0.045253
O O1 0.958199 0.750000 0.284147
O O2 0.994429 0.483484 0.341423
O O3 0.057565 0.601008 0.213172
O O4 0.933211 0.505689 0.195931
O O5 0.532870 0.750000 0.573958
O O6 0.500000 0.000000 0.500000
O O7 0.616489 0.979363 0.578387
O O8 0.331889 0.750000 0.171687
O O9 0.323804 0.974495 0.276740
O O10 0.349780 0.018765 0.115712
O O11 0.750000 0.449538 0.588205
O O12 0.848564 0.250000 0.622174
O O13 0.084058 0.750000 0.875971
O O14 0.978948 0.916914 0.921172
O O15 0.105771 0.990793 0.960918
O O16 0.123753 0.250000 0.025427
#
# Coordination Sequence:
#
# PCOD8245972 Si02
#       6
#     8   8   8   8   8   8
#     4   9  16  27  41  58  82 112 146 183 227 277
#     4  11  21  33  49  69  94 124 159 198 244 296
#     4   8  14  24  38  56  80 111 144 178 217 263
#     4   9  18  33  51  70  94 124 157 194 238 288
#     4   9  15  22  33  51  76 107 142 178 216 258
#     4   9  15  21  31  49  75 108 143 177 211 249
#
# _framework density 17.145230000000002
#
# number of rings (size 3 to 8) (size 9 to 14) (size 15 to 20)
#    0.000    2.833    0.000    4.000    0.000    8.333 
#    0.000    0.000    0.000    0.000    0.000    0.000 
#    0.000    1.333    0.000    8.000    0.000   11.667 
#
# Total GULP energy -594886.533763 kJ/mol
# GULP energy per Si atom -12393.469453 kJ/mol
# Density = 1.710621 g / cm^3
# Si number density = 17.145230 Si / 1000 Ang^3
#
#
#
# Elastic Constant Matrix: (Units=GPa)
#
#
# Indices 1 2 3 4 5 6 
#
# 1 40.1887 34.4047 37.2771 0.0000 0.0000 0.0000
# 2 34.4047 151.6251 65.8614 0.0000 0.0000 0.0000
# 3 37.2771 65.8614 103.1259 0.0000 0.0000 0.0000
# 4 0.0000 0.0000 0.0000 33.2726 0.0000 0.0000
# 5 0.0000 0.0000 0.0000 0.0000 9.9612 0.0000
# 6 0.0000 0.0000 0.0000 0.0000 0.0000 11.1520
#
#
#
# Elastic Compliance Matrix: (Units=1/GPa)
#
#
# Indices 1 2 3 4 5 6 
#
# 1 0.038927 -0.003765 -0.011666 0.000000 0.000000 0.000000
# 2 -0.003765 0.009491 -0.004701 0.000000 0.000000 0.000000
# 3 -0.011666 -0.004701 0.016916 0.000000 0.000000 0.000000
# 4 0.000000 0.000000 0.000000 0.030055 0.000000 0.000000
# 5 0.000000 0.000000 0.000000 0.000000 0.100390 0.000000
# 6 0.000000 0.000000 0.000000 0.000000 0.000000 0.089670
#
#
# Mechanical properties :
#
#
# Convention : Reuss Voigt Hill
#
# Bulk Modulus (GPa) = 39.88833 63.33622 51.61227
# Shear Modulus (GPa) = 14.96694 21.37027 18.16860
#
# Velocity S-wave (km/s) = 2.95778 3.53431 3.25882
# Velocity P-wave (km/s) = 5.91440 7.32641 6.65794
#
# Compressibility (1/GPa) = 0.02506999
#
# Stress axis : x y z
#
# Youngs Moduli (GPa) = 25.68900 105.35844 59.11562
#
# Poissons Ratio (x) = 0.39671 0.68966
# Poissons Ratio (y) = 0.09673 0.27788
# Poissons Ratio (z) = 0.29970 0.49525
#
# Static dielectric constant tensor:
#      x y z
#    x 2.794750 0.000000 0.000000 
#    y 0.000000 3.456860 0.000000 
#    z 0.000000 0.000000 3.216270 
# 
# 
# High freq. dielectric constant tensor:
#      x y z
#    x 1.593690 0.000000 0.000000 
#    y 0.000000 1.674430 0.000000 
#    z 0.000000 0.000000 1.652160 
# 
# From -- ./inp_files/20713.got.cif
#   From: 2010.03.12/outbox.cif.g09.slc.cpg/sg59_11_cif.got.tgz:20713.got - 2010.04.16 16:29:54.
