data_PCOD8245543
_publ_section_title
;
Structure prediction by ZEFSAII (Michael W. Deem and Ramdas Pophale) SiO2 
 PCOD8245543
Probable space group: P M M N
;
_chemical_formula_sum "Si O2"
_cell_formula_units_Z 56
_cell_length_a 15.182021
_cell_length_b 8.809025
_cell_length_c 21.311844
_cell_angle_alpha 90.000000
_cell_angle_beta 90.000000
_cell_angle_gamma 90.000000
_cell_volume 2850.220496
_symmetry_space_group_name_H-M "P M M N"
_symmetry_group_IT_number 59
_space_group.IT_coordinate_system_code '2'
_symmetry_cell_setting 'orthorhombic'
loop_
_space_group_symop_operation_xyz
x,y,z
1/2-x,1/2-y,z
1/2+x,-y,-z
-x,1/2+y,-z
-x,-y,-z
1/2+x,1/2+y,-z
1/2-x,y,z
x,1/2-y,z
loop_
_atom_site_type_symbol
_atom_site_label
_atom_site_fract_x
_atom_site_fract_y
_atom_site_fract_z
Si Si1 0.851703 0.427403 0.564591
Si Si2 0.999859 0.928060 0.646727
Si Si3 0.504089 0.427422 0.208676
Si Si4 0.849254 0.922740 0.129106
Si Si5 0.850901 0.572982 0.432449
Si Si6 0.652476 0.923743 0.880206
Si Si7 0.404793 0.571664 0.996586
O O1 0.750000 0.463164 0.580191
O O2 0.872880 0.250000 0.569119
O O3 0.875793 0.482533 0.495110
O O4 0.910943 0.517527 0.613594
O O5 0.012659 0.750000 0.635529
O O6 0.988969 0.969578 0.719354
O O7 0.086056 0.014930 0.622400
O O8 0.520918 0.250000 0.199326
O O9 0.588770 0.515174 0.183714
O O10 0.417865 0.481916 0.170629
O O11 0.750000 0.934630 0.154788
O O12 0.875569 0.750000 0.113815
O O13 0.855799 0.018464 0.065725
O O14 0.750000 0.541286 0.412480
O O15 0.867242 0.750000 0.444960
O O16 0.750000 0.939777 0.850537
O O17 0.632391 0.750000 0.898919
O O18 0.650143 0.023936 0.942664
O O19 0.414266 0.750000 0.994183
O O20 0.500000 0.500000 0.000000
#
# Coordination Sequence:
#
# PCOD8245543 Si02
#       7
#     8   8   8   8   8   8   8
#     4  10  21  38  61  89 120 154 194 243 295 346
#     4  11  23  38  59  87 120 158 200 242 290 349
#     4  10  23  41  60  84 116 159 201 240 286 341
#     4  11  24  41  62  88 118 154 194 241 297 351
#     4  10  21  38  61  88 118 154 196 243 296 351
#     4  10  21  39  62  87 116 151 193 241 293 348
#     4  12  23  37  61  90 119 151 191 241 296 350
#
# _framework density 19.647603
#
# number of rings (size 3 to 8) (size 9 to 14) (size 15 to 20)
#    0.000    1.429    1.429    3.857    0.000    7.143 
#    0.000    4.286    0.000    0.000    0.000    0.000 
#    0.000    0.000    0.000    0.000    0.000    0.000 
#
# Total GULP energy -694692.430646 kJ/mol
# GULP energy per Si atom -12405.221976 kJ/mol
# Density = 1.960288 g / cm^3
# Si number density = 19.647603 Si / 1000 Ang^3
#
#
#
# Elastic Constant Matrix: (Units=GPa)
#
#
# Indices 1 2 3 4 5 6 
#
# 1 117.5655 36.4793 49.8839 0.0000 0.0000 0.0000
# 2 36.4793 77.2562 34.2982 0.0000 0.0000 0.0000
# 3 49.8839 34.2982 101.5389 0.0000 0.0000 0.0000
# 4 0.0000 0.0000 0.0000 31.2383 0.0000 0.0000
# 5 0.0000 0.0000 0.0000 0.0000 14.2466 0.0000
# 6 0.0000 0.0000 0.0000 0.0000 0.0000 32.8745
#
#
#
# Elastic Compliance Matrix: (Units=1/GPa)
#
#
# Indices 1 2 3 4 5 6 
#
# 1 0.011469 -0.003428 -0.004477 0.000000 0.000000 0.000000
# 2 -0.003428 0.016252 -0.003806 0.000000 0.000000 0.000000
# 3 -0.004477 -0.003806 0.013333 0.000000 0.000000 0.000000
# 4 0.000000 0.000000 0.000000 0.032012 0.000000 0.000000
# 5 0.000000 0.000000 0.000000 0.000000 0.070192 0.000000
# 6 0.000000 0.000000 0.000000 0.000000 0.000000 0.030419
#
#
# Mechanical properties :
#
#
# Convention : Reuss Voigt Hill
#
# Bulk Modulus (GPa) = 56.70899 59.74260 58.22579
# Shear Modulus (GPa) = 24.63352 27.38517 26.00935
#
# Velocity S-wave (km/s) = 3.54470 3.73744 3.64234
# Velocity P-wave (km/s) = 6.75862 7.00697 6.88391
#
# Compressibility (1/GPa) = 0.01763389
#
# Stress axis : x y z
#
# Youngs Moduli (GPa) = 87.19131 61.53030 75.00130
#
# Poissons Ratio (x) = 0.21094 0.33574
# Poissons Ratio (y) = 0.29891 0.28542
# Poissons Ratio (z) = 0.39031 0.23416
#
# Static dielectric constant tensor:
#      x y z
#    x 3.630480 0.000000 0.000000 
#    y 0.000000 3.766880 0.000000 
#    z 0.000000 0.000000 3.622280 
# 
# 
# High freq. dielectric constant tensor:
#      x y z
#    x 1.781320 0.000000 0.000000 
#    y 0.000000 1.774290 0.000000 
#    z 0.000000 0.000000 1.757640 
# 
# From -- ./inp_files/28991.got.cif
#   From: 2010.03.12/outbox.cif.g09.slc.cpg/sg59_15_cif.got.tgz:28991.got - 2010.04.16 16:29:54.
