data_PCOD8245613
_publ_section_title
;
Structure prediction by ZEFSAII (Michael W. Deem and Ramdas Pophale) SiO2 
 PCOD8245613
Probable space group: P M M N
;
_chemical_formula_sum "Si O2"
_cell_formula_units_Z 48
_cell_length_a 14.796478
_cell_length_b 8.756881
_cell_length_c 19.316385
_cell_angle_alpha 90.000000
_cell_angle_beta 90.000000
_cell_angle_gamma 90.000000
_cell_volume 2502.843264
_symmetry_space_group_name_H-M "P M M N"
_symmetry_group_IT_number 59
_space_group.IT_coordinate_system_code '2'
_symmetry_cell_setting 'orthorhombic'
loop_
_space_group_symop_operation_xyz
x,y,z
1/2-x,1/2-y,z
1/2+x,-y,-z
-x,1/2+y,-z
-x,-y,-z
1/2+x,1/2+y,-z
1/2-x,y,z
x,1/2-y,z
loop_
_atom_site_type_symbol
_atom_site_label
_atom_site_fract_x
_atom_site_fract_y
_atom_site_fract_z
Si Si1 0.346975 0.574921 0.900779
Si Si2 0.940129 0.072655 0.439378
Si Si3 0.250000 0.430601 0.534378
Si Si4 0.250000 0.571260 0.385598
Si Si5 0.524371 0.929304 0.830537
Si Si6 0.091316 0.428569 0.026991
Si Si7 0.078302 0.071797 0.318558
O O1 0.250000 0.556902 0.862466
O O2 0.372398 0.750000 0.914021
O O3 0.426646 0.501252 0.854036
O O4 0.333188 0.499707 0.977091
O O5 0.927389 0.250000 0.457247
O O6 0.991419 0.048205 0.367116
O O7 0.841211 0.997599 0.431484
O O8 0.000000 0.000000 0.500000
O O9 0.250000 0.250000 0.544399
O O10 0.250000 0.469797 0.453925
O O11 0.250000 0.750000 0.404316
O O12 0.338793 0.530350 0.342955
O O13 0.512731 0.750000 0.819540
O O14 0.599214 0.965795 0.890467
O O15 0.554396 0.996936 0.757061
O O16 0.090957 0.250000 0.015721
O O17 0.000000 0.500000 0.000000
O O18 0.106983 0.250000 0.316732
#
# Coordination Sequence:
#
# PCOD8245613 Si02
#       7
#     8   8   4   4   8   8   8
#     4   9  17  31  52  78 108 142 182 228 273 322
#     4  11  22  37  61  90 118 149 192 238 285 340
#     4  12  24  40  62  86 116 153 194 237 286 337
#     4  12  24  38  60  86 114 145 186 235 288 347
#     4   8  16  33  54  77 104 141 185 224 268 327
#     4   9  16  29  51  75 100 133 176 221 266 316
#     4  10  21  39  61  84 113 149 188 231 285 343
#
# _framework density 19.178187000000001
#
# number of rings (size 3 to 8) (size 9 to 14) (size 15 to 20)
#    0.000    2.167    1.667    3.500    0.000    1.000 
#    3.000    4.167    0.000    0.000    0.000    0.000 
#    0.000    0.000    0.000    0.000    0.000    0.000 
#
# Total GULP energy -594758.480042 kJ/mol
# GULP energy per Si atom -12390.801668 kJ/mol
# Density = 1.913454 g / cm^3
# Si number density = 19.178187 Si / 1000 Ang^3
#
#
#
# Elastic Constant Matrix: (Units=GPa)
#
#
# Indices 1 2 3 4 5 6 
#
# 1 114.0367 35.6340 31.3332 0.0000 0.0000 0.0000
# 2 35.6340 81.3756 26.9274 0.0000 0.0000 0.0000
# 3 31.3332 26.9274 108.4580 0.0000 0.0000 0.0000
# 4 0.0000 0.0000 0.0000 22.5562 0.0000 0.0000
# 5 0.0000 0.0000 0.0000 0.0000 4.3057 0.0000
# 6 0.0000 0.0000 0.0000 0.0000 0.0000 28.7219
#
#
#
# Elastic Compliance Matrix: (Units=1/GPa)
#
#
# Indices 1 2 3 4 5 6 
#
# 1 0.010571 -0.003942 -0.002075 0.000000 0.000000 0.000000
# 2 -0.003942 0.014859 -0.002550 0.000000 0.000000 0.000000
# 3 -0.002075 -0.002550 0.010453 0.000000 0.000000 0.000000
# 4 0.000000 0.000000 0.000000 0.044334 0.000000 0.000000
# 5 0.000000 0.000000 0.000000 0.000000 0.232249 0.000000
# 6 0.000000 0.000000 0.000000 0.000000 0.000000 0.034817
#
#
# Mechanical properties :
#
#
# Convention : Reuss Voigt Hill
#
# Bulk Modulus (GPa) = 53.34057 54.62882 53.98469
# Shear Modulus (GPa) = 13.48921 25.11514 19.30217
#
# Velocity S-wave (km/s) = 2.65497 3.62272 3.17592
# Velocity P-wave (km/s) = 6.10508 6.78569 6.45436
#
# Compressibility (1/GPa) = 0.01874746
#
# Stress axis : x y z
#
# Youngs Moduli (GPa) = 94.59655 67.29968 95.66796
#
# Poissons Ratio (x) = 0.26532 0.19853
# Poissons Ratio (y) = 0.37294 0.24397
# Poissons Ratio (z) = 0.19631 0.17162
#
# Static dielectric constant tensor:
#      x y z
#    x 3.639340 0.000000 0.000000 
#    y 0.000000 3.549350 0.000000 
#    z 0.000000 0.000000 3.858130 
# 
# 
# High freq. dielectric constant tensor:
#      x y z
#    x 1.749260 0.000000 0.000000 
#    y 0.000000 1.731190 0.000000 
#    z 0.000000 0.000000 1.740300 
# 
# From -- ./inp_files/27403.got.cif
#   From: 2010.03.12/outbox.cif.g09.slc.cpg/sg59_14_cif.got.tgz:27403.got - 2010.04.16 16:29:54.
