data_PCOD8245405
_publ_section_title
;
Structure prediction by ZEFSAII (Michael W. Deem and Ramdas Pophale) SiO2 
 PCOD8245405
Probable space group: P M M N
;
_chemical_formula_sum "Si O2"
_cell_formula_units_Z 56
_cell_length_a 21.170126
_cell_length_b 15.777016
_cell_length_c 7.865362
_cell_angle_alpha 90.000000
_cell_angle_beta 90.000000
_cell_angle_gamma 90.000000
_cell_volume 2627.042050
_symmetry_space_group_name_H-M "P M M N"
_symmetry_group_IT_number 59
_space_group.IT_coordinate_system_code '2'
_symmetry_cell_setting 'orthorhombic'
loop_
_space_group_symop_operation_xyz
x,y,z
1/2-x,1/2-y,z
1/2+x,-y,-z
-x,1/2+y,-z
-x,-y,-z
1/2+x,1/2+y,-z
1/2-x,y,z
x,1/2-y,z
loop_
_atom_site_type_symbol
_atom_site_label
_atom_site_fract_x
_atom_site_fract_y
_atom_site_fract_z
Si Si1 0.322370 0.012880 0.308105
Si Si2 0.448449 0.070188 0.454358
Si Si3 0.581429 0.847669 0.212925
Si Si4 0.994108 0.845393 0.882308
Si Si5 0.179446 0.024959 0.923657
Si Si6 0.137237 0.654237 0.818716
Si Si7 0.321161 0.658736 0.454078
O O1 0.250000 0.038580 0.361955
O O2 0.337721 0.045359 0.119514
O O3 0.329425 0.910680 0.307735
O O4 0.374189 0.044294 0.443912
O O5 0.451816 0.140443 0.603489
O O6 0.464881 0.100431 0.267391
O O7 0.500000 0.000000 0.500000
O O8 0.604838 0.750000 0.196477
O O9 0.531988 0.872223 0.066102
O O10 0.637295 0.916396 0.197658
O O11 0.975004 0.750000 0.839696
O O12 0.068359 0.858164 0.895656
O O13 0.250000 0.054672 0.885606
O O14 0.177342 0.923624 0.892352
O O15 0.163327 0.750000 0.862474
O O16 0.132834 0.643873 0.614434
O O17 0.250000 0.656434 0.529089
O O18 0.335926 0.750000 0.368950
#
# Coordination Sequence:
#
# PCOD8245405 Si02
#       7
#     8   8   8   8   8   8   8
#     4  10  22  39  58  87 126 167 211 267 334 394
#     4  12  24  39  68  99 126 169 215 275 334 397
#     4  11  25  44  67  93 126 172 220 271 329 386
#     4  10  22  42  62  89 131 165 208 265 316 386
#     4  11  23  40  64  91 127 170 216 273 328 394
#     4  10  21  37  61  92 127 168 208 261 328 392
#     4   9  17  32  53  79 116 159 204 252 307 383
#
# _framework density 21.316749999999999
#
# number of rings (size 3 to 8) (size 9 to 14) (size 15 to 20)
#    0.000    1.571    1.429    3.429    2.000    4.571 
#    0.000    2.143    0.000    1.286    0.000    0.000 
#    0.000    0.000    0.000    0.000    0.000    0.000 
#
# Total GULP energy -693996.675452 kJ/mol
# GULP energy per Si atom -12392.797776 kJ/mol
# Density = 2.126823 g / cm^3
# Si number density = 21.316750 Si / 1000 Ang^3
#
#
#
# Elastic Constant Matrix: (Units=GPa)
#
#
# Indices 1 2 3 4 5 6 
#
# 1 64.3482 22.0155 18.4916 0.0000 0.0000 0.0000
# 2 22.0155 86.2549 27.0418 0.0000 0.0000 0.0000
# 3 18.4916 27.0418 80.5756 0.0000 0.0000 0.0000
# 4 0.0000 0.0000 0.0000 36.1964 0.0000 0.0000
# 5 0.0000 0.0000 0.0000 0.0000 22.6877 0.0000
# 6 0.0000 0.0000 0.0000 0.0000 0.0000 26.2415
#
#
#
# Elastic Compliance Matrix: (Units=1/GPa)
#
#
# Indices 1 2 3 4 5 6 
#
# 1 0.017585 -0.003602 -0.002827 0.000000 0.000000 0.000000
# 2 -0.003602 0.013695 -0.003769 0.000000 0.000000 0.000000
# 3 -0.002827 -0.003769 0.014324 0.000000 0.000000 0.000000
# 4 0.000000 0.000000 0.000000 0.027627 0.000000 0.000000
# 5 0.000000 0.000000 0.000000 0.000000 0.044077 0.000000
# 6 0.000000 0.000000 0.000000 0.000000 0.000000 0.038108
#
#
# Mechanical properties :
#
#
# Convention : Reuss Voigt Hill
#
# Bulk Modulus (GPa) = 39.67043 40.69740 40.18392
# Shear Modulus (GPa) = 27.14222 27.93378 27.53800
#
# Velocity S-wave (km/s) = 3.57218 3.62389 3.59813
# Velocity P-wave (km/s) = 5.97196 6.05337 6.01280
#
# Compressibility (1/GPa) = 0.02520769
#
# Stress axis : x y z
#
# Youngs Moduli (GPa) = 56.86605 73.02098 69.81063
#
# Poissons Ratio (x) = 0.26304 0.19734
# Poissons Ratio (y) = 0.20484 0.26314
# Poissons Ratio (z) = 0.16075 0.27524
#
# Static dielectric constant tensor:
#      x y z
#    x 3.941600 0.000000 0.000000 
#    y 0.000000 3.867940 0.000000 
#    z 0.000000 0.000000 3.700750 
# 
# 
# High freq. dielectric constant tensor:
#      x y z
#    x 1.834890 0.000000 0.000000 
#    y 0.000000 1.830430 0.000000 
#    z 0.000000 0.000000 1.835570 
# 
# From -- ./inp_files/11446.got.cif
#   From: 2010.03.12/outbox.cif.g09.slc.cpg/sg59_6_cif.got.tgz:11446.got - 2010.04.16 16:29:54.
