data_PCOD8245370
_publ_section_title
;
Structure prediction by ZEFSAII (Michael W. Deem and Ramdas Pophale) SiO2 
 PCOD8245370
Probable space group: P M M N
;
_chemical_formula_sum "Si O2"
_cell_formula_units_Z 56
_cell_length_a 15.515110
_cell_length_b 8.841120
_cell_length_c 18.849464
_cell_angle_alpha 90.000000
_cell_angle_beta 90.000000
_cell_angle_gamma 90.000000
_cell_volume 2585.598871
_symmetry_space_group_name_H-M "P M M N"
_symmetry_group_IT_number 59
_space_group.IT_coordinate_system_code '2'
_symmetry_cell_setting 'orthorhombic'
loop_
_space_group_symop_operation_xyz
x,y,z
1/2-x,1/2-y,z
1/2+x,-y,-z
-x,1/2+y,-z
-x,-y,-z
1/2+x,1/2+y,-z
1/2-x,y,z
x,1/2-y,z
loop_
_atom_site_type_symbol
_atom_site_label
_atom_site_fract_x
_atom_site_fract_y
_atom_site_fract_z
Si Si1 0.158130 0.577980 0.959350
Si Si2 0.648759 0.422691 0.656548
Si Si3 0.501921 0.427069 0.423629
Si Si4 0.149613 0.927980 0.686368
Si Si5 0.151683 0.412506 0.209324
Si Si6 0.557652 0.575251 0.922693
Si Si7 0.095598 0.071813 0.834265
O O1 0.250000 0.566388 0.000135
O O2 0.138268 0.750000 0.937206
O O3 0.170885 0.474558 0.889055
O O4 0.076032 0.522269 0.005930
O O5 0.750000 0.455847 0.642182
O O6 0.626645 0.250000 0.639445
O O7 0.589988 0.530367 0.609570
O O8 0.619201 0.455959 0.737909
O O9 0.500000 0.500000 0.500000
O O10 0.506993 0.250000 0.433340
O O11 0.585831 0.479997 0.377603
O O12 0.250000 0.969357 0.668663
O O13 0.140742 0.750000 0.700555
O O14 0.117980 0.015676 0.756005
O O15 0.250000 0.390518 0.226784
O O16 0.104674 0.250000 0.225471
O O17 0.141502 0.451007 0.126431
O O18 0.544710 0.750000 0.944623
O O19 0.483914 0.516650 0.870168
O O20 0.079120 0.250000 0.832235
#
# Coordination Sequence:
#
# PCOD8245370 Si02
#       7
#     8   8   8   8   8   8   8
#     4  11  24  41  60  83 115 156 203 258 320 382
#     4  10  21  37  59  88 123 163 205 250 302 363
#     4  11  24  42  66  96 129 165 204 251 309 372
#     4  10  23  45  70  95 127 169 215 262 316 379
#     4   9  18  33  54  81 113 150 192 239 294 358
#     4  11  22  37  58  84 118 159 204 255 313 375
#     4  12  25  40  61  89 121 157 204 261 316 373
#
# _framework density 21.658425000000001
#
# number of rings (size 3 to 8) (size 9 to 14) (size 15 to 20)
#    0.000    1.429    0.000    5.143    0.000   10.857 
#    0.000    2.857    0.000    0.000    0.000    0.000 
#    0.000    0.000    0.000    0.000    0.000    0.000 
#
# Total GULP energy -693810.336329 kJ/mol
# GULP energy per Si atom -12389.470292 kJ/mol
# Density = 2.160913 g / cm^3
# Si number density = 21.658425 Si / 1000 Ang^3
#
#
#
# Elastic Constant Matrix: (Units=GPa)
#
#
# Indices 1 2 3 4 5 6 
#
# 1 99.4205 42.6180 48.2246 0.0000 0.0000 0.0000
# 2 42.6180 105.9159 55.1928 0.0000 0.0000 0.0000
# 3 48.2246 55.1928 124.7871 0.0000 0.0000 0.0000
# 4 0.0000 0.0000 0.0000 40.9673 0.0000 0.0000
# 5 0.0000 0.0000 0.0000 0.0000 30.1631 0.0000
# 6 0.0000 0.0000 0.0000 0.0000 0.0000 27.9593
#
#
#
# Elastic Compliance Matrix: (Units=1/GPa)
#
#
# Indices 1 2 3 4 5 6 
#
# 1 0.013294 -0.003472 -0.003602 0.000000 0.000000 0.000000
# 2 -0.003472 0.013176 -0.004486 0.000000 0.000000 0.000000
# 3 -0.003602 -0.004486 0.011390 0.000000 0.000000 0.000000
# 4 0.000000 0.000000 0.000000 0.024410 0.000000 0.000000
# 5 0.000000 0.000000 0.000000 0.000000 0.033153 0.000000
# 6 0.000000 0.000000 0.000000 0.000000 0.000000 0.035766
#
#
# Mechanical properties :
#
#
# Convention : Reuss Voigt Hill
#
# Bulk Modulus (GPa) = 67.84300 69.13270 68.48785
# Shear Modulus (GPa) = 31.40277 32.09048 31.74662
#
# Velocity S-wave (km/s) = 3.81190 3.85341 3.83271
# Velocity P-wave (km/s) = 7.12504 7.19633 7.16077
#
# Compressibility (1/GPa) = 0.01473991
#
# Stress axis : x y z
#
# Youngs Moduli (GPa) = 75.22346 75.89438 87.79923
#
# Poissons Ratio (x) = 0.26352 0.31622
# Poissons Ratio (y) = 0.26119 0.39386
# Poissons Ratio (z) = 0.27093 0.34046
#
# Static dielectric constant tensor:
#      x y z
#    x 4.800310 0.000000 0.000000 
#    y 0.000000 3.609040 0.000000 
#    z 0.000000 0.000000 4.216880 
# 
# 
# High freq. dielectric constant tensor:
#      x y z
#    x 1.870370 0.000000 0.000000 
#    y 0.000000 1.850780 0.000000 
#    z 0.000000 0.000000 1.845210 
# 
# From -- ./inp_files/30346.got.cif
#   From: 2010.03.12/outbox.cif.g09.slc.cpg/sg59_16_cif.got.tgz:30346.got - 2010.04.16 16:29:54.
