data_PCOD8245003
_publ_section_title
;
Structure prediction by ZEFSAII (Michael W. Deem and Ramdas Pophale) SiO2 
 PCOD8245003
Probable space group: P M M N
;
_chemical_formula_sum "Si O2"
_cell_formula_units_Z 48
_cell_length_a 8.972887
_cell_length_b 9.152713
_cell_length_c 30.676412
_cell_angle_alpha 90.000000
_cell_angle_beta 90.000000
_cell_angle_gamma 90.000000
_cell_volume 2519.338972
_symmetry_space_group_name_H-M "P M M N"
_symmetry_group_IT_number 59
_space_group.IT_coordinate_system_code '2'
_symmetry_cell_setting 'orthorhombic'
loop_
_space_group_symop_operation_xyz
x,y,z
1/2-x,1/2-y,z
1/2+x,-y,-z
-x,1/2+y,-z
-x,-y,-z
1/2+x,1/2+y,-z
1/2-x,y,z
x,1/2-y,z
loop_
_atom_site_type_symbol
_atom_site_label
_atom_site_fract_x
_atom_site_fract_y
_atom_site_fract_z
Si Si1 0.420903 0.422000 0.214154
Si Si2 0.422304 0.420867 0.960401
Si Si3 0.924182 0.079054 0.459799
Si Si4 0.076691 0.918404 0.127164
Si Si5 0.924403 0.418966 0.618761
Si Si6 0.922800 0.582242 0.291271
O O1 0.250000 0.468233 0.223390
O O2 0.438974 0.250000 0.211177
O O3 0.476636 0.489663 0.168740
O O4 0.525420 0.480730 0.252119
O O5 0.250000 0.460653 0.961175
O O6 0.453116 0.250000 0.965385
O O7 0.488833 0.477738 0.914786
O O8 0.500000 0.500000 0.000000
O O9 0.750000 0.044490 0.460858
O O10 0.957042 0.250000 0.463420
O O11 0.000000 0.000000 0.500000
O O12 0.991219 0.020381 0.415113
O O13 0.250000 0.942254 0.117629
O O14 0.038539 0.750000 0.136651
O O15 0.750000 0.452403 0.616445
O O16 0.958656 0.250000 0.607945
O O17 0.983021 0.461096 0.666366
O O18 0.750000 0.553575 0.301304
O O19 0.952415 0.750000 0.278308
#
# Coordination Sequence:
#
# PCOD8245003 Si02
#       6
#     8   8   8   8   8   8
#     4  10  21  36  55  81 112 145 181 223 272 324
#     4  10  21  36  55  80 109 141 178 221 269 322
#     4  11  24  40  59  85 116 150 188 229 275 327
#     4   9  18  34  55  77 105 143 184 224 267 319
#     4  10  21  38  61  87 113 144 185 230 276 328
#     4  10  21  37  58  83 111 146 186 227 273 325
#
# _framework density 19.052617999999999
#
# number of rings (size 3 to 8) (size 9 to 14) (size 15 to 20)
#    0.000    2.000    0.000    3.000    0.000    9.333 
#    0.000    3.333    0.000    0.000    0.000    0.000 
#    0.000    0.000    0.000    0.000    0.000    0.000 
#
# Total GULP energy -595455.945128 kJ/mol
# GULP energy per Si atom -12405.332190 kJ/mol
# Density = 1.900925 g / cm^3
# Si number density = 19.052618 Si / 1000 Ang^3
#
#
#
# Elastic Constant Matrix: (Units=GPa)
#
#
# Indices 1 2 3 4 5 6 
#
# 1 103.3527 63.1271 74.7305 0.0000 0.0000 0.0000
# 2 63.1271 78.7971 74.6715 0.0000 0.0000 0.0000
# 3 74.7305 74.6715 154.9310 0.0000 0.0000 0.0000
# 4 0.0000 0.0000 0.0000 40.2316 0.0000 0.0000
# 5 0.0000 0.0000 0.0000 0.0000 41.6481 0.0000
# 6 0.0000 0.0000 0.0000 0.0000 0.0000 29.8015
#
#
#
# Elastic Compliance Matrix: (Units=1/GPa)
#
#
# Indices 1 2 3 4 5 6 
#
# 1 0.019945 -0.012631 -0.003533 0.000000 0.000000 0.000000
# 2 -0.012631 0.031359 -0.009022 0.000000 0.000000 0.000000
# 3 -0.003533 -0.009022 0.012507 0.000000 0.000000 0.000000
# 4 0.000000 0.000000 0.000000 0.024856 0.000000 0.000000
# 5 0.000000 0.000000 0.000000 0.000000 0.024011 0.000000
# 6 0.000000 0.000000 0.000000 0.000000 0.000000 0.033555
#
#
# Mechanical properties :
#
#
# Convention : Reuss Voigt Hill
#
# Bulk Modulus (GPa) = 74.40311 84.68211 79.54261
# Shear Modulus (GPa) = 24.86547 30.63969 27.75258
#
# Velocity S-wave (km/s) = 3.61653 4.01454 3.82072
# Velocity P-wave (km/s) = 7.52165 8.12599 7.82965
#
# Compressibility (1/GPa) = 0.01344030
#
# Stress axis : x y z
#
# Youngs Moduli (GPa) = 50.13872 31.88897 79.95793
#
# Poissons Ratio (x) = 0.40278 0.28247
# Poissons Ratio (y) = 0.63328 0.72134
# Poissons Ratio (z) = 0.17713 0.28769
#
# Static dielectric constant tensor:
#      x y z
#    x 3.606460 0.000000 0.000000 
#    y 0.000000 3.420200 0.000000 
#    z 0.000000 0.000000 3.596190 
# 
# 
# High freq. dielectric constant tensor:
#      x y z
#    x 1.748650 0.000000 0.000000 
#    y 0.000000 1.736580 0.000000 
#    z 0.000000 0.000000 1.755040 
# 
# From -- ./inp_files/32865.got.cif
#   From: 2010.03.12/outbox.cif.g09.slc.cpg/sg59_17_cif.got.tgz:32865.got - 2010.04.16 16:29:54.
