data_PCOD8245749
_publ_section_title
;
Structure prediction by ZEFSAII (Michael W. Deem and Ramdas Pophale) SiO2 
 PCOD8245749
Probable space group: P M M N
;
_chemical_formula_sum "Si O2"
_cell_formula_units_Z 48
_cell_length_a 28.556749
_cell_length_b 8.956339
_cell_length_c 9.897124
_cell_angle_alpha 90.000000
_cell_angle_beta 90.000000
_cell_angle_gamma 90.000000
_cell_volume 2531.327278
_symmetry_space_group_name_H-M "P M M N"
_symmetry_group_IT_number 59
_space_group.IT_coordinate_system_code '2'
_symmetry_cell_setting 'orthorhombic'
loop_
_space_group_symop_operation_xyz
x,y,z
1/2-x,1/2-y,z
1/2+x,-y,-z
-x,1/2+y,-z
-x,-y,-z
1/2+x,1/2+y,-z
1/2-x,y,z
x,1/2-y,z
loop_
_atom_site_type_symbol
_atom_site_label
_atom_site_fract_x
_atom_site_fract_y
_atom_site_fract_z
Si Si1 0.803772 0.425072 0.997686
Si Si2 0.465514 0.077680 0.603240
Si Si3 0.371655 0.572450 0.527049
Si Si4 0.978074 0.420952 0.872983
Si Si5 0.121730 0.572832 0.221404
Si Si6 0.694819 0.920117 0.273609
O O1 0.750000 0.463549 0.961770
O O2 0.810330 0.250000 0.024767
O O3 0.820965 0.510940 0.130769
O O4 0.835727 0.481053 0.873568
O O5 0.459806 0.250000 0.562216
O O6 0.485876 0.059927 0.751794
O O7 0.500000 0.000000 0.500000
O O8 0.416054 0.995784 0.602996
O O9 0.374419 0.750000 0.533826
O O10 0.369507 0.513511 0.372914
O O11 0.325793 0.515154 0.603381
O O12 0.970438 0.250000 0.911982
O O13 0.927608 0.491764 0.833564
O O14 0.000000 0.500000 0.000000
O O15 0.118938 0.750000 0.226404
O O16 0.750000 0.930432 0.289336
O O17 0.676839 0.750000 0.280135
#
# Coordination Sequence:
#
# PCOD8245749 Si02
#       6
#     8   8   8   8   8   8
#     4   9  18  35  60  86 111 145 188 233 283 339
#     4  11  22  39  60  84 117 155 194 235 284 340
#     4  11  22  38  61  87 116 152 193 238 288 342
#     4  10  22  39  56  81 115 150 191 237 283 337
#     4   9  19  37  57  82 115 147 187 238 285 333
#     4  10  22  40  59  84 119 152 187 235 286 341
#
# _framework density 18.962384
#
# number of rings (size 3 to 8) (size 9 to 14) (size 15 to 20)
#    0.000    2.000    1.667    1.500    2.333    3.000 
#    0.000    3.333    0.000    2.000    0.000    0.000 
#    0.000    0.000    0.000    0.000    0.000    0.000 
#
# Total GULP energy -595333.187137 kJ/mol
# GULP energy per Si atom -12402.774732 kJ/mol
# Density = 1.891922 g / cm^3
# Si number density = 18.962384 Si / 1000 Ang^3
#
#
#
# Elastic Constant Matrix: (Units=GPa)
#
#
# Indices 1 2 3 4 5 6 
#
# 1 94.2975 38.0907 73.4652 0.0000 0.0000 0.0000
# 2 38.0907 84.2133 58.4825 0.0000 0.0000 0.0000
# 3 73.4652 58.4825 140.4759 0.0000 0.0000 0.0000
# 4 0.0000 0.0000 0.0000 28.2694 0.0000 0.0000
# 5 0.0000 0.0000 0.0000 0.0000 38.3337 0.0000
# 6 0.0000 0.0000 0.0000 0.0000 0.0000 31.3964
#
#
#
# Elastic Compliance Matrix: (Units=1/GPa)
#
#
# Indices 1 2 3 4 5 6 
#
# 1 0.018203 -0.002282 -0.008570 0.000000 0.000000 0.000000
# 2 -0.002282 0.016990 -0.005880 0.000000 0.000000 0.000000
# 3 -0.008570 -0.005880 0.014048 0.000000 0.000000 0.000000
# 4 0.000000 0.000000 0.000000 0.035374 0.000000 0.000000
# 5 0.000000 0.000000 0.000000 0.000000 0.026087 0.000000
# 6 0.000000 0.000000 0.000000 0.000000 0.000000 0.031851
#
#
# Mechanical properties :
#
#
# Convention : Reuss Voigt Hill
#
# Bulk Modulus (GPa) = 63.37858 73.22928 68.30393
# Shear Modulus (GPa) = 27.58239 29.52978 28.55608
#
# Velocity S-wave (km/s) = 3.81804 3.95052 3.88485
# Velocity P-wave (km/s) = 7.27547 7.71433 7.49811
#
# Compressibility (1/GPa) = 0.01577820
#
# Stress axis : x y z
#
# Youngs Moduli (GPa) = 54.93606 58.85779 71.18393
#
# Poissons Ratio (x) = 0.13433 0.61001
# Poissons Ratio (y) = 0.12538 0.41854
# Poissons Ratio (z) = 0.47078 0.34607
#
# Static dielectric constant tensor:
#      x y z
#    x 3.423300 0.000000 0.000000 
#    y 0.000000 3.419040 0.000000 
#    z 0.000000 0.000000 3.558980 
# 
# 
# High freq. dielectric constant tensor:
#      x y z
#    x 1.745840 0.000000 0.000000 
#    y 0.000000 1.724940 0.000000 
#    z 0.000000 0.000000 1.745090 
# 
# From -- ./inp_files/6203.got.cif
#   From: 2010.03.12/outbox.cif.g09.slc.cpg/sg59_4_cif.got.tgz:6203.got - 2010.04.16 16:29:54.
