data_PCOD8245443
_publ_section_title
;
Structure prediction by ZEFSAII (Michael W. Deem and Ramdas Pophale) SiO2 
 PCOD8245443
Probable space group: P M M N
;
_chemical_formula_sum "Si O2"
_cell_formula_units_Z 56
_cell_length_a 14.355633
_cell_length_b 8.806723
_cell_length_c 23.399051
_cell_angle_alpha 90.000000
_cell_angle_beta 90.000000
_cell_angle_gamma 90.000000
_cell_volume 2958.250371
_symmetry_space_group_name_H-M "P M M N"
_symmetry_group_IT_number 59
_space_group.IT_coordinate_system_code '2'
_symmetry_cell_setting 'orthorhombic'
loop_
_space_group_symop_operation_xyz
x,y,z
1/2-x,1/2-y,z
1/2+x,-y,-z
-x,1/2+y,-z
-x,-y,-z
1/2+x,1/2+y,-z
1/2-x,y,z
x,1/2-y,z
loop_
_atom_site_type_symbol
_atom_site_label
_atom_site_fract_x
_atom_site_fract_y
_atom_site_fract_z
Si Si1 0.141115 0.425077 0.438621
Si Si2 0.856929 0.926585 0.855659
Si Si3 0.996758 0.572884 0.360749
Si Si4 0.499770 0.576454 0.758715
Si Si5 0.499706 0.571318 0.061915
Si Si6 0.642602 0.426208 0.444204
Si Si7 0.643120 0.073729 0.143999
O O1 0.250000 0.451655 0.431265
O O2 0.112509 0.250000 0.432644
O O3 0.107066 0.482814 0.500361
O O4 0.093432 0.521287 0.388890
O O5 0.750000 0.978915 0.850134
O O6 0.865424 0.750000 0.871693
O O7 0.908029 0.958355 0.795691
O O8 0.906249 0.020208 0.905636
O O9 0.981225 0.750000 0.370159
O O10 0.912006 0.481846 0.388885
O O11 0.999528 0.537607 0.293900
O O12 0.500910 0.750000 0.736729
O O13 0.407240 0.544079 0.795648
O O14 0.499390 0.750000 0.056178
O O15 0.593085 0.521074 0.094628
O O16 0.500000 0.500000 0.000000
O O17 0.750000 0.459885 0.431959
O O18 0.623258 0.250000 0.455323
O O19 0.750000 0.020910 0.149279
O O20 0.634920 0.250000 0.127320
#
# Coordination Sequence:
#
# PCOD8245443 Si02
#       7
#     8   8   8   8   8   8   8
#     4  10  21  38  59  81 107 140 179 224 274 329
#     4   9  19  38  62  84 109 144 184 227 276 326
#     4  12  24  36  54  81 113 146 181 224 272 323
#     4   9  19  36  56  81 111 143 183 226 271 325
#     4  11  22  36  56  84 118 151 185 226 269 318
#     4  10  21  38  59  81 107 140 179 224 274 329
#     4   9  19  38  62  84 109 144 184 227 276 326
#
# _framework density 18.930108000000001
#
# number of rings (size 3 to 8) (size 9 to 14) (size 15 to 20)
#    0.000    2.000    0.000    4.714    0.000    6.286 
#    0.000    2.857    0.000    0.000    0.000    0.000 
#    0.000    0.000    0.000    0.000    0.000    0.000 
#
# Total GULP energy -694639.332455 kJ/mol
# GULP energy per Si atom -12404.273794 kJ/mol
# Density = 1.888702 g / cm^3
# Si number density = 18.930108 Si / 1000 Ang^3
#
#
#
# Elastic Constant Matrix: (Units=GPa)
#
#
# Indices 1 2 3 4 5 6 
#
# 1 140.7579 39.8287 54.7955 0.0000 0.0000 0.0000
# 2 39.8287 81.3519 44.2595 0.0000 0.0000 0.0000
# 3 54.7955 44.2595 118.9065 0.0000 0.0000 0.0000
# 4 0.0000 0.0000 0.0000 37.8936 0.0000 0.0000
# 5 0.0000 0.0000 0.0000 0.0000 25.1633 0.0000
# 6 0.0000 0.0000 0.0000 0.0000 0.0000 27.6741
#
#
#
# Elastic Compliance Matrix: (Units=1/GPa)
#
#
# Indices 1 2 3 4 5 6 
#
# 1 0.009117 -0.002731 -0.003185 0.000000 0.000000 0.000000
# 2 -0.002731 0.016232 -0.004783 0.000000 0.000000 0.000000
# 3 -0.003185 -0.004783 0.011658 0.000000 0.000000 0.000000
# 4 0.000000 0.000000 0.000000 0.026390 0.000000 0.000000
# 5 0.000000 0.000000 0.000000 0.000000 0.039740 0.000000
# 6 0.000000 0.000000 0.000000 0.000000 0.000000 0.036135
#
#
# Mechanical properties :
#
#
# Convention : Reuss Voigt Hill
#
# Bulk Modulus (GPa) = 64.06702 68.75376 66.41039
# Shear Modulus (GPa) = 30.14363 31.62169 30.88266
#
# Velocity S-wave (km/s) = 3.99477 4.09154 4.04345
# Velocity P-wave (km/s) = 7.42934 7.66287 7.54701
#
# Compressibility (1/GPa) = 0.01560866
#
# Stress axis : x y z
#
# Youngs Moduli (GPa) = 109.68590 61.60831 85.77720
#
# Poissons Ratio (x) = 0.16824 0.27319
# Poissons Ratio (y) = 0.29953 0.41030
# Poissons Ratio (z) = 0.34934 0.29469
#
# Static dielectric constant tensor:
#      x y z
#    x 3.704730 0.000000 0.000000 
#    y 0.000000 3.475020 0.000000 
#    z 0.000000 0.000000 3.443530 
# 
# 
# High freq. dielectric constant tensor:
#      x y z
#    x 1.745250 0.000000 0.000000 
#    y 0.000000 1.737920 0.000000 
#    z 0.000000 0.000000 1.732900 
# 
# From -- ./inp_files/30287.got.cif
#   From: 2010.03.12/outbox.cif.g09.slc.cpg/sg59_16_cif.got.tgz:30287.got - 2010.04.16 16:29:54.
