data_PCOD8245027
_publ_section_title
;
Structure prediction by ZEFSAII (Michael W. Deem and Ramdas Pophale) SiO2 
 PCOD8245027
Probable space group: P M M N
;
_chemical_formula_sum "Si O2"
_cell_formula_units_Z 48
_cell_length_a 8.992259
_cell_length_b 9.670890
_cell_length_c 28.915808
_cell_angle_alpha 90.000000
_cell_angle_beta 90.000000
_cell_angle_gamma 90.000000
_cell_volume 2514.609680
_symmetry_space_group_name_H-M "P M M N"
_symmetry_group_IT_number 59
_space_group.IT_coordinate_system_code '2'
_symmetry_cell_setting 'orthorhombic'
loop_
_space_group_symop_operation_xyz
x,y,z
1/2-x,1/2-y,z
1/2+x,-y,-z
-x,1/2+y,-z
-x,-y,-z
1/2+x,1/2+y,-z
1/2-x,y,z
x,1/2-y,z
loop_
_atom_site_type_symbol
_atom_site_label
_atom_site_fract_x
_atom_site_fract_y
_atom_site_fract_z
Si Si1 0.425968 0.017835 0.103834
Si Si2 0.418979 0.906000 0.804272
Si Si3 0.073509 0.250000 0.930570
Si Si4 0.425742 0.250000 0.034358
Si Si5 0.576482 0.591637 0.279656
Si Si6 0.073990 0.410566 0.460070
Si Si7 0.424995 0.592963 0.373790
O O1 0.250000 0.993768 0.102942
O O2 0.514294 0.877707 0.098153
O O3 0.472086 0.083944 0.152249
O O4 0.480120 0.115389 0.061917
O O5 0.250000 0.948795 0.818070
O O6 0.422345 0.750000 0.785635
O O7 0.481620 0.002827 0.763571
O O8 0.250000 0.250000 0.931267
O O9 0.006713 0.250000 0.982734
O O10 0.250000 0.250000 0.031844
O O11 0.750000 0.567914 0.287456
O O12 0.537339 0.750000 0.268631
O O13 0.495727 0.541623 0.326004
O O14 0.250000 0.418074 0.466427
O O15 0.020091 0.250000 0.460731
O O16 0.023453 0.484037 0.412577
O O17 0.000000 0.500000 0.500000
O O18 0.250000 0.590418 0.367677
O O19 0.478166 0.750000 0.386259
#
# Coordination Sequence:
#
# PCOD8245027 Si02
#       7
#     8   8   4   4   8   8   8
#     4  11  22  39  59  85 115 146 184 232 281 331
#     4  10  21  37  56  80 110 146 185 226 278 338
#     4  11  23  39  59  85 113 149 187 227 276 333
#     4   9  20  39  61  83 115 147 183 229 278 331
#     4   9  19  35  55  79 108 143 183 230 278 329
#     4  10  21  36  55  81 113 150 192 237 284 336
#     4   9  18  34  54  77 108 144 182 228 281 335
#
# _framework density 19.088450999999999
#
# number of rings (size 3 to 8) (size 9 to 14) (size 15 to 20)
#    0.000    2.167    0.833    1.750    1.167    3.000 
#    0.000    4.167    0.000    0.000    0.000    0.000 
#    0.000    0.000    0.000    0.000    0.000    0.000 
#
# Total GULP energy -595259.300654 kJ/mol
# GULP energy per Si atom -12401.235430 kJ/mol
# Density = 1.904500 g / cm^3
# Si number density = 19.088451 Si / 1000 Ang^3
#
#
#
# Elastic Constant Matrix: (Units=GPa)
#
#
# Indices 1 2 3 4 5 6 
#
# 1 41.4893 26.9631 29.3685 0.0000 0.0000 0.0000
# 2 26.9631 119.1384 54.4439 0.0000 0.0000 0.0000
# 3 29.3685 54.4439 121.0707 0.0000 0.0000 0.0000
# 4 0.0000 0.0000 0.0000 40.9748 0.0000 0.0000
# 5 0.0000 0.0000 0.0000 0.0000 35.7631 0.0000
# 6 0.0000 0.0000 0.0000 0.0000 0.0000 18.7979
#
#
#
# Elastic Compliance Matrix: (Units=1/GPa)
#
#
# Indices 1 2 3 4 5 6 
#
# 1 0.030897 -0.004490 -0.005475 0.000000 0.000000 0.000000
# 2 -0.004490 0.011217 -0.003955 0.000000 0.000000 0.000000
# 3 -0.005475 -0.003955 0.011366 0.000000 0.000000 0.000000
# 4 0.000000 0.000000 0.000000 0.024405 0.000000 0.000000
# 5 0.000000 0.000000 0.000000 0.000000 0.027962 0.000000
# 6 0.000000 0.000000 0.000000 0.000000 0.000000 0.053197
#
#
# Mechanical properties :
#
#
# Convention : Reuss Voigt Hill
#
# Bulk Modulus (GPa) = 39.00360 55.91661 47.46011
# Shear Modulus (GPa) = 25.58429 30.50200 28.04315
#
# Velocity S-wave (km/s) = 3.66499 4.00175 3.83706
# Velocity P-wave (km/s) = 6.19572 7.12103 6.67443
#
# Compressibility (1/GPa) = 0.02563866
#
# Stress axis : x y z
#
# Youngs Moduli (GPa) = 32.36602 89.14893 87.97890
#
# Poissons Ratio (x) = 0.40030 0.48173
# Poissons Ratio (y) = 0.14533 0.34796
# Poissons Ratio (z) = 0.17722 0.35258
#
# Static dielectric constant tensor:
#      x y z
#    x 3.320350 0.000000 0.000000 
#    y 0.000000 3.668330 0.000000 
#    z 0.000000 0.000000 3.613550 
# 
# 
# High freq. dielectric constant tensor:
#      x y z
#    x 1.727730 0.000000 0.000000 
#    y 0.000000 1.751730 0.000000 
#    z 0.000000 0.000000 1.747800 
# 
# From -- ./inp_files/32988.got.cif
#   From: 2010.03.12/outbox.cif.g09.slc.cpg/sg59_17_cif.got.tgz:32988.got - 2010.04.16 16:29:54.
