data_PCOD8245982
_publ_section_title
;
Structure prediction by ZEFSAII (Michael W. Deem and Ramdas Pophale) SiO2 
 PCOD8245982
Probable space group: P M M N
;
_chemical_formula_sum "Si O2"
_cell_formula_units_Z 64
_cell_length_a 14.560789
_cell_length_b 9.240996
_cell_length_c 24.054536
_cell_angle_alpha 90.000000
_cell_angle_beta 90.000000
_cell_angle_gamma 90.000000
_cell_volume 3236.686786
_symmetry_space_group_name_H-M "P M M N"
_symmetry_group_IT_number 59
_space_group.IT_coordinate_system_code '2'
_symmetry_cell_setting 'orthorhombic'
loop_
_space_group_symop_operation_xyz
x,y,z
1/2-x,1/2-y,z
1/2+x,-y,-z
-x,1/2+y,-z
-x,-y,-z
1/2+x,1/2+y,-z
1/2-x,y,z
x,1/2-y,z
loop_
_atom_site_type_symbol
_atom_site_label
_atom_site_fract_x
_atom_site_fract_y
_atom_site_fract_z
Si Si1 0.461692 0.083649 0.134393
Si Si2 0.650956 0.414105 0.080838
Si Si3 0.493169 0.580133 0.441953
Si Si4 0.091332 0.417808 0.015233
Si Si5 0.645818 0.078255 0.651839
Si Si6 0.851289 0.411658 0.259174
Si Si7 0.851752 0.408827 0.390225
Si Si8 0.532909 0.078358 0.759268
O O1 0.461637 0.250000 0.153621
O O2 0.566837 0.033027 0.119660
O O3 0.393484 0.062071 0.081594
O O4 0.422080 0.986128 0.184574
O O5 0.750000 0.422974 0.112432
O O6 0.628209 0.250000 0.062586
O O7 0.666186 0.508472 0.024548
O O8 0.500000 0.500000 0.500000
O O9 0.489961 0.750000 0.452434
O O10 0.405411 0.529248 0.405008
O O11 0.584424 0.539993 0.408671
O O12 0.084260 0.250000 0.000120
O O13 0.000000 0.500000 0.000000
O O14 0.750000 0.015906 0.651828
O O15 0.648128 0.250000 0.654670
O O16 0.589870 0.020345 0.705730
O O17 0.750000 0.460683 0.237852
O O18 0.873887 0.250000 0.235889
O O19 0.849111 0.405689 0.324800
O O20 0.928073 0.524244 0.240337
O O21 0.750000 0.438325 0.414289
O O22 0.885878 0.250000 0.411890
O O23 0.534306 0.250000 0.761320
#
# Coordination Sequence:
#
# PCOD8245982 Si02
#       8
#     8   8   8   8   8   8   8   8
#     4   9  19  34  51  74 107 146 181 219 273 334
#     4   9  18  33  53  77 106 141 180 221 270 331
#     4  11  22  37  59  87 116 147 185 232 283 334
#     4   9  17  31  51  73 100 136 178 221 269 324
#     4   9  20  40  61  80 108 148 189 229 278 331
#     4   9  18  33  54  78 107 145 181 215 268 339
#     4   9  18  34  56  81 110 145 180 216 268 334
#     4  11  21  34  56  84 109 141 190 242 282 323
#
# _framework density 19.773306000000002
#
# number of rings (size 3 to 8) (size 9 to 14) (size 15 to 20)
#    0.000    2.500    1.250    2.625    0.000    4.250 
#    0.000    4.375    0.000    7.875    0.000    0.000 
#    0.000    0.000    0.000    0.000    0.000    0.000 
#
# Total GULP energy -792972.494262 kJ/mol
# GULP energy per Si atom -12390.195223 kJ/mol
# Density = 1.972830 g / cm^3
# Si number density = 19.773306 Si / 1000 Ang^3
#
#
#
# Elastic Constant Matrix: (Units=GPa)
#
#
# Indices 1 2 3 4 5 6 
#
# 1 80.7278 27.2732 36.3819 0.0000 0.0000 0.0000
# 2 27.2732 77.2734 48.7543 0.0000 0.0000 0.0000
# 3 36.3819 48.7543 115.0797 0.0000 0.0000 0.0000
# 4 0.0000 0.0000 0.0000 34.7102 0.0000 0.0000
# 5 0.0000 0.0000 0.0000 0.0000 12.9480 0.0000
# 6 0.0000 0.0000 0.0000 0.0000 0.0000 24.1567
#
#
#
# Elastic Compliance Matrix: (Units=1/GPa)
#
#
# Indices 1 2 3 4 5 6 
#
# 1 0.014983 -0.003139 -0.003407 0.000000 0.000000 0.000000
# 2 -0.003139 0.018320 -0.006769 0.000000 0.000000 0.000000
# 3 -0.003407 -0.006769 0.012635 0.000000 0.000000 0.000000
# 4 0.000000 0.000000 0.000000 0.028810 0.000000 0.000000
# 5 0.000000 0.000000 0.000000 0.000000 0.077232 0.000000
# 6 0.000000 0.000000 0.000000 0.000000 0.000000 0.041396
#
#
# Mechanical properties :
#
#
# Convention : Reuss Voigt Hill
#
# Bulk Modulus (GPa) = 51.79237 55.32218 53.55728
# Shear Modulus (GPa) = 22.08082 25.07443 23.57762
#
# Velocity S-wave (km/s) = 3.34533 3.56490 3.45686
# Velocity P-wave (km/s) = 6.41651 6.70698 6.56335
#
# Compressibility (1/GPa) = 0.01930786
#
# Stress axis : x y z
#
# Youngs Moduli (GPa) = 66.74159 54.58652 79.14829
#
# Poissons Ratio (x) = 0.17132 0.26967
# Poissons Ratio (y) = 0.20947 0.53575
# Poissons Ratio (z) = 0.22740 0.36949
#
# Static dielectric constant tensor:
#      x y z
#    x -2.898320 0.000000 0.000000 
#    y 0.000000 3.210970 0.000000 
#    z 0.000000 0.000000 3.885220 
# 
# 
# High freq. dielectric constant tensor:
#      x y z
#    x 1.758550 0.000000 0.000000 
#    y 0.000000 1.753490 0.000000 
#    z 0.000000 0.000000 1.773810 
# 
# From -- ./inp_files/32095.got.cif
#   From: 2010.03.12/outbox.cif.g09.slc.cpg/sg59_17_cif.got.tgz:32095.got - 2010.04.16 16:29:54.
