data_PCOD8245854
_publ_section_title
;
Structure prediction by ZEFSAII (Michael W. Deem and Ramdas Pophale) SiO2 
 PCOD8245854
Probable space group: P M M N
;
_chemical_formula_sum "Si O2"
_cell_formula_units_Z 56
_cell_length_a 15.148764
_cell_length_b 8.930485
_cell_length_c 20.006358
_cell_angle_alpha 90.000000
_cell_angle_beta 90.000000
_cell_angle_gamma 90.000000
_cell_volume 2706.576341
_symmetry_space_group_name_H-M "P M M N"
_symmetry_group_IT_number 59
_space_group.IT_coordinate_system_code '2'
_symmetry_cell_setting 'orthorhombic'
loop_
_space_group_symop_operation_xyz
x,y,z
1/2-x,1/2-y,z
1/2+x,-y,-z
-x,1/2+y,-z
-x,-y,-z
1/2+x,1/2+y,-z
1/2-x,y,z
x,1/2-y,z
loop_
_atom_site_type_symbol
_atom_site_label
_atom_site_fract_x
_atom_site_fract_y
_atom_site_fract_z
Si Si1 0.897106 0.414605 0.562678
Si Si2 0.853291 0.082968 0.705796
Si Si3 0.146709 0.417032 0.705796
Si Si4 0.897106 0.585395 0.437322
Si Si5 0.146333 0.574982 0.838835
Si Si6 0.500000 0.428736 0.927610
Si Si7 0.146333 0.425018 0.161166
O O1 0.853574 0.250000 0.565372
O O2 0.879357 0.492454 0.634569
O O3 0.852512 0.500000 0.500000
O O4 1.000000 0.402716 0.549046
O O5 0.750000 0.097630 0.710903
O O6 0.896086 0.250000 0.712273
O O7 0.886414 0.976715 0.765381
O O8 0.250000 0.402370 0.710903
O O9 0.103914 0.250000 0.712273
O O10 0.120643 0.492454 0.634569
O O11 0.113586 0.523285 0.765381
O O12 0.853574 0.750000 0.434628
O O13 0.250000 0.540424 0.850708
O O14 0.126190 0.750000 0.846410
O O15 0.089421 0.483021 0.891879
O O16 0.500000 0.250000 0.931667
O O17 0.589421 0.483021 0.891879
O O18 0.500000 0.500000 0.000000
O O19 0.250000 0.459576 0.149292
O O20 0.126190 0.250000 0.153590
#
# Coordination Sequence:
#
# PCOD8245854 Si02
#       7
#     8   8   8   8   8   8   8
#     4   9  18  31  46  68 101 141 187 238 294 350
#     4   9  18  33  53  78 108 146 193 242 294 352
#     4   9  18  33  53  78 108 146 193 242 294 352
#     4   9  18  31  46  68 101 141 187 238 294 350
#     4  10  22  41  64  93 128 162 201 250 301 356
#     4  12  26  44  68  96 127 162 203 244 292 356
#     4  10  22  41  64  93 128 162 201 250 301 356
#
# _framework density 20.690345000000001
#
# number of rings (size 3 to 8) (size 9 to 14) (size 15 to 20)
#    0.000    2.286    0.000    2.143    2.000    4.000 
#    0.000    0.000    0.000    0.000    0.000    0.000 
#    0.000    0.000    0.000    0.000    0.000    0.000 
#
# Total GULP energy -694127.773258 kJ/mol
# GULP energy per Si atom -12395.138808 kJ/mol
# Density = 2.064325 g / cm^3
# Si number density = 20.690345 Si / 1000 Ang^3
#
#
#
# Elastic Constant Matrix: (Units=GPa)
#
#
# Indices 1 2 3 4 5 6 
#
# 1 58.4575 41.2050 48.3913 0.0000 0.0000 0.0000
# 2 41.2050 129.1318 86.1139 0.0000 0.0000 0.0000
# 3 48.3913 86.1139 204.7879 0.0000 0.0000 0.0000
# 4 0.0000 0.0000 0.0000 30.5744 0.0000 0.0000
# 5 0.0000 0.0000 0.0000 0.0000 92.7164 0.0000
# 6 0.0000 0.0000 0.0000 0.0000 0.0000 24.3498
#
#
#
# Elastic Compliance Matrix: (Units=1/GPa)
#
#
# Indices 1 2 3 4 5 6 
#
# 1 0.023618 -0.005301 -0.003352 0.000000 0.000000 0.000000
# 2 -0.005301 0.011952 -0.003773 0.000000 0.000000 0.000000
# 3 -0.003352 -0.003773 0.007262 0.000000 0.000000 0.000000
# 4 0.000000 0.000000 0.000000 0.032707 0.000000 0.000000
# 5 0.000000 0.000000 0.000000 0.000000 0.010786 0.000000
# 6 0.000000 0.000000 0.000000 0.000000 0.000000 0.041068
#
#
# Mechanical properties :
#
#
# Convention : Reuss Voigt Hill
#
# Bulk Modulus (GPa) = 55.61958 82.64418 69.13188
# Shear Modulus (GPa) = 31.59827 43.97259 37.78543
#
# Velocity S-wave (km/s) = 3.91218 4.61507 4.27808
# Velocity P-wave (km/s) = 6.88092 8.27215 7.60840
#
# Compressibility (1/GPa) = 0.01797928
#
# Stress axis : x y z
#
# Youngs Moduli (GPa) = 42.34134 83.67008 137.70868
#
# Poissons Ratio (x) = 0.44354 0.46156
# Poissons Ratio (y) = 0.22445 0.51959
# Poissons Ratio (z) = 0.14192 0.31569
#
# Static dielectric constant tensor:
#      x y z
#    x 3.585010 0.000000 0.000000 
#    y 0.000000 3.882700 0.000000 
#    z 0.000000 0.000000 4.041050 
# 
# 
# High freq. dielectric constant tensor:
#      x y z
#    x 1.803830 0.000000 0.000000 
#    y 0.000000 1.797830 0.000000 
#    z 0.000000 0.000000 1.819540 
# 
# From -- ./inp_files/30391.got.cif
#   From: 2010.03.12/outbox.cif.g09.slc.cpg/sg59_16_cif.got.tgz:30391.got - 2010.04.16 16:29:54.
