data_PCOD8245071
_publ_section_title
;
Structure prediction by ZEFSAII (Michael W. Deem and Ramdas Pophale) SiO2 
 PCOD8245071
Probable space group: P M M N
;
_chemical_formula_sum "Si O2"
_cell_formula_units_Z 48
_cell_length_a 8.858625
_cell_length_b 9.665210
_cell_length_c 28.648729
_cell_angle_alpha 90.000000
_cell_angle_beta 90.000000
_cell_angle_gamma 90.000000
_cell_volume 2452.917669
_symmetry_space_group_name_H-M "P M M N"
_symmetry_group_IT_number 59
_space_group.IT_coordinate_system_code '2'
_symmetry_cell_setting 'orthorhombic'
loop_
_space_group_symop_operation_xyz
x,y,z
1/2-x,1/2-y,z
1/2+x,-y,-z
-x,1/2+y,-z
-x,-y,-z
1/2+x,1/2+y,-z
1/2-x,y,z
x,1/2-y,z
loop_
_atom_site_type_symbol
_atom_site_label
_atom_site_fract_x
_atom_site_fract_y
_atom_site_fract_z
Si Si1 0.071967 0.590505 0.959506
Si Si2 0.428256 0.250000 0.570256
Si Si3 0.071841 0.019834 0.395246
Si Si4 0.074938 0.407982 0.871777
Si Si5 0.921726 0.405286 0.301217
Si Si6 0.571209 0.750000 0.534234
Si Si7 0.577130 0.088782 0.774983
O O1 0.250000 0.587469 0.966462
O O2 0.013142 0.750000 0.959900
O O3 0.025615 0.516404 0.911335
O O4 0.000000 0.500000 0.000000
O O5 0.250000 0.250000 0.567468
O O6 0.484938 0.377863 0.599850
O O7 0.498257 0.250000 0.517806
O O8 0.250000 0.995912 0.396635
O O9 0.015303 0.115573 0.437842
O O10 0.028003 0.086611 0.346259
O O11 0.250000 0.425302 0.858676
O O12 0.042385 0.250000 0.888424
O O13 0.976497 0.446359 0.826970
O O14 0.750000 0.442393 0.315139
O O15 0.932580 0.250000 0.281237
O O16 0.975091 0.508489 0.261469
O O17 0.750000 0.750000 0.532276
O O18 0.750000 0.041985 0.769673
O O19 0.556985 0.250000 0.764204
#
# Coordination Sequence:
#
# PCOD8245071 Si02
#       7
#     8   4   8   8   8   4   8
#     4  10  21  36  56  84 118 157 200 246 295 347
#     4  11  23  39  59  89 121 153 193 237 284 345
#     4  11  22  40  62  87 117 153 193 239 291 343
#     4   9  18  35  57  81 114 155 196 240 291 345
#     4  11  24  41  61  86 115 151 193 239 292 349
#     4   9  20  39  63  87 117 153 193 237 288 343
#     4  10  22  39  61  89 119 152 191 237 290 349
#
# _framework density 19.568532000000001
#
# number of rings (size 3 to 8) (size 9 to 14) (size 15 to 20)
#    0.000    1.833    0.833    2.750    1.167    4.333 
#    0.000    5.833    0.000    0.000    0.000    0.000 
#    0.000    0.000    0.000    0.000    0.000    0.000 
#
# Total GULP energy -595331.664556 kJ/mol
# GULP energy per Si atom -12402.743012 kJ/mol
# Density = 1.952399 g / cm^3
# Si number density = 19.568532 Si / 1000 Ang^3
#
#
#
# Elastic Constant Matrix: (Units=GPa)
#
#
# Indices 1 2 3 4 5 6 
#
# 1 65.6767 38.9000 32.4538 0.0000 0.0000 0.0000
# 2 38.9000 111.9745 51.3766 0.0000 0.0000 0.0000
# 3 32.4538 51.3766 96.5606 0.0000 0.0000 0.0000
# 4 0.0000 0.0000 0.0000 40.6400 0.0000 0.0000
# 5 0.0000 0.0000 0.0000 0.0000 36.0700 0.0000
# 6 0.0000 0.0000 0.0000 0.0000 0.0000 22.4821
#
#
#
# Elastic Compliance Matrix: (Units=1/GPa)
#
#
# Indices 1 2 3 4 5 6 
#
# 1 0.020309 -0.005191 -0.004064 0.000000 0.000000 0.000000
# 2 -0.005191 0.013142 -0.005248 0.000000 0.000000 0.000000
# 3 -0.004064 -0.005248 0.014514 0.000000 0.000000 0.000000
# 4 0.000000 0.000000 0.000000 0.024606 0.000000 0.000000
# 5 0.000000 0.000000 0.000000 0.000000 0.027724 0.000000
# 6 0.000000 0.000000 0.000000 0.000000 0.000000 0.044480
#
#
# Mechanical properties :
#
#
# Convention : Reuss Voigt Hill
#
# Bulk Modulus (GPa) = 52.74256 57.74141 55.24199
# Shear Modulus (GPa) = 27.76256 29.93719 28.84988
#
# Velocity S-wave (km/s) = 3.77070 3.91559 3.84383
# Velocity P-wave (km/s) = 6.78003 7.07204 6.92757
#
# Compressibility (1/GPa) = 0.01896002
#
# Stress axis : x y z
#
# Youngs Moduli (GPa) = 49.24007 76.09447 68.89828
#
# Poissons Ratio (x) = 0.39498 0.28000
# Poissons Ratio (y) = 0.25559 0.36155
# Poissons Ratio (z) = 0.20011 0.39932
#
# Static dielectric constant tensor:
#      x y z
#    x 3.521330 0.000000 0.000000 
#    y 0.000000 3.748670 0.000000 
#    z 0.000000 0.000000 3.610540 
# 
# 
# High freq. dielectric constant tensor:
#      x y z
#    x 1.758890 0.000000 0.000000 
#    y 0.000000 1.772000 0.000000 
#    z 0.000000 0.000000 1.766810 
# 
# From -- ./inp_files/33039.got.cif
#   From: 2010.03.12/outbox.cif.g09.slc.cpg/sg59_17_cif.got.tgz:33039.got - 2010.04.16 16:29:54.
