data_PCOD8245280
_publ_section_title
;
Structure prediction by ZEFSAII (Michael W. Deem and Ramdas Pophale) SiO2 
 PCOD8245280
Probable space group: P M M N
;
_chemical_formula_sum "Si O2"
_cell_formula_units_Z 64
_cell_length_a 23.581871
_cell_length_b 8.943720
_cell_length_c 14.680040
_cell_angle_alpha 90.000000
_cell_angle_beta 90.000000
_cell_angle_gamma 90.000000
_cell_volume 3096.162117
_symmetry_space_group_name_H-M "P M M N"
_symmetry_group_IT_number 59
_space_group.IT_coordinate_system_code '2'
_symmetry_cell_setting 'orthorhombic'
loop_
_space_group_symop_operation_xyz
x,y,z
1/2-x,1/2-y,z
1/2+x,-y,-z
-x,1/2+y,-z
-x,-y,-z
1/2+x,1/2+y,-z
1/2-x,y,z
x,1/2-y,z
loop_
_atom_site_type_symbol
_atom_site_label
_atom_site_fract_x
_atom_site_fract_y
_atom_site_fract_z
Si Si1 0.004876 0.425523 0.216060
Si Si2 0.354763 0.081477 0.543402
Si Si3 0.184745 0.073755 0.024750
Si Si4 0.113628 0.922946 0.868011
Si Si5 0.621737 0.074678 0.812807
Si Si6 0.812702 0.583329 0.265872
Si Si7 0.468390 0.925925 0.583654
Si Si8 0.314188 0.580202 0.368748
O O1 0.017567 0.250000 0.217681
O O2 0.058672 0.510745 0.174848
O O3 0.952499 0.461175 0.148194
O O4 0.992260 0.482860 0.318912
O O5 0.378194 0.250000 0.529161
O O6 0.309494 0.074982 0.624825
O O7 0.403582 0.970022 0.574199
O O8 0.324733 0.030581 0.451593
O O9 0.250000 0.027441 0.003155
O O10 0.179354 0.250000 0.034625
O O11 0.165877 0.999874 0.118735
O O12 0.141562 0.021413 0.946658
O O13 0.121742 0.750000 0.892554
O O14 0.145198 0.959354 0.773565
O O15 0.620576 0.250000 0.832607
O O16 0.643105 0.037008 0.711678
O O17 0.750000 0.552647 0.227158
O O18 0.832714 0.750000 0.235428
O O19 0.475028 0.750000 0.576393
O O20 0.500000 0.000000 0.500000
O O21 0.250000 0.560272 0.333516
O O22 0.325022 0.750000 0.401064
#
# Coordination Sequence:
#
# PCOD8245280 Si02
#       8
#     8   8   8   8   8   8   8   8
#     4  10  23  42  62  89 128 167 208 256 311 374
#     4  11  22  36  57  87 123 164 209 255 310 373
#     4  11  25  45  69  97 128 163 203 252 315 381
#     4  11  23  41  65  93 125 164 208 256 308 366
#     4  11  24  42  67  95 123 161 210 262 316 373
#     4  10  21  37  57  85 123 163 204 251 303 363
#     4  11  22  38  59  86 122 165 215 263 310 369
#     4  10  22  40  61  88 124 164 209 264 320 375
#
# _framework density 20.670753000000001
#
# number of rings (size 3 to 8) (size 9 to 14) (size 15 to 20)
#    0.000    1.375    1.250    3.750    0.000   10.000 
#    0.000    0.000    0.000    0.000    0.000    0.000 
#    0.000    0.000    0.000    0.000    0.000    0.000 
#
# Total GULP energy -793729.488063 kJ/mol
# GULP energy per Si atom -12402.023251 kJ/mol
# Density = 2.062371 g / cm^3
# Si number density = 20.670753 Si / 1000 Ang^3
#
#
#
# Elastic Constant Matrix: (Units=GPa)
#
#
# Indices 1 2 3 4 5 6 
#
# 1 111.8848 43.3840 31.8453 0.0000 0.0000 0.0000
# 2 43.3840 75.1227 39.1473 0.0000 0.0000 0.0000
# 3 31.8453 39.1473 88.9389 0.0000 0.0000 0.0000
# 4 0.0000 0.0000 0.0000 38.1537 0.0000 0.0000
# 5 0.0000 0.0000 0.0000 0.0000 36.5328 0.0000
# 6 0.0000 0.0000 0.0000 0.0000 0.0000 33.4361
#
#
#
# Elastic Compliance Matrix: (Units=1/GPa)
#
#
# Indices 1 2 3 4 5 6 
#
# 1 0.011684 -0.005927 -0.001575 0.000000 0.000000 0.000000
# 2 -0.005927 0.020280 -0.006804 0.000000 0.000000 0.000000
# 3 -0.001575 -0.006804 0.014803 0.000000 0.000000 0.000000
# 4 0.000000 0.000000 0.000000 0.026210 0.000000 0.000000
# 5 0.000000 0.000000 0.000000 0.000000 0.027373 0.000000
# 6 0.000000 0.000000 0.000000 0.000000 0.000000 0.029908
#
#
# Mechanical properties :
#
#
# Convention : Reuss Voigt Hill
#
# Bulk Modulus (GPa) = 55.08221 56.07772 55.57997
# Shear Modulus (GPa) = 30.31748 32.39583 31.35665
#
# Velocity S-wave (km/s) = 3.83389 3.96312 3.89904
# Velocity P-wave (km/s) = 6.80467 6.93756 6.87143
#
# Compressibility (1/GPa) = 0.01815468
#
# Stress axis : x y z
#
# Youngs Moduli (GPa) = 85.58518 49.30885 67.55607
#
# Poissons Ratio (x) = 0.29226 0.10638
# Poissons Ratio (y) = 0.50727 0.45967
# Poissons Ratio (z) = 0.13478 0.33551
#
# Static dielectric constant tensor:
#      x y z
#    x 2.039810 0.000000 0.000000 
#    y 0.000000 3.260680 0.000000 
#    z 0.000000 0.000000 3.836810 
# 
# 
# High freq. dielectric constant tensor:
#      x y z
#    x 1.817080 0.000000 0.000000 
#    y 0.000000 1.811010 0.000000 
#    z 0.000000 0.000000 1.812480 
# 
# From -- ./inp_files/24712.got.cif
#   From: 2010.03.12/outbox.cif.g09.slc.cpg/sg59_13_cif.got.tgz:24712.got - 2010.04.16 16:29:54.
