data_PCOD8245903
_publ_section_title
;
Structure prediction by ZEFSAII (Michael W. Deem and Ramdas Pophale) SiO2 
 PCOD8245903
Probable space group: P M M N
;
_chemical_formula_sum "Si O2"
_cell_formula_units_Z 48
_cell_length_a 8.743324
_cell_length_b 18.906956
_cell_length_c 14.941256
_cell_angle_alpha 90.000000
_cell_angle_beta 90.000000
_cell_angle_gamma 90.000000
_cell_volume 2469.933683
_symmetry_space_group_name_H-M "P M M N"
_symmetry_group_IT_number 59
_space_group.IT_coordinate_system_code '2'
_symmetry_cell_setting 'orthorhombic'
loop_
_space_group_symop_operation_xyz
x,y,z
1/2-x,1/2-y,z
1/2+x,-y,-z
-x,1/2+y,-z
-x,-y,-z
1/2+x,1/2+y,-z
1/2-x,y,z
x,1/2-y,z
loop_
_atom_site_type_symbol
_atom_site_label
_atom_site_fract_x
_atom_site_fract_y
_atom_site_fract_z
Si Si1 0.073982 0.831845 0.133995
Si Si2 0.929362 0.073663 0.530199
Si Si3 0.426320 0.331624 0.384249
Si Si4 0.571507 0.072520 0.033323
Si Si5 0.929166 0.924740 0.281487
Si Si6 0.428079 0.070459 0.218761
O O1 0.250000 0.844277 0.161508
O O2 0.033008 0.750000 0.125278
O O3 0.966591 0.865047 0.209221
O O4 0.039001 0.866868 0.038672
O O5 0.750000 0.062955 0.536290
O O6 0.968482 0.134914 0.460350
O O7 0.991117 0.097006 0.626296
O O8 0.000000 0.000000 0.500000
O O9 0.250000 0.342152 0.411898
O O10 0.470316 0.250000 0.374348
O O11 0.460432 0.368060 0.289634
O O12 0.750000 0.060593 0.050497
O O13 0.491639 0.097733 0.124430
O O14 0.500000 0.000000 0.000000
O O15 0.750000 0.928539 0.297908
O O16 0.985714 0.000132 0.247781
O O17 0.250000 0.052098 0.210262
#
# Coordination Sequence:
#
# PCOD8245903 Si02
#       6
#     8   8   8   8   8   8
#     4  10  23  43  64  89 125 166 208 258 314 369
#     4  12  24  40  65  94 125 164 209 258 310 371
#     4  10  23  43  65  92 128 167 208 257 310 366
#     4  11  22  37  62  92 124 162 208 258 307 368
#     4  12  24  39  64  94 124 162 209 259 309 370
#     4  11  22  38  63  92 126 165 208 257 307 368
#
# _framework density 19.433719
#
# number of rings (size 3 to 8) (size 9 to 14) (size 15 to 20)
#    0.000    1.000    3.333    4.000    0.000    3.333 
#    0.000    0.000    0.000    0.000    0.000    0.000 
#    0.000    0.000    0.000    0.000    0.000    0.000 
#
# Total GULP energy -595541.597949 kJ/mol
# GULP energy per Si atom -12407.116624 kJ/mol
# Density = 1.938949 g / cm^3
# Si number density = 19.433719 Si / 1000 Ang^3
#
#
#
# Elastic Constant Matrix: (Units=GPa)
#
#
# Indices 1 2 3 4 5 6 
#
# 1 135.0487 59.1574 75.1730 0.0000 0.0000 0.0000
# 2 59.1574 143.0784 62.2459 0.0000 0.0000 0.0000
# 3 75.1730 62.2459 153.0585 0.0000 0.0000 0.0000
# 4 0.0000 0.0000 0.0000 33.8035 0.0000 0.0000
# 5 0.0000 0.0000 0.0000 0.0000 40.0506 0.0000
# 6 0.0000 0.0000 0.0000 0.0000 0.0000 23.1827
#
#
#
# Elastic Compliance Matrix: (Units=1/GPa)
#
#
# Indices 1 2 3 4 5 6 
#
# 1 0.010966 -0.002662 -0.004303 0.000000 0.000000 0.000000
# 2 -0.002662 0.009138 -0.002409 0.000000 0.000000 0.000000
# 3 -0.004303 -0.002409 0.009627 0.000000 0.000000 0.000000
# 4 0.000000 0.000000 0.000000 0.029583 0.000000 0.000000
# 5 0.000000 0.000000 0.000000 0.000000 0.024968 0.000000
# 6 0.000000 0.000000 0.000000 0.000000 0.000000 0.043136
#
#
# Mechanical properties :
#
#
# Convention : Reuss Voigt Hill
#
# Bulk Modulus (GPa) = 91.05485 91.59316 91.32401
# Shear Modulus (GPa) = 33.37201 35.04798 34.21000
#
# Velocity S-wave (km/s) = 4.14843 4.25133 4.20020
# Velocity P-wave (km/s) = 8.36073 8.44581 8.40338
#
# Compressibility (1/GPa) = 0.01098239
#
# Stress axis : x y z
#
# Youngs Moduli (GPa) = 91.18938 109.43675 103.87890
#
# Poissons Ratio (x) = 0.29131 0.44703
# Poissons Ratio (y) = 0.24274 0.25022
# Poissons Ratio (z) = 0.39242 0.26361
#
# Static dielectric constant tensor:
#      x y z
#    x 3.655480 0.000000 0.000000 
#    y 0.000000 3.505780 0.000000 
#    z 0.000000 0.000000 3.646300 
# 
# 
# High freq. dielectric constant tensor:
#      x y z
#    x 1.766370 0.000000 0.000000 
#    y 0.000000 1.753920 0.000000 
#    z 0.000000 0.000000 1.774380 
# 
# From -- ./inp_files/20324.got.cif
#   From: 2010.03.12/outbox.cif.g09.slc.cpg/sg59_11_cif.got.tgz:20324.got - 2010.04.16 16:29:54.
