data_PCOD8245628
_publ_section_title
;
Structure prediction by ZEFSAII (Michael W. Deem and Ramdas Pophale) SiO2 
 PCOD8245628
Probable space group: P M M N
;
_chemical_formula_sum "Si O2"
_cell_formula_units_Z 48
_cell_length_a 15.369700
_cell_length_b 8.814819
_cell_length_c 17.183757
_cell_angle_alpha 90.000000
_cell_angle_beta 90.000000
_cell_angle_gamma 90.000000
_cell_volume 2328.074706
_symmetry_space_group_name_H-M "P M M N"
_symmetry_group_IT_number 59
_space_group.IT_coordinate_system_code '2'
_symmetry_cell_setting 'orthorhombic'
loop_
_space_group_symop_operation_xyz
x,y,z
1/2-x,1/2-y,z
1/2+x,-y,-z
-x,1/2+y,-z
-x,-y,-z
1/2+x,1/2+y,-z
1/2-x,y,z
x,1/2-y,z
loop_
_atom_site_type_symbol
_atom_site_label
_atom_site_fract_x
_atom_site_fract_y
_atom_site_fract_z
Si Si1 0.349459 0.584055 0.345350
Si Si2 0.002352 0.929919 0.084647
Si Si3 0.350559 0.571398 0.817917
Si Si4 0.647659 0.927716 0.809963
Si Si5 0.149608 0.914373 0.646215
Si Si6 0.092737 0.426764 0.497802
O O1 0.250000 0.611909 0.326742
O O2 0.396304 0.750000 0.349430
O O3 0.386833 0.484183 0.274613
O O4 0.354658 0.499029 0.427215
O O5 0.007077 0.750000 0.080002
O O6 0.912965 0.977584 0.126098
O O7 0.089974 0.988678 0.125959
O O8 0.000000 0.000000 0.000000
O O9 0.250000 0.520562 0.830980
O O10 0.360343 0.750000 0.834431
O O11 0.385428 0.533277 0.730440
O O12 0.750000 0.963465 0.824018
O O13 0.629408 0.750000 0.814550
O O14 0.250000 0.886794 0.659724
O O15 0.108218 0.750000 0.621515
O O16 0.136245 0.040730 0.580821
O O17 0.088415 0.250000 0.483595
O O18 0.000000 0.500000 0.500000
#
# Coordination Sequence:
#
# PCOD8245628 Si02
#       6
#     8   8   8   8   8   8
#     4  10  21  39  62  87 118 157 202 251 305 364
#     4  12  26  43  66  95 129 166 206 256 312 374
#     4   9  20  41  68  95 126 165 207 254 312 374
#     4  10  22  42  68  96 127 165 209 257 312 374
#     4   9  19  38  62  86 116 156 199 246 302 363
#     4  12  25  37  53  81 119 161 206 255 303 354
#
# _framework density 20.617896999999999
#
# number of rings (size 3 to 8) (size 9 to 14) (size 15 to 20)
#    0.000    1.667    0.000    5.500    2.333    6.000 
#    0.000    1.667    0.000    0.000    0.000    0.000 
#    0.000    0.000    0.000    0.000    0.000    0.000 
#
# Total GULP energy -595038.933590 kJ/mol
# GULP energy per Si atom -12396.644450 kJ/mol
# Density = 2.057097 g / cm^3
# Si number density = 20.617897 Si / 1000 Ang^3
#
#
#
# Elastic Constant Matrix: (Units=GPa)
#
#
# Indices 1 2 3 4 5 6 
#
# 1 77.7687 50.2630 51.4638 0.0000 0.0000 0.0000
# 2 50.2630 169.2049 80.7573 0.0000 0.0000 0.0000
# 3 51.4638 80.7573 166.1114 0.0000 0.0000 0.0000
# 4 0.0000 0.0000 0.0000 37.0023 0.0000 0.0000
# 5 0.0000 0.0000 0.0000 0.0000 29.6497 0.0000
# 6 0.0000 0.0000 0.0000 0.0000 0.0000 33.3447
#
#
#
# Elastic Compliance Matrix: (Units=1/GPa)
#
#
# Indices 1 2 3 4 5 6 
#
# 1 0.017568 -0.003413 -0.003784 0.000000 0.000000 0.000000
# 2 -0.003413 0.008359 -0.003006 0.000000 0.000000 0.000000
# 3 -0.003784 -0.003006 0.008654 0.000000 0.000000 0.000000
# 4 0.000000 0.000000 0.000000 0.027025 0.000000 0.000000
# 5 0.000000 0.000000 0.000000 0.000000 0.033727 0.000000
# 6 0.000000 0.000000 0.000000 0.000000 0.000000 0.029990
#
#
# Mechanical properties :
#
#
# Convention : Reuss Voigt Hill
#
# Bulk Modulus (GPa) = 70.54652 86.45034 78.49843
# Shear Modulus (GPa) = 33.23277 35.37274 34.30276
#
# Velocity S-wave (km/s) = 4.01913 4.14651 4.08332
# Velocity P-wave (km/s) = 7.47183 8.05888 7.77090
#
# Compressibility (1/GPa) = 0.01417504
#
# Stress axis : x y z
#
# Youngs Moduli (GPa) = 56.92065 119.63680 115.55536
#
# Poissons Ratio (x) = 0.40830 0.43723
# Poissons Ratio (y) = 0.19426 0.34739
# Poissons Ratio (z) = 0.21537 0.35966
#
# Static dielectric constant tensor:
#      x y z
#    x 3.709070 0.000000 0.000000 
#    y 0.000000 3.942780 0.000000 
#    z 0.000000 0.000000 3.499520 
# 
# 
# High freq. dielectric constant tensor:
#      x y z
#    x 1.804350 0.000000 0.000000 
#    y 0.000000 1.813070 0.000000 
#    z 0.000000 0.000000 1.812460 
# 
# From -- ./inp_files/27374.got.cif
#   From: 2010.03.12/outbox.cif.g09.slc.cpg/sg59_14_cif.got.tgz:27374.got - 2010.04.16 16:29:54.
