data_PCOD8245562
_publ_section_title
;
Structure prediction by ZEFSAII (Michael W. Deem and Ramdas Pophale) SiO2 
 PCOD8245562
Probable space group: P M M N
;
_chemical_formula_sum "Si O2"
_cell_formula_units_Z 40
_cell_length_a 8.566140
_cell_length_b 14.278475
_cell_length_c 16.949823
_cell_angle_alpha 90.000000
_cell_angle_beta 90.000000
_cell_angle_gamma 90.000000
_cell_volume 2073.156849
_symmetry_space_group_name_H-M "P M M N"
_symmetry_group_IT_number 59
_space_group.IT_coordinate_system_code '2'
_symmetry_cell_setting 'orthorhombic'
loop_
_space_group_symop_operation_xyz
x,y,z
1/2-x,1/2-y,z
1/2+x,-y,-z
-x,1/2+y,-z
-x,-y,-z
1/2+x,1/2+y,-z
1/2-x,y,z
x,1/2-y,z
loop_
_atom_site_type_symbol
_atom_site_label
_atom_site_fract_x
_atom_site_fract_y
_atom_site_fract_z
Si Si1 0.569867 0.490810 0.874872
Si Si2 0.068010 0.442875 0.711612
Si Si3 0.935662 0.250000 0.657356
Si Si4 0.066628 0.058499 0.428216
Si Si5 0.934295 0.250000 0.476485
Si Si6 0.931722 0.357884 0.018122
O O1 0.750000 0.490103 0.848748
O O2 0.459755 0.477450 0.799995
O O3 0.530844 0.590542 0.914421
O O4 0.532549 0.405817 0.934301
O O5 0.250000 0.445083 0.691147
O O6 0.002323 0.338953 0.702492
O O7 0.976689 0.511910 0.654014
O O8 0.750000 0.250000 0.662375
O O9 0.994102 0.250000 0.566804
O O10 0.250000 0.062895 0.437705
O O11 0.997076 0.161692 0.429177
O O12 0.000000 0.000000 0.500000
O O13 0.750000 0.250000 0.475059
O O14 0.750000 0.367468 0.039341
O O15 0.984730 0.250000 0.013765
#
# Coordination Sequence:
#
# PCOD8245562 Si02
#       6
#     8   8   4   8   4   8
#     4  10  21  38  61  90 123 158 198 248 302 357
#     4  12  25  41  62  91 125 161 203 253 304 359
#     4  11  23  39  63  91 123 158 201 252 306 362
#     4  12  24  41  64  90 122 162 205 253 304 362
#     4  11  23  41  65  91 119 160 205 252 308 366
#     4   9  19  38  63  89 119 159 199 242 300 362
#
# _framework density 19.294245
#
# number of rings (size 3 to 8) (size 9 to 14) (size 15 to 20)
#    0.000    1.200    2.000    4.800    1.400    2.000 
#    1.800    0.000    0.000    0.000    0.000    0.000 
#    0.000    0.000    0.000    0.000    0.000    0.000 
#
# Total GULP energy -496273.276041 kJ/mol
# GULP energy per Si atom -12406.831901 kJ/mol
# Density = 1.925033 g / cm^3
# Si number density = 19.294245 Si / 1000 Ang^3
#
#
#
# Elastic Constant Matrix: (Units=GPa)
#
#
# Indices 1 2 3 4 5 6 
#
# 1 77.6546 28.8493 21.2242 0.0000 0.0000 0.0000
# 2 28.8493 161.2939 51.3895 0.0000 0.0000 0.0000
# 3 21.2242 51.3895 98.0103 0.0000 0.0000 0.0000
# 4 0.0000 0.0000 0.0000 23.6185 0.0000 0.0000
# 5 0.0000 0.0000 0.0000 0.0000 33.9578 0.0000
# 6 0.0000 0.0000 0.0000 0.0000 0.0000 30.3446
#
#
#
# Elastic Compliance Matrix: (Units=1/GPa)
#
#
# Indices 1 2 3 4 5 6 
#
# 1 0.014140 -0.001865 -0.002084 0.000000 0.000000 0.000000
# 2 -0.001865 0.007689 -0.003628 0.000000 0.000000 0.000000
# 3 -0.002084 -0.003628 0.012556 0.000000 0.000000 0.000000
# 4 0.000000 0.000000 0.000000 0.042340 0.000000 0.000000
# 5 0.000000 0.000000 0.000000 0.000000 0.029448 0.000000
# 6 0.000000 0.000000 0.000000 0.000000 0.000000 0.032955
#
#
# Mechanical properties :
#
#
# Convention : Reuss Voigt Hill
#
# Bulk Modulus (GPa) = 51.99725 59.98718 55.99222
# Shear Modulus (GPa) = 31.11516 33.28390 32.19953
#
# Velocity S-wave (km/s) = 4.02016 4.15790 4.08961
# Velocity P-wave (km/s) = 6.96829 7.36268 7.16820
#
# Compressibility (1/GPa) = 0.01923178
#
# Stress axis : x y z
#
# Youngs Moduli (GPa) = 70.72104 130.05061 79.64011
#
# Poissons Ratio (x) = 0.24256 0.16598
# Poissons Ratio (y) = 0.13190 0.28892
# Poissons Ratio (z) = 0.14739 0.47180
#
# Static dielectric constant tensor:
#      x y z
#    x 3.638000 0.000000 0.000000 
#    y 0.000000 4.178430 0.000000 
#    z 0.000000 0.000000 3.505790 
# 
# 
# High freq. dielectric constant tensor:
#      x y z
#    x 1.763620 0.000000 0.000000 
#    y 0.000000 1.761230 0.000000 
#    z 0.000000 0.000000 1.748730 
# 
# From -- ./inp_files/19918.got.cif
#   From: 2010.03.12/outbox.cif.g09.slc.cpg/sg59_10_cif.got.tgz:19918.got - 2010.04.16 16:29:54.
