data_PCOD8245121
_publ_section_title
;
Structure prediction by ZEFSAII (Michael W. Deem and Ramdas Pophale) SiO2 
 PCOD8245121
Probable space group: P M M N
;
_chemical_formula_sum "Si O2"
_cell_formula_units_Z 64
_cell_length_a 9.034979
_cell_length_b 18.861227
_cell_length_c 21.243985
_cell_angle_alpha 90.000000
_cell_angle_beta 90.000000
_cell_angle_gamma 90.000000
_cell_volume 3620.204264
_symmetry_space_group_name_H-M "P M M N"
_symmetry_group_IT_number 59
_space_group.IT_coordinate_system_code '2'
_symmetry_cell_setting 'orthorhombic'
loop_
_space_group_symop_operation_xyz
x,y,z
1/2-x,1/2-y,z
1/2+x,-y,-z
-x,1/2+y,-z
-x,-y,-z
1/2+x,1/2+y,-z
1/2-x,y,z
x,1/2-y,z
loop_
_atom_site_type_symbol
_atom_site_label
_atom_site_fract_x
_atom_site_fract_y
_atom_site_fract_z
Si Si1 0.088130 0.868388 0.763763
Si Si2 0.926971 0.967800 0.938621
Si Si3 0.422309 0.568944 0.296137
Si Si4 0.421475 0.832449 0.408778
Si Si5 0.423693 0.828535 0.896920
Si Si6 0.915327 0.523597 0.181071
Si Si7 0.424593 0.074807 0.488754
Si Si8 0.921346 0.582786 0.652290
O O1 0.250000 0.839034 0.747179
O O2 0.023940 0.825687 0.823723
O O3 0.993089 0.860629 0.700391
O O4 0.093770 0.949786 0.783433
O O5 0.750000 0.970598 0.942125
O O6 0.979754 0.885968 0.934184
O O7 0.982966 0.015442 0.880480
O O8 0.000000 0.000000 0.000000
O O9 0.250000 0.567105 0.278920
O O10 0.462836 0.634509 0.341165
O O11 0.510724 0.578411 0.230420
O O12 0.470262 0.497825 0.333180
O O13 0.250000 0.847600 0.424349
O O14 0.458346 0.750000 0.405302
O O15 0.519945 0.866279 0.463172
O O16 0.250000 0.850811 0.899821
O O17 0.448530 0.750000 0.926122
O O18 0.750000 0.549657 0.162261
O O19 0.250000 0.064240 0.495722
O O20 0.467112 0.101610 0.418830
O O21 0.500000 0.000000 0.500000
O O22 0.750000 0.591477 0.663202
#
# Coordination Sequence:
#
# PCOD8245121 Si02
#       8
#     8   8   8   8   8   8   8   8
#     4   8  15  27  45  71  99 128 162 202 249 302
#     4  11  21  34  54  81 113 147 183 224 267 312
#     4   9  16  30  50  73  99 128 165 210 261 315
#     4  10  21  37  54  74 103 137 174 220 276 334
#     4   9  18  34  54  77 108 143 179 220 265 316
#     4   9  17  30  49  76 104 130 165 209 256 304
#     4  11  21  34  52  74 101 134 179 227 273 326
#     4   9  17  29  46  69  96 126 164 214 261 306
#
# _framework density 17.678560999999998
#
# number of rings (size 3 to 8) (size 9 to 14) (size 15 to 20)
#    0.000    2.500    1.250    2.625    0.000    5.000 
#    0.000    0.625    0.000    3.000    0.000    1.750 
#    0.000    0.000    0.000    0.000    0.000    0.000 
#
# Total GULP energy -793320.759843 kJ/mol
# GULP energy per Si atom -12395.636873 kJ/mol
# Density = 1.763832 g / cm^3
# Si number density = 17.678561 Si / 1000 Ang^3
#
#
#
# Elastic Constant Matrix: (Units=GPa)
#
#
# Indices 1 2 3 4 5 6 
#
# 1 100.8362 41.1725 70.0088 0.0000 0.0000 0.0000
# 2 41.1725 75.2477 53.1766 0.0000 0.0000 0.0000
# 3 70.0088 53.1766 130.0271 0.0000 0.0000 0.0000
# 4 0.0000 0.0000 0.0000 17.9847 0.0000 0.0000
# 5 0.0000 0.0000 0.0000 0.0000 34.6855 0.0000
# 6 0.0000 0.0000 0.0000 0.0000 0.0000 19.8853
#
#
#
# Elastic Compliance Matrix: (Units=1/GPa)
#
#
# Indices 1 2 3 4 5 6 
#
# 1 0.016611 -0.003894 -0.007351 0.000000 0.000000 0.000000
# 2 -0.003894 0.019604 -0.005921 0.000000 0.000000 0.000000
# 3 -0.007351 -0.005921 0.014070 0.000000 0.000000 0.000000
# 4 0.000000 0.000000 0.000000 0.055603 0.000000 0.000000
# 5 0.000000 0.000000 0.000000 0.000000 0.028830 0.000000
# 6 0.000000 0.000000 0.000000 0.000000 0.000000 0.050288
#
#
# Mechanical properties :
#
#
# Convention : Reuss Voigt Hill
#
# Bulk Modulus (GPa) = 62.68259 70.53632 66.60945
# Shear Modulus (GPa) = 22.25626 23.96132 23.10879
#
# Velocity S-wave (km/s) = 3.55200 3.68555 3.61940
# Velocity P-wave (km/s) = 7.23575 7.62214 7.43146
#
# Compressibility (1/GPa) = 0.01595339
#
# Stress axis : x y z
#
# Youngs Moduli (GPa) = 60.20239 51.00926 71.07275
#
# Poissons Ratio (x) = 0.19862 0.52246
# Poissons Ratio (y) = 0.23442 0.42082
# Poissons Ratio (z) = 0.44255 0.30203
#
# Static dielectric constant tensor:
#      x y z
#    x 3.393930 0.000000 0.000000 
#    y 0.000000 3.205890 0.000000 
#    z 0.000000 0.000000 3.522120 
# 
# 
# High freq. dielectric constant tensor:
#      x y z
#    x 1.684750 0.000000 0.000000 
#    y 0.000000 1.650970 0.000000 
#    z 0.000000 0.000000 1.682840 
# 
# From -- ./inp_files/29527.got.cif
#   From: 2010.03.12/outbox.cif.g09.slc.cpg/sg59_15_cif.got.tgz:29527.got - 2010.04.16 16:29:54.
