data_PCOD8245032
_publ_section_title
;
Structure prediction by ZEFSAII (Michael W. Deem and Ramdas Pophale) SiO2 
 PCOD8245032
Probable space group: P M M N
;
_chemical_formula_sum "Si O2"
_cell_formula_units_Z 64
_cell_length_a 18.554544
_cell_length_b 8.919242
_cell_length_c 20.389784
_cell_angle_alpha 90.000000
_cell_angle_beta 90.000000
_cell_angle_gamma 90.000000
_cell_volume 3374.355679
_symmetry_space_group_name_H-M "P M M N"
_symmetry_group_IT_number 59
_space_group.IT_coordinate_system_code '2'
_symmetry_cell_setting 'orthorhombic'
loop_
_space_group_symop_operation_xyz
x,y,z
1/2-x,1/2-y,z
1/2+x,-y,-z
-x,1/2+y,-z
-x,-y,-z
1/2+x,1/2+y,-z
1/2-x,y,z
x,1/2-y,z
loop_
_atom_site_type_symbol
_atom_site_label
_atom_site_fract_x
_atom_site_fract_y
_atom_site_fract_z
Si Si1 0.164617 0.420239 0.273827
Si Si2 0.666598 0.075150 0.075164
Si Si3 0.332339 0.574206 0.545261
Si Si4 0.926908 0.077571 0.833367
Si Si5 0.571701 0.927497 0.971165
Si Si6 0.167743 0.426249 0.673606
Si Si7 0.164123 0.582246 0.402677
Si Si8 0.409286 0.077011 0.804704
O O1 0.250000 0.436421 0.268754
O O2 0.139341 0.250000 0.262410
O O3 0.131418 0.528171 0.219667
O O4 0.137429 0.470863 0.345900
O O5 0.750000 0.038798 0.086664
O O6 0.652615 0.250000 0.062674
O O7 0.622511 0.025225 0.138460
O O8 0.640385 0.983459 0.011971
O O9 0.250000 0.520345 0.545744
O O10 0.339294 0.750000 0.555425
O O11 0.369234 0.493507 0.607645
O O12 0.366261 0.529151 0.474195
O O13 0.913258 0.250000 0.853074
O O14 0.005309 0.056033 0.802114
O O15 0.917092 0.973906 0.896444
O O16 0.564943 0.750000 0.977018
O O17 0.500000 0.000000 0.000000
O O18 0.250000 0.482557 0.683119
O O19 0.164159 0.250000 0.667081
O O20 0.122127 0.481538 0.735944
O O21 0.250000 0.585307 0.407489
O O22 0.136214 0.750000 0.386533
O O23 0.387795 0.250000 0.817997
#
# Coordination Sequence:
#
# PCOD8245032 Si02
#       8
#     8   8   8   8   8   8   8   8
#     4  10  21  36  55  82 113 143 179 228 285 339
#     4  11  24  40  61  90 119 149 188 232 278 330
#     4   8  14  25  43  70 103 139 179 222 272 327
#     4  11  23  39  61  85 110 147 188 227 274 331
#     4  12  24  41  64  87 114 148 186 230 279 333
#     4   9  17  29  47  74 108 143 180 224 273 324
#     4   8  14  27  48  73 103 139 178 223 275 331
#     4  10  21  37  57  80 110 150 190 229 276 331
#
# _framework density 18.966583
#
# number of rings (size 3 to 8) (size 9 to 14) (size 15 to 20)
#    0.000    2.125    1.250    3.375    0.000    4.250 
#    0.000    3.750    0.000    0.750    0.000    0.000 
#    0.000    0.000    0.000    0.000    0.000    0.000 
#
# Total GULP energy -793559.134046 kJ/mol
# GULP energy per Si atom -12399.361469 kJ/mol
# Density = 1.892341 g / cm^3
# Si number density = 18.966583 Si / 1000 Ang^3
#
#
#
# Elastic Constant Matrix: (Units=GPa)
#
#
# Indices 1 2 3 4 5 6 
#
# 1 42.2002 30.8385 31.7542 0.0000 0.0000 0.0000
# 2 30.8385 89.1378 44.9110 0.0000 0.0000 0.0000
# 3 31.7542 44.9110 143.0733 0.0000 0.0000 0.0000
# 4 0.0000 0.0000 0.0000 40.5965 0.0000 0.0000
# 5 0.0000 0.0000 0.0000 0.0000 14.9589 0.0000
# 6 0.0000 0.0000 0.0000 0.0000 0.0000 18.6747
#
#
#
# Elastic Compliance Matrix: (Units=1/GPa)
#
#
# Indices 1 2 3 4 5 6 
#
# 1 0.034074 -0.009477 -0.004588 0.000000 0.000000 0.000000
# 2 -0.009477 0.015962 -0.002907 0.000000 0.000000 0.000000
# 3 -0.004588 -0.002907 0.008920 0.000000 0.000000 0.000000
# 4 0.000000 0.000000 0.000000 0.024633 0.000000 0.000000
# 5 0.000000 0.000000 0.000000 0.000000 0.066850 0.000000
# 6 0.000000 0.000000 0.000000 0.000000 0.000000 0.053549
#
#
# Mechanical properties :
#
#
# Convention : Reuss Voigt Hill
#
# Bulk Modulus (GPa) = 39.97973 54.37987 47.17980
# Shear Modulus (GPa) = 20.30305 25.97318 23.13811
#
# Velocity S-wave (km/s) = 3.27534 3.70458 3.49655
# Velocity P-wave (km/s) = 5.95220 6.85800 6.42109
#
# Compressibility (1/GPa) = 0.02501268
#
# Stress axis : x y z
#
# Youngs Moduli (GPa) = 29.34780 62.64875 112.10515
#
# Poissons Ratio (x) = 0.59372 0.51430
# Poissons Ratio (y) = 0.27813 0.32591
# Poissons Ratio (z) = 0.13464 0.18213
#
# Static dielectric constant tensor:
#      x y z
#    x 3.235850 0.000000 0.000000 
#    y 0.000000 3.542800 0.000000 
#    z 0.000000 0.000000 3.895660 
# 
# 
# High freq. dielectric constant tensor:
#      x y z
#    x 1.701700 0.000000 0.000000 
#    y 0.000000 1.738720 0.000000 
#    z 0.000000 0.000000 1.756220 
# 
# From -- ./inp_files/29545.got.cif
#   From: 2010.03.12/outbox.cif.g09.slc.cpg/sg59_15_cif.got.tgz:29545.got - 2010.04.16 16:29:54.
