data_PCOD8245891
_publ_section_title
;
Structure prediction by ZEFSAII (Michael W. Deem and Ramdas Pophale) SiO2 
 PCOD8245891
Probable space group: P M M N
;
_chemical_formula_sum "Si O2"
_cell_formula_units_Z 40
_cell_length_a 8.837776
_cell_length_b 22.635264
_cell_length_c 9.936588
_cell_angle_alpha 90.000000
_cell_angle_beta 90.000000
_cell_angle_gamma 90.000000
_cell_volume 1987.768651
_symmetry_space_group_name_H-M "P M M N"
_symmetry_group_IT_number 59
_space_group.IT_coordinate_system_code '2'
_symmetry_cell_setting 'orthorhombic'
loop_
_space_group_symop_operation_xyz
x,y,z
1/2-x,1/2-y,z
1/2+x,-y,-z
-x,1/2+y,-z
-x,-y,-z
1/2+x,1/2+y,-z
1/2-x,y,z
x,1/2-y,z
loop_
_atom_site_type_symbol
_atom_site_label
_atom_site_fract_x
_atom_site_fract_y
_atom_site_fract_z
Si Si1 0.427705 0.750000 0.147067
Si Si2 0.576777 0.633655 0.214697
Si Si3 0.071680 0.063652 0.524623
Si Si4 0.429779 0.872140 0.716209
Si Si5 0.926278 0.559800 0.953112
Si Si6 0.929553 0.250000 0.156548
O O1 0.250000 0.750000 0.138626
O O2 0.479252 0.692770 0.230271
O O3 0.496975 0.750000 0.995173
O O4 0.750000 0.651591 0.235751
O O5 0.529781 0.584856 0.324991
O O6 0.546871 0.608303 0.067206
O O7 0.250000 0.058518 0.502110
O O8 0.003296 0.113270 0.426742
O O9 0.000000 0.000000 0.500000
O O10 0.250000 0.875442 0.705019
O O11 0.486198 0.921107 0.820150
O O12 0.486840 0.807612 0.763264
O O13 0.750000 0.550509 0.921294
O O14 0.000000 0.500000 0.000000
O O15 0.750000 0.250000 0.148114
#
# Coordination Sequence:
#
# PCOD8245891 Si02
#       6
#     4   8   8   8   8   4
#     4  11  21  38  65  94 122 160 207 255 306 365
#     4  10  23  41  61  88 125 163 201 253 311 365
#     4  11  24  43  64  91 126 166 209 254 310 370
#     4  11  22  40  63  90 126 164 204 256 309 365
#     4  11  22  37  60  90 120 160 209 257 312 369
#     4   9  20  38  61  90 124 160 203 255 308 359
#
# _framework density 20.123066000000001
#
# number of rings (size 3 to 8) (size 9 to 14) (size 15 to 20)
#    0.000    1.400    2.000    3.300    0.000    4.800 
#    0.000    4.000    0.000    0.000    0.000    0.000 
#    0.000    0.000    0.000    0.000    0.000    0.000 
#
# Total GULP energy -496193.508389 kJ/mol
# GULP energy per Si atom -12404.837710 kJ/mol
# Density = 2.007726 g / cm^3
# Si number density = 20.123066 Si / 1000 Ang^3
#
#
#
# Elastic Constant Matrix: (Units=GPa)
#
#
# Indices 1 2 3 4 5 6 
#
# 1 85.1505 39.7503 31.2786 0.0000 0.0000 0.0000
# 2 39.7503 111.6708 8.5774 0.0000 0.0000 0.0000
# 3 31.2786 8.5774 73.9239 0.0000 0.0000 0.0000
# 4 0.0000 0.0000 0.0000 34.3211 0.0000 0.0000
# 5 0.0000 0.0000 0.0000 0.0000 33.9339 0.0000
# 6 0.0000 0.0000 0.0000 0.0000 0.0000 37.0795
#
#
#
# Elastic Compliance Matrix: (Units=1/GPa)
#
#
# Indices 1 2 3 4 5 6 
#
# 1 0.016631 -0.005428 -0.006407 0.000000 0.000000 0.000000
# 2 -0.005428 0.010807 0.001043 0.000000 0.000000 0.000000
# 3 -0.006407 0.001043 0.016117 0.000000 0.000000 0.000000
# 4 0.000000 0.000000 0.000000 0.029137 0.000000 0.000000
# 5 0.000000 0.000000 0.000000 0.000000 0.029469 0.000000
# 6 0.000000 0.000000 0.000000 0.000000 0.000000 0.026969
#
#
# Mechanical properties :
#
#
# Convention : Reuss Voigt Hill
#
# Bulk Modulus (GPa) = 45.51486 47.77310 46.64398
# Shear Modulus (GPa) = 31.63773 33.80949 32.72361
#
# Velocity S-wave (km/s) = 3.96941 4.10339 4.03696
# Velocity P-wave (km/s) = 6.60876 6.80018 6.70515
#
# Compressibility (1/GPa) = 0.02197085
#
# Stress axis : x y z
#
# Youngs Moduli (GPa) = 60.12711 92.53310 62.04453
#
# Poissons Ratio (x) = 0.50227 0.39754
# Poissons Ratio (y) = 0.32637 -0.06470
# Poissons Ratio (z) = 0.38525 -0.09649
#
# Static dielectric constant tensor:
#      x y z
#    x 3.622430 0.000000 0.000000 
#    y 0.000000 3.676970 0.000000 
#    z 0.000000 0.000000 4.033340 
# 
# 
# High freq. dielectric constant tensor:
#      x y z
#    x 1.784320 0.000000 0.000000 
#    y 0.000000 1.797560 0.000000 
#    z 0.000000 0.000000 1.789620 
# 
# From -- ./inp_files/5720.got.cif
#   From: 2010.03.12/outbox.cif.g09.slc.cpg/sg59_3_cif.got.tgz:5720.got - 2010.04.16 16:29:54.
