data_PCOD8245330
_publ_section_title
;
Structure prediction by ZEFSAII (Michael W. Deem and Ramdas Pophale) SiO2 
 PCOD8245330
Probable space group: P M M N
;
_chemical_formula_sum "Si O2"
_cell_formula_units_Z 40
_cell_length_a 21.409738
_cell_length_b 15.476335
_cell_length_c 5.269207
_cell_angle_alpha 90.000000
_cell_angle_beta 90.000000
_cell_angle_gamma 90.000000
_cell_volume 1745.921587
_symmetry_space_group_name_H-M "P M M N"
_symmetry_group_IT_number 59
_space_group.IT_coordinate_system_code '2'
_symmetry_cell_setting 'orthorhombic'
loop_
_space_group_symop_operation_xyz
x,y,z
1/2-x,1/2-y,z
1/2+x,-y,-z
-x,1/2+y,-z
-x,-y,-z
1/2+x,1/2+y,-z
1/2-x,y,z
x,1/2-y,z
loop_
_atom_site_type_symbol
_atom_site_label
_atom_site_fract_x
_atom_site_fract_y
_atom_site_fract_z
Si Si1 0.081995 0.847111 0.700979
Si Si2 0.518633 0.407386 0.779313
Si Si3 0.319306 0.154304 0.437043
Si Si4 0.908658 0.564153 0.898881
Si Si5 0.179776 0.983784 0.763599
O O1 0.107913 0.750000 0.706756
O O2 0.030245 0.854003 0.477110
O O3 0.139378 0.910016 0.622923
O O4 0.052896 0.867599 0.974287
O O5 0.444391 0.405304 0.842979
O O6 0.541168 0.507552 0.735799
O O7 0.250000 0.148131 0.306560
O O8 0.326180 0.250000 0.561975
O O9 0.324365 0.077778 0.637725
O O10 0.377267 0.144952 0.242130
O O11 0.851133 0.498932 0.961171
O O12 0.250000 0.949636 0.790947
#
# Coordination Sequence:
#
# PCOD8245330 Si02
#       5
#     8   8   8   8   8
#     4  11  23  42  64  95 131 169 214 262 313 378
#     4  10  23  39  66  93 127 166 209 263 319 373
#     4  10  21  37  58  87 121 159 208 262 316 377
#     4  10  21  38  63  87 123 163 214 256 324 376
#     4  10  22  40  63  90 126 168 210 264 317 373
#
# _framework density 22.910536
#
# number of rings (size 3 to 8) (size 9 to 14) (size 15 to 20)
#    0.000    1.800    2.000    1.200    2.800    5.200 
#    0.000    2.000    0.000    2.400    0.000    0.000 
#    0.000    0.000    0.000    0.000    0.000    0.000 
#
# Total GULP energy -495630.927658 kJ/mol
# GULP energy per Si atom -12390.773191 kJ/mol
# Density = 2.285839 g / cm^3
# Si number density = 22.910536 Si / 1000 Ang^3
#
#
#
# Elastic Constant Matrix: (Units=GPa)
#
#
# Indices 1 2 3 4 5 6 
#
# 1 103.6799 22.6057 3.6675 0.0000 0.0000 0.0000
# 2 22.6057 135.0135 10.6668 0.0000 0.0000 0.0000
# 3 3.6675 10.6668 52.6305 0.0000 0.0000 0.0000
# 4 0.0000 0.0000 0.0000 23.5428 0.0000 0.0000
# 5 0.0000 0.0000 0.0000 0.0000 28.9517 0.0000
# 6 0.0000 0.0000 0.0000 0.0000 0.0000 26.5130
#
#
#
# Elastic Compliance Matrix: (Units=1/GPa)
#
#
# Indices 1 2 3 4 5 6 
#
# 1 0.010017 -0.001648 -0.000364 0.000000 0.000000 0.000000
# 2 -0.001648 0.007798 -0.001466 0.000000 0.000000 0.000000
# 3 -0.000364 -0.001466 0.019323 0.000000 0.000000 0.000000
# 4 0.000000 0.000000 0.000000 0.042476 0.000000 0.000000
# 5 0.000000 0.000000 0.000000 0.000000 0.034540 0.000000
# 6 0.000000 0.000000 0.000000 0.000000 0.000000 0.037717
#
#
# Mechanical properties :
#
#
# Convention : Reuss Voigt Hill
#
# Bulk Modulus (GPa) = 33.13184 40.57821 36.85503
# Shear Modulus (GPa) = 29.60522 32.76043 31.18282
#
# Velocity S-wave (km/s) = 3.59863 3.78554 3.69327
# Velocity P-wave (km/s) = 5.63557 6.07101 5.85734
#
# Compressibility (1/GPa) = 0.03018244
#
# Stress axis : x y z
#
# Youngs Moduli (GPa) = 99.82663 128.23024 51.75237
#
# Poissons Ratio (x) = 0.21139 0.01883
# Poissons Ratio (y) = 0.16456 0.07585
# Poissons Ratio (z) = 0.03633 0.18794
#
# Static dielectric constant tensor:
#      x y z
#    x 4.499270 0.000000 0.000000 
#    y 0.000000 4.111060 0.000000 
#    z 0.000000 0.000000 3.771900 
# 
# 
# High freq. dielectric constant tensor:
#      x y z
#    x 1.915960 0.000000 0.000000 
#    y 0.000000 1.892490 0.000000 
#    z 0.000000 0.000000 1.882270 
# 
# From -- ./inp_files/2634.got.cif
#   From: 2010.03.12/outbox.cif.g09.slc.cpg/sg59_2_cif.got.tgz:2634.got - 2010.04.16 16:29:54.
