data_PCOD8245135
_publ_section_title
;
Structure prediction by ZEFSAII (Michael W. Deem and Ramdas Pophale) SiO2 
 PCOD8245135
Probable space group: P M M N
;
_chemical_formula_sum "Si O2"
_cell_formula_units_Z 48
_cell_length_a 13.833019
_cell_length_b 9.236245
_cell_length_c 20.491714
_cell_angle_alpha 90.000000
_cell_angle_beta 90.000000
_cell_angle_gamma 90.000000
_cell_volume 2618.126966
_symmetry_space_group_name_H-M "P M M N"
_symmetry_group_IT_number 59
_space_group.IT_coordinate_system_code '2'
_symmetry_cell_setting 'orthorhombic'
loop_
_space_group_symop_operation_xyz
x,y,z
1/2-x,1/2-y,z
1/2+x,-y,-z
-x,1/2+y,-z
-x,-y,-z
1/2+x,1/2+y,-z
1/2-x,y,z
x,1/2-y,z
loop_
_atom_site_type_symbol
_atom_site_label
_atom_site_fract_x
_atom_site_fract_y
_atom_site_fract_z
Si Si1 0.029273 0.081201 0.094677
Si Si2 0.138020 0.581944 0.611447
Si Si3 0.856203 0.078314 0.534095
Si Si4 0.639793 0.579820 0.035300
Si Si5 0.362668 0.082337 0.226199
Si Si6 0.031591 0.578321 0.339980
O O1 0.005593 0.250000 0.092636
O O2 0.080539 0.035602 0.161422
O O3 0.102056 0.037519 0.036582
O O4 0.927495 0.997451 0.089004
O O5 0.250000 0.554135 0.627044
O O6 0.112048 0.750000 0.619976
O O7 0.112328 0.526486 0.538106
O O8 0.075842 0.489323 0.663372
O O9 0.750000 0.015339 0.550074
O O10 0.850739 0.250000 0.533307
O O11 0.927408 0.023876 0.590315
O O12 0.750000 0.524980 0.042587
O O13 0.633475 0.750000 0.047198
O O14 0.250000 0.052193 0.214632
O O15 0.381389 0.250000 0.243271
O O16 0.399921 0.982356 0.284110
O O17 0.026950 0.750000 0.333360
#
# Coordination Sequence:
#
# PCOD8245135 Si02
#       6
#     8   8   8   8   8   8
#     4   9  18  33  53  77 104 135 171 208 246 290
#     4   9  18  34  54  72  94 129 171 211 252 302
#     4   8  15  29  49  73 100 129 161 201 252 305
#     4   9  17  31  53  80 108 135 164 203 251 297
#     4  10  21  37  55  74 100 136 174 207 242 293
#     4  11  21  32  50  76 105 133 163 206 257 304
#
# _framework density 18.333717
#
# number of rings (size 3 to 8) (size 9 to 14) (size 15 to 20)
#    0.000    2.667    0.000    3.000    0.000    4.333 
#    0.000    1.667    0.000    6.000    0.000    0.000 
#    0.000    0.000    0.000    0.000    0.000    0.000 
#
# Total GULP energy -595127.532343 kJ/mol
# GULP energy per Si atom -12398.490257 kJ/mol
# Density = 1.829199 g / cm^3
# Si number density = 18.333717 Si / 1000 Ang^3
#
#
#
# Elastic Constant Matrix: (Units=GPa)
#
#
# Indices 1 2 3 4 5 6 
#
# 1 139.7219 53.4995 54.2660 0.0000 0.0000 0.0000
# 2 53.4995 55.1595 33.0806 0.0000 0.0000 0.0000
# 3 54.2660 33.0806 60.2457 0.0000 0.0000 0.0000
# 4 0.0000 0.0000 0.0000 27.8052 0.0000 0.0000
# 5 0.0000 0.0000 0.0000 0.0000 29.6355 0.0000
# 6 0.0000 0.0000 0.0000 0.0000 0.0000 30.5297
#
#
#
# Elastic Compliance Matrix: (Units=1/GPa)
#
#
# Indices 1 2 3 4 5 6 
#
# 1 0.013218 -0.008468 -0.007256 0.000000 0.000000 0.000000
# 2 -0.008468 0.032456 -0.010194 0.000000 0.000000 0.000000
# 3 -0.007256 -0.010194 0.028732 0.000000 0.000000 0.000000
# 4 0.000000 0.000000 0.000000 0.035964 0.000000 0.000000
# 5 0.000000 0.000000 0.000000 0.000000 0.033743 0.000000
# 6 0.000000 0.000000 0.000000 0.000000 0.000000 0.032755
#
#
# Mechanical properties :
#
#
# Convention : Reuss Voigt Hill
#
# Bulk Modulus (GPa) = 44.30708 59.64657 51.97683
# Shear Modulus (GPa) = 21.16606 25.21282 23.18944
#
# Velocity S-wave (km/s) = 3.40146 3.71241 3.56033
# Velocity P-wave (km/s) = 6.29651 7.14006 6.73151
#
# Compressibility (1/GPa) = 0.02256976
#
# Stress axis : x y z
#
# Youngs Moduli (GPa) = 75.65636 30.81073 34.80488
#
# Poissons Ratio (x) = 0.26092 0.25254
# Poissons Ratio (y) = 0.64069 0.35479
# Poissons Ratio (z) = 0.54895 0.31408
#
# Static dielectric constant tensor:
#      x y z
#    x 3.501350 0.000000 0.000000 
#    y 0.000000 3.126650 0.000000 
#    z 0.000000 0.000000 3.329690 
# 
# 
# High freq. dielectric constant tensor:
#      x y z
#    x 1.722230 0.000000 0.000000 
#    y 0.000000 1.691770 0.000000 
#    z 0.000000 0.000000 1.696360 
# 
# From -- ./inp_files/25469.got.cif
#   From: 2010.03.12/outbox.cif.g09.slc.cpg/sg59_13_cif.got.tgz:25469.got - 2010.04.16 16:29:54.
