data_PCOD8245419
_publ_section_title
;
Structure prediction by ZEFSAII (Michael W. Deem and Ramdas Pophale) SiO2 
 PCOD8245419
Probable space group: P M M N
;
_chemical_formula_sum "Si O2"
_cell_formula_units_Z 48
_cell_length_a 18.607221
_cell_length_b 7.810639
_cell_length_c 16.713575
_cell_angle_alpha 90.000000
_cell_angle_beta 90.000000
_cell_angle_gamma 90.000000
_cell_volume 2429.055490
_symmetry_space_group_name_H-M "P M M N"
_symmetry_group_IT_number 59
_space_group.IT_coordinate_system_code '2'
_symmetry_cell_setting 'orthorhombic'
loop_
_space_group_symop_operation_xyz
x,y,z
1/2-x,1/2-y,z
1/2+x,-y,-z
-x,1/2+y,-z
-x,-y,-z
1/2+x,1/2+y,-z
1/2-x,y,z
x,1/2-y,z
loop_
_atom_site_type_symbol
_atom_site_label
_atom_site_fract_x
_atom_site_fract_y
_atom_site_fract_z
Si Si1 0.068239 0.557102 0.950622
Si Si2 0.431560 0.948293 0.774950
Si Si3 0.669147 0.549797 0.916610
Si Si4 0.832731 0.558823 0.362527
Si Si5 0.835527 0.250000 0.652010
Si Si6 0.902840 0.552196 0.751586
Si Si7 0.664959 0.250000 0.471507
O O1 0.053090 0.750000 0.926960
O O2 0.075713 0.467277 0.863859
O O3 0.139626 0.538286 0.003313
O O4 0.000000 0.500000 0.000000
O O5 0.408561 0.750000 0.772666
O O6 0.512386 0.972310 0.743347
O O7 0.378102 0.052102 0.718580
O O8 0.750000 0.484402 0.901474
O O9 0.666634 0.750000 0.932238
O O10 0.620772 0.499227 0.840992
O O11 0.750000 0.518112 0.341265
O O12 0.840296 0.750000 0.399232
O O13 0.862790 0.420566 0.426162
O O14 0.750000 0.250000 0.657244
O O15 0.863904 0.424736 0.691051
O O16 0.865133 0.250000 0.561366
O O17 0.880097 0.750000 0.733731
O O18 0.750000 0.250000 0.475184
#
# Coordination Sequence:
#
# PCOD8245419 Si02
#       7
#     8   8   8   8   4   8   4
#     4  11  22  36  56  83 115 158 202 244 291 350
#     4  10  21  38  61  85 122 165 202 248 305 356
#     4  10  21  38  57  80 118 159 196 249 302 344
#     4  10  21  38  65  93 118 159 204 244 303 365
#     4  11  24  40  66  95 118 158 203 243 306 368
#     4  10  22  40  60  87 124 161 202 247 300 362
#     4   9  20  42  64  89 127 154 191 255 303 360
#
# _framework density 19.760767000000001
#
# number of rings (size 3 to 8) (size 9 to 14) (size 15 to 20)
#    0.000    1.833    2.500    1.000    2.333    4.000 
#    0.000    5.833    0.000    0.000    0.000    0.000 
#    0.000    0.000    0.000    0.000    0.000    0.000 
#
# Total GULP energy -595187.044822 kJ/mol
# GULP energy per Si atom -12399.730100 kJ/mol
# Density = 1.971579 g / cm^3
# Si number density = 19.760767 Si / 1000 Ang^3
#
#
#
# Elastic Constant Matrix: (Units=GPa)
#
#
# Indices 1 2 3 4 5 6 
#
# 1 81.4935 34.5182 40.4007 0.0000 0.0000 0.0000
# 2 34.5182 102.3540 62.8448 0.0000 0.0000 0.0000
# 3 40.4007 62.8448 147.8279 0.0000 0.0000 0.0000
# 4 0.0000 0.0000 0.0000 24.7531 0.0000 0.0000
# 5 0.0000 0.0000 0.0000 0.0000 27.6658 0.0000
# 6 0.0000 0.0000 0.0000 0.0000 0.0000 29.4048
#
#
#
# Elastic Compliance Matrix: (Units=1/GPa)
#
#
# Indices 1 2 3 4 5 6 
#
# 1 0.015043 -0.003449 -0.002645 0.000000 0.000000 0.000000
# 2 -0.003449 0.014012 -0.005014 0.000000 0.000000 0.000000
# 3 -0.002645 -0.005014 0.009619 0.000000 0.000000 0.000000
# 4 0.000000 0.000000 0.000000 0.040399 0.000000 0.000000
# 5 0.000000 0.000000 0.000000 0.000000 0.036146 0.000000
# 6 0.000000 0.000000 0.000000 0.000000 0.000000 0.034008
#
#
# Mechanical properties :
#
#
# Convention : Reuss Voigt Hill
#
# Bulk Modulus (GPa) = 60.76207 67.46696 64.11452
# Shear Modulus (GPa) = 28.25993 29.29220 28.77607
#
# Velocity S-wave (km/s) = 3.78577 3.85430 3.82019
# Velocity P-wave (km/s) = 7.06576 7.35006 7.20932
#
# Compressibility (1/GPa) = 0.01645763
#
# Stress axis : x y z
#
# Youngs Moduli (GPa) = 66.47560 71.36809 103.96050
#
# Poissons Ratio (x) = 0.24617 0.27496
# Poissons Ratio (y) = 0.22929 0.52127
# Poissons Ratio (z) = 0.17582 0.35784
#
# Static dielectric constant tensor:
#      x y z
#    x 3.562270 0.000000 0.000000 
#    y 0.000000 3.878570 0.000000 
#    z 0.000000 0.000000 3.383930 
# 
# 
# High freq. dielectric constant tensor:
#      x y z
#    x 1.763970 0.000000 0.000000 
#    y 0.000000 1.774400 0.000000 
#    z 0.000000 0.000000 1.765530 
# 
# From -- ./inp_files/20592.got.cif
#   From: 2010.03.12/outbox.cif.g09.slc.cpg/sg59_11_cif.got.tgz:20592.got - 2010.04.16 16:29:54.
