data_PCOD8245934
_publ_section_title
;
Structure prediction by ZEFSAII (Michael W. Deem and Ramdas Pophale) SiO2 
 PCOD8245934
Probable space group: P M M N
;
_chemical_formula_sum "Si O2"
_cell_formula_units_Z 64
_cell_length_a 9.383122
_cell_length_b 13.879932
_cell_length_c 31.159054
_cell_angle_alpha 90.000000
_cell_angle_beta 90.000000
_cell_angle_gamma 90.000000
_cell_volume 4058.064685
_symmetry_space_group_name_H-M "P M M N"
_symmetry_group_IT_number 59
_space_group.IT_coordinate_system_code '2'
_symmetry_cell_setting 'orthorhombic'
loop_
_space_group_symop_operation_xyz
x,y,z
1/2-x,1/2-y,z
1/2+x,-y,-z
-x,1/2+y,-z
-x,-y,-z
1/2+x,1/2+y,-z
1/2-x,y,z
x,1/2-y,z
loop_
_atom_site_type_symbol
_atom_site_label
_atom_site_fract_x
_atom_site_fract_y
_atom_site_fract_z
Si Si1 0.419069 0.643869 0.973564
Si Si2 0.582486 0.360319 0.353836
Si Si3 0.919601 0.477639 0.107027
Si Si4 0.913453 0.362878 0.930915
Si Si5 0.907222 0.864337 0.726167
Si Si6 0.916511 0.025349 0.437166
Si Si7 0.416118 0.137702 0.177903
Si Si8 0.583547 0.139318 0.522395
O O1 0.250000 0.649462 0.973069
O O2 0.482202 0.750000 0.964204
O O3 0.474691 0.574650 0.936230
O O4 0.467405 0.609758 0.020953
O O5 0.750000 0.366707 0.348113
O O6 0.534807 0.250000 0.362254
O O7 0.513860 0.402904 0.310323
O O8 0.530195 0.425048 0.393464
O O9 0.750000 0.482430 0.110990
O O10 0.986328 0.584225 0.103814
O O11 0.981305 0.423186 0.147816
O O12 0.750000 0.395131 0.924271
O O13 0.929821 0.250000 0.922914
O O14 0.750000 0.904911 0.715739
O O15 0.903852 0.750000 0.726002
O O16 0.954155 0.896979 0.773765
O O17 0.750000 0.001434 0.435732
O O18 0.952155 0.100408 0.474998
O O19 0.999376 0.924764 0.442921
O O20 0.250000 0.117929 0.167878
O O21 0.451361 0.250000 0.171478
O O22 0.750000 0.130381 0.532485
O O23 0.532585 0.250000 0.525522
#
# Coordination Sequence:
#
# PCOD8245934 Si02
#       8
#     8   8   8   8   8   8   8   8
#     4   8  15  28  44  63  88 116 144 174 209 249
#     4   9  16  26  42  64  89 116 144 175 214 259
#     4  11  20  28  44  69  93 115 141 178 219 256
#     4   9  18  33  49  61  80 115 153 184 214 251
#     4   8  15  28  44  62  86 115 144 175 210 248
#     4   9  17  28  42  62  87 115 148 183 218 257
#     4   9  18  32  47  64  90 121 148 173 206 256
#     4   9  17  29  43  59  84 118 152 185 219 253
#
# _framework density 15.771065
#
# number of rings (size 3 to 8) (size 9 to 14) (size 15 to 20)
#    0.000    3.000    0.000    3.000    0.000    3.750 
#    0.000    1.875    0.000    3.750    0.000    0.875 
#    0.000    5.000    0.000    0.000    0.000    0.000 
#
# Total GULP energy -793355.422369 kJ/mol
# GULP energy per Si atom -12396.178475 kJ/mol
# Density = 1.573517 g / cm^3
# Si number density = 15.771065 Si / 1000 Ang^3
#
#
#
# Elastic Constant Matrix: (Units=GPa)
#
#
# Indices 1 2 3 4 5 6 
#
# 1 58.5543 43.9222 53.5646 0.0000 0.0000 0.0000
# 2 43.9222 81.5110 55.0740 0.0000 0.0000 0.0000
# 3 53.5646 55.0740 108.4391 0.0000 0.0000 0.0000
# 4 0.0000 0.0000 0.0000 22.9042 0.0000 0.0000
# 5 0.0000 0.0000 0.0000 0.0000 27.7002 0.0000
# 6 0.0000 0.0000 0.0000 0.0000 0.0000 23.0266
#
#
#
# Elastic Compliance Matrix: (Units=1/GPa)
#
#
# Indices 1 2 3 4 5 6 
#
# 1 0.037209 -0.011618 -0.012479 0.000000 0.000000 0.000000
# 2 -0.011618 0.022305 -0.005589 0.000000 0.000000 0.000000
# 3 -0.012479 -0.005589 0.018225 0.000000 0.000000 0.000000
# 4 0.000000 0.000000 0.000000 0.043660 0.000000 0.000000
# 5 0.000000 0.000000 0.000000 0.000000 0.036101 0.000000
# 6 0.000000 0.000000 0.000000 0.000000 0.000000 0.043428
#
#
# Mechanical properties :
#
#
# Convention : Reuss Voigt Hill
#
# Bulk Modulus (GPa) = 54.45045 61.51399 57.98222
# Shear Modulus (GPa) = 18.76711 21.12241 19.94476
#
# Velocity S-wave (km/s) = 3.45334 3.66363 3.56004
# Velocity P-wave (km/s) = 7.10642 7.54886 7.33098
#
# Compressibility (1/GPa) = 0.01836532
#
# Stress axis : x y z
#
# Youngs Moduli (GPa) = 26.87533 44.83208 54.87082
#
# Poissons Ratio (x) = 0.52088 0.68473
# Poissons Ratio (y) = 0.31225 0.30670
# Poissons Ratio (z) = 0.33538 0.25059
#
# Static dielectric constant tensor:
#      x y z
#    x 2.902360 0.000000 0.000000 
#    y 0.000000 2.873080 0.000000 
#    z 0.000000 0.000000 3.080890 
# 
# 
# High freq. dielectric constant tensor:
#      x y z
#    x 1.597450 0.000000 0.000000 
#    y 0.000000 1.583220 0.000000 
#    z 0.000000 0.000000 1.597060 
# 
# From -- ./inp_files/33220.got.cif
#   From: 2010.03.12/outbox.cif.g09.slc.cpg/sg59_17_cif.got.tgz:33220.got - 2010.04.16 16:29:54.
