data_PCOD8245909
_publ_section_title
;
Structure prediction by ZEFSAII (Michael W. Deem and Ramdas Pophale) SiO2 
 PCOD8245909
Probable space group: P M M N
;
_chemical_formula_sum "Si O2"
_cell_formula_units_Z 56
_cell_length_a 14.540580
_cell_length_b 14.434008
_cell_length_c 12.384970
_cell_angle_alpha 90.000000
_cell_angle_beta 90.000000
_cell_angle_gamma 90.000000
_cell_volume 2599.343237
_symmetry_space_group_name_H-M "P M M N"
_symmetry_group_IT_number 59
_space_group.IT_coordinate_system_code '2'
_symmetry_cell_setting 'orthorhombic'
loop_
_space_group_symop_operation_xyz
x,y,z
1/2-x,1/2-y,z
1/2+x,-y,-z
-x,1/2+y,-z
-x,-y,-z
1/2+x,1/2+y,-z
1/2-x,y,z
x,1/2-y,z
loop_
_atom_site_type_symbol
_atom_site_label
_atom_site_fract_x
_atom_site_fract_y
_atom_site_fract_z
Si Si1 0.846547 0.646981 0.044072
Si Si2 0.854648 0.145506 0.485619
Si Si3 0.967010 0.043120 0.658933
Si Si4 0.471894 0.599747 0.958106
Si Si5 0.464730 0.644583 0.719050
Si Si6 0.144116 0.358647 0.718727
Si Si7 0.354786 0.855125 0.157828
O O1 0.750000 0.603034 0.997322
O O2 0.822639 0.750000 0.078947
O O3 0.872222 0.601341 0.159331
O O4 0.928898 0.649994 0.958654
O O5 0.750000 0.116704 0.504796
O O6 0.872764 0.250000 0.529228
O O7 0.917070 0.072026 0.548978
O O8 0.875726 0.141952 0.358019
O O9 0.915112 0.083837 0.762521
O O10 0.071932 0.081109 0.649331
O O11 0.963316 0.931105 0.671610
O O12 0.432800 0.610523 0.837759
O O13 0.500000 0.500000 0.000000
O O14 0.396053 0.642160 0.037221
O O15 0.505834 0.750000 0.721507
O O16 0.250000 0.376982 0.682291
O O17 0.119248 0.250000 0.705852
O O18 0.250000 0.891751 0.155281
O O19 0.357969 0.750000 0.199559
#
# Coordination Sequence:
#
# PCOD8245909 Si02
#       7
#     8   8   8   8   8   8   8
#     4   9  17  31  53  81 116 162 213 260 309 377
#     4  10  23  44  71 101 131 172 224 277 339 408
#     4  12  21  40  67  96 134 173 225 284 339 398
#     4  12  22  40  62  92 133 177 221 271 330 396
#     4  11  25  43  64  92 134 182 226 273 332 401
#     4   9  17  30  55  94 133 168 213 274 339 395
#     4  11  23  38  63  99 134 170 217 280 345 397
#
# _framework density 21.543904000000001
#
# number of rings (size 3 to 8) (size 9 to 14) (size 15 to 20)
#    0.000    1.429    2.857    4.286    0.000    2.857 
#    0.000    1.429    0.000    3.429    0.000    6.000 
#    0.000    0.000    0.000    0.000    0.000    0.000 
#
# Total GULP energy -693863.831254 kJ/mol
# GULP energy per Si atom -12390.425558 kJ/mol
# Density = 2.149487 g / cm^3
# Si number density = 21.543904 Si / 1000 Ang^3
#
#
#
# Elastic Constant Matrix: (Units=GPa)
#
#
# Indices 1 2 3 4 5 6 
#
# 1 136.7755 40.3546 41.9127 0.0000 0.0000 0.0000
# 2 40.3546 132.2613 34.4533 0.0000 0.0000 0.0000
# 3 41.9127 34.4533 114.2542 0.0000 0.0000 0.0000
# 4 0.0000 0.0000 0.0000 26.3635 0.0000 0.0000
# 5 0.0000 0.0000 0.0000 0.0000 16.5232 0.0000
# 6 0.0000 0.0000 0.0000 0.0000 0.0000 -19.2713
#
#
#
# Elastic Compliance Matrix: (Units=1/GPa)
#
#
# Indices 1 2 3 4 5 6 
#
# 1 0.008688 -0.001976 -0.002591 0.000000 0.000000 0.000000
# 2 -0.001976 0.008655 -0.001885 0.000000 0.000000 0.000000
# 3 -0.002591 -0.001885 0.010271 0.000000 0.000000 0.000000
# 4 0.000000 0.000000 0.000000 0.037931 0.000000 0.000000
# 5 0.000000 0.000000 0.000000 0.000000 0.060521 0.000000
# 6 0.000000 0.000000 0.000000 0.000000 0.000000 -0.051891
#
#
# Mechanical properties :
#
#
# Convention : Reuss Voigt Hill
#
# Bulk Modulus (GPa) = 67.98117 68.52582 68.25349
# Shear Modulus (GPa) = 54.35734 22.49443 38.42588
#
# Velocity S-wave (km/s) = 5.02849 3.23479 4.22786
# Velocity P-wave (km/s) = 8.08316 6.76967 7.45540
#
# Compressibility (1/GPa) = 0.01470996
#
# Stress axis : x y z
#
# Youngs Moduli (GPa) = 115.09720 115.54439 97.35734
#
# Poissons Ratio (x) = 0.22830 0.25229
# Poissons Ratio (y) = 0.22742 0.18352
# Poissons Ratio (z) = 0.29826 0.21780
#
# Static dielectric constant tensor:
#      x y z
#    x 3.781490 0.000000 0.000000 
#    y 0.000000 4.036160 0.000000 
#    z 0.000000 0.000000 3.688320 
# 
# 
# High freq. dielectric constant tensor:
#      x y z
#    x 1.841580 0.000000 0.000000 
#    y 0.000000 1.848250 0.000000 
#    z 0.000000 0.000000 1.831410 
# 
# From -- ./inp_files/16917.got.cif
#   From: 2010.03.12/outbox.cif.g09.slc.cpg/sg59_9_cif.got.tgz:16917.got - 2010.04.16 16:29:54.
