data_PCOD8245877
_publ_section_title
;
Structure prediction by ZEFSAII (Michael W. Deem and Ramdas Pophale) SiO2 
 PCOD8245877
Probable space group: P M M N
;
_chemical_formula_sum "Si O2"
_cell_formula_units_Z 48
_cell_length_a 14.844999
_cell_length_b 8.733501
_cell_length_c 18.610952
_cell_angle_alpha 90.000000
_cell_angle_beta 90.000000
_cell_angle_gamma 90.000000
_cell_volume 2412.887847
_symmetry_space_group_name_H-M "P M M N"
_symmetry_group_IT_number 59
_space_group.IT_coordinate_system_code '2'
_symmetry_cell_setting 'orthorhombic'
loop_
_space_group_symop_operation_xyz
x,y,z
1/2-x,1/2-y,z
1/2+x,-y,-z
-x,1/2+y,-z
-x,-y,-z
1/2+x,1/2+y,-z
1/2-x,y,z
x,1/2-y,z
loop_
_atom_site_type_symbol
_atom_site_label
_atom_site_fract_x
_atom_site_fract_y
_atom_site_fract_z
Si Si1 0.854069 0.574043 0.172256
Si Si2 0.580981 0.069330 0.312348
Si Si3 0.250000 0.924698 0.087102
Si Si4 0.750000 0.929204 0.762530
Si Si5 0.893607 0.071715 0.662492
Si Si6 0.250000 0.575818 0.457730
Si Si7 0.593001 0.071910 0.023382
Si Si8 0.750000 0.571057 0.392091
O O1 0.750000 0.555640 0.194186
O O2 0.884283 0.750000 0.172960
O O3 0.914154 0.483452 0.229645
O O4 0.869511 0.507649 0.094004
O O5 0.586451 0.250000 0.316359
O O6 0.488101 0.012912 0.346941
O O7 0.661366 0.000257 0.358211
O O8 0.250000 0.750000 0.115169
O O9 0.250000 0.041326 0.152822
O O10 0.162119 0.958438 0.040479
O O11 0.750000 0.750000 0.746465
O O12 0.839713 0.003011 0.729670
O O13 0.909305 0.250000 0.677705
O O14 0.838564 0.044796 0.589466
O O15 0.250000 0.750000 0.486653
O O16 0.250000 0.458311 0.523015
O O17 0.580964 0.250000 0.039848
O O18 0.500000 0.000000 0.000000
O O19 0.750000 0.750000 0.375872
#
# Coordination Sequence:
#
# PCOD8245877 Si02
#       8
#     8   8   4   4   8   4   8   4
#     4  11  23  41  65  90 123 164 207 257 316 378
#     4  12  25  41  65  95 128 165 212 261 307 370
#     4  10  23  42  61  83 119 165 207 256 315 372
#     4  11  23  39  63  93 125 162 211 262 311 370
#     4  10  22  43  68  93 127 166 208 255 313 374
#     4   9  21  43  69  95 125 166 207 254 307 366
#     4  11  24  42  63  89 123 163 211 261 316 375
#     4  12  25  42  65  95 131 169 207 256 311 370
#
# _framework density 19.893174999999999
#
# number of rings (size 3 to 8) (size 9 to 14) (size 15 to 20)
#    0.000    1.167    1.667    5.000    2.333    4.667 
#    0.000    0.000    0.000    0.000    0.000    0.000 
#    0.000    0.000    0.000    0.000    0.000    0.000 
#
# Total GULP energy -595543.066503 kJ/mol
# GULP energy per Si atom -12407.147219 kJ/mol
# Density = 1.984790 g / cm^3
# Si number density = 19.893175 Si / 1000 Ang^3
#
#
#
# Elastic Constant Matrix: (Units=GPa)
#
#
# Indices 1 2 3 4 5 6 
#
# 1 142.0858 68.4989 39.7793 0.0000 0.0000 0.0000
# 2 68.4989 170.8243 57.9276 0.0000 0.0000 0.0000
# 3 39.7793 57.9276 101.7741 0.0000 0.0000 0.0000
# 4 0.0000 0.0000 0.0000 38.1681 0.0000 0.0000
# 5 0.0000 0.0000 0.0000 0.0000 40.2856 0.0000
# 6 0.0000 0.0000 0.0000 0.0000 0.0000 25.3858
#
#
#
# Elastic Compliance Matrix: (Units=1/GPa)
#
#
# Indices 1 2 3 4 5 6 
#
# 1 0.008986 -0.002989 -0.001811 0.000000 0.000000 0.000000
# 2 -0.002989 0.008248 -0.003526 0.000000 0.000000 0.000000
# 3 -0.001811 -0.003526 0.012541 0.000000 0.000000 0.000000
# 4 0.000000 0.000000 0.000000 0.026200 0.000000 0.000000
# 5 0.000000 0.000000 0.000000 0.000000 0.024823 0.000000
# 6 0.000000 0.000000 0.000000 0.000000 0.000000 0.039392
#
#
# Mechanical properties :
#
#
# Convention : Reuss Voigt Hill
#
# Bulk Modulus (GPa) = 76.20773 83.01064 79.60918
# Shear Modulus (GPa) = 35.40643 37.33312 36.36978
#
# Velocity S-wave (km/s) = 4.22338 4.33677 4.28045
# Velocity P-wave (km/s) = 7.88506 8.17897 8.03336
#
# Compressibility (1/GPa) = 0.01312203
#
# Stress axis : x y z
#
# Youngs Moduli (GPa) = 111.28303 121.23441 79.74057
#
# Poissons Ratio (x) = 0.36240 0.14440
# Poissons Ratio (y) = 0.33265 0.28120
# Poissons Ratio (z) = 0.20152 0.42753
#
# Static dielectric constant tensor:
#      x y z
#    x 3.744070 0.000000 0.000000 
#    y 0.000000 3.804980 0.000000 
#    z 0.000000 0.000000 3.637220 
# 
# 
# High freq. dielectric constant tensor:
#      x y z
#    x 1.786710 0.000000 0.000000 
#    y 0.000000 1.790390 0.000000 
#    z 0.000000 0.000000 1.781450 
# 
# From -- ./inp_files/27534.got.cif
#   From: 2010.03.12/outbox.cif.g09.slc.cpg/sg59_14_cif.got.tgz:27534.got - 2010.04.16 16:29:54.
