data_PCOD8245086
_publ_section_title
;
Structure prediction by ZEFSAII (Michael W. Deem and Ramdas Pophale) SiO2 
 PCOD8245086
Probable space group: P M M N
;
_chemical_formula_sum "Si O2"
_cell_formula_units_Z 56
_cell_length_a 18.842290
_cell_length_b 9.159120
_cell_length_c 16.402760
_cell_angle_alpha 90.000000
_cell_angle_beta 90.000000
_cell_angle_gamma 90.000000
_cell_volume 2830.768559
_symmetry_space_group_name_H-M "P M M N"
_symmetry_group_IT_number 59
_space_group.IT_coordinate_system_code '2'
_symmetry_cell_setting 'orthorhombic'
loop_
_space_group_symop_operation_xyz
x,y,z
1/2-x,1/2-y,z
1/2+x,-y,-z
-x,1/2+y,-z
-x,-y,-z
1/2+x,1/2+y,-z
1/2-x,y,z
x,1/2-y,z
loop_
_atom_site_type_symbol
_atom_site_label
_atom_site_fract_x
_atom_site_fract_y
_atom_site_fract_z
Si Si1 0.547713 0.076388 0.431462
Si Si2 0.332619 0.420585 0.860994
Si Si3 0.832301 0.579756 0.510307
Si Si4 0.448611 0.418729 0.734765
Si Si5 0.333688 0.090798 0.309985
Si Si6 0.075197 0.921106 0.995928
Si Si7 0.411172 0.585066 0.177922
O O1 0.538883 0.250000 0.436371
O O2 0.500000 0.000000 0.500000
O O3 0.628310 0.025234 0.446967
O O4 0.530162 0.021722 0.340580
O O5 0.250000 0.465555 0.852741
O O6 0.340854 0.250000 0.882496
O O7 0.371987 0.454596 0.775007
O O8 0.369595 0.512074 0.932267
O O9 0.750000 0.548782 0.498150
O O10 0.849677 0.750000 0.493676
O O11 0.859179 0.534815 0.601143
O O12 0.451287 0.250000 0.706349
O O13 0.506596 0.454762 0.804703
O O14 0.250000 0.100526 0.313261
O O15 0.366875 0.250000 0.295673
O O16 0.356486 0.994619 0.235413
O O17 0.063443 0.750000 0.977087
O O18 0.109507 0.945837 0.084813
O O19 0.000000 0.000000 0.000000
O O20 0.398707 0.750000 0.201488
#
# Coordination Sequence:
#
# PCOD8245086 Si02
#       7
#     8   8   8   8   8   8   8
#     4  12  25  39  58  88 122 156 201 252 302 358
#     4  10  22  42  66  92 124 162 203 248 304 368
#     4   9  19  38  61  83 112 152 195 241 298 358
#     4  10  21  40  61  85 118 156 199 247 300 360
#     4   9  19  35  55  82 114 147 189 238 286 345
#     4  11  22  39  62  88 120 157 201 249 299 355
#     4  10  21  36  57  84 115 150 192 238 288 350
#
# _framework density 19.782613000000001
#
# number of rings (size 3 to 8) (size 9 to 14) (size 15 to 20)
#    0.000    1.857    1.429    3.429    0.000    7.143 
#    0.000    5.714    0.000    0.000    0.000    0.000 
#    0.000    0.000    0.000    0.000    0.000    0.000 
#
# Total GULP energy -694245.395049 kJ/mol
# GULP energy per Si atom -12397.239197 kJ/mol
# Density = 1.973759 g / cm^3
# Si number density = 19.782613 Si / 1000 Ang^3
#
#
#
# Elastic Constant Matrix: (Units=GPa)
#
#
# Indices 1 2 3 4 5 6 
#
# 1 49.7512 33.7819 34.0442 0.0000 0.0000 0.0000
# 2 33.7819 98.0135 55.0686 0.0000 0.0000 0.0000
# 3 34.0442 55.0686 97.5202 0.0000 0.0000 0.0000
# 4 0.0000 0.0000 0.0000 38.1292 0.0000 0.0000
# 5 0.0000 0.0000 0.0000 0.0000 34.5270 0.0000
# 6 0.0000 0.0000 0.0000 0.0000 0.0000 32.5724
#
#
#
# Elastic Compliance Matrix: (Units=1/GPa)
#
#
# Indices 1 2 3 4 5 6 
#
# 1 0.028819 -0.006269 -0.006520 0.000000 0.000000 0.000000
# 2 -0.006269 0.016308 -0.007020 0.000000 0.000000 0.000000
# 3 -0.006520 -0.007020 0.016495 0.000000 0.000000 0.000000
# 4 0.000000 0.000000 0.000000 0.026227 0.000000 0.000000
# 5 0.000000 0.000000 0.000000 0.000000 0.028963 0.000000
# 6 0.000000 0.000000 0.000000 0.000000 0.000000 0.030701
#
#
# Mechanical properties :
#
#
# Convention : Reuss Voigt Hill
#
# Bulk Modulus (GPa) = 45.45149 54.56381 50.00765
# Shear Modulus (GPa) = 25.71151 29.20508 27.45829
#
# Velocity S-wave (km/s) = 3.60905 3.84643 3.72963
# Velocity P-wave (km/s) = 6.35550 6.88246 6.62422
#
# Compressibility (1/GPa) = 0.02200148
#
# Stress axis : x y z
#
# Youngs Moduli (GPa) = 34.69948 61.32039 60.62533
#
# Poissons Ratio (x) = 0.38444 0.39530
# Poissons Ratio (y) = 0.21755 0.42560
# Poissons Ratio (z) = 0.22625 0.43048
#
# Static dielectric constant tensor:
#      x y z
#    x 3.640220 0.000000 0.000000 
#    y 0.000000 3.582510 0.000000 
#    z 0.000000 0.000000 3.938200 
# 
# 
# High freq. dielectric constant tensor:
#      x y z
#    x 1.774380 0.000000 0.000000 
#    y 0.000000 1.764160 0.000000 
#    z 0.000000 0.000000 1.777240 
# 
# From -- ./inp_files/24307.got.cif
#   From: 2010.03.12/outbox.cif.g09.slc.cpg/sg59_13_cif.got.tgz:24307.got - 2010.04.16 16:29:54.
