data_PCOD8245602
_publ_section_title
;
Structure prediction by ZEFSAII (Michael W. Deem and Ramdas Pophale) SiO2 
 PCOD8245602
Probable space group: P M M N
;
_chemical_formula_sum "Si O2"
_cell_formula_units_Z 56
_cell_length_a 8.942507
_cell_length_b 14.242411
_cell_length_c 23.982836
_cell_angle_alpha 90.000000
_cell_angle_beta 90.000000
_cell_angle_gamma 90.000000
_cell_volume 3054.522585
_symmetry_space_group_name_H-M "P M M N"
_symmetry_group_IT_number 59
_space_group.IT_coordinate_system_code '2'
_symmetry_cell_setting 'orthorhombic'
loop_
_space_group_symop_operation_xyz
x,y,z
1/2-x,1/2-y,z
1/2+x,-y,-z
-x,1/2+y,-z
-x,-y,-z
1/2+x,1/2+y,-z
1/2-x,y,z
x,1/2-y,z
loop_
_atom_site_type_symbol
_atom_site_label
_atom_site_fract_x
_atom_site_fract_y
_atom_site_fract_z
Si Si1 0.427148 0.642316 0.846688
Si Si2 0.578569 0.554382 0.342579
Si Si3 0.423774 0.357209 0.849536
Si Si4 0.071769 0.250000 0.481711
Si Si5 0.422243 0.503728 0.941190
Si Si6 0.572712 0.750000 0.391397
Si Si7 0.426413 0.502547 0.231265
Si Si8 0.577920 0.062830 0.453996
O O1 0.250000 0.632213 0.839307
O O2 0.479156 0.750000 0.849155
O O3 0.479822 0.591099 0.903665
O O4 0.503144 0.592137 0.794125
O O5 0.750000 0.561079 0.321853
O O6 0.516848 0.657699 0.358834
O O7 0.475502 0.510884 0.295013
O O8 0.564977 0.486800 0.394922
O O9 0.250000 0.366655 0.833248
O O10 0.474722 0.250000 0.855319
O O11 0.455130 0.407164 0.908513
O O12 0.518907 0.404940 0.801014
O O13 0.250000 0.250000 0.478925
O O14 0.011470 0.250000 0.545387
O O15 0.007897 0.339286 0.449352
O O16 0.250000 0.517322 0.953970
O O17 0.500000 0.500000 0.000000
O O18 0.750000 0.750000 0.395462
O O19 0.250000 0.494937 0.227080
O O20 0.750000 0.078399 0.470859
O O21 0.500000 0.000000 0.500000
#
# Coordination Sequence:
#
# PCOD8245602 Si02
#       8
#     8   8   8   4   8   4   8   8
#     4   9  19  39  63  81 104 148 197 232 270 329
#     4  10  21  39  60  82 112 151 191 224 271 343
#     4   9  19  37  58  77 105 150 192 222 263 327
#     4  11  21  39  61  85 117 151 189 234 283 342
#     4   9  18  32  52  82 115 145 182 225 272 324
#     4   9  18  35  59  85 109 145 187 220 265 334
#     4  11  23  37  55  84 116 140 177 234 289 330
#     4  11  22  38  61  87 115 150 191 235 286 343
#
# _framework density 18.333469999999998
#
# number of rings (size 3 to 8) (size 9 to 14) (size 15 to 20)
#    0.000    2.143    1.429    2.786    1.000    4.571 
#    1.286    0.000    0.000    0.000    0.000    0.000 
#    0.000    0.000    0.000    0.000    0.000    0.000 
#
# Total GULP energy -694510.839828 kJ/mol
# GULP energy per Si atom -12401.979283 kJ/mol
# Density = 1.829174 g / cm^3
# Si number density = 18.333470 Si / 1000 Ang^3
#
#
#
# Elastic Constant Matrix: (Units=GPa)
#
#
# Indices 1 2 3 4 5 6 
#
# 1 77.3717 49.8293 45.1677 0.0000 0.0000 0.0000
# 2 49.8293 168.5429 54.0128 0.0000 0.0000 0.0000
# 3 45.1677 54.0128 106.0378 0.0000 0.0000 0.0000
# 4 0.0000 0.0000 0.0000 17.7144 0.0000 0.0000
# 5 0.0000 0.0000 0.0000 0.0000 34.5365 0.0000
# 6 0.0000 0.0000 0.0000 0.0000 0.0000 23.5135
#
#
#
# Elastic Compliance Matrix: (Units=1/GPa)
#
#
# Indices 1 2 3 4 5 6 
#
# 1 0.018857 -0.003586 -0.006205 0.000000 0.000000 0.000000
# 2 -0.003586 0.007773 -0.002432 0.000000 0.000000 0.000000
# 3 -0.006205 -0.002432 0.013312 0.000000 0.000000 0.000000
# 4 0.000000 0.000000 0.000000 0.056451 0.000000 0.000000
# 5 0.000000 0.000000 0.000000 0.000000 0.028955 0.000000
# 6 0.000000 0.000000 0.000000 0.000000 0.000000 0.042529
#
#
# Mechanical properties :
#
#
# Convention : Reuss Voigt Hill
#
# Bulk Modulus (GPa) = 64.53569 72.21911 68.37740
# Shear Modulus (GPa) = 25.31788 28.68240 27.00014
#
# Velocity S-wave (km/s) = 3.72017 3.95965 3.84177
# Velocity P-wave (km/s) = 7.33009 7.77062 7.55357
#
# Compressibility (1/GPa) = 0.01549530
#
# Stress axis : x y z
#
# Youngs Moduli (GPa) = 53.03094 128.65456 75.11753
#
# Poissons Ratio (x) = 0.46140 0.46614
# Poissons Ratio (y) = 0.19019 0.18266
# Poissons Ratio (z) = 0.32908 0.31284
#
# Static dielectric constant tensor:
#      x y z
#    x 3.297080 0.000000 0.000000 
#    y 0.000000 3.569620 0.000000 
#    z 0.000000 0.000000 3.217360 
# 
# 
# High freq. dielectric constant tensor:
#      x y z
#    x 1.700430 0.000000 0.000000 
#    y 0.000000 1.720290 0.000000 
#    z 0.000000 0.000000 1.709530 
# 
# From -- ./inp_files/29185.got.cif
#   From: 2010.03.12/outbox.cif.g09.slc.cpg/sg59_15_cif.got.tgz:29185.got - 2010.04.16 16:29:54.
