data_PCOD8245313
_publ_section_title
;
Structure prediction by ZEFSAII (Michael W. Deem and Ramdas Pophale) SiO2 
 PCOD8245313
Probable space group: P M M N
;
_chemical_formula_sum "Si O2"
_cell_formula_units_Z 40
_cell_length_a 13.312759
_cell_length_b 8.609790
_cell_length_c 15.976564
_cell_angle_alpha 90.000000
_cell_angle_beta 90.000000
_cell_angle_gamma 90.000000
_cell_volume 1831.234713
_symmetry_space_group_name_H-M "P M M N"
_symmetry_group_IT_number 59
_space_group.IT_coordinate_system_code '2'
_symmetry_cell_setting 'orthorhombic'
loop_
_space_group_symop_operation_xyz
x,y,z
1/2-x,1/2-y,z
1/2+x,-y,-z
-x,1/2+y,-z
-x,-y,-z
1/2+x,1/2+y,-z
1/2-x,y,z
x,1/2-y,z
loop_
_atom_site_type_symbol
_atom_site_label
_atom_site_fract_x
_atom_site_fract_y
_atom_site_fract_z
Si Si1 0.250000 0.929448 0.639900
Si Si2 0.135110 0.567225 0.285050
Si Si3 0.969122 0.065052 0.411203
Si Si4 0.618940 0.420634 0.059509
Si Si5 0.750000 0.926216 0.186377
Si Si6 0.891440 0.577242 0.896099
O O1 0.250000 0.750000 0.617241
O O2 0.355518 0.000629 0.605213
O O3 0.250000 0.954069 0.738176
O O4 0.250000 0.525672 0.313486
O O5 0.117807 0.750000 0.290288
O O6 0.118780 0.512945 0.190428
O O7 0.051200 0.487651 0.342935
O O8 0.968298 0.250000 0.411109
O O9 0.000000 0.000000 0.500000
O O10 0.666277 0.250000 0.073387
O O11 0.652478 0.540731 0.130841
O O12 0.501720 0.407676 0.068221
O O13 0.661620 0.480804 0.970057
O O14 0.750000 0.750000 0.219393
O O15 0.845086 0.750000 0.885132
#
# Coordination Sequence:
#
# PCOD8245313 Si02
#       6
#     4   8   8   8   4   8
#     4  10  24  46  70  97 134 175 212 266 336 397
#     4  11  25  43  65  95 136 181 223 272 333 395
#     4  11  25  46  73 103 135 171 216 270 333 404
#     4  10  21  37  58  84 123 170 216 269 331 387
#     4  12  24  36  58  91 124 161 214 268 314 377
#     4  10  21  38  60  88 122 166 220 275 326 385
#
# _framework density 21.843184000000001
#
# number of rings (size 3 to 8) (size 9 to 14) (size 15 to 20)
#    0.000    1.400    0.000    4.500    2.800   10.400 
#    0.000    0.000    0.000    0.000    0.000    0.000 
#    0.000    0.000    0.000    0.000    0.000    0.000 
#
# Total GULP energy -495607.483567 kJ/mol
# GULP energy per Si atom -12390.187089 kJ/mol
# Density = 2.179347 g / cm^3
# Si number density = 21.843184 Si / 1000 Ang^3
#
#
#
# Elastic Constant Matrix: (Units=GPa)
#
#
# Indices 1 2 3 4 5 6 
#
# 1 164.7970 41.3660 69.4176 0.0000 0.0000 0.0000
# 2 41.3660 89.3157 21.8748 0.0000 0.0000 0.0000
# 3 69.4176 21.8748 145.6047 0.0000 0.0000 0.0000
# 4 0.0000 0.0000 0.0000 42.3340 0.0000 0.0000
# 5 0.0000 0.0000 0.0000 0.0000 36.5079 0.0000
# 6 0.0000 0.0000 0.0000 0.0000 0.0000 24.6656
#
#
#
# Elastic Compliance Matrix: (Units=1/GPa)
#
#
# Indices 1 2 3 4 5 6 
#
# 1 0.008293 -0.002982 -0.003506 0.000000 0.000000 0.000000
# 2 -0.002982 0.012696 -0.000486 0.000000 0.000000 0.000000
# 3 -0.003506 -0.000486 0.008612 0.000000 0.000000 0.000000
# 4 0.000000 0.000000 0.000000 0.023622 0.000000 0.000000
# 5 0.000000 0.000000 0.000000 0.000000 0.027391 0.000000
# 6 0.000000 0.000000 0.000000 0.000000 0.000000 0.040542
#
#
# Mechanical properties :
#
#
# Convention : Reuss Voigt Hill
#
# Bulk Modulus (GPa) = 63.87942 73.89268 68.88605
# Shear Modulus (GPa) = 35.63198 38.50544 37.06871
#
# Velocity S-wave (km/s) = 4.04327 4.20314 4.12398
# Velocity P-wave (km/s) = 7.14881 7.58006 7.36759
#
# Compressibility (1/GPa) = 0.01565450
#
# Stress axis : x y z
#
# Youngs Moduli (GPa) = 120.57666 78.76214 116.11300
#
# Poissons Ratio (x) = 0.23490 0.40708
# Poissons Ratio (y) = 0.35961 0.05638
# Poissons Ratio (z) = 0.42273 0.03824
#
# Static dielectric constant tensor:
#      x y z
#    x 4.125220 0.000000 0.000000 
#    y 0.000000 4.460060 0.000000 
#    z 0.000000 0.000000 3.877290 
# 
# 
# High freq. dielectric constant tensor:
#      x y z
#    x 1.888550 0.000000 0.000000 
#    y 0.000000 1.862830 0.000000 
#    z 0.000000 0.000000 1.855960 
# 
# From -- ./inp_files/22981.got.cif
#   From: 2010.03.12/outbox.cif.g09.slc.cpg/sg59_12_cif.got.tgz:22981.got - 2010.04.16 16:29:54.
