data_PCOD8245676
_publ_section_title
;
Structure prediction by ZEFSAII (Michael W. Deem and Ramdas Pophale) SiO2 
 PCOD8245676
Probable space group: P M M N
;
_chemical_formula_sum "Si O2"
_cell_formula_units_Z 56
_cell_length_a 13.902143
_cell_length_b 15.285382
_cell_length_c 12.330813
_cell_angle_alpha 90.000000
_cell_angle_beta 90.000000
_cell_angle_gamma 90.000000
_cell_volume 2620.292416
_symmetry_space_group_name_H-M "P M M N"
_symmetry_group_IT_number 59
_space_group.IT_coordinate_system_code '2'
_symmetry_cell_setting 'orthorhombic'
loop_
_space_group_symop_operation_xyz
x,y,z
1/2-x,1/2-y,z
1/2+x,-y,-z
-x,1/2+y,-z
-x,-y,-z
1/2+x,1/2+y,-z
1/2-x,y,z
x,1/2-y,z
loop_
_atom_site_type_symbol
_atom_site_label
_atom_site_fract_x
_atom_site_fract_y
_atom_site_fract_z
Si Si1 0.860031 0.479327 0.217543
Si Si2 0.141950 0.843906 0.067889
Si Si3 0.853797 0.346600 0.676863
Si Si4 0.644141 0.851124 0.604949
Si Si5 0.361629 0.467389 0.012832
Si Si6 0.529677 0.645277 0.813635
Si Si7 0.960765 0.567338 0.415980
O O1 0.750000 0.448431 0.228738
O O2 0.889629 0.528442 0.326760
O O3 0.921458 0.391499 0.194844
O O4 0.871247 0.547952 0.116809
O O5 0.250000 0.846843 0.020928
O O6 0.094304 0.750000 0.027209
O O7 0.143169 0.841280 0.195516
O O8 0.091155 0.934832 0.031789
O O9 0.750000 0.387556 0.640611
O O10 0.861751 0.250000 0.626138
O O11 0.943281 0.400921 0.639709
O O12 0.750000 0.895363 0.604861
O O13 0.654708 0.750000 0.629225
O O14 0.582877 0.890663 0.705069
O O15 0.595921 0.861143 0.486722
O O16 0.250000 0.465286 0.050165
O O17 0.417239 0.393558 0.080340
O O18 0.527646 0.750000 0.821661
O O19 0.000000 0.500000 0.500000
#
# Coordination Sequence:
#
# PCOD8245676 Si02
#       7
#     8   8   8   8   8   8   8
#     4  11  25  44  62  93 133 171 218 273 336 396
#     4   8  15  30  56  91 126 161 204 251 306 375
#     4   9  19  36  60  91 122 153 200 263 324 383
#     4  10  22  41  64  90 121 162 217 274 325 388
#     4  10  21  39  66  96 134 172 211 266 327 389
#     4  11  23  42  66  96 131 174 224 268 321 392
#     4  12  23  40  62  87 124 167 217 266 323 396
#
# _framework density 21.371661
#
# number of rings (size 3 to 8) (size 9 to 14) (size 15 to 20)
#    0.000    1.857    1.429    3.429    0.000    2.857 
#    0.000    4.286    0.000    1.714    0.000    0.000 
#    0.000    0.000    0.000    0.000    0.000    0.000 
#
# Total GULP energy -693859.059790 kJ/mol
# GULP energy per Si atom -12390.340353 kJ/mol
# Density = 2.132302 g / cm^3
# Si number density = 21.371661 Si / 1000 Ang^3
#
#
#
# Elastic Constant Matrix: (Units=GPa)
#
#
# Indices 1 2 3 4 5 6 
#
# 1 137.0615 35.1502 49.7645 0.0000 0.0000 0.0000
# 2 35.1502 83.8794 45.5922 0.0000 0.0000 0.0000
# 3 49.7645 45.5922 108.4105 0.0000 0.0000 0.0000
# 4 0.0000 0.0000 0.0000 20.0251 0.0000 0.0000
# 5 0.0000 0.0000 0.0000 0.0000 32.6408 0.0000
# 6 0.0000 0.0000 0.0000 0.0000 0.0000 25.2439
#
#
#
# Elastic Compliance Matrix: (Units=1/GPa)
#
#
# Indices 1 2 3 4 5 6 
#
# 1 0.009002 -0.001978 -0.003300 0.000000 0.000000 0.000000
# 2 -0.001978 0.015889 -0.005774 0.000000 0.000000 0.000000
# 3 -0.003300 -0.005774 0.013167 0.000000 0.000000 0.000000
# 4 0.000000 0.000000 0.000000 0.049937 0.000000 0.000000
# 5 0.000000 0.000000 0.000000 0.000000 0.030637 0.000000
# 6 0.000000 0.000000 0.000000 0.000000 0.000000 0.039614
#
#
# Mechanical properties :
#
#
# Convention : Reuss Voigt Hill
#
# Bulk Modulus (GPa) = 62.68356 65.59612 64.13984
# Shear Modulus (GPa) = 26.92968 28.83826 27.88397
#
# Velocity S-wave (km/s) = 3.55359 3.67736 3.61601
# Velocity P-wave (km/s) = 6.79936 6.98501 6.89281
#
# Compressibility (1/GPa) = 0.01595315
#
# Stress axis : x y z
#
# Youngs Moduli (GPa) = 111.09194 62.93476 75.94546
#
# Poissons Ratio (x) = 0.12451 0.25062
# Poissons Ratio (y) = 0.21979 0.43852
# Poissons Ratio (z) = 0.36660 0.36339
#
# Static dielectric constant tensor:
#      x y z
#    x 4.555590 0.000000 0.000000 
#    y 0.000000 3.777100 0.000000 
#    z 0.000000 0.000000 4.694130 
# 
# 
# High freq. dielectric constant tensor:
#      x y z
#    x 1.846000 0.000000 0.000000 
#    y 0.000000 1.826710 0.000000 
#    z 0.000000 0.000000 1.843700 
# 
# From -- ./inp_files/16979.got.cif
#   From: 2010.03.12/outbox.cif.g09.slc.cpg/sg59_9_cif.got.tgz:16979.got - 2010.04.16 16:29:54.
