data_PCOD8245344
_publ_section_title
;
Structure prediction by ZEFSAII (Michael W. Deem and Ramdas Pophale) SiO2 
 PCOD8245344
Probable space group: P M M N
;
_chemical_formula_sum "Si O2"
_cell_formula_units_Z 48
_cell_length_a 15.030361
_cell_length_b 8.932090
_cell_length_c 18.913770
_cell_angle_alpha 90.000000
_cell_angle_beta 90.000000
_cell_angle_gamma 90.000000
_cell_volume 2539.221610
_symmetry_space_group_name_H-M "P M M N"
_symmetry_group_IT_number 59
_space_group.IT_coordinate_system_code '2'
_symmetry_cell_setting 'orthorhombic'
loop_
_space_group_symop_operation_xyz
x,y,z
1/2-x,1/2-y,z
1/2+x,-y,-z
-x,1/2+y,-z
-x,-y,-z
1/2+x,1/2+y,-z
1/2-x,y,z
x,1/2-y,z
loop_
_atom_site_type_symbol
_atom_site_label
_atom_site_fract_x
_atom_site_fract_y
_atom_site_fract_z
Si Si1 0.853789 0.923998 0.687407
Si Si2 0.108202 0.091872 0.688866
Si Si3 0.250000 0.931037 0.916859
Si Si4 0.060860 0.429973 0.939976
Si Si5 0.957018 0.086242 0.800345
Si Si6 0.750000 0.081181 0.238673
Si Si7 0.978731 0.422166 0.573152
O O1 0.750000 0.955881 0.677330
O O2 0.877389 0.750000 0.685182
O O3 0.880362 0.981319 0.766929
O O4 0.903077 0.999699 0.620801
O O5 0.162005 0.250000 0.693766
O O6 0.021882 0.107627 0.735591
O O7 0.075239 0.064542 0.609878
O O8 0.165170 0.953375 0.714324
O O9 0.250000 0.750000 0.924650
O O10 0.250000 0.999172 0.837099
O O11 0.340642 0.998302 0.950104
O O12 0.068050 0.250000 0.945599
O O13 0.012676 0.480407 0.866703
O O14 0.000000 0.500000 0.000000
O O15 0.917358 0.250000 0.821513
O O16 0.750000 0.250000 0.217199
O O17 0.950045 0.250000 0.561804
O O18 0.000000 0.500000 0.500000
#
# Coordination Sequence:
#
# PCOD8245344 Si02
#       7
#     8   8   4   8   8   4   8
#     4  10  21  37  59  86 115 151 195 242 291 348
#     4   9  18  34  55  79 108 144 184 224 279 339
#     4  11  23  39  61  91 121 156 201 248 301 367
#     4  11  23  41  63  89 122 162 202 250 307 364
#     4   9  19  36  59  84 111 148 191 235 288 344
#     4  11  21  31  53  87 115 140 183 236 279 327
#     4  10  21  38  59  83 112 151 191 235 291 346
#
# _framework density 18.903431000000001
#
# number of rings (size 3 to 8) (size 9 to 14) (size 15 to 20)
#    0.000    2.000    1.667    3.000    0.000    6.667 
#    3.000    0.000    0.000    0.000    0.000    0.000 
#    0.000    0.000    0.000    0.000    0.000    0.000 
#
# Total GULP energy -594630.867175 kJ/mol
# GULP energy per Si atom -12388.143066 kJ/mol
# Density = 1.886041 g / cm^3
# Si number density = 18.903431 Si / 1000 Ang^3
#
#
#
# Elastic Constant Matrix: (Units=GPa)
#
#
# Indices 1 2 3 4 5 6 
#
# 1 110.4633 59.3693 49.2601 0.0000 0.0000 0.0000
# 2 59.3693 114.1250 45.1029 0.0000 0.0000 0.0000
# 3 49.2601 45.1029 108.9071 0.0000 0.0000 0.0000
# 4 0.0000 0.0000 0.0000 29.5858 0.0000 0.0000
# 5 0.0000 0.0000 0.0000 0.0000 24.0944 0.0000
# 6 0.0000 0.0000 0.0000 0.0000 0.0000 34.3731
#
#
#
# Elastic Compliance Matrix: (Units=1/GPa)
#
#
# Indices 1 2 3 4 5 6 
#
# 1 0.013837 -0.005649 -0.003919 0.000000 0.000000 0.000000
# 2 -0.005649 0.012784 -0.002739 0.000000 0.000000 0.000000
# 3 -0.003919 -0.002739 0.012089 0.000000 0.000000 0.000000
# 4 0.000000 0.000000 0.000000 0.033800 0.000000 0.000000
# 5 0.000000 0.000000 0.000000 0.000000 0.041503 0.000000
# 6 0.000000 0.000000 0.000000 0.000000 0.000000 0.029093
#
#
# Mechanical properties :
#
#
# Convention : Reuss Voigt Hill
#
# Bulk Modulus (GPa) = 70.94711 71.21777 71.08244
# Shear Modulus (GPa) = 28.99935 29.59487 29.29711
#
# Velocity S-wave (km/s) = 3.92098 3.96104 3.94106
# Velocity P-wave (km/s) = 7.62310 7.66003 7.64159
#
# Compressibility (1/GPa) = 0.01409501
#
# Stress axis : x y z
#
# Youngs Moduli (GPa) = 72.27225 78.22540 82.71964
#
# Poissons Ratio (x) = 0.44191 0.32417
# Poissons Ratio (y) = 0.40828 0.22657
# Poissons Ratio (z) = 0.28323 0.21426
#
# Static dielectric constant tensor:
#      x y z
#    x 3.327750 0.000000 0.000000 
#    y 0.000000 3.933790 0.000000 
#    z 0.000000 0.000000 3.549980 
# 
# 
# High freq. dielectric constant tensor:
#      x y z
#    x 1.726890 0.000000 0.000000 
#    y 0.000000 1.743190 0.000000 
#    z 0.000000 0.000000 1.731840 
# 
# From -- ./inp_files/25554.got.cif
#   From: 2010.03.12/outbox.cif.g09.slc.cpg/sg59_13_cif.got.tgz:25554.got - 2010.04.16 16:29:54.
