data_PCOD8245035
_publ_section_title
;
Structure prediction by ZEFSAII (Michael W. Deem and Ramdas Pophale) SiO2 
 PCOD8245035
Probable space group: P M M N
;
_chemical_formula_sum "Si O2"
_cell_formula_units_Z 64
_cell_length_a 27.594572
_cell_length_b 9.181116
_cell_length_c 12.934718
_cell_angle_alpha 90.000000
_cell_angle_beta 90.000000
_cell_angle_gamma 90.000000
_cell_volume 3276.997437
_symmetry_space_group_name_H-M "P M M N"
_symmetry_group_IT_number 59
_space_group.IT_coordinate_system_code '2'
_symmetry_cell_setting 'orthorhombic'
loop_
_space_group_symop_operation_xyz
x,y,z
1/2-x,1/2-y,z
1/2+x,-y,-z
-x,1/2+y,-z
-x,-y,-z
1/2+x,1/2+y,-z
1/2-x,y,z
x,1/2-y,z
loop_
_atom_site_type_symbol
_atom_site_label
_atom_site_fract_x
_atom_site_fract_y
_atom_site_fract_z
Si Si1 0.306319 0.418472 0.114446
Si Si2 0.864192 0.920976 0.684863
Si Si3 0.943974 0.078081 0.788820
Si Si4 0.642885 0.078106 0.294786
Si Si5 0.443527 0.416311 0.782651
Si Si6 0.806037 0.080462 0.085376
Si Si7 0.550229 0.580524 0.988006
Si Si8 0.193762 0.419154 0.519687
O O1 0.250000 0.454245 0.127372
O O2 0.316571 0.250000 0.094751
O O3 0.331105 0.471270 0.219476
O O4 0.328252 0.500138 0.014676
O O5 0.876037 0.750000 0.687693
O O6 0.836159 0.964466 0.581428
O O7 0.914058 0.013515 0.691772
O O8 0.936439 0.250000 0.800528
O O9 0.000259 0.037930 0.772530
O O10 0.922566 0.997574 0.892172
O O11 0.640867 0.250000 0.307541
O O12 0.667701 0.027283 0.188688
O O13 0.588150 0.015534 0.294303
O O14 0.674426 0.014426 0.386787
O O15 0.437286 0.250000 0.747372
O O16 0.423803 0.436967 0.900630
O O17 0.750000 0.039171 0.098670
O O18 0.814034 0.250000 0.067309
O O19 0.542201 0.750000 0.961469
O O20 0.500000 0.500000 0.000000
O O21 0.250000 0.454632 0.499769
O O22 0.186324 0.250000 0.546130
#
# Coordination Sequence:
#
# PCOD8245035 Si02
#       8
#     8   8   8   8   8   8   8   8
#     4   9  18  33  54  81 112 145 182 226 279 342
#     4  10  21  37  59  86 114 147 191 241 291 342
#     4  10  21  36  55  82 117 156 197 240 287 343
#     4  11  23  37  58  86 115 149 192 242 293 344
#     4   9  20  37  55  79 114 154 196 239 282 338
#     4   9  19  35  52  76 113 149 179 221 281 343
#     4   9  17  31  52  79 113 153 194 237 283 334
#     4  10  22  42  66  88 113 149 193 240 291 351
#
# _framework density 19.530073999999999
#
# number of rings (size 3 to 8) (size 9 to 14) (size 15 to 20)
#    0.000    2.375    0.000    2.625    1.750    7.250 
#    0.000    1.875    0.000    2.250    0.000    0.000 
#    0.000    0.000    0.000    0.000    0.000    0.000 
#
# Total GULP energy -793554.790318 kJ/mol
# GULP energy per Si atom -12399.293599 kJ/mol
# Density = 1.948562 g / cm^3
# Si number density = 19.530074 Si / 1000 Ang^3
#
#
#
# Elastic Constant Matrix: (Units=GPa)
#
#
# Indices 1 2 3 4 5 6 
#
# 1 71.8546 39.2375 41.4687 0.0000 0.0000 0.0000
# 2 39.2375 74.3912 45.4831 0.0000 0.0000 0.0000
# 3 41.4687 45.4831 92.6493 0.0000 0.0000 0.0000
# 4 0.0000 0.0000 0.0000 14.6712 0.0000 0.0000
# 5 0.0000 0.0000 0.0000 0.0000 35.2588 0.0000
# 6 0.0000 0.0000 0.0000 0.0000 0.0000 26.5172
#
#
#
# Elastic Compliance Matrix: (Units=1/GPa)
#
#
# Indices 1 2 3 4 5 6 
#
# 1 0.021530 -0.007807 -0.005804 0.000000 0.000000 0.000000
# 2 -0.007807 0.022039 -0.007325 0.000000 0.000000 0.000000
# 3 -0.005804 -0.007325 0.016987 0.000000 0.000000 0.000000
# 4 0.000000 0.000000 0.000000 0.068161 0.000000 0.000000
# 5 0.000000 0.000000 0.000000 0.000000 0.028362 0.000000
# 6 0.000000 0.000000 0.000000 0.000000 0.000000 0.037711
#
#
# Mechanical properties :
#
#
# Convention : Reuss Voigt Hill
#
# Bulk Modulus (GPa) = 53.52223 54.58598 54.05410
# Shear Modulus (GPa) = 20.58554 22.80316 21.69435
#
# Velocity S-wave (km/s) = 3.25012 3.42071 3.33651
# Velocity P-wave (km/s) = 6.44585 6.60394 6.52537
#
# Compressibility (1/GPa) = 0.01868382
#
# Stress axis : x y z
#
# Youngs Moduli (GPa) = 46.44719 45.37440 58.86900
#
# Poissons Ratio (x) = 0.35426 0.34166
# Poissons Ratio (y) = 0.36264 0.43120
# Poissons Ratio (z) = 0.26956 0.33235
#
# Static dielectric constant tensor:
#      x y z
#    x 3.512900 0.000000 0.000000 
#    y 0.000000 3.486150 0.000000 
#    z 0.000000 0.000000 3.559540 
# 
# 
# High freq. dielectric constant tensor:
#      x y z
#    x 1.765700 0.000000 0.000000 
#    y 0.000000 1.757230 0.000000 
#    z 0.000000 0.000000 1.749170 
# 
# From -- ./inp_files/19385.got.cif
#   From: 2010.03.12/outbox.cif.g09.slc.cpg/sg59_10_cif.got.tgz:19385.got - 2010.04.16 16:29:54.
