data_PCOD8245648
_publ_section_title
;
Structure prediction by ZEFSAII (Michael W. Deem and Ramdas Pophale) SiO2 
 PCOD8245648
Probable space group: P M M N
;
_chemical_formula_sum "Si O2"
_cell_formula_units_Z 40
_cell_length_a 14.125678
_cell_length_b 14.794444
_cell_length_c 8.979253
_cell_angle_alpha 90.000000
_cell_angle_beta 90.000000
_cell_angle_gamma 90.000000
_cell_volume 1876.498229
_symmetry_space_group_name_H-M "P M M N"
_symmetry_group_IT_number 59
_space_group.IT_coordinate_system_code '2'
_symmetry_cell_setting 'orthorhombic'
loop_
_space_group_symop_operation_xyz
x,y,z
1/2-x,1/2-y,z
1/2+x,-y,-z
-x,1/2+y,-z
-x,-y,-z
1/2+x,1/2+y,-z
1/2-x,y,z
x,1/2-y,z
loop_
_atom_site_type_symbol
_atom_site_label
_atom_site_fract_x
_atom_site_fract_y
_atom_site_fract_z
Si Si1 0.362937 0.351468 0.864465
Si Si2 0.015347 0.050683 0.346160
Si Si3 0.141296 0.645898 0.838226
Si Si4 0.147071 0.145512 0.542937
Si Si5 0.640397 0.005784 0.912200
O O1 0.250000 0.350864 0.859481
O O2 0.401440 0.250000 0.899537
O O3 0.397626 0.390269 0.701761
O O4 0.397988 0.420738 0.990444
O O5 0.084422 0.132111 0.396314
O O6 0.071983 0.988053 0.229625
O O7 0.919367 0.093861 0.285312
O O8 0.000000 0.000000 0.500000
O O9 0.250000 0.637530 0.786271
O O10 0.109918 0.750000 0.853168
O O11 0.127534 0.599045 0.998473
O O12 0.250000 0.100349 0.514955
O O13 0.161113 0.250000 0.573836
O O14 0.750000 0.992108 0.865962
#
# Coordination Sequence:
#
# PCOD8245648 Si02
#       5
#     8   8   8   8   8
#     4   8  15  30  55  87 121 154 186 227 287 355
#     4  12  24  37  57  89 123 153 191 244 308 364
#     4  10  23  44  65  84 115 165 218 258 292 345
#     4   9  18  34  56  84 119 153 183 225 288 356
#     4  10  21  39  63  89 115 149 198 253 306 359
#
# _framework density 21.316299999999998
#
# number of rings (size 3 to 8) (size 9 to 14) (size 15 to 20)
#    0.000    2.200    0.000    4.200    0.000    4.800 
#    0.000    6.000    0.000    2.400    0.000    0.000 
#    0.000    0.000    0.000    0.000    0.000    0.000 
#
# Total GULP energy -495837.121897 kJ/mol
# GULP energy per Si atom -12395.928047 kJ/mol
# Density = 2.126778 g / cm^3
# Si number density = 21.316300 Si / 1000 Ang^3
#
#
#
# Elastic Constant Matrix: (Units=GPa)
#
#
# Indices 1 2 3 4 5 6 
#
# 1 97.1488 39.0565 69.1820 0.0000 0.0000 0.0000
# 2 39.0565 103.5847 53.2460 0.0000 0.0000 0.0000
# 3 69.1820 53.2460 139.1469 0.0000 0.0000 0.0000
# 4 0.0000 0.0000 0.0000 28.1820 0.0000 0.0000
# 5 0.0000 0.0000 0.0000 0.0000 45.1433 0.0000
# 6 0.0000 0.0000 0.0000 0.0000 0.0000 14.6843
#
#
#
# Elastic Compliance Matrix: (Units=1/GPa)
#
#
# Indices 1 2 3 4 5 6 
#
# 1 0.016434 -0.002485 -0.007220 0.000000 0.000000 0.000000
# 2 -0.002485 0.012394 -0.003507 0.000000 0.000000 0.000000
# 3 -0.007220 -0.003507 0.012118 0.000000 0.000000 0.000000
# 4 0.000000 0.000000 0.000000 0.035484 0.000000 0.000000
# 5 0.000000 0.000000 0.000000 0.000000 0.022152 0.000000
# 6 0.000000 0.000000 0.000000 0.000000 0.000000 0.068100
#
#
# Mechanical properties :
#
#
# Convention : Reuss Voigt Hill
#
# Bulk Modulus (GPa) = 68.86113 73.64995 71.25554
# Shear Modulus (GPa) = 25.25945 29.49497 27.37721
#
# Velocity S-wave (km/s) = 3.44609 3.72382 3.58765
# Velocity P-wave (km/s) = 6.94324 7.28801 7.11772
#
# Compressibility (1/GPa) = 0.01452198
#
# Stress axis : x y z
#
# Youngs Moduli (GPa) = 60.84954 80.68636 82.52060
#
# Poissons Ratio (x) = 0.20052 0.59578
# Poissons Ratio (y) = 0.15122 0.28940
# Poissons Ratio (z) = 0.43932 0.28296
#
# Static dielectric constant tensor:
#      x y z
#    x 4.081770 0.000000 0.000000 
#    y 0.000000 3.972050 0.000000 
#    z 0.000000 0.000000 4.109200 
# 
# 
# High freq. dielectric constant tensor:
#      x y z
#    x 1.837700 0.000000 0.000000 
#    y 0.000000 1.832540 0.000000 
#    z 0.000000 0.000000 1.833150 
# 
# From -- ./inp_files/8616.got.cif
#   From: 2010.03.12/outbox.cif.g09.slc.cpg/sg59_5_cif.got.tgz:8616.got - 2010.04.16 16:29:54.
