data_PCOD8245711
_publ_section_title
;
Structure prediction by ZEFSAII (Michael W. Deem and Ramdas Pophale) SiO2 
 PCOD8245711
Probable space group: P M M N
;
_chemical_formula_sum "Si O2"
_cell_formula_units_Z 56
_cell_length_a 9.476003
_cell_length_b 20.948872
_cell_length_c 14.761841
_cell_angle_alpha 90.000000
_cell_angle_beta 90.000000
_cell_angle_gamma 90.000000
_cell_volume 2930.396291
_symmetry_space_group_name_H-M "P M M N"
_symmetry_group_IT_number 59
_space_group.IT_coordinate_system_code '2'
_symmetry_cell_setting 'orthorhombic'
loop_
_space_group_symop_operation_xyz
x,y,z
1/2-x,1/2-y,z
1/2+x,-y,-z
-x,1/2+y,-z
-x,-y,-z
1/2+x,1/2+y,-z
1/2-x,y,z
x,1/2-y,z
loop_
_atom_site_type_symbol
_atom_site_label
_atom_site_fract_x
_atom_site_fract_y
_atom_site_fract_z
Si Si1 0.090733 0.864666 0.103433
Si Si2 0.913549 0.181394 0.282767
Si Si3 0.915572 0.428991 0.410804
Si Si4 0.087653 0.880577 0.898241
Si Si5 0.588941 0.506325 0.909840
Si Si6 0.912105 0.821516 0.263754
Si Si7 0.414986 0.073656 0.592530
O O1 0.250000 0.838452 0.110342
O O2 0.993234 0.823184 0.168335
O O3 0.083824 0.937883 0.139349
O O4 0.038725 0.858496 0.998627
O O5 0.750000 0.182870 0.307107
O O6 0.981931 0.250000 0.310710
O O7 0.977326 0.121430 0.337527
O O8 0.932160 0.175537 0.174195
O O9 0.750000 0.420184 0.429869
O O10 0.944509 0.500958 0.374419
O O11 0.998021 0.413691 0.502187
O O12 0.250000 0.904455 0.904014
O O13 0.991317 0.937618 0.856289
O O14 0.750000 0.526470 0.929867
O O15 0.500000 0.500000 0.000000
O O16 0.750000 0.836093 0.241872
O O17 0.931408 0.750000 0.304627
O O18 0.969373 0.874945 0.333531
O O19 0.250000 0.084304 0.571925
#
# Coordination Sequence:
#
# PCOD8245711 Si02
#       7
#     8   8   8   8   8   8   8
#     4   9  19  33  49  75 106 139 178 219 262 307
#     4   9  18  32  52  80 110 140 178 218 256 310
#     4   9  18  34  57  82 104 132 172 215 263 316
#     4   9  18  32  52  76 106 143 181 218 263 311
#     4   9  17  30  48  73 102 132 173 221 267 309
#     4  10  22  37  53  76 105 141 182 219 262 315
#     4   9  19  36  56  78 104 134 170 216 268 320
#
# _framework density 19.110042
#
# number of rings (size 3 to 8) (size 9 to 14) (size 15 to 20)
#    0.000    2.857    0.000    1.286    2.000    4.857 
#    0.000    2.143    0.000    1.286    0.000    0.000 
#    0.000    0.000    0.000    0.000    0.000    0.000 
#
# Total GULP energy -693888.270308 kJ/mol
# GULP energy per Si atom -12390.861970 kJ/mol
# Density = 1.906655 g / cm^3
# Si number density = 19.110042 Si / 1000 Ang^3
#
#
#
# Elastic Constant Matrix: (Units=GPa)
#
#
# Indices 1 2 3 4 5 6 
#
# 1 52.2570 32.6968 29.2275 0.0000 0.0000 0.0000
# 2 32.6968 131.5472 71.5898 0.0000 0.0000 0.0000
# 3 29.2275 71.5898 108.9860 0.0000 0.0000 0.0000
# 4 0.0000 0.0000 0.0000 22.8331 0.0000 0.0000
# 5 0.0000 0.0000 0.0000 0.0000 25.4858 0.0000
# 6 0.0000 0.0000 0.0000 0.0000 0.0000 17.3870
#
#
#
# Elastic Compliance Matrix: (Units=1/GPa)
#
#
# Indices 1 2 3 4 5 6 
#
# 1 0.023661 -0.003779 -0.003863 0.000000 0.000000 0.000000
# 2 -0.003779 0.012435 -0.007155 0.000000 0.000000 0.000000
# 3 -0.003863 -0.007155 0.014911 0.000000 0.000000 0.000000
# 4 0.000000 0.000000 0.000000 0.043796 0.000000 0.000000
# 5 0.000000 0.000000 0.000000 0.000000 0.039237 0.000000
# 6 0.000000 0.000000 0.000000 0.000000 0.000000 0.057514
#
#
# Mechanical properties :
#
#
# Convention : Reuss Voigt Hill
#
# Bulk Modulus (GPa) = 46.69855 62.20204 54.45029
# Shear Modulus (GPa) = 21.90231 23.75957 22.83094
#
# Velocity S-wave (km/s) = 3.38911 3.52988 3.46021
# Velocity P-wave (km/s) = 6.30907 7.01665 6.67225
#
# Compressibility (1/GPa) = 0.02141394
#
# Stress axis : x y z
#
# Youngs Moduli (GPa) = 42.26319 80.42001 67.06358
#
# Poissons Ratio (x) = 0.30388 0.25908
# Poissons Ratio (y) = 0.15970 0.47982
# Poissons Ratio (z) = 0.16327 0.57538
#
# Static dielectric constant tensor:
#      x y z
#    x 3.617230 0.000000 0.000000 
#    y 0.000000 4.311590 0.000000 
#    z 0.000000 0.000000 3.299420 
# 
# 
# High freq. dielectric constant tensor:
#      x y z
#    x 1.721620 0.000000 0.000000 
#    y 0.000000 1.749040 0.000000 
#    z 0.000000 0.000000 1.723990 
# 
# From -- ./inp_files/20976.got.cif
#   From: 2010.03.12/outbox.cif.g09.slc.cpg/sg59_11_cif.got.tgz:20976.got - 2010.04.16 16:29:54.
