data_PCOD8245829
_publ_section_title
;
Structure prediction by ZEFSAII (Michael W. Deem and Ramdas Pophale) SiO2 
 PCOD8245829
Probable space group: P M M N
;
_chemical_formula_sum "Si O2"
_cell_formula_units_Z 48
_cell_length_a 17.979395
_cell_length_b 15.176257
_cell_length_c 8.863765
_cell_angle_alpha 90.000000
_cell_angle_beta 90.000000
_cell_angle_gamma 90.000000
_cell_volume 2418.566202
_symmetry_space_group_name_H-M "P M M N"
_symmetry_group_IT_number 59
_space_group.IT_coordinate_system_code '2'
_symmetry_cell_setting 'orthorhombic'
loop_
_space_group_symop_operation_xyz
x,y,z
1/2-x,1/2-y,z
1/2+x,-y,-z
-x,1/2+y,-z
-x,-y,-z
1/2+x,1/2+y,-z
1/2-x,y,z
x,1/2-y,z
loop_
_atom_site_type_symbol
_atom_site_label
_atom_site_fract_x
_atom_site_fract_y
_atom_site_fract_z
Si Si1 0.464058 0.419174 0.592029
Si Si2 0.927337 0.492200 0.104621
Si Si3 0.335443 0.646602 0.719400
Si Si4 0.114011 0.847954 0.389742
Si Si5 0.665453 0.000806 0.826502
Si Si6 0.334516 0.350147 0.398349
O O1 0.500000 0.500000 0.500000
O O2 0.442578 0.440388 0.762737
O O3 0.525260 0.342112 0.585282
O O4 0.387218 0.383636 0.529170
O O5 0.899866 0.399602 0.179773
O O6 0.859194 0.516771 0.996981
O O7 0.000000 0.500000 0.000000
O O8 0.250000 0.621393 0.765174
O O9 0.349135 0.750000 0.739777
O O10 0.345681 0.619742 0.543232
O O11 0.142663 0.750000 0.344395
O O12 0.124806 0.918014 0.255834
O O13 0.750000 0.028780 0.824431
O O14 0.649105 0.908278 0.747676
O O15 0.250000 0.361828 0.455638
O O16 0.351664 0.250000 0.353090
#
# Coordination Sequence:
#
# PCOD8245829 Si02
#       6
#     8   8   8   8   8   8
#     4  12  21  41  65  90 120 161 212 263 309 364
#     4  12  23  40  61  87 129 169 208 249 315 380
#     4  10  22  40  63  92 124 163 214 267 315 371
#     4  11  22  39  66  96 126 164 209 259 314 374
#     4  11  23  40  63  93 128 165 203 251 311 380
#     4  10  22  42  67  92 121 163 212 260 310 367
#
# _framework density 19.84647
#
# number of rings (size 3 to 8) (size 9 to 14) (size 15 to 20)
#    0.000    1.000    5.000    1.500    0.000    4.333 
#    0.000    1.667    0.000    2.000    0.000    0.000 
#    0.000    0.000    0.000    0.000    0.000    0.000 
#
# Total GULP energy -594815.997494 kJ/mol
# GULP energy per Si atom -12391.999948 kJ/mol
# Density = 1.980130 g / cm^3
# Si number density = 19.846470 Si / 1000 Ang^3
#
#
#
# Elastic Constant Matrix: (Units=GPa)
#
#
# Indices 1 2 3 4 5 6 
#
# 1 72.5153 48.1332 43.0494 0.0000 0.0000 0.0000
# 2 48.1332 104.6116 48.8536 0.0000 0.0000 0.0000
# 3 43.0494 48.8536 118.7819 0.0000 0.0000 0.0000
# 4 0.0000 0.0000 0.0000 19.0161 0.0000 0.0000
# 5 0.0000 0.0000 0.0000 0.0000 43.6459 0.0000
# 6 0.0000 0.0000 0.0000 0.0000 0.0000 33.9227
#
#
#
# Elastic Compliance Matrix: (Units=1/GPa)
#
#
# Indices 1 2 3 4 5 6 
#
# 1 0.021759 -0.007833 -0.004664 0.000000 0.000000 0.000000
# 2 -0.007833 0.014652 -0.003187 0.000000 0.000000 0.000000
# 3 -0.004664 -0.003187 0.011420 0.000000 0.000000 0.000000
# 4 0.000000 0.000000 0.000000 0.052587 0.000000 0.000000
# 5 0.000000 0.000000 0.000000 0.000000 0.022912 0.000000
# 6 0.000000 0.000000 0.000000 0.000000 0.000000 0.029479
#
#
# Mechanical properties :
#
#
# Convention : Reuss Voigt Hill
#
# Bulk Modulus (GPa) = 60.74844 63.99789 62.37316
# Shear Modulus (GPa) = 26.36246 29.70846 28.03546
#
# Velocity S-wave (km/s) = 3.64857 3.87319 3.76256
# Velocity P-wave (km/s) = 6.95881 7.23316 7.09731
#
# Compressibility (1/GPa) = 0.01646133
#
# Stress axis : x y z
#
# Youngs Moduli (GPa) = 45.95900 68.25130 87.56579
#
# Poissons Ratio (x) = 0.53463 0.40841
# Poissons Ratio (y) = 0.36001 0.27908
# Poissons Ratio (z) = 0.21436 0.21753
#
# Static dielectric constant tensor:
#      x y z
#    x 4.056730 0.000000 0.000000 
#    y 0.000000 3.229300 0.000000 
#    z 0.000000 0.000000 4.197170 
# 
# 
# High freq. dielectric constant tensor:
#      x y z
#    x 1.794040 0.000000 0.000000 
#    y 0.000000 1.765630 0.000000 
#    z 0.000000 0.000000 1.769800 
# 
# From -- ./inp_files/9007.got.cif
#   From: 2010.03.12/outbox.cif.g09.slc.cpg/sg59_5_cif.got.tgz:9007.got - 2010.04.16 16:29:54.
