data_PCOD8245320
_publ_section_title
;
Structure prediction by ZEFSAII (Michael W. Deem and Ramdas Pophale) SiO2 
 PCOD8245320
Probable space group: P M M N
;
_chemical_formula_sum "Si O2"
_cell_formula_units_Z 64
_cell_length_a 8.814650
_cell_length_b 14.876514
_cell_length_c 23.506015
_cell_angle_alpha 90.000000
_cell_angle_beta 90.000000
_cell_angle_gamma 90.000000
_cell_volume 3082.373462
_symmetry_space_group_name_H-M "P M M N"
_symmetry_group_IT_number 59
_space_group.IT_coordinate_system_code '2'
_symmetry_cell_setting 'orthorhombic'
loop_
_space_group_symop_operation_xyz
x,y,z
1/2-x,1/2-y,z
1/2+x,-y,-z
-x,1/2+y,-z
-x,-y,-z
1/2+x,1/2+y,-z
1/2-x,y,z
x,1/2-y,z
loop_
_atom_site_type_symbol
_atom_site_label
_atom_site_fract_x
_atom_site_fract_y
_atom_site_fract_z
Si Si1 0.571353 0.482018 0.252385
Si Si2 0.423003 0.855690 0.306649
Si Si3 0.427113 0.352755 0.925805
Si Si4 0.574024 0.145845 0.046201
Si Si5 0.929218 0.148159 0.353607
Si Si6 0.070772 0.486399 0.134802
Si Si7 0.074121 0.084668 0.470032
Si Si8 0.911999 0.650716 0.413900
O O1 0.750000 0.474621 0.242722
O O2 0.528219 0.585611 0.265347
O O3 0.514714 0.415205 0.302289
O O4 0.486107 0.450728 0.195597
O O5 0.250000 0.880836 0.294718
O O6 0.451945 0.750000 0.295596
O O7 0.460282 0.888863 0.371738
O O8 0.250000 0.371089 0.936297
O O9 0.455779 0.250000 0.906610
O O10 0.490883 0.417839 0.877130
O O11 0.517764 0.375417 0.983008
O O12 0.750000 0.118482 0.050921
O O13 0.548787 0.250000 0.061383
O O14 0.474815 0.087606 0.088834
O O15 0.750000 0.146508 0.357694
O O16 0.988168 0.250000 0.343270
O O17 0.991492 0.111418 0.412846
O O18 0.250000 0.499777 0.134858
O O19 0.250000 0.069182 0.456024
O O20 0.046233 0.158294 0.519481
O O21 0.000000 0.000000 0.500000
O O22 0.750000 0.597577 0.406564
O O23 0.886859 0.750000 0.390794
#
# Coordination Sequence:
#
# PCOD8245320 Si02
#       8
#     8   8   8   8   8   8   8   8
#     4  11  24  42  62  84 113 154 204 251 299 358
#     4  10  21  37  58  85 116 150 190 241 302 363
#     4  10  21  39  64  94 128 164 202 245 296 357
#     4  10  21  39  64  93 126 163 202 246 297 353
#     4  10  23  43  64  86 116 156 201 251 307 363
#     4  12  25  40  61  89 123 161 203 253 304 356
#     4  11  22  35  55  84 116 149 187 235 292 353
#     4   9  18  33  52  75 104 138 176 219 272 338
#
# _framework density 20.76322
#
# number of rings (size 3 to 8) (size 9 to 14) (size 15 to 20)
#    0.000    1.625    0.000    4.500    0.000    9.000 
#    0.000    2.500    0.000    0.000    0.000    0.000 
#    0.000    0.000    0.000    0.000    0.000    0.000 
#
# Total GULP energy -793369.434657 kJ/mol
# GULP energy per Si atom -12396.397417 kJ/mol
# Density = 2.071596 g / cm^3
# Si number density = 20.763220 Si / 1000 Ang^3
#
#
#
# Elastic Constant Matrix: (Units=GPa)
#
#
# Indices 1 2 3 4 5 6 
#
# 1 67.9126 34.9794 23.9771 0.0000 0.0000 0.0000
# 2 34.9794 96.8635 40.6676 0.0000 0.0000 0.0000
# 3 23.9771 40.6676 92.0140 0.0000 0.0000 0.0000
# 4 0.0000 0.0000 0.0000 24.3143 0.0000 0.0000
# 5 0.0000 0.0000 0.0000 0.0000 39.0357 0.0000
# 6 0.0000 0.0000 0.0000 0.0000 0.0000 28.2354
#
#
#
# Elastic Compliance Matrix: (Units=1/GPa)
#
#
# Indices 1 2 3 4 5 6 
#
# 1 0.018474 -0.005710 -0.002290 0.000000 0.000000 0.000000
# 2 -0.005710 0.014441 -0.004894 0.000000 0.000000 0.000000
# 3 -0.002290 -0.004894 0.013628 0.000000 0.000000 0.000000
# 4 0.000000 0.000000 0.000000 0.041128 0.000000 0.000000
# 5 0.000000 0.000000 0.000000 0.000000 0.025618 0.000000
# 6 0.000000 0.000000 0.000000 0.000000 0.000000 0.035417
#
#
# Mechanical properties :
#
#
# Convention : Reuss Voigt Hill
#
# Bulk Modulus (GPa) = 48.18480 50.67092 49.42786
# Shear Modulus (GPa) = 27.56147 28.79482 28.17814
#
# Velocity S-wave (km/s) = 3.64733 3.72804 3.68790
# Velocity P-wave (km/s) = 6.40270 6.55654 6.48007
#
# Compressibility (1/GPa) = 0.02075343
#
# Stress axis : x y z
#
# Youngs Moduli (GPa) = 54.12894 69.24882 73.37837
#
# Poissons Ratio (x) = 0.39540 0.16807
# Poissons Ratio (y) = 0.30907 0.35915
# Poissons Ratio (z) = 0.12398 0.33894
#
# Static dielectric constant tensor:
#      x y z
#    x 3.911870 0.000000 0.000000 
#    y 0.000000 3.813580 0.000000 
#    z 0.000000 0.000000 4.459380 
# 
# 
# High freq. dielectric constant tensor:
#      x y z
#    x 1.818460 0.000000 0.000000 
#    y 0.000000 1.815590 0.000000 
#    z 0.000000 0.000000 1.812940 
# 
# From -- ./inp_files/31510.got.cif
#   From: 2010.03.12/outbox.cif.g09.slc.cpg/sg59_16_cif.got.tgz:31510.got - 2010.04.16 16:29:54.
