data_PCOD8245967
_publ_section_title
;
Structure prediction by ZEFSAII (Michael W. Deem and Ramdas Pophale) SiO2 
 PCOD8245967
Probable space group: P M M N
;
_chemical_formula_sum "Si O2"
_cell_formula_units_Z 48
_cell_length_a 8.794298
_cell_length_b 26.044394
_cell_length_c 11.738183
_cell_angle_alpha 90.000000
_cell_angle_beta 90.000000
_cell_angle_gamma 90.000000
_cell_volume 2688.538813
_symmetry_space_group_name_H-M "P M M N"
_symmetry_group_IT_number 59
_space_group.IT_coordinate_system_code '2'
_symmetry_cell_setting 'orthorhombic'
loop_
_space_group_symop_operation_xyz
x,y,z
1/2-x,1/2-y,z
1/2+x,-y,-z
-x,1/2+y,-z
-x,-y,-z
1/2+x,1/2+y,-z
1/2-x,y,z
x,1/2-y,z
loop_
_atom_site_type_symbol
_atom_site_label
_atom_site_fract_x
_atom_site_fract_y
_atom_site_fract_z
Si Si1 0.927727 0.611473 0.835434
Si Si2 0.929751 0.308667 0.324654
Si Si3 0.920427 0.040470 0.336295
Si Si4 0.923603 0.118636 0.525672
Si Si5 0.429280 0.945527 0.034699
Si Si6 0.576758 0.927107 0.272413
O O1 0.750000 0.616827 0.857695
O O2 0.990572 0.664339 0.782634
O O3 0.958620 0.563910 0.751257
O O4 0.010521 0.600027 0.954372
O O5 0.750000 0.314296 0.308991
O O6 0.983350 0.250000 0.328888
O O7 0.980807 0.335711 0.442722
O O8 0.750000 0.054757 0.292352
O O9 0.944344 0.064357 0.460912
O O10 0.941560 0.979828 0.342347
O O11 0.750000 0.127901 0.561493
O O12 0.022047 0.117628 0.641434
O O13 0.250000 0.950901 0.023273
O O14 0.472322 0.929046 0.161774
O O15 0.500000 0.000000 0.000000
O O16 0.750000 0.916738 0.235656
#
# Coordination Sequence:
#
# PCOD8245967 Si02
#       6
#     8   8   8   8   8   8
#     4  11  21  33  53  81 110 141 179 225 272 316
#     4   9  19  38  62  83 106 139 178 223 274 325
#     4   9  18  32  49  70 104 145 182 217 255 311
#     4   9  18  32  50  76 106 138 177 220 266 317
#     4  12  23  36  53  75 107 147 187 224 264 319
#     4  11  21  32  49  74 107 147 183 217 261 315
#
# _framework density 17.853563999999999
#
# number of rings (size 3 to 8) (size 9 to 14) (size 15 to 20)
#    0.000    1.833    1.667    5.000    0.000    3.667 
#    0.000    0.000    0.000    1.000    0.000    2.333 
#    0.000    0.000    0.000    0.000    0.000    0.000 
#
# Total GULP energy -595211.224152 kJ/mol
# GULP energy per Si atom -12400.233836 kJ/mol
# Density = 1.781293 g / cm^3
# Si number density = 17.853564 Si / 1000 Ang^3
#
#
#
# Elastic Constant Matrix: (Units=GPa)
#
#
# Indices 1 2 3 4 5 6 
#
# 1 109.2726 41.5410 53.7720 0.0000 0.0000 0.0000
# 2 41.5410 94.9806 53.0245 0.0000 0.0000 0.0000
# 3 53.7720 53.0245 111.0625 0.0000 0.0000 0.0000
# 4 0.0000 0.0000 0.0000 16.8351 0.0000 0.0000
# 5 0.0000 0.0000 0.0000 0.0000 31.5914 0.0000
# 6 0.0000 0.0000 0.0000 0.0000 0.0000 21.3149
#
#
#
# Elastic Compliance Matrix: (Units=1/GPa)
#
#
# Indices 1 2 3 4 5 6 
#
# 1 0.012559 -0.002861 -0.004715 0.000000 0.000000 0.000000
# 2 -0.002861 0.015006 -0.005779 0.000000 0.000000 0.000000
# 3 -0.004715 -0.005779 0.014046 0.000000 0.000000 0.000000
# 4 0.000000 0.000000 0.000000 0.059400 0.000000 0.000000
# 5 0.000000 0.000000 0.000000 0.000000 0.031654 0.000000
# 6 0.000000 0.000000 0.000000 0.000000 0.000000 0.046916
#
#
# Mechanical properties :
#
#
# Convention : Reuss Voigt Hill
#
# Bulk Modulus (GPa) = 67.10812 67.99897 67.55354
# Shear Modulus (GPa) = 23.66782 25.08014 24.37398
#
# Velocity S-wave (km/s) = 3.64492 3.75209 3.69889
# Velocity P-wave (km/s) = 7.44201 7.54590 7.49414
#
# Compressibility (1/GPa) = 0.01490133
#
# Stress axis : x y z
#
# Youngs Moduli (GPa) = 79.62369 66.63988 71.19550
#
# Poissons Ratio (x) = 0.19064 0.33567
# Poissons Ratio (y) = 0.22779 0.41146
# Poissons Ratio (z) = 0.37541 0.38513
#
# Static dielectric constant tensor:
#      x y z
#    x 3.298820 0.000000 0.000000 
#    y 0.000000 3.143530 0.000000 
#    z 0.000000 0.000000 3.270510 
# 
# 
# High freq. dielectric constant tensor:
#      x y z
#    x 1.695630 0.000000 0.000000 
#    y 0.000000 1.656810 0.000000 
#    z 0.000000 0.000000 1.689560 
# 
# From -- ./inp_files/14527.got.cif
#   From: 2010.03.12/outbox.cif.g09.slc.cpg/sg59_8_cif.got.tgz:14527.got - 2010.04.16 16:29:54.
