data_PCOD8245412
_publ_section_title
;
Structure prediction by ZEFSAII (Michael W. Deem and Ramdas Pophale) SiO2 
 PCOD8245412
Probable space group: P M M N
;
_chemical_formula_sum "Si O2"
_cell_formula_units_Z 40
_cell_length_a 9.148212
_cell_length_b 26.192683
_cell_length_c 9.160650
_cell_angle_alpha 90.000000
_cell_angle_beta 90.000000
_cell_angle_gamma 90.000000
_cell_volume 2195.040298
_symmetry_space_group_name_H-M "P M M N"
_symmetry_group_IT_number 59
_space_group.IT_coordinate_system_code '2'
_symmetry_cell_setting 'orthorhombic'
loop_
_space_group_symop_operation_xyz
x,y,z
1/2-x,1/2-y,z
1/2+x,-y,-z
-x,1/2+y,-z
-x,-y,-z
1/2+x,1/2+y,-z
1/2-x,y,z
x,1/2-y,z
loop_
_atom_site_type_symbol
_atom_site_label
_atom_site_fract_x
_atom_site_fract_y
_atom_site_fract_z
Si Si1 0.419289 0.653196 0.807642
Si Si2 0.083070 0.443713 0.166479
Si Si3 0.083638 0.552552 0.128371
Si Si4 0.575781 0.250000 0.374137
Si Si5 0.422881 0.250000 0.683664
Si Si6 0.915869 0.163706 0.851006
O O1 0.250000 0.646090 0.779483
O O2 0.492993 0.600480 0.751173
O O3 0.479192 0.700490 0.714278
O O4 0.453621 0.663308 0.977256
O O5 0.250000 0.426748 0.175740
O O6 0.059779 0.501827 0.229842
O O7 0.035415 0.447393 0.998592
O O8 0.250000 0.550914 0.062805
O O9 0.066408 0.606181 0.215103
O O10 0.750000 0.250000 0.393026
O O11 0.499667 0.250000 0.528764
O O12 0.250000 0.250000 0.664444
O O13 0.470323 0.300187 0.771072
O O14 0.750000 0.183700 0.826837
#
# Coordination Sequence:
#
# PCOD8245412 Si02
#       6
#     8   8   8   4   4   8
#     4   9  18  33  54  77  98 126 167 206 239 287
#     4   9  15  24  43  73 105 130 153 193 247 289
#     4   8  15  27  44  69 100 132 164 195 231 284
#     4  10  21  38  56  70  92 132 173 204 242 296
#     4  12  25  36  48  72 102 128 161 208 256 294
#     4   9  17  33  55  75  98 130 166 200 235 286
#
# _framework density 18.222899999999999
#
# number of rings (size 3 to 8) (size 9 to 14) (size 15 to 20)
#    0.000    2.800    0.000    3.300    0.000    6.400 
#    0.000    1.000    0.000    1.200    0.000    0.000 
#    0.000    0.000    0.000    0.000    0.000    0.000 
#
# Total GULP energy -495579.442259 kJ/mol
# GULP energy per Si atom -12389.486056 kJ/mol
# Density = 1.818142 g / cm^3
# Si number density = 18.222900 Si / 1000 Ang^3
#
#
#
# Elastic Constant Matrix: (Units=GPa)
#
#
# Indices 1 2 3 4 5 6 
#
# 1 47.3738 45.3966 18.3969 0.0000 0.0000 0.0000
# 2 45.3966 173.1420 38.8303 0.0000 0.0000 0.0000
# 3 18.3969 38.8303 40.8302 0.0000 0.0000 0.0000
# 4 0.0000 0.0000 0.0000 -1.0722 0.0000 0.0000
# 5 0.0000 0.0000 0.0000 0.0000 16.9290 0.0000
# 6 0.0000 0.0000 0.0000 0.0000 0.0000 34.2097
#
#
#
# Elastic Compliance Matrix: (Units=1/GPa)
#
#
# Indices 1 2 3 4 5 6 
#
# 1 0.029967 -0.006138 -0.007665 0.000000 0.000000 0.000000
# 2 -0.006138 0.008599 -0.005412 0.000000 0.000000 0.000000
# 3 -0.007665 -0.005412 0.033092 0.000000 0.000000 0.000000
# 4 0.000000 0.000000 0.000000 -0.932674 0.000000 0.000000
# 5 0.000000 0.000000 0.000000 0.000000 0.059070 0.000000
# 6 0.000000 0.000000 0.000000 0.000000 0.000000 0.029231
#
#
# Mechanical properties :
#
#
# Convention : Reuss Voigt Hill
#
# Bulk Modulus (GPa) = 30.09491 51.84371 40.96931
# Shear Modulus (GPa) = -6.91364 20.59478 6.84057
#
# Velocity S-wave (km/s) = -1.94991 3.36543 1.93958
# Velocity P-wave (km/s) = 3.38839 6.60402 5.24853
#
# Compressibility (1/GPa) = 0.03322821
#
# Stress axis : x y z
#
# Youngs Moduli (GPa) = 33.36976 116.29660 30.21878
#
# Poissons Ratio (x) = 0.71385 0.23162
# Poissons Ratio (y) = 0.20483 0.16354
# Poissons Ratio (z) = 0.25577 0.62938
#
# Static dielectric constant tensor:
#      x y z
#    x 3.317360 0.000000 0.000000 
#    y 0.000000 4.098170 0.000000 
#    z 0.000000 0.000000 2.826700 
# 
# 
# High freq. dielectric constant tensor:
#      x y z
#    x 1.702410 0.000000 0.000000 
#    y 0.000000 1.740750 0.000000 
#    z 0.000000 0.000000 1.635310 
# 
# From -- ./inp_files/5956.got.cif
#   From: 2010.03.12/outbox.cif.g09.slc.cpg/sg59_3_cif.got.tgz:5956.got - 2010.04.16 16:29:54.
