data_PCOD8245969
_publ_section_title
;
Structure prediction by ZEFSAII (Michael W. Deem and Ramdas Pophale) SiO2 
 PCOD8245969
Probable space group: P M M N
;
_chemical_formula_sum "Si O2"
_cell_formula_units_Z 56
_cell_length_a 19.867754
_cell_length_b 8.676767
_cell_length_c 16.096917
_cell_angle_alpha 90.000000
_cell_angle_beta 90.000000
_cell_angle_gamma 90.000000
_cell_volume 2774.913272
_symmetry_space_group_name_H-M "P M M N"
_symmetry_group_IT_number 59
_space_group.IT_coordinate_system_code '2'
_symmetry_cell_setting 'orthorhombic'
loop_
_space_group_symop_operation_xyz
x,y,z
1/2-x,1/2-y,z
1/2+x,-y,-z
-x,1/2+y,-z
-x,-y,-z
1/2+x,1/2+y,-z
1/2-x,y,z
x,1/2-y,z
loop_
_atom_site_type_symbol
_atom_site_label
_atom_site_fract_x
_atom_site_fract_y
_atom_site_fract_z
Si Si1 0.324672 0.066737 0.160742
Si Si2 0.043413 0.567765 0.425986
Si Si3 0.456782 0.431971 0.249571
Si Si4 0.175231 0.433171 0.974503
Si Si5 0.822834 0.432568 0.493744
Si Si6 0.828176 0.426375 0.307480
Si Si7 0.417963 0.430600 0.828620
O O1 0.250000 0.008231 0.188899
O O2 0.325195 0.250000 0.160164
O O3 0.382995 0.004746 0.222144
O O4 0.340708 0.007339 0.067522
O O5 0.035500 0.750000 0.426172
O O6 0.020884 0.502848 0.337441
O O7 0.120523 0.513841 0.441519
O O8 0.000000 0.500000 0.500000
O O9 0.456228 0.250000 0.257694
O O10 0.511063 0.482300 0.180734
O O11 0.250000 0.490964 0.948202
O O12 0.174079 0.250000 0.971672
O O13 0.119203 0.497323 0.910849
O O14 0.750000 0.500210 0.521777
O O15 0.818074 0.250000 0.489816
O O16 0.840803 0.488064 0.400841
O O17 0.750000 0.438649 0.284137
O O18 0.853439 0.250000 0.297011
O O19 0.870336 0.538702 0.249603
O O20 0.432218 0.250000 0.835593
#
# Coordination Sequence:
#
# PCOD8245969 Si02
#       7
#     8   8   8   8   8   8   8
#     4   8  16  34  58  80 104 139 183 227 272 325
#     4  11  22  37  58  81 108 142 179 220 267 323
#     4  11  23  37  54  78 108 142 180 224 274 324
#     4   8  15  30  53  80 108 139 177 222 270 317
#     4   8  16  32  53  75  98 129 169 211 259 315
#     4   9  17  31  52  77 107 142 177 215 264 323
#     4  11  21  32  50  78 111 144 182 225 268 320
#
# _framework density 20.180812
#
# number of rings (size 3 to 8) (size 9 to 14) (size 15 to 20)
#    0.000    2.571    0.000    4.286    0.000    3.143 
#    0.000    0.714    0.000    6.857    0.000    8.000 
#    0.000    0.000    0.000    0.000    0.000    0.000 
#
# Total GULP energy -694184.095244 kJ/mol
# GULP energy per Si atom -12396.144558 kJ/mol
# Density = 2.013488 g / cm^3
# Si number density = 20.180812 Si / 1000 Ang^3
#
#
#
# Elastic Constant Matrix: (Units=GPa)
#
#
# Indices 1 2 3 4 5 6 
#
# 1 125.9395 30.5077 62.4280 0.0000 0.0000 0.0000
# 2 30.5077 46.7800 23.1223 0.0000 0.0000 0.0000
# 3 62.4280 23.1223 95.8027 0.0000 0.0000 0.0000
# 4 0.0000 0.0000 0.0000 18.1711 0.0000 0.0000
# 5 0.0000 0.0000 0.0000 0.0000 39.1995 0.0000
# 6 0.0000 0.0000 0.0000 0.0000 0.0000 22.5693
#
#
#
# Elastic Compliance Matrix: (Units=1/GPa)
#
#
# Indices 1 2 3 4 5 6 
#
# 1 0.012583 -0.004716 -0.007061 0.000000 0.000000 0.000000
# 2 -0.004716 0.026040 -0.003212 0.000000 0.000000 0.000000
# 3 -0.007061 -0.003212 0.015815 0.000000 0.000000 0.000000
# 4 0.000000 0.000000 0.000000 0.055032 0.000000 0.000000
# 5 0.000000 0.000000 0.000000 0.000000 0.025511 0.000000
# 6 0.000000 0.000000 0.000000 0.000000 0.000000 0.044308
#
#
# Mechanical properties :
#
#
# Convention : Reuss Voigt Hill
#
# Bulk Modulus (GPa) = 40.88390 55.62644 48.25517
# Shear Modulus (GPa) = 22.99710 26.15228 24.57469
#
# Velocity S-wave (km/s) = 3.37939 3.60376 3.49338
# Velocity P-wave (km/s) = 5.96069 6.70373 6.34310
#
# Compressibility (1/GPa) = 0.02445951
#
# Stress axis : x y z
#
# Youngs Moduli (GPa) = 79.47282 38.40307 63.23264
#
# Poissons Ratio (x) = 0.18110 0.44650
# Poissons Ratio (y) = 0.37478 0.20309
# Poissons Ratio (z) = 0.56118 0.12334
#
# Static dielectric constant tensor:
#      x y z
#    x 4.076790 0.000000 0.000000 
#    y 0.000000 3.185330 0.000000 
#    z 0.000000 0.000000 5.512680 
# 
# 
# High freq. dielectric constant tensor:
#      x y z
#    x 1.802900 0.000000 0.000000 
#    y 0.000000 1.744830 0.000000 
#    z 0.000000 0.000000 1.783470 
# 
# From -- ./inp_files/24266.got.cif
#   From: 2010.03.12/outbox.cif.g09.slc.cpg/sg59_13_cif.got.tgz:24266.got - 2010.04.16 16:29:54.
