data_PCOD8245494
_publ_section_title
;
Structure prediction by ZEFSAII (Michael W. Deem and Ramdas Pophale) SiO2 
 PCOD8245494
Probable space group: P M M N
;
_chemical_formula_sum "Si O2"
_cell_formula_units_Z 48
_cell_length_a 28.198016
_cell_length_b 8.945736
_cell_length_c 10.015572
_cell_angle_alpha 90.000000
_cell_angle_beta 90.000000
_cell_angle_gamma 90.000000
_cell_volume 2526.448137
_symmetry_space_group_name_H-M "P M M N"
_symmetry_group_IT_number 59
_space_group.IT_coordinate_system_code '2'
_symmetry_cell_setting 'orthorhombic'
loop_
_space_group_symop_operation_xyz
x,y,z
1/2-x,1/2-y,z
1/2+x,-y,-z
-x,1/2+y,-z
-x,-y,-z
1/2+x,1/2+y,-z
1/2-x,y,z
x,1/2-y,z
loop_
_atom_site_type_symbol
_atom_site_label
_atom_site_fract_x
_atom_site_fract_y
_atom_site_fract_z
Si Si1 0.878933 0.072508 0.718842
Si Si2 0.305477 0.078846 0.768487
Si Si3 0.016899 0.928103 0.364249
Si Si4 0.027894 0.578135 0.882239
Si Si5 0.133263 0.920666 0.982317
Si Si6 0.695989 0.426824 0.502730
O O1 0.879462 0.250000 0.722986
O O2 0.929800 0.015962 0.666811
O O3 0.837448 0.012661 0.621569
O O4 0.869905 0.011586 0.868130
O O5 0.250000 0.055793 0.787734
O O6 0.319799 0.250000 0.750129
O O7 0.329147 0.016400 0.901330
O O8 0.323043 0.992759 0.636427
O O9 0.013821 0.750000 0.371732
O O10 0.000000 0.000000 0.500000
O O11 0.981520 0.988058 0.252199
O O12 0.011363 0.750000 0.869565
O O13 0.083267 0.568089 0.909663
O O14 0.000000 0.500000 0.000000
O O15 0.151028 0.750000 0.987196
O O16 0.750000 0.478734 0.532197
O O17 0.692574 0.250000 0.491089
#
# Coordination Sequence:
#
# PCOD8245494 Si02
#       6
#     8   8   8   8   8   8
#     4   9  19  37  58  83 114 146 186 237 284 331
#     4  10  22  39  57  83 118 150 185 233 286 341
#     4  11  23  40  58  84 120 156 196 243 289 345
#     4  11  22  39  61  86 117 156 196 240 291 345
#     4  10  21  38  60  85 113 150 192 235 284 340
#     4   9  18  35  60  85 109 144 188 232 282 340
#
# _framework density 18.999002999999998
#
# number of rings (size 3 to 8) (size 9 to 14) (size 15 to 20)
#    0.000    2.000    1.667    1.500    2.333    3.000 
#    0.000    3.333    0.000    2.000    0.000    0.000 
#    0.000    0.000    0.000    0.000    0.000    0.000 
#
# Total GULP energy -595327.015177 kJ/mol
# GULP energy per Si atom -12402.646150 kJ/mol
# Density = 1.895576 g / cm^3
# Si number density = 18.999003 Si / 1000 Ang^3
#
#
#
# Elastic Constant Matrix: (Units=GPa)
#
#
# Indices 1 2 3 4 5 6 
#
# 1 78.0977 37.7743 72.7473 0.0000 0.0000 0.0000
# 2 37.7743 69.1083 48.3102 0.0000 0.0000 0.0000
# 3 72.7473 48.3102 186.8873 0.0000 0.0000 0.0000
# 4 0.0000 0.0000 0.0000 30.9320 0.0000 0.0000
# 5 0.0000 0.0000 0.0000 0.0000 42.3068 0.0000
# 6 0.0000 0.0000 0.0000 0.0000 0.0000 28.2357
#
#
#
# Elastic Compliance Matrix: (Units=1/GPa)
#
#
# Indices 1 2 3 4 5 6 
#
# 1 0.023028 -0.007715 -0.006970 0.000000 0.000000 0.000000
# 2 -0.007715 0.020246 -0.002231 0.000000 0.000000 0.000000
# 3 -0.006970 -0.002231 0.008640 0.000000 0.000000 0.000000
# 4 0.000000 0.000000 0.000000 0.032329 0.000000 0.000000
# 5 0.000000 0.000000 0.000000 0.000000 0.023637 0.000000
# 6 0.000000 0.000000 0.000000 0.000000 0.000000 0.035416
#
#
# Mechanical properties :
#
#
# Convention : Reuss Voigt Hill
#
# Bulk Modulus (GPa) = 55.29560 72.41742 63.85651
# Shear Modulus (GPa) = 27.29927 31.97901 29.63914
#
# Velocity S-wave (km/s) = 3.79473 4.10713 3.95401
# Velocity P-wave (km/s) = 6.95468 7.79041 7.38438
#
# Compressibility (1/GPa) = 0.01808462
#
# Stress axis : x y z
#
# Youngs Moduli (GPa) = 43.42516 49.39179 115.73592
#
# Poissons Ratio (x) = 0.38106 0.80663
# Poissons Ratio (y) = 0.33502 0.25815
# Poissons Ratio (z) = 0.30265 0.11017
#
# Static dielectric constant tensor:
#      x y z
#    x 3.441960 0.000000 0.000000 
#    y 0.000000 3.416570 0.000000 
#    z 0.000000 0.000000 3.608740 
# 
# 
# High freq. dielectric constant tensor:
#      x y z
#    x 1.741330 0.000000 0.000000 
#    y 0.000000 1.725250 0.000000 
#    z 0.000000 0.000000 1.752850 
# 
# From -- ./inp_files/6285.got.cif
#   From: 2010.03.12/outbox.cif.g09.slc.cpg/sg59_4_cif.got.tgz:6285.got - 2010.04.16 16:29:54.
