data_PCOD8245454
_publ_section_title
;
Structure prediction by ZEFSAII (Michael W. Deem and Ramdas Pophale) SiO2 
 PCOD8245454
Probable space group: P M M N
;
_chemical_formula_sum "Si O2"
_cell_formula_units_Z 56
_cell_length_a 20.273890
_cell_length_b 12.552946
_cell_length_c 11.766896
_cell_angle_alpha 90.000000
_cell_angle_beta 90.000000
_cell_angle_gamma 90.000000
_cell_volume 2994.640277
_symmetry_space_group_name_H-M "P M M N"
_symmetry_group_IT_number 59
_space_group.IT_coordinate_system_code '2'
_symmetry_cell_setting 'orthorhombic'
loop_
_space_group_symop_operation_xyz
x,y,z
1/2-x,1/2-y,z
1/2+x,-y,-z
-x,1/2+y,-z
-x,-y,-z
1/2+x,1/2+y,-z
1/2-x,y,z
x,1/2-y,z
loop_
_atom_site_type_symbol
_atom_site_label
_atom_site_fract_x
_atom_site_fract_y
_atom_site_fract_z
Si Si1 0.592220 0.481917 0.934490
Si Si2 0.439899 0.521924 0.645454
Si Si3 0.824837 0.125954 0.743572
Si Si4 0.324012 0.368590 0.653651
Si Si5 0.977157 0.374297 0.131254
Si Si6 0.444689 0.872287 0.411551
Si Si7 0.177345 0.368047 0.921492
O O1 0.647792 0.433727 0.854099
O O2 0.543005 0.554521 0.860983
O O3 0.555812 0.389621 0.006986
O O4 0.623169 0.555186 0.030228
O O5 0.375779 0.454414 0.608065
O O6 0.431119 0.585647 0.763932
O O7 0.502540 0.443661 0.655701
O O8 0.449447 0.607667 0.545803
O O9 0.750000 0.086934 0.717416
O O10 0.825097 0.250000 0.772838
O O11 0.871351 0.101223 0.635418
O O12 0.250000 0.403122 0.617430
O O13 0.339297 0.250000 0.604729
O O14 0.330707 0.364507 0.787787
O O15 0.993579 0.250000 0.147140
O O16 0.462679 0.750000 0.386699
O O17 0.250000 0.409298 0.955190
O O18 0.166227 0.250000 0.971687
#
# Coordination Sequence:
#
# PCOD8245454 Si02
#       7
#     8   8   8   8   8   8   8
#     4  11  20  36  54  80 112 154 181 223 277 333
#     4  11  20  38  59  81 111 148 180 237 294 327
#     4  10  21  38  59  83 113 150 191 230 269 329
#     4   9  18  33  55  83 111 141 181 227 276 332
#     4  11  23  35  53  84 115 143 185 233 281 336
#     4  10  22  38  59  83 106 144 196 234 274 335
#     4   9  17  30  51  78 107 141 181 219 261 322
#
# _framework density 18.700075999999999
#
# number of rings (size 3 to 8) (size 9 to 14) (size 15 to 20)
#    0.000    1.857    2.857    3.000    0.000    0.571 
#    0.000    0.000    0.000    2.143    0.000    0.000 
#    0.000    0.000    0.000    0.000    0.000    0.000 
#
# Total GULP energy -694286.503047 kJ/mol
# GULP energy per Si atom -12397.973269 kJ/mol
# Density = 1.865751 g / cm^3
# Si number density = 18.700076 Si / 1000 Ang^3
#
#
#
# Elastic Constant Matrix: (Units=GPa)
#
#
# Indices 1 2 3 4 5 6 
#
# 1 101.0080 34.1057 19.4109 0.0000 0.0000 0.0000
# 2 34.1057 68.0781 35.2815 0.0000 0.0000 0.0000
# 3 19.4109 35.2815 56.3818 0.0000 0.0000 0.0000
# 4 0.0000 0.0000 0.0000 18.9298 0.0000 0.0000
# 5 0.0000 0.0000 0.0000 0.0000 26.1002 0.0000
# 6 0.0000 0.0000 0.0000 0.0000 0.0000 23.6749
#
#
#
# Elastic Compliance Matrix: (Units=1/GPa)
#
#
# Indices 1 2 3 4 5 6 
#
# 1 0.011927 -0.005694 -0.000543 0.000000 0.000000 0.000000
# 2 -0.005694 0.024457 -0.013344 0.000000 0.000000 0.000000
# 3 -0.000543 -0.013344 0.026273 0.000000 0.000000 0.000000
# 4 0.000000 0.000000 0.000000 0.052827 0.000000 0.000000
# 5 0.000000 0.000000 0.000000 0.000000 0.038314 0.000000
# 6 0.000000 0.000000 0.000000 0.000000 0.000000 0.042239
#
#
# Mechanical properties :
#
#
# Convention : Reuss Voigt Hill
#
# Bulk Modulus (GPa) = 42.56139 44.78490 43.67315
# Shear Modulus (GPa) = 20.57352 22.85230 21.71291
#
# Velocity S-wave (km/s) = 3.32050 3.49957 3.41121
# Velocity P-wave (km/s) = 6.12457 6.35062 6.23862
#
# Compressibility (1/GPa) = 0.02349548
#
# Stress axis : x y z
#
# Youngs Moduli (GPa) = 83.84271 40.88816 38.06119
#
# Poissons Ratio (x) = 0.23280 0.02068
# Poissons Ratio (y) = 0.47737 0.50789
# Poissons Ratio (z) = 0.04556 0.54561
#
# Static dielectric constant tensor:
#      x y z
#    x 3.610620 0.000000 0.000000 
#    y 0.000000 3.458060 0.000000 
#    z 0.000000 0.000000 3.158460 
# 
# 
# High freq. dielectric constant tensor:
#      x y z
#    x 1.728940 0.000000 0.000000 
#    y 0.000000 1.724140 0.000000 
#    z 0.000000 0.000000 1.712170 
# 
# From -- ./inp_files/16034.got.cif
#   From: 2010.03.12/outbox.cif.g09.slc.cpg/sg59_9_cif.got.tgz:16034.got - 2010.04.16 16:29:54.
