data_PCOD8245716
_publ_section_title
;
Structure prediction by ZEFSAII (Michael W. Deem and Ramdas Pophale) SiO2 
 PCOD8245716
Probable space group: P M M N
;
_chemical_formula_sum "Si O2"
_cell_formula_units_Z 48
_cell_length_a 17.070352
_cell_length_b 8.986411
_cell_length_c 16.443615
_cell_angle_alpha 90.000000
_cell_angle_beta 90.000000
_cell_angle_gamma 90.000000
_cell_volume 2522.470257
_symmetry_space_group_name_H-M "P M M N"
_symmetry_group_IT_number 59
_space_group.IT_coordinate_system_code '2'
_symmetry_cell_setting 'orthorhombic'
loop_
_space_group_symop_operation_xyz
x,y,z
1/2-x,1/2-y,z
1/2+x,-y,-z
-x,1/2+y,-z
-x,-y,-z
1/2+x,1/2+y,-z
1/2-x,y,z
x,1/2-y,z
loop_
_atom_site_type_symbol
_atom_site_label
_atom_site_fract_x
_atom_site_fract_y
_atom_site_fract_z
Si Si1 0.750000 0.573135 0.335524
Si Si2 0.057069 0.922232 0.108271
Si Si3 0.404264 0.425611 0.576712
Si Si4 0.439662 0.423351 0.395866
Si Si5 0.098931 0.922696 0.923372
Si Si6 0.750000 0.926711 0.149915
Si Si7 0.158974 0.077606 0.240176
O O1 0.750000 0.750000 0.340427
O O2 0.826602 0.509150 0.380840
O O3 0.750000 0.518043 0.242862
O O4 0.037677 0.750000 0.122876
O O5 0.122125 0.976244 0.170835
O O6 0.091647 0.950152 0.019198
O O7 0.977636 0.014790 0.122229
O O8 0.407868 0.250000 0.586665
O O9 0.403451 0.474178 0.482185
O O10 0.479505 0.492170 0.622406
O O11 0.459001 0.250000 0.397069
O O12 0.377622 0.465405 0.326905
O O13 0.108179 0.750000 0.901538
O O14 0.173948 0.011698 0.894272
O O15 0.750000 0.750000 0.143441
O O16 0.250000 0.040040 0.245297
O O17 0.143983 0.250000 0.219031
#
# Coordination Sequence:
#
# PCOD8245716 Si02
#       7
#     4   8   8   8   8   4   8
#     4   9  20  35  55  84 111 144 188 229 273 329
#     4  10  22  40  62  85 112 148 191 236 286 343
#     4   9  18  35  58  80 109 148 187 230 280 332
#     4   9  19  35  56  82 111 146 188 231 279 335
#     4  10  22  41  62  85 114 150 191 235 288 342
#     4  11  23  37  57  88 121 152 192 235 281 337
#     4  10  22  37  56  85 117 149 188 233 283 339
#
# _framework density 19.028964999999999
#
# number of rings (size 3 to 8) (size 9 to 14) (size 15 to 20)
#    0.000    2.333    0.000    1.250    4.667    3.000 
#    0.000    1.250    0.000    0.000    0.000    0.000 
#    0.000    0.000    0.000    0.000    0.000    0.000 
#
# Total GULP energy -595382.504996 kJ/mol
# GULP energy per Si atom -12403.802187 kJ/mol
# Density = 1.898565 g / cm^3
# Si number density = 19.028965 Si / 1000 Ang^3
#
#
#
# Elastic Constant Matrix: (Units=GPa)
#
#
# Indices 1 2 3 4 5 6 
#
# 1 165.9392 55.7981 72.7870 0.0000 0.0000 0.0000
# 2 55.7981 65.1579 45.9895 0.0000 0.0000 0.0000
# 3 72.7870 45.9895 89.0031 0.0000 0.0000 0.0000
# 4 0.0000 0.0000 0.0000 24.8454 0.0000 0.0000
# 5 0.0000 0.0000 0.0000 0.0000 33.1823 0.0000
# 6 0.0000 0.0000 0.0000 0.0000 0.0000 34.5833
#
#
#
# Elastic Compliance Matrix: (Units=1/GPa)
#
#
# Indices 1 2 3 4 5 6 
#
# 1 0.010160 -0.004464 -0.006002 0.000000 0.000000 0.000000
# 2 -0.004464 0.026119 -0.009846 0.000000 0.000000 0.000000
# 3 -0.006002 -0.009846 0.021232 0.000000 0.000000 0.000000
# 4 0.000000 0.000000 0.000000 0.040249 0.000000 0.000000
# 5 0.000000 0.000000 0.000000 0.000000 0.030137 0.000000
# 6 0.000000 0.000000 0.000000 0.000000 0.000000 0.028916
#
#
# Mechanical properties :
#
#
# Convention : Reuss Voigt Hill
#
# Bulk Modulus (GPa) = 59.21662 74.36105 66.78883
# Shear Modulus (GPa) = 24.62258 28.22392 26.42325
#
# Velocity S-wave (km/s) = 3.60106 3.85542 3.73041
# Velocity P-wave (km/s) = 6.96254 7.67995 7.33003
#
# Compressibility (1/GPa) = 0.01688715
#
# Stress axis : x y z
#
# Youngs Moduli (GPa) = 98.42245 38.28575 47.09941
#
# Poissons Ratio (x) = 0.17092 0.28271
# Poissons Ratio (y) = 0.43938 0.46372
# Poissons Ratio (z) = 0.59077 0.37694
#
# Static dielectric constant tensor:
#      x y z
#    x 3.636610 0.000000 0.000000 
#    y 0.000000 3.394910 0.000000 
#    z 0.000000 0.000000 3.582330 
# 
# 
# High freq. dielectric constant tensor:
#      x y z
#    x 1.750030 0.000000 0.000000 
#    y 0.000000 1.730880 0.000000 
#    z 0.000000 0.000000 1.744710 
# 
# From -- ./inp_files/23761.got.cif
#   From: 2010.03.12/outbox.cif.g09.slc.cpg/sg59_12_cif.got.tgz:23761.got - 2010.04.16 16:29:54.
