data_PCOD8245423
_publ_section_title
;
Structure prediction by ZEFSAII (Michael W. Deem and Ramdas Pophale) SiO2 
 PCOD8245423
Probable space group: P M M N
;
_chemical_formula_sum "Si O2"
_cell_formula_units_Z 56
_cell_length_a 9.106628
_cell_length_b 13.599868
_cell_length_c 23.464450
_cell_angle_alpha 90.000000
_cell_angle_beta 90.000000
_cell_angle_gamma 90.000000
_cell_volume 2906.047230
_symmetry_space_group_name_H-M "P M M N"
_symmetry_group_IT_number 59
_space_group.IT_coordinate_system_code '2'
_symmetry_cell_setting 'orthorhombic'
loop_
_space_group_symop_operation_xyz
x,y,z
1/2-x,1/2-y,z
1/2+x,-y,-z
-x,1/2+y,-z
-x,-y,-z
1/2+x,1/2+y,-z
1/2-x,y,z
x,1/2-y,z
loop_
_atom_site_type_symbol
_atom_site_label
_atom_site_fract_x
_atom_site_fract_y
_atom_site_fract_z
Si Si1 0.923091 0.523496 0.300700
Si Si2 0.920892 0.135433 0.799282
Si Si3 0.579424 0.863045 0.414086
Si Si4 0.420720 0.364882 0.361868
Si Si5 0.421129 0.537802 0.082095
Si Si6 0.416810 0.867121 0.524497
Si Si7 0.923070 0.139013 0.034268
O O1 0.750000 0.506940 0.295550
O O2 0.968307 0.587131 0.355511
O O3 0.979508 0.577816 0.245051
O O4 0.004862 0.418894 0.307856
O O5 0.750000 0.116742 0.785984
O O6 0.959686 0.250000 0.796166
O O7 0.964567 0.096309 0.861380
O O8 0.750000 0.876662 0.427105
O O9 0.535643 0.750000 0.407200
O O10 0.493606 0.910867 0.467757
O O11 0.250000 0.391177 0.366001
O O12 0.446643 0.250000 0.352562
O O13 0.499581 0.403948 0.419180
O O14 0.250000 0.514617 0.079764
O O15 0.503642 0.433020 0.080549
O O16 0.469906 0.605662 0.029148
O O17 0.250000 0.905220 0.527975
O O18 0.425266 0.750000 0.521794
O O19 0.750000 0.133326 0.042230
O O20 0.979913 0.250000 0.044233
#
# Coordination Sequence:
#
# PCOD8245423 Si02
#       7
#     8   8   8   8   8   8   8
#     4  11  23  37  55  79 106 137 176 223 271 317
#     4  10  21  38  59  81 108 144 183 221 263 315
#     4   9  18  33  51  73 104 138 169 206 258 318
#     4  10  21  38  58  77 100 133 173 218 269 326
#     4   9  18  33  54  81 112 147 187 226 266 315
#     4   9  17  30  51  78 104 131 167 212 262 317
#     4   9  17  31  53  82 116 150 183 223 270 316
#
# _framework density 19.270161999999999
#
# number of rings (size 3 to 8) (size 9 to 14) (size 15 to 20)
#    0.000    2.429    0.000    2.143    0.000    7.714 
#    0.000    2.143    0.000    3.429    0.000    0.000 
#    0.000    0.000    0.000    0.000    0.000    0.000 
#
# Total GULP energy -694551.937833 kJ/mol
# GULP energy per Si atom -12402.713176 kJ/mol
# Density = 1.922630 g / cm^3
# Si number density = 19.270162 Si / 1000 Ang^3
#
#
#
# Elastic Constant Matrix: (Units=GPa)
#
#
# Indices 1 2 3 4 5 6 
#
# 1 88.9691 41.8060 49.4763 0.0000 0.0000 0.0000
# 2 41.8060 74.1350 33.6929 0.0000 0.0000 0.0000
# 3 49.4763 33.6929 88.6163 0.0000 0.0000 0.0000
# 4 0.0000 0.0000 0.0000 34.3025 0.0000 0.0000
# 5 0.0000 0.0000 0.0000 0.0000 34.2100 0.0000
# 6 0.0000 0.0000 0.0000 0.0000 0.0000 29.0669
#
#
#
# Elastic Compliance Matrix: (Units=1/GPa)
#
#
# Indices 1 2 3 4 5 6 
#
# 1 0.018967 -0.007112 -0.007886 0.000000 0.000000 0.000000
# 2 -0.007112 0.018973 -0.003243 0.000000 0.000000 0.000000
# 3 -0.007886 -0.003243 0.016920 0.000000 0.000000 0.000000
# 4 0.000000 0.000000 0.000000 0.029152 0.000000 0.000000
# 5 0.000000 0.000000 0.000000 0.000000 0.029231 0.000000
# 6 0.000000 0.000000 0.000000 0.000000 0.000000 0.034403
#
#
# Mechanical properties :
#
#
# Convention : Reuss Voigt Hill
#
# Bulk Modulus (GPa) = 54.40890 55.74119 55.07504
# Shear Modulus (GPa) = 26.28044 27.96556 27.12300
#
# Velocity S-wave (km/s) = 3.69696 3.81364 3.75575
# Velocity P-wave (km/s) = 6.82051 6.95563 6.88840
#
# Compressibility (1/GPa) = 0.01837935
#
# Stress axis : x y z
#
# Youngs Moduli (GPa) = 52.72330 52.70529 59.10031
#
# Poissons Ratio (x) = 0.37484 0.46604
# Poissons Ratio (y) = 0.37497 0.19167
# Poissons Ratio (z) = 0.41575 0.17093
#
# Static dielectric constant tensor:
#      x y z
#    x 3.468120 0.000000 0.000000 
#    y 0.000000 3.655850 0.000000 
#    z 0.000000 0.000000 3.449780 
# 
# 
# High freq. dielectric constant tensor:
#      x y z
#    x 1.747980 0.000000 0.000000 
#    y 0.000000 1.761470 0.000000 
#    z 0.000000 0.000000 1.735090 
# 
# From -- ./inp_files/29163.got.cif
#   From: 2010.03.12/outbox.cif.g09.slc.cpg/sg59_15_cif.got.tgz:29163.got - 2010.04.16 16:29:54.
