data_PCOD8245005
_publ_section_title
;
Structure prediction by ZEFSAII (Michael W. Deem and Ramdas Pophale) SiO2 
 PCOD8245005
Probable space group: P M M N
;
_chemical_formula_sum "Si O2"
_cell_formula_units_Z 48
_cell_length_a 9.249951
_cell_length_b 9.184821
_cell_length_c 30.490866
_cell_angle_alpha 90.000000
_cell_angle_beta 90.000000
_cell_angle_gamma 90.000000
_cell_volume 2590.477881
_symmetry_space_group_name_H-M "P M M N"
_symmetry_group_IT_number 59
_space_group.IT_coordinate_system_code '2'
_symmetry_cell_setting 'orthorhombic'
loop_
_space_group_symop_operation_xyz
x,y,z
1/2-x,1/2-y,z
1/2+x,-y,-z
-x,1/2+y,-z
-x,-y,-z
1/2+x,1/2+y,-z
1/2-x,y,z
x,1/2-y,z
loop_
_atom_site_type_symbol
_atom_site_label
_atom_site_fract_x
_atom_site_fract_y
_atom_site_fract_z
Si Si1 0.417238 0.920510 0.713051
Si Si2 0.588080 0.081173 0.036524
Si Si3 0.416444 0.921091 0.461560
Si Si4 0.580430 0.080559 0.789912
Si Si5 0.419757 0.582821 0.864743
Si Si6 0.416388 0.082172 0.624841
O O1 0.250000 0.954128 0.723782
O O2 0.448782 0.750000 0.712604
O O3 0.515505 0.994499 0.749248
O O4 0.461052 0.984829 0.666080
O O5 0.750000 0.020878 0.034290
O O6 0.583353 0.250000 0.025309
O O7 0.527754 0.053583 0.085492
O O8 0.500000 0.000000 0.000000
O O9 0.250000 0.969540 0.461975
O O10 0.434372 0.750000 0.468635
O O11 0.485045 0.969171 0.415425
O O12 0.500000 0.000000 0.500000
O O13 0.750000 0.050330 0.791978
O O14 0.544952 0.250000 0.784214
O O15 0.509896 0.025157 0.834678
O O16 0.250000 0.550473 0.859605
O O17 0.450921 0.750000 0.851353
O O18 0.250000 0.056747 0.611561
O O19 0.445168 0.250000 0.637094
#
# Coordination Sequence:
#
# PCOD8245005 Si02
#       6
#     8   8   8   8   8   8
#     4  10  21  37  58  83 109 139 176 217 262 315
#     4   9  19  35  54  78 108 140 175 217 263 312
#     4  10  21  36  55  80 110 144 181 222 267 314
#     4  11  24  38  53  78 110 141 175 218 266 314
#     4   9  19  37  58  78 103 138 179 220 263 313
#     4   9  18  34  55  78 107 143 180 218 262 313
#
# _framework density 18.529399999999999
#
# number of rings (size 3 to 8) (size 9 to 14) (size 15 to 20)
#    0.000    2.333    0.000    3.000    0.000    8.667 
#    0.000    8.333    0.000    0.000    0.000    0.000 
#    0.000    0.000    0.000    0.000    0.000    0.000 
#
# Total GULP energy -595310.236078 kJ/mol
# GULP energy per Si atom -12402.296585 kJ/mol
# Density = 1.848723 g / cm^3
# Si number density = 18.529400 Si / 1000 Ang^3
#
#
#
# Elastic Constant Matrix: (Units=GPa)
#
#
# Indices 1 2 3 4 5 6 
#
# 1 96.2510 54.7239 79.3510 0.0000 0.0000 0.0000
# 2 54.7239 84.0557 73.6527 0.0000 0.0000 0.0000
# 3 79.3510 73.6527 148.3519 0.0000 0.0000 0.0000
# 4 0.0000 0.0000 0.0000 42.4488 0.0000 0.0000
# 5 0.0000 0.0000 0.0000 0.0000 39.6321 0.0000
# 6 0.0000 0.0000 0.0000 0.0000 0.0000 31.4957
#
#
#
# Elastic Compliance Matrix: (Units=1/GPa)
#
#
# Indices 1 2 3 4 5 6 
#
# 1 0.020467 -0.006606 -0.007668 0.000000 0.000000 0.000000
# 2 -0.006606 0.023190 -0.007980 0.000000 0.000000 0.000000
# 3 -0.007668 -0.007980 0.014804 0.000000 0.000000 0.000000
# 4 0.000000 0.000000 0.000000 0.023558 0.000000 0.000000
# 5 0.000000 0.000000 0.000000 0.000000 0.025232 0.000000
# 6 0.000000 0.000000 0.000000 0.000000 0.000000 0.031750
#
#
# Mechanical properties :
#
#
# Convention : Reuss Voigt Hill
#
# Bulk Modulus (GPa) = 71.66622 82.67933 77.17278
# Shear Modulus (GPa) = 26.57341 30.77738 28.67540
#
# Velocity S-wave (km/s) = 3.79109 4.07996 3.93817
# Velocity P-wave (km/s) = 7.61079 8.17999 7.90052
#
# Compressibility (1/GPa) = 0.01395357
#
# Stress axis : x y z
#
# Youngs Moduli (GPa) = 48.85989 43.12246 67.55105
#
# Poissons Ratio (x) = 0.28487 0.51795
# Poissons Ratio (y) = 0.32278 0.53903
# Poissons Ratio (z) = 0.37463 0.34410
#
# Static dielectric constant tensor:
#      x y z
#    x 3.396550 0.000000 0.000000 
#    y 0.000000 3.301700 0.000000 
#    z 0.000000 0.000000 3.489020 
# 
# 
# High freq. dielectric constant tensor:
#      x y z
#    x 1.717120 0.000000 0.000000 
#    y 0.000000 1.718250 0.000000 
#    z 0.000000 0.000000 1.732390 
# 
# From -- ./inp_files/32786.got.cif
#   From: 2010.03.12/outbox.cif.g09.slc.cpg/sg59_17_cif.got.tgz:32786.got - 2010.04.16 16:29:54.
