data_PCOD8245644
_publ_section_title
;
Structure prediction by ZEFSAII (Michael W. Deem and Ramdas Pophale) SiO2 
 PCOD8245644
Probable space group: P M M N
;
_chemical_formula_sum "Si O2"
_cell_formula_units_Z 40
_cell_length_a 29.968627
_cell_length_b 8.860797
_cell_length_c 7.329254
_cell_angle_alpha 90.000000
_cell_angle_beta 90.000000
_cell_angle_gamma 90.000000
_cell_volume 1946.253498
_symmetry_space_group_name_H-M "P M M N"
_symmetry_group_IT_number 59
_space_group.IT_coordinate_system_code '2'
_symmetry_cell_setting 'orthorhombic'
loop_
_space_group_symop_operation_xyz
x,y,z
1/2-x,1/2-y,z
1/2+x,-y,-z
-x,1/2+y,-z
-x,-y,-z
1/2+x,1/2+y,-z
1/2-x,y,z
x,1/2-y,z
loop_
_atom_site_type_symbol
_atom_site_label
_atom_site_fract_x
_atom_site_fract_y
_atom_site_fract_z
Si Si1 0.451907 0.072886 0.996048
Si Si2 0.606793 0.078478 0.714018
Si Si3 0.201106 0.075093 0.703121
Si Si4 0.297545 0.579028 0.327969
Si Si5 0.612111 0.075669 0.284367
O O1 0.457394 0.250000 0.982899
O O2 0.426076 0.015049 0.818848
O O3 0.500000 0.000000 0.000000
O O4 0.426145 0.032739 0.182347
O O5 0.591703 0.250000 0.753163
O O6 0.657643 0.050317 0.790298
O O7 0.606045 0.043443 0.498777
O O8 0.250000 0.035976 0.790305
O O9 0.189852 0.250000 0.732244
O O10 0.203655 0.041289 0.488951
O O11 0.160749 0.978015 0.788456
O O12 0.250000 0.564436 0.218220
O O13 0.301867 0.750000 0.410208
O O14 0.606818 0.250000 0.234796
#
# Coordination Sequence:
#
# PCOD8245644 Si02
#       5
#     8   8   8   8   8
#     4  12  26  43  63  85 113 148 189 242 297 350
#     4   9  19  37  61  88 118 152 192 237 284 339
#     4   9  16  27  48  81 119 155 191 232 278 330
#     4   8  14  27  50  80 114 153 193 230 272 327
#     4  10  21  39  63  88 117 154 194 236 283 340
#
# _framework density 20.552306000000002
#
# number of rings (size 3 to 8) (size 9 to 14) (size 15 to 20)
#    0.000    2.400    0.000    4.200    0.000    6.000 
#    0.000    1.000    0.000    3.600    0.000    0.000 
#    0.000    0.000    0.000    0.000    0.000    0.000 
#
# Total GULP energy -495622.141817 kJ/mol
# GULP energy per Si atom -12390.553545 kJ/mol
# Density = 2.050553 g / cm^3
# Si number density = 20.552306 Si / 1000 Ang^3
#
#
#
# Elastic Constant Matrix: (Units=GPa)
#
#
# Indices 1 2 3 4 5 6 
#
# 1 201.7770 81.0200 51.1114 0.0000 0.0000 0.0000
# 2 81.0200 130.2967 38.1914 0.0000 0.0000 0.0000
# 3 51.1114 38.1914 65.2347 0.0000 0.0000 0.0000
# 4 0.0000 0.0000 0.0000 27.1319 0.0000 0.0000
# 5 0.0000 0.0000 0.0000 0.0000 55.6310 0.0000
# 6 0.0000 0.0000 0.0000 0.0000 0.0000 37.8839
#
#
#
# Elastic Compliance Matrix: (Units=1/GPa)
#
#
# Indices 1 2 3 4 5 6 
#
# 1 0.007270 -0.003442 -0.003681 0.000000 0.000000 0.000000
# 2 -0.003442 0.010894 -0.003681 0.000000 0.000000 0.000000
# 3 -0.003681 -0.003681 0.020369 0.000000 0.000000 0.000000
# 4 0.000000 0.000000 0.000000 0.036857 0.000000 0.000000
# 5 0.000000 0.000000 0.000000 0.000000 0.017976 0.000000
# 6 0.000000 0.000000 0.000000 0.000000 0.000000 0.026396
#
#
# Mechanical properties :
#
#
# Convention : Reuss Voigt Hill
#
# Bulk Modulus (GPa) = 59.08625 81.99489 70.54057
# Shear Modulus (GPa) = 34.01073 39.26174 36.63623
#
# Velocity S-wave (km/s) = 4.07238 4.37548 4.22665
# Velocity P-wave (km/s) = 7.13611 8.09375 7.62997
#
# Compressibility (1/GPa) = 0.01692441
#
# Stress axis : x y z
#
# Youngs Moduli (GPa) = 137.54222 91.79422 49.09473
#
# Poissons Ratio (x) = 0.31594 0.18074
# Poissons Ratio (y) = 0.47339 0.18073
# Poissons Ratio (z) = 0.50635 0.33791
#
# Static dielectric constant tensor:
#      x y z
#    x 4.212110 0.000000 0.000000 
#    y 0.000000 3.678320 0.000000 
#    z 0.000000 0.000000 3.262810 
# 
# 
# High freq. dielectric constant tensor:
#      x y z
#    x 1.824380 0.000000 0.000000 
#    y 0.000000 1.804450 0.000000 
#    z 0.000000 0.000000 1.763500 
# 
# From -- ./inp_files/12776.got.cif
#   From: 2010.03.12/outbox.cif.g09.slc.cpg/sg59_7_cif.got.tgz:12776.got - 2010.04.16 16:29:54.
