data_PCOD8245534
_publ_section_title
;
Structure prediction by ZEFSAII (Michael W. Deem and Ramdas Pophale) SiO2 
 PCOD8245534
Probable space group: P M M N
;
_chemical_formula_sum "Si O2"
_cell_formula_units_Z 64
_cell_length_a 8.834220
_cell_length_b 14.480762
_cell_length_c 24.003849
_cell_angle_alpha 90.000000
_cell_angle_beta 90.000000
_cell_angle_gamma 90.000000
_cell_volume 3070.722083
_symmetry_space_group_name_H-M "P M M N"
_symmetry_group_IT_number 59
_space_group.IT_coordinate_system_code '2'
_symmetry_cell_setting 'orthorhombic'
loop_
_space_group_symop_operation_xyz
x,y,z
1/2-x,1/2-y,z
1/2+x,-y,-z
-x,1/2+y,-z
-x,-y,-z
1/2+x,1/2+y,-z
1/2-x,y,z
x,1/2-y,z
loop_
_atom_site_type_symbol
_atom_site_label
_atom_site_fract_x
_atom_site_fract_y
_atom_site_fract_z
Si Si1 0.074946 0.856834 0.032561
Si Si2 0.571878 0.356455 0.648561
Si Si3 0.575252 0.973638 0.127719
Si Si4 0.583712 0.649080 0.608530
Si Si5 0.582221 0.851085 0.739428
Si Si6 0.421677 0.463842 0.748295
Si Si7 0.925734 0.984227 0.440591
Si Si8 0.928469 0.644556 0.917316
O O1 0.250000 0.878534 0.021157
O O2 0.046385 0.750000 0.045586
O O3 0.020351 0.912341 0.085837
O O4 0.980552 0.887994 0.978610
O O5 0.750000 0.366913 0.641660
O O6 0.521617 0.250000 0.653687
O O7 0.526482 0.409580 0.705017
O O8 0.496755 0.398823 0.593302
O O9 0.750000 0.976742 0.109708
O O10 0.558411 0.926501 0.188758
O O11 0.508192 0.078105 0.127801
O O12 0.750000 0.616944 0.585874
O O13 0.544024 0.750000 0.583203
O O14 0.593387 0.656410 0.673817
O O15 0.452271 0.578086 0.593294
O O16 0.750000 0.876509 0.763097
O O17 0.533267 0.750000 0.763348
O O18 0.460437 0.928192 0.754080
O O19 0.250000 0.453128 0.727118
O O20 0.750000 0.964420 0.447677
O O21 0.000000 0.000000 0.500000
O O22 0.750000 0.633686 0.912806
O O23 0.979762 0.750000 0.905897
#
# Coordination Sequence:
#
# PCOD8245534 Si02
#       8
#     8   8   8   8   8   8   8   8
#     4  10  21  38  61  87 116 153 200 254 310 367
#     4  11  25  46  70  93 122 163 209 256 306 361
#     4  11  24  39  57  85 123 162 202 251 305 361
#     4   9  18  35  60  89 121 155 191 236 291 348
#     4   9  18  34  59  87 116 153 193 236 290 353
#     4  11  24  40  60  89 123 162 205 252 305 361
#     4  12  25  41  65  95 128 163 201 249 301 357
#     4  10  21  38  61  88 119 158 202 249 306 369
#
# _framework density 20.842005
#
# number of rings (size 3 to 8) (size 9 to 14) (size 15 to 20)
#    0.000    1.625    1.250    4.125    0.000    6.500 
#    0.000    6.250    0.000    0.000    0.000    0.000 
#    0.000    0.000    0.000    0.000    0.000    0.000 
#
# Total GULP energy -793538.287914 kJ/mol
# GULP energy per Si atom -12399.035749 kJ/mol
# Density = 2.079457 g / cm^3
# Si number density = 20.842005 Si / 1000 Ang^3
#
#
#
# Elastic Constant Matrix: (Units=GPa)
#
#
# Indices 1 2 3 4 5 6 
#
# 1 87.3706 36.3090 29.3166 0.0000 0.0000 0.0000
# 2 36.3090 97.9327 32.5926 0.0000 0.0000 0.0000
# 3 29.3166 32.5926 85.0705 0.0000 0.0000 0.0000
# 4 0.0000 0.0000 0.0000 11.3654 0.0000 0.0000
# 5 0.0000 0.0000 0.0000 0.0000 31.7626 0.0000
# 6 0.0000 0.0000 0.0000 0.0000 0.0000 25.0434
#
#
#
# Elastic Compliance Matrix: (Units=1/GPa)
#
#
# Indices 1 2 3 4 5 6 
#
# 1 0.014305 -0.004198 -0.003321 0.000000 0.000000 0.000000
# 2 -0.004198 0.012935 -0.003509 0.000000 0.000000 0.000000
# 3 -0.003321 -0.003509 0.014244 0.000000 0.000000 0.000000
# 4 0.000000 0.000000 0.000000 0.087986 0.000000 0.000000
# 5 0.000000 0.000000 0.000000 0.000000 0.031484 0.000000
# 6 0.000000 0.000000 0.000000 0.000000 0.000000 0.039931
#
#
# Mechanical properties :
#
#
# Convention : Reuss Voigt Hill
#
# Bulk Modulus (GPa) = 51.47478 51.86782 51.67130
# Shear Modulus (GPa) = 21.79437 25.11131 23.45284
#
# Velocity S-wave (km/s) = 3.23723 3.47485 3.35814
# Velocity P-wave (km/s) = 6.22287 6.40622 6.31521
#
# Compressibility (1/GPa) = 0.01942699
#
# Stress axis : x y z
#
# Youngs Moduli (GPa) = 69.90786 77.30687 70.20550
#
# Poissons Ratio (x) = 0.32455 0.23316
# Poissons Ratio (y) = 0.29349 0.24636
# Poissons Ratio (z) = 0.23217 0.27128
#
# Static dielectric constant tensor:
#      x y z
#    x 2.862350 0.000000 0.000000 
#    y 0.000000 2.523930 0.000000 
#    z 0.000000 0.000000 3.879570 
# 
# 
# High freq. dielectric constant tensor:
#      x y z
#    x 1.818490 0.000000 0.000000 
#    y 0.000000 1.819060 0.000000 
#    z 0.000000 0.000000 1.816010 
# 
# From -- ./inp_files/31667.got.cif
#   From: 2010.03.12/outbox.cif.g09.slc.cpg/sg59_16_cif.got.tgz:31667.got - 2010.04.16 16:29:54.
