data_PCOD8245143
_publ_section_title
;
Structure prediction by ZEFSAII (Michael W. Deem and Ramdas Pophale) SiO2 
 PCOD8245143
Probable space group: P M M N
;
_chemical_formula_sum "Si O2"
_cell_formula_units_Z 64
_cell_length_a 14.866698
_cell_length_b 8.991020
_cell_length_c 24.505446
_cell_angle_alpha 90.000000
_cell_angle_beta 90.000000
_cell_angle_gamma 90.000000
_cell_volume 3275.564036
_symmetry_space_group_name_H-M "P M M N"
_symmetry_group_IT_number 59
_space_group.IT_coordinate_system_code '2'
_symmetry_cell_setting 'orthorhombic'
loop_
_space_group_symop_operation_xyz
x,y,z
1/2-x,1/2-y,z
1/2+x,-y,-z
-x,1/2+y,-z
-x,-y,-z
1/2+x,1/2+y,-z
1/2-x,y,z
x,1/2-y,z
loop_
_atom_site_type_symbol
_atom_site_label
_atom_site_fract_x
_atom_site_fract_y
_atom_site_fract_z
Si Si1 0.855671 0.577334 0.671634
Si Si2 0.648382 0.923633 0.944895
Si Si3 0.499594 0.924274 0.859345
Si Si4 0.646153 0.072610 0.329215
Si Si5 0.998651 0.073847 0.744248
Si Si6 0.351649 0.923622 0.945568
Si Si7 0.356631 0.915186 0.552901
Si Si8 0.643250 0.081364 0.564116
O O1 0.750000 0.546307 0.678859
O O2 0.878914 0.750000 0.676993
O O3 0.906925 0.488487 0.718485
O O4 0.892516 0.522343 0.612768
O O5 0.750000 0.975654 0.931908
O O6 0.642361 0.750000 0.955937
O O7 0.587960 0.968047 0.893478
O O8 0.611527 0.999984 0.999661
O O9 0.499436 0.750000 0.843324
O O10 0.412041 0.968195 0.894178
O O11 0.498720 0.026385 0.806689
O O12 0.750000 0.031650 0.317822
O O13 0.632555 0.250000 0.326400
O O14 0.613890 0.010705 0.389449
O O15 0.586535 0.992564 0.284410
O O16 0.999631 0.250000 0.739054
O O17 0.250000 0.975524 0.932635
O O18 0.357767 0.750000 0.956597
O O19 0.250000 0.906720 0.554742
O O20 0.396496 0.750000 0.551146
O O21 0.387586 0.989454 0.495013
O O22 0.750000 0.084700 0.566033
O O23 0.606744 0.250000 0.571577
#
# Coordination Sequence:
#
# PCOD8245143 Si02
#       8
#     8   8   8   8   8   8   8   8
#     4  10  21  38  59  80 105 141 184 229 278 334
#     4   9  18  33  55  83 112 140 171 212 264 318
#     4  10  21  37  55  76 106 144 185 225 265 314
#     4   9  18  36  61  83 107 144 186 227 275 332
#     4  12  26  40  55  79 111 146 189 237 281 327
#     4   9  18  33  55  83 112 141 174 213 259 313
#     4   7  11  23  48  80 107 134 171 215 268 330
#     4   8  13  25  49  80 110 136 167 214 273 333
#
# _framework density 19.538619000000001
#
# number of rings (size 3 to 8) (size 9 to 14) (size 15 to 20)
#    0.000    2.750    0.000    3.375    0.000    3.000 
#    0.000    3.750    0.000    2.250    0.000    0.000 
#    0.000    0.000    0.000    0.000    0.000    0.000 
#
# Total GULP energy -793135.311179 kJ/mol
# GULP energy per Si atom -12392.739237 kJ/mol
# Density = 1.949415 g / cm^3
# Si number density = 19.538619 Si / 1000 Ang^3
#
#
#
# Elastic Constant Matrix: (Units=GPa)
#
#
# Indices 1 2 3 4 5 6 
#
# 1 83.5029 41.2729 62.5645 0.0000 0.0000 0.0000
# 2 41.2729 77.4968 63.9572 0.0000 0.0000 0.0000
# 3 62.5645 63.9572 170.3021 0.0000 0.0000 0.0000
# 4 0.0000 0.0000 0.0000 157.4967 0.0000 0.0000
# 5 0.0000 0.0000 0.0000 0.0000 54.6627 0.0000
# 6 0.0000 0.0000 0.0000 0.0000 0.0000 20.9122
#
#
#
# Elastic Compliance Matrix: (Units=1/GPa)
#
#
# Indices 1 2 3 4 5 6 
#
# 1 0.018312 -0.006087 -0.004441 0.000000 0.000000 0.000000
# 2 -0.006087 0.020723 -0.005546 0.000000 0.000000 0.000000
# 3 -0.004441 -0.005546 0.009586 0.000000 0.000000 0.000000
# 4 0.000000 0.000000 0.000000 0.006349 0.000000 0.000000
# 5 0.000000 0.000000 0.000000 0.000000 0.018294 0.000000
# 6 0.000000 0.000000 0.000000 0.000000 0.000000 0.047819
#
#
# Mechanical properties :
#
#
# Convention : Reuss Voigt Hill
#
# Bulk Modulus (GPa) = 60.70950 74.09898 67.40424
# Shear Modulus (GPa) = 31.50132 57.51482 44.50807
#
# Velocity S-wave (km/s) = 4.01965 5.43143 4.77797
# Velocity P-wave (km/s) = 7.25827 8.79435 8.06297
#
# Compressibility (1/GPa) = 0.01647189
#
# Stress axis : x y z
#
# Youngs Moduli (GPa) = 54.60915 48.25584 104.31422
#
# Poissons Ratio (x) = 0.29374 0.46329
# Poissons Ratio (y) = 0.33241 0.57855
# Poissons Ratio (z) = 0.24253 0.26764
#
# Static dielectric constant tensor:
#      x y z
#    x 3.617280 0.000000 0.000000 
#    y 0.000000 3.376840 0.000000 
#    z 0.000000 0.000000 3.795880 
# 
# 
# High freq. dielectric constant tensor:
#      x y z
#    x 1.755810 0.000000 0.000000 
#    y 0.000000 1.735980 0.000000 
#    z 0.000000 0.000000 1.769830 
# 
# From -- ./inp_files/32151.got.cif
#   From: 2010.03.12/outbox.cif.g09.slc.cpg/sg59_17_cif.got.tgz:32151.got - 2010.04.16 16:29:54.
