data_PCOD8245418
_publ_section_title
;
Structure prediction by ZEFSAII (Michael W. Deem and Ramdas Pophale) SiO2 
 PCOD8245418
Probable space group: P M M N
;
_chemical_formula_sum "Si O2"
_cell_formula_units_Z 56
_cell_length_a 8.873762
_cell_length_b 14.980992
_cell_length_c 22.088024
_cell_angle_alpha 90.000000
_cell_angle_beta 90.000000
_cell_angle_gamma 90.000000
_cell_volume 2936.332379
_symmetry_space_group_name_H-M "P M M N"
_symmetry_group_IT_number 59
_space_group.IT_coordinate_system_code '2'
_symmetry_cell_setting 'orthorhombic'
loop_
_space_group_symop_operation_xyz
x,y,z
1/2-x,1/2-y,z
1/2+x,-y,-z
-x,1/2+y,-z
-x,-y,-z
1/2+x,1/2+y,-z
1/2-x,y,z
x,1/2-y,z
loop_
_atom_site_type_symbol
_atom_site_label
_atom_site_fract_x
_atom_site_fract_y
_atom_site_fract_z
Si Si1 0.428091 0.491580 0.711161
Si Si2 0.074278 0.560814 0.164454
Si Si3 0.578869 0.349838 0.370672
Si Si4 0.927587 0.653778 0.379850
Si Si5 0.928821 0.250000 0.884262
Si Si6 0.072549 0.062365 0.050653
Si Si7 0.069811 0.750000 0.976686
Si Si8 0.427668 0.094735 0.491678
O O1 0.250000 0.482141 0.717916
O O2 0.497821 0.477338 0.776181
O O3 0.476892 0.587232 0.683965
O O4 0.498796 0.420109 0.664046
O O5 0.250000 0.570638 0.176407
O O6 0.008763 0.659488 0.147448
O O7 0.040340 0.488160 0.113201
O O8 0.750000 0.375568 0.388145
O O9 0.565848 0.250000 0.345336
O O10 0.481199 0.357527 0.430982
O O11 0.750000 0.639899 0.379418
O O12 0.974908 0.750000 0.353685
O O13 0.982276 0.649179 0.449321
O O14 0.750000 0.250000 0.883039
O O15 0.982399 0.250000 0.953642
O O16 0.250000 0.072511 0.038047
O O17 0.996855 0.160382 0.053924
O O18 0.000000 0.000000 0.000000
O O19 0.250000 0.750000 0.969318
O O20 0.250000 0.085727 0.488399
O O21 0.500000 0.000000 0.500000
#
# Coordination Sequence:
#
# PCOD8245418 Si02
#       8
#     8   8   8   8   4   8   4   8
#     4  10  21  38  57  80 112 150 193 236 284 345
#     4  10  22  40  60  84 120 158 192 240 294 348
#     4  10  21  39  60  81 110 148 193 246 298 346
#     4   9  18  33  53  78 110 142 175 225 286 341
#     4   9  18  37  61  87 121 157 186 225 294 357
#     4  11  22  39  63  91 124 159 200 249 301 354
#     4  11  21  39  65  93 125 161 198 245 304 361
#     4  11  20  34  57  83 113 146 186 235 292 349
#
# _framework density 19.07141
#
# number of rings (size 3 to 8) (size 9 to 14) (size 15 to 20)
#    0.000    1.857    2.857    1.500    1.000    2.571 
#    1.286    0.000    0.000    1.714    0.000    0.000 
#    0.000    0.000    0.000    0.000    0.000    0.000 
#
# Total GULP energy -694235.982925 kJ/mol
# GULP energy per Si atom -12397.071124 kJ/mol
# Density = 1.902800 g / cm^3
# Si number density = 19.071410 Si / 1000 Ang^3
#
#
#
# Elastic Constant Matrix: (Units=GPa)
#
#
# Indices 1 2 3 4 5 6 
#
# 1 60.9411 47.1382 50.7182 0.0000 0.0000 0.0000
# 2 47.1382 171.6241 76.6350 0.0000 0.0000 0.0000
# 3 50.7182 76.6350 145.8619 0.0000 0.0000 0.0000
# 4 0.0000 0.0000 0.0000 19.5395 0.0000 0.0000
# 5 0.0000 0.0000 0.0000 0.0000 32.6116 0.0000
# 6 0.0000 0.0000 0.0000 0.0000 0.0000 24.1394
#
#
#
# Elastic Compliance Matrix: (Units=1/GPa)
#
#
# Indices 1 2 3 4 5 6 
#
# 1 0.024932 -0.003889 -0.006626 0.000000 0.000000 0.000000
# 2 -0.003889 0.008219 -0.002966 0.000000 0.000000 0.000000
# 3 -0.006626 -0.002966 0.010718 0.000000 0.000000 0.000000
# 4 0.000000 0.000000 0.000000 0.051178 0.000000 0.000000
# 5 0.000000 0.000000 0.000000 0.000000 0.030664 0.000000
# 6 0.000000 0.000000 0.000000 0.000000 0.000000 0.041426
#
#
# Mechanical properties :
#
#
# Convention : Reuss Voigt Hill
#
# Bulk Modulus (GPa) = 59.14653 80.82331 69.98492
# Shear Modulus (GPa) = 25.03311 28.85382 26.94347
#
# Velocity S-wave (km/s) = 3.62691 3.89387 3.76276
# Velocity P-wave (km/s) = 6.97279 7.91755 7.46014
#
# Compressibility (1/GPa) = 0.01690716
#
# Stress axis : x y z
#
# Youngs Moduli (GPa) = 40.10923 121.66457 93.30074
#
# Poissons Ratio (x) = 0.47318 0.61819
# Poissons Ratio (y) = 0.15599 0.27674
# Poissons Ratio (z) = 0.26576 0.36086
#
# Static dielectric constant tensor:
#      x y z
#    x 3.145170 0.000000 0.000000 
#    y 0.000000 3.785630 0.000000 
#    z 0.000000 0.000000 3.805490 
# 
# 
# High freq. dielectric constant tensor:
#      x y z
#    x 1.719840 0.000000 0.000000 
#    y 0.000000 1.761540 0.000000 
#    z 0.000000 0.000000 1.737880 
# 
# From -- ./inp_files/29232.got.cif
#   From: 2010.03.12/outbox.cif.g09.slc.cpg/sg59_15_cif.got.tgz:29232.got - 2010.04.16 16:29:54.
