data_PCOD8245942
_publ_section_title
;
Structure prediction by ZEFSAII (Michael W. Deem and Ramdas Pophale) SiO2 
 PCOD8245942
Probable space group: P M M N
;
_chemical_formula_sum "Si O2"
_cell_formula_units_Z 48
_cell_length_a 19.833711
_cell_length_b 8.960407
_cell_length_c 15.219167
_cell_angle_alpha 90.000000
_cell_angle_beta 90.000000
_cell_angle_gamma 90.000000
_cell_volume 2704.721791
_symmetry_space_group_name_H-M "P M M N"
_symmetry_group_IT_number 59
_space_group.IT_coordinate_system_code '2'
_symmetry_cell_setting 'orthorhombic'
loop_
_space_group_symop_operation_xyz
x,y,z
1/2-x,1/2-y,z
1/2+x,-y,-z
-x,1/2+y,-z
-x,-y,-z
1/2+x,1/2+y,-z
1/2-x,y,z
x,1/2-y,z
loop_
_atom_site_type_symbol
_atom_site_label
_atom_site_fract_x
_atom_site_fract_y
_atom_site_fract_z
Si Si1 0.088145 0.084048 0.071936
Si Si2 0.827984 0.921426 0.596145
Si Si3 0.396316 0.926716 0.247903
Si Si4 0.571586 0.084664 0.094170
Si Si5 0.535519 0.422292 0.278775
Si Si6 0.568815 0.423071 0.472017
O O1 0.118026 0.250000 0.080342
O O2 0.008112 0.084307 0.078648
O O3 0.118773 0.983079 0.149342
O O4 0.109033 0.020880 0.975972
O O5 0.750000 0.933837 0.571552
O O6 0.851361 0.750000 0.605225
O O7 0.840310 0.004968 0.687989
O O8 0.868433 0.998059 0.517395
O O9 0.391811 0.750000 0.249047
O O10 0.469087 0.976605 0.283964
O O11 0.601195 0.250000 0.080435
O O12 0.582233 0.030215 0.195255
O O13 0.512112 0.250000 0.265634
O O14 0.578527 0.441514 0.367184
O O15 0.500000 0.500000 0.500000
O O16 0.566517 0.250000 0.499798
#
# Coordination Sequence:
#
# PCOD8245942 Si02
#       6
#     8   8   8   8   8   8
#     4   9  16  26  41  63  96 132 163 201 248 300
#     4  11  24  40  55  73 103 140 177 221 270 319
#     4  11  20  30  49  73  98 132 171 212 255 311
#     4   8  14  25  40  63  95 130 165 202 244 295
#     4   9  18  31  48  71 103 136 168 209 260 311
#     4  11  21  34  55  80 106 138 176 220 266 318
#
# _framework density 17.746742999999999
#
# number of rings (size 3 to 8) (size 9 to 14) (size 15 to 20)
#    0.000    2.167    1.667    4.000    0.000    6.000 
#    0.000    0.000    0.000    0.000    0.000    1.167 
#    0.000    6.667    0.000    0.000    0.000    0.000 
#
# Total GULP energy -595097.998652 kJ/mol
# GULP energy per Si atom -12397.874972 kJ/mol
# Density = 1.770635 g / cm^3
# Si number density = 17.746743 Si / 1000 Ang^3
#
#
#
# Elastic Constant Matrix: (Units=GPa)
#
#
# Indices 1 2 3 4 5 6 
#
# 1 46.7138 38.2829 38.1197 0.0000 0.0000 0.0000
# 2 38.2829 147.3891 69.5415 0.0000 0.0000 0.0000
# 3 38.1197 69.5415 152.6025 0.0000 0.0000 0.0000
# 4 0.0000 0.0000 0.0000 33.4549 0.0000 0.0000
# 5 0.0000 0.0000 0.0000 0.0000 16.0849 0.0000
# 6 0.0000 0.0000 0.0000 0.0000 0.0000 18.2907
#
#
#
# Elastic Compliance Matrix: (Units=1/GPa)
#
#
# Indices 1 2 3 4 5 6 
#
# 1 0.029929 -0.005409 -0.005011 0.000000 0.000000 0.000000
# 2 -0.005409 0.009621 -0.003033 0.000000 0.000000 0.000000
# 3 -0.005011 -0.003033 0.009187 0.000000 0.000000 0.000000
# 4 0.000000 0.000000 0.000000 0.029891 0.000000 0.000000
# 5 0.000000 0.000000 0.000000 0.000000 0.062170 0.000000
# 6 0.000000 0.000000 0.000000 0.000000 0.000000 0.054673
#
#
# Mechanical properties :
#
#
# Convention : Reuss Voigt Hill
#
# Bulk Modulus (GPa) = 45.80882 70.95486 58.38184
# Shear Modulus (GPa) = 21.77181 26.95018 24.36099
#
# Velocity S-wave (km/s) = 3.50638 3.90115 3.70902
# Velocity P-wave (km/s) = 6.50088 7.76921 7.16317
#
# Compressibility (1/GPa) = 0.02182986
#
# Stress axis : x y z
#
# Youngs Moduli (GPa) = 33.41199 103.94086 108.85076
#
# Poissons Ratio (x) = 0.56227 0.54547
# Poissons Ratio (y) = 0.18074 0.33014
# Poissons Ratio (z) = 0.16743 0.31525
#
# Static dielectric constant tensor:
#      x y z
#    x 2.732570 0.000000 0.000000 
#    y 0.000000 3.489330 0.000000 
#    z 0.000000 0.000000 3.826650 
# 
# 
# High freq. dielectric constant tensor:
#      x y z
#    x 1.612720 0.000000 0.000000 
#    y 0.000000 1.699260 0.000000 
#    z 0.000000 0.000000 1.709550 
# 
# From -- ./inp_files/24076.got.cif
#   From: 2010.03.12/outbox.cif.g09.slc.cpg/sg59_13_cif.got.tgz:24076.got - 2010.04.16 16:29:54.
