data_PCOD8245501
_publ_section_title
;
Structure prediction by ZEFSAII (Michael W. Deem and Ramdas Pophale) SiO2 
 PCOD8245501
Probable space group: P M M N
;
_chemical_formula_sum "Si O2"
_cell_formula_units_Z 56
_cell_length_a 13.182752
_cell_length_b 9.238907
_cell_length_c 21.025130
_cell_angle_alpha 90.000000
_cell_angle_beta 90.000000
_cell_angle_gamma 90.000000
_cell_volume 2560.739303
_symmetry_space_group_name_H-M "P M M N"
_symmetry_group_IT_number 59
_space_group.IT_coordinate_system_code '2'
_symmetry_cell_setting 'orthorhombic'
loop_
_space_group_symop_operation_xyz
x,y,z
1/2-x,1/2-y,z
1/2+x,-y,-z
-x,1/2+y,-z
-x,-y,-z
1/2+x,1/2+y,-z
1/2-x,y,z
x,1/2-y,z
loop_
_atom_site_type_symbol
_atom_site_label
_atom_site_fract_x
_atom_site_fract_y
_atom_site_fract_z
Si Si1 0.369694 0.089091 0.166718
Si Si2 0.370365 0.912255 0.909592
Si Si3 0.634263 0.584548 0.461048
Si Si4 0.546260 0.917713 0.595780
Si Si5 0.865300 0.918144 0.972762
Si Si6 0.134683 0.580950 0.768173
Si Si7 0.955281 0.421656 0.717872
O O1 0.250000 0.094311 0.156198
O O2 0.407539 0.250000 0.188021
O O3 0.417334 0.050263 0.096548
O O4 0.394737 0.970867 0.219697
O O5 0.250000 0.934515 0.903190
O O6 0.398227 0.750000 0.928379
O O7 0.413092 0.948001 0.838791
O O8 0.420112 0.005288 0.966850
O O9 0.750000 0.552017 0.443153
O O10 0.603996 0.750000 0.444587
O O11 0.565774 0.476482 0.420453
O O12 0.620145 0.557594 0.536256
O O13 0.537936 0.750000 0.614809
O O14 0.593895 0.007668 0.654707
O O15 0.750000 0.977215 0.971241
O O16 0.867003 0.750000 0.987454
O O17 0.250000 0.528045 0.763392
O O18 0.126346 0.750000 0.750758
O O19 0.070274 0.482559 0.720221
O O20 0.953354 0.250000 0.712913
#
# Coordination Sequence:
#
# PCOD8245501 Si02
#       7
#     8   8   8   8   8   8   8
#     4   9  19  37  58  78 105 145 190 233 280 337
#     4   8  14  26  47  74 101 131 171 224 284 339
#     4   9  19  38  64  92 119 146 180 223 267 312
#     4  10  21  38  60  86 117 153 188 221 265 321
#     4   8  14  26  47  74 101 132 173 223 280 338
#     4   9  19  37  58  78 104 143 190 235 282 340
#     4  12  25  38  55  82 116 151 188 233 280 324
#
# _framework density 21.868684999999999
#
# number of rings (size 3 to 8) (size 9 to 14) (size 15 to 20)
#    0.000    2.714    0.000    3.429    0.000    3.714 
#    0.000    5.000    0.000    0.000    0.000    0.000 
#    0.000    0.000    0.000    0.000    0.000    0.000 
#
# Total GULP energy -694278.024810 kJ/mol
# GULP energy per Si atom -12397.821872 kJ/mol
# Density = 2.181891 g / cm^3
# Si number density = 21.868685 Si / 1000 Ang^3
#
#
#
# Elastic Constant Matrix: (Units=GPa)
#
#
# Indices 1 2 3 4 5 6 
#
# 1 13.1380 3.1566 -8.0411 0.0000 0.0000 0.0000
# 2 3.1566 113.4858 53.6323 0.0000 0.0000 0.0000
# 3 -8.0411 53.6323 96.1383 0.0000 0.0000 0.0000
# 4 0.0000 0.0000 0.0000 42.4916 0.0000 0.0000
# 5 0.0000 0.0000 0.0000 0.0000 21.8369 0.0000
# 6 0.0000 0.0000 0.0000 0.0000 0.0000 24.6911
#
#
#
# Elastic Compliance Matrix: (Units=1/GPa)
#
#
# Indices 1 2 3 4 5 6 
#
# 1 0.084987 -0.007772 0.011444 0.000000 0.000000 0.000000
# 2 -0.007772 0.012677 -0.007722 0.000000 0.000000 0.000000
# 3 0.011444 -0.007722 0.015667 0.000000 0.000000 0.000000
# 4 0.000000 0.000000 0.000000 0.023534 0.000000 0.000000
# 5 0.000000 0.000000 0.000000 0.000000 0.045794 0.000000
# 6 0.000000 0.000000 0.000000 0.000000 0.000000 0.040500
#
#
# Mechanical properties :
#
#
# Convention : Reuss Voigt Hill
#
# Bulk Modulus (GPa) = 9.50292 35.58419 22.54356
# Shear Modulus (GPa) = 18.77313 29.40485 24.08899
#
# Velocity S-wave (km/s) = 2.93311 3.67087 3.32253
# Velocity P-wave (km/s) = 3.97815 5.85441 5.00499
#
# Compressibility (1/GPa) = 0.10523080
#
# Stress axis : x y z
#
# Youngs Moduli (GPa) = 11.76646 78.88059 63.82861
#
# Poissons Ratio (x) = 0.61309 -0.73048
# Poissons Ratio (y) = 0.09145 0.49291
# Poissons Ratio (z) = -0.13466 0.60915
#
# Static dielectric constant tensor:
#      x y z
#    x 3.867130 0.000000 0.000000 
#    y 0.000000 3.708620 0.000000 
#    z 0.000000 0.000000 4.112170 
# 
# 
# High freq. dielectric constant tensor:
#      x y z
#    x 1.863980 0.000000 0.000000 
#    y 0.000000 1.836620 0.000000 
#    z 0.000000 0.000000 1.869660 
# 
# From -- ./inp_files/30398.got.cif
#   From: 2010.03.12/outbox.cif.g09.slc.cpg/sg59_16_cif.got.tgz:30398.got - 2010.04.16 16:29:54.
