data_PCOD8245657
_publ_section_title
;
Structure prediction by ZEFSAII (Michael W. Deem and Ramdas Pophale) SiO2 
 PCOD8245657
Probable space group: P M M N
;
_chemical_formula_sum "Si O2"
_cell_formula_units_Z 64
_cell_length_a 8.516288
_cell_length_b 18.598107
_cell_length_c 19.883035
_cell_angle_alpha 90.000000
_cell_angle_beta 90.000000
_cell_angle_gamma 90.000000
_cell_volume 3149.210993
_symmetry_space_group_name_H-M "P M M N"
_symmetry_group_IT_number 59
_space_group.IT_coordinate_system_code '2'
_symmetry_cell_setting 'orthorhombic'
loop_
_space_group_symop_operation_xyz
x,y,z
1/2-x,1/2-y,z
1/2+x,-y,-z
-x,1/2+y,-z
-x,-y,-z
1/2+x,1/2+y,-z
1/2-x,y,z
x,1/2-y,z
loop_
_atom_site_type_symbol
_atom_site_label
_atom_site_fract_x
_atom_site_fract_y
_atom_site_fract_z
Si Si1 0.433113 0.076196 0.021522
Si Si2 0.064408 0.667288 0.470928
Si Si3 0.568101 0.667879 0.715996
Si Si4 0.432354 0.913171 0.835491
Si Si5 0.435026 0.425611 0.642261
Si Si6 0.933351 0.420823 0.403099
Si Si7 0.431561 0.939322 0.212313
Si Si8 0.930966 0.167264 0.905747
O O1 0.250000 0.067928 0.036843
O O2 0.521028 0.102336 0.088087
O O3 0.460421 0.134350 0.963566
O O4 0.500000 0.000000 0.000000
O O5 0.250000 0.657284 0.462674
O O6 0.020787 0.750000 0.484899
O O7 0.993139 0.619935 0.532456
O O8 0.979781 0.642620 0.402806
O O9 0.750000 0.656986 0.699629
O O10 0.516410 0.750000 0.708438
O O11 0.532185 0.641967 0.791035
O O12 0.467598 0.621260 0.664902
O O13 0.250000 0.897142 0.825060
O O14 0.465847 0.994882 0.814486
O O15 0.250000 0.429472 0.655038
O O16 0.497239 0.497833 0.604507
O O17 0.520917 0.416805 0.713024
O O18 0.750000 0.422495 0.414493
O O19 0.250000 0.962611 0.210794
O O20 0.464617 0.871289 0.164940
O O21 0.750000 0.157459 0.927169
O O22 0.976746 0.250000 0.896151
#
# Coordination Sequence:
#
# PCOD8245657 Si02
#       8
#     8   8   8   8   8   8   8   8
#     4  12  24  40  65  94 126 165 208 258 312 368
#     4  10  22  40  61  86 120 165 212 257 312 375
#     4  11  24  40  61  92 127 163 204 251 306 368
#     4  12  24  40  64  92 124 164 208 255 306 367
#     4  11  23  38  61  93 125 160 207 261 314 371
#     4  10  21  39  63  90 122 162 207 255 310 375
#     4  11  22  39  65  93 126 166 207 257 310 369
#     4  10  23  43  66  94 128 167 212 261 315 375
#
# _framework density 20.32255
#
# number of rings (size 3 to 8) (size 9 to 14) (size 15 to 20)
#    0.000    1.125    2.500    4.125    0.000    4.500 
#    0.000    1.250    0.000    0.000    0.000    0.000 
#    0.000    0.000    0.000    0.000    0.000    0.000 
#
# Total GULP energy -793999.985065 kJ/mol
# GULP energy per Si atom -12406.249767 kJ/mol
# Density = 2.027630 g / cm^3
# Si number density = 20.322550 Si / 1000 Ang^3
#
#
#
# Elastic Constant Matrix: (Units=GPa)
#
#
# Indices 1 2 3 4 5 6 
#
# 1 32.8636 24.7435 15.6343 0.0000 0.0000 0.0000
# 2 24.7435 92.7646 32.3126 0.0000 0.0000 0.0000
# 3 15.6343 32.3126 126.0775 0.0000 0.0000 0.0000
# 4 0.0000 0.0000 0.0000 36.0410 0.0000 0.0000
# 5 0.0000 0.0000 0.0000 0.0000 32.8419 0.0000
# 6 0.0000 0.0000 0.0000 0.0000 0.0000 28.5597
#
#
#
# Elastic Compliance Matrix: (Units=1/GPa)
#
#
# Indices 1 2 3 4 5 6 
#
# 1 0.038707 -0.009501 -0.002365 0.000000 0.000000 0.000000
# 2 -0.009501 0.014169 -0.002453 0.000000 0.000000 0.000000
# 3 -0.002365 -0.002453 0.008854 0.000000 0.000000 0.000000
# 4 0.000000 0.000000 0.000000 0.027746 0.000000 0.000000
# 5 0.000000 0.000000 0.000000 0.000000 0.030449 0.000000
# 6 0.000000 0.000000 0.000000 0.000000 0.000000 0.035014
#
#
# Mechanical properties :
#
#
# Convention : Reuss Voigt Hill
#
# Bulk Modulus (GPa) = 30.21904 44.12070 37.16987
# Shear Modulus (GPa) = 25.69281 31.42289 28.55785
#
# Velocity S-wave (km/s) = 3.55949 3.93645 3.75271
# Velocity P-wave (km/s) = 5.63873 6.51293 6.09153
#
# Compressibility (1/GPa) = 0.03309172
#
# Stress axis : x y z
#
# Youngs Moduli (GPa) = 25.83506 70.57837 112.94819
#
# Poissons Ratio (x) = 0.67055 0.26712
# Poissons Ratio (y) = 0.24545 0.27708
# Poissons Ratio (z) = 0.06110 0.17314
#
# Static dielectric constant tensor:
#      x y z
#    x 3.677200 0.000000 0.000000 
#    y 0.000000 3.730640 0.000000 
#    z 0.000000 0.000000 3.894010 
# 
# 
# High freq. dielectric constant tensor:
#      x y z
#    x 1.792350 0.000000 0.000000 
#    y 0.000000 1.795610 0.000000 
#    z 0.000000 0.000000 1.807330 
# 
# From -- ./inp_files/29607.got.cif
#   From: 2010.03.12/outbox.cif.g09.slc.cpg/sg59_15_cif.got.tgz:29607.got - 2010.04.16 16:29:54.
