data_PCOD8245569
_publ_section_title
;
Structure prediction by ZEFSAII (Michael W. Deem and Ramdas Pophale) SiO2 
 PCOD8245569
Probable space group: P M M N
;
_chemical_formula_sum "Si O2"
_cell_formula_units_Z 40
_cell_length_a 22.701473
_cell_length_b 8.790086
_cell_length_c 10.140545
_cell_angle_alpha 90.000000
_cell_angle_beta 90.000000
_cell_angle_gamma 90.000000
_cell_volume 2023.524460
_symmetry_space_group_name_H-M "P M M N"
_symmetry_group_IT_number 59
_space_group.IT_coordinate_system_code '2'
_symmetry_cell_setting 'orthorhombic'
loop_
_space_group_symop_operation_xyz
x,y,z
1/2-x,1/2-y,z
1/2+x,-y,-z
-x,1/2+y,-z
-x,-y,-z
1/2+x,1/2+y,-z
1/2-x,y,z
x,1/2-y,z
loop_
_atom_site_type_symbol
_atom_site_label
_atom_site_fract_x
_atom_site_fract_y
_atom_site_fract_z
Si Si1 0.634066 0.071903 0.765183
Si Si2 0.682514 0.575707 0.014255
Si Si3 0.390449 0.570588 0.760476
Si Si4 0.816319 0.430558 0.486378
Si Si5 0.004142 0.927932 0.143616
O O1 0.647104 0.250000 0.784518
O O2 0.651435 0.016439 0.619407
O O3 0.566022 0.032459 0.789089
O O4 0.674896 0.977996 0.864452
O O5 0.750000 0.556305 0.056702
O O6 0.661957 0.750000 0.028817
O O7 0.642686 0.469060 0.104724
O O8 0.398661 0.750000 0.751923
O O9 0.353442 0.505366 0.637111
O O10 0.454567 0.494564 0.759555
O O11 0.750000 0.497366 0.480968
O O12 0.813843 0.250000 0.478249
O O13 0.994707 0.750000 0.127181
O O14 0.000000 0.000000 0.000000
#
# Coordination Sequence:
#
# PCOD8245569 Si02
#       5
#     8   8   8   8   8
#     4  10  21  38  62  87 113 153 200 244 295 351
#     4  11  23  37  56  85 118 152 195 247 298 349
#     4  11  22  37  60  87 116 157 199 240 293 351
#     4   9  19  37  60  87 118 151 195 248 294 347
#     4  11  22  37  59  88 121 155 197 248 297 350
#
# _framework density 19.767491
#
# number of rings (size 3 to 8) (size 9 to 14) (size 15 to 20)
#    0.000    1.600    2.000    3.000    0.000    4.800 
#    0.000    2.000    0.000    4.800    0.000    0.000 
#    0.000    0.000    0.000    0.000    0.000    0.000 
#
# Total GULP energy -496196.324163 kJ/mol
# GULP energy per Si atom -12404.908104 kJ/mol
# Density = 1.972250 g / cm^3
# Si number density = 19.767491 Si / 1000 Ang^3
#
#
#
# Elastic Constant Matrix: (Units=GPa)
#
#
# Indices 1 2 3 4 5 6 
#
# 1 126.3897 36.6963 50.1639 0.0000 0.0000 0.0000
# 2 36.6963 58.8924 20.8131 0.0000 0.0000 0.0000
# 3 50.1639 20.8131 122.6661 0.0000 0.0000 0.0000
# 4 0.0000 0.0000 0.0000 18.1075 0.0000 0.0000
# 5 0.0000 0.0000 0.0000 0.0000 42.8828 0.0000
# 6 0.0000 0.0000 0.0000 0.0000 0.0000 29.0954
#
#
#
# Elastic Compliance Matrix: (Units=1/GPa)
#
#
# Indices 1 2 3 4 5 6 
#
# 1 0.010926 -0.005562 -0.003524 0.000000 0.000000 0.000000
# 2 -0.005562 0.020895 -0.001271 0.000000 0.000000 0.000000
# 3 -0.003524 -0.001271 0.009809 0.000000 0.000000 0.000000
# 4 0.000000 0.000000 0.000000 0.055226 0.000000 0.000000
# 5 0.000000 0.000000 0.000000 0.000000 0.023319 0.000000
# 6 0.000000 0.000000 0.000000 0.000000 0.000000 0.034370
#
#
# Mechanical properties :
#
#
# Convention : Reuss Voigt Hill
#
# Bulk Modulus (GPa) = 47.81172 58.14387 52.97780
# Shear Modulus (GPa) = 27.43763 31.36878 29.40321
#
# Velocity S-wave (km/s) = 3.72965 3.98790 3.86093
# Velocity P-wave (km/s) = 6.54115 7.11914 6.83626
#
# Compressibility (1/GPa) = 0.02091537
#
# Stress axis : x y z
#
# Youngs Moduli (GPa) = 91.52608 47.85794 101.94669
#
# Poissons Ratio (x) = 0.26621 0.35929
# Poissons Ratio (y) = 0.50911 0.12953
# Poissons Ratio (z) = 0.32256 0.06081
#
# Static dielectric constant tensor:
#      x y z
#    x 3.969910 0.000000 0.000000 
#    y 0.000000 3.426220 0.000000 
#    z 0.000000 0.000000 3.690950 
# 
# 
# High freq. dielectric constant tensor:
#      x y z
#    x 1.788010 0.000000 0.000000 
#    y 0.000000 1.754480 0.000000 
#    z 0.000000 0.000000 1.772040 
# 
# From -- ./inp_files/5631.got.cif
#   From: 2010.03.12/outbox.cif.g09.slc.cpg/sg59_3_cif.got.tgz:5631.got - 2010.04.16 16:29:54.
