data_PCOD8245813
_publ_section_title
;
Structure prediction by ZEFSAII (Michael W. Deem and Ramdas Pophale) SiO2 
 PCOD8245813
Probable space group: P M M N
;
_chemical_formula_sum "Si O2"
_cell_formula_units_Z 48
_cell_length_a 15.524836
_cell_length_b 8.992609
_cell_length_c 17.301106
_cell_angle_alpha 90.000000
_cell_angle_beta 90.000000
_cell_angle_gamma 90.000000
_cell_volume 2415.386300
_symmetry_space_group_name_H-M "P M M N"
_symmetry_group_IT_number 59
_space_group.IT_coordinate_system_code '2'
_symmetry_cell_setting 'orthorhombic'
loop_
_space_group_symop_operation_xyz
x,y,z
1/2-x,1/2-y,z
1/2+x,-y,-z
-x,1/2+y,-z
-x,-y,-z
1/2+x,1/2+y,-z
1/2-x,y,z
x,1/2-y,z
loop_
_atom_site_type_symbol
_atom_site_label
_atom_site_fract_x
_atom_site_fract_y
_atom_site_fract_z
Si Si1 0.090549 0.924932 0.002194
Si Si2 0.148584 0.076630 0.317972
Si Si3 0.848802 0.911126 0.142922
Si Si4 0.347138 0.073309 0.689084
Si Si5 0.150301 0.913209 0.167127
Si Si6 0.504170 0.072396 0.583148
O O1 0.083516 0.750000 0.999692
O O2 0.134342 0.979218 0.081715
O O3 0.142402 0.974929 0.927040
O O4 0.000000 0.000000 0.000000
O O5 0.250000 0.043660 0.332167
O O6 0.128664 0.250000 0.327672
O O7 0.117559 0.027208 0.232153
O O8 0.092547 0.983369 0.378214
O O9 0.750000 0.880338 0.157893
O O10 0.893068 0.750000 0.123566
O O11 0.881792 0.976465 0.225291
O O12 0.250000 0.010663 0.670306
O O13 0.343277 0.250000 0.687082
O O14 0.418491 0.015785 0.628419
O O15 0.250000 0.890429 0.178666
O O16 0.105401 0.750000 0.176803
O O17 0.506733 0.250000 0.577620
O O18 0.500000 0.000000 0.500000
#
# Coordination Sequence:
#
# PCOD8245813 Si02
#       6
#     8   8   8   8   8   8
#     4  11  23  35  50  78 115 153 193 237 286 337
#     4  10  22  40  62  88 119 155 197 246 299 352
#     4   9  18  35  58  81 107 143 188 236 287 344
#     4   8  17  36  61  86 113 150 193 235 286 350
#     4   9  19  37  58  78 106 148 194 238 287 344
#     4  11  23  39  62  91 122 156 194 239 294 356
#
# _framework density 19.872596999999999
#
# number of rings (size 3 to 8) (size 9 to 14) (size 15 to 20)
#    0.000    2.333    0.000    3.000    2.333    4.000 
#    0.000    4.167    0.000    3.500    0.000    0.000 
#    0.000    0.000    0.000    0.000    0.000    0.000 
#
# Total GULP energy -594826.665812 kJ/mol
# GULP energy per Si atom -12392.222204 kJ/mol
# Density = 1.982737 g / cm^3
# Si number density = 19.872597 Si / 1000 Ang^3
#
#
#
# Elastic Constant Matrix: (Units=GPa)
#
#
# Indices 1 2 3 4 5 6 
#
# 1 76.4120 38.2070 58.9296 0.0000 0.0000 0.0000
# 2 38.2070 80.9569 62.1733 0.0000 0.0000 0.0000
# 3 58.9296 62.1733 181.0354 0.0000 0.0000 0.0000
# 4 0.0000 0.0000 0.0000 35.3727 0.0000 0.0000
# 5 0.0000 0.0000 0.0000 0.0000 35.5924 0.0000
# 6 0.0000 0.0000 0.0000 0.0000 0.0000 24.6777
#
#
#
# Elastic Compliance Matrix: (Units=1/GPa)
#
#
# Indices 1 2 3 4 5 6 
#
# 1 0.019300 -0.005818 -0.004284 0.000000 0.000000 0.000000
# 2 -0.005818 0.018531 -0.004470 0.000000 0.000000 0.000000
# 3 -0.004284 -0.004470 0.008454 0.000000 0.000000 0.000000
# 4 0.000000 0.000000 0.000000 0.028270 0.000000 0.000000
# 5 0.000000 0.000000 0.000000 0.000000 0.028096 0.000000
# 6 0.000000 0.000000 0.000000 0.000000 0.000000 0.040522
#
#
# Mechanical properties :
#
#
# Convention : Reuss Voigt Hill
#
# Bulk Modulus (GPa) = 58.34542 73.00269 65.67406
# Shear Modulus (GPa) = 28.08470 31.06818 29.57644
#
# Velocity S-wave (km/s) = 3.76338 3.95823 3.86204
# Velocity P-wave (km/s) = 6.95036 7.59640 7.28055
#
# Compressibility (1/GPa) = 0.01713930
#
# Stress axis : x y z
#
# Youngs Moduli (GPa) = 51.81266 53.96284 118.29250
#
# Poissons Ratio (x) = 0.31398 0.50680
# Poissons Ratio (y) = 0.30146 0.52880
# Poissons Ratio (z) = 0.22198 0.24123
#
# Static dielectric constant tensor:
#      x y z
#    x 3.698480 0.000000 0.000000 
#    y 0.000000 3.394100 0.000000 
#    z 0.000000 0.000000 3.307210 
# 
# 
# High freq. dielectric constant tensor:
#      x y z
#    x 1.775600 0.000000 0.000000 
#    y 0.000000 1.755890 0.000000 
#    z 0.000000 0.000000 1.783620 
# 
# From -- ./inp_files/27386.got.cif
#   From: 2010.03.12/outbox.cif.g09.slc.cpg/sg59_14_cif.got.tgz:27386.got - 2010.04.16 16:29:54.
