data_PCOD8245304
_publ_section_title
;
Structure prediction by ZEFSAII (Michael W. Deem and Ramdas Pophale) SiO2 
 PCOD8245304
Probable space group: P M M N
;
_chemical_formula_sum "Si O2"
_cell_formula_units_Z 40
_cell_length_a 9.026639
_cell_length_b 8.668386
_cell_length_c 25.502603
_cell_angle_alpha 90.000000
_cell_angle_beta 90.000000
_cell_angle_gamma 90.000000
_cell_volume 1995.486649
_symmetry_space_group_name_H-M "P M M N"
_symmetry_group_IT_number 59
_space_group.IT_coordinate_system_code '2'
_symmetry_cell_setting 'orthorhombic'
loop_
_space_group_symop_operation_xyz
x,y,z
1/2-x,1/2-y,z
1/2+x,-y,-z
-x,1/2+y,-z
-x,-y,-z
1/2+x,1/2+y,-z
1/2-x,y,z
x,1/2-y,z
loop_
_atom_site_type_symbol
_atom_site_label
_atom_site_fract_x
_atom_site_fract_y
_atom_site_fract_z
Si Si1 0.422444 0.070626 0.841119
Si Si2 0.076303 0.574283 0.950396
Si Si3 0.921450 0.929290 0.353103
Si Si4 0.083106 0.068714 0.450723
Si Si5 0.077406 0.428962 0.255707
O O1 0.250000 0.033767 0.831346
O O2 0.457205 0.250000 0.832799
O O3 0.470617 0.022190 0.899340
O O4 0.519415 0.969701 0.801765
O O5 0.250000 0.564834 0.959717
O O6 0.023146 0.750000 0.943220
O O7 0.000000 0.500000 0.000000
O O8 0.750000 0.975683 0.352319
O O9 0.942888 0.750000 0.365702
O O10 0.001927 0.027603 0.397236
O O11 0.990299 0.966798 0.296988
O O12 0.250000 0.002744 0.448988
O O13 0.085353 0.250000 0.457366
O O14 0.000000 0.000000 0.500000
O O15 0.250000 0.468593 0.259518
O O16 0.047441 0.250000 0.267638
#
# Coordination Sequence:
#
# PCOD8245304 Si02
#       5
#     8   8   8   8   8
#     4  10  21  38  60  85 113 148 191 237 286 342
#     4  10  21  37  58  84 114 150 191 235 286 342
#     4  11  24  41  62  89 119 153 195 240 288 344
#     4  11  24  41  62  90 122 156 197 242 288 342
#     4  11  24  40  59  86 118 152 192 237 286 342
#
# _framework density 20.045234000000001
#
# number of rings (size 3 to 8) (size 9 to 14) (size 15 to 20)
#    0.000    1.400    0.000    4.800    0.000   15.200 
#    0.000    0.000    0.000    0.000    0.000    0.000 
#    0.000    0.000    0.000    0.000    0.000    0.000 
#
# Total GULP energy -496277.757977 kJ/mol
# GULP energy per Si atom -12406.943949 kJ/mol
# Density = 1.999961 g / cm^3
# Si number density = 20.045234 Si / 1000 Ang^3
#
#
#
# Elastic Constant Matrix: (Units=GPa)
#
#
# Indices 1 2 3 4 5 6 
#
# 1 118.8315 46.6678 58.2561 0.0000 0.0000 0.0000
# 2 46.6678 66.0909 22.1831 0.0000 0.0000 0.0000
# 3 58.2561 22.1831 122.6416 0.0000 0.0000 0.0000
# 4 0.0000 0.0000 0.0000 44.5950 0.0000 0.0000
# 5 0.0000 0.0000 0.0000 0.0000 44.5554 0.0000
# 6 0.0000 0.0000 0.0000 0.0000 0.0000 31.7144
#
#
#
# Elastic Compliance Matrix: (Units=1/GPa)
#
#
# Indices 1 2 3 4 5 6 
#
# 1 0.014259 -0.008299 -0.005272 0.000000 0.000000 0.000000
# 2 -0.008299 0.020939 0.000155 0.000000 0.000000 0.000000
# 3 -0.005272 0.000155 0.010630 0.000000 0.000000 0.000000
# 4 0.000000 0.000000 0.000000 0.022424 0.000000 0.000000
# 5 0.000000 0.000000 0.000000 0.000000 0.022444 0.000000
# 6 0.000000 0.000000 0.000000 0.000000 0.000000 0.031531
#
#
# Mechanical properties :
#
#
# Convention : Reuss Voigt Hill
#
# Bulk Modulus (GPa) = 52.64455 62.41978 57.53217
# Shear Modulus (GPa) = 32.17669 36.20343 34.19006
#
# Velocity S-wave (km/s) = 4.01085 4.25442 4.13443
# Velocity P-wave (km/s) = 6.91152 7.43912 7.18017
#
# Compressibility (1/GPa) = 0.01899532
#
# Stress axis : x y z
#
# Youngs Moduli (GPa) = 70.13062 47.75824 94.07188
#
# Poissons Ratio (x) = 0.39635 0.49596
# Poissons Ratio (y) = 0.58202 -0.01456
# Poissons Ratio (z) = 0.36974 -0.00739
#
# Static dielectric constant tensor:
#      x y z
#    x 3.878140 0.000000 0.000000 
#    y 0.000000 3.739350 0.000000 
#    z 0.000000 0.000000 4.340550 
# 
# 
# High freq. dielectric constant tensor:
#      x y z
#    x 1.788080 0.000000 0.000000 
#    y 0.000000 1.795480 0.000000 
#    z 0.000000 0.000000 1.798450 
# 
# From -- ./inp_files/31121.got.cif
#   From: 2010.03.12/outbox.cif.g09.slc.cpg/sg59_16_cif.got.tgz:31121.got - 2010.04.16 16:29:54.
