data_PCOD8245548
_publ_section_title
;
Structure prediction by ZEFSAII (Michael W. Deem and Ramdas Pophale) SiO2 
 PCOD8245548
Probable space group: P M M N
;
_chemical_formula_sum "Si O2"
_cell_formula_units_Z 48
_cell_length_a 18.999414
_cell_length_b 8.477489
_cell_length_c 14.890489
_cell_angle_alpha 90.000000
_cell_angle_beta 90.000000
_cell_angle_gamma 90.000000
_cell_volume 2398.371204
_symmetry_space_group_name_H-M "P M M N"
_symmetry_group_IT_number 59
_space_group.IT_coordinate_system_code '2'
_symmetry_cell_setting 'orthorhombic'
loop_
_space_group_symop_operation_xyz
x,y,z
1/2-x,1/2-y,z
1/2+x,-y,-z
-x,1/2+y,-z
-x,-y,-z
1/2+x,1/2+y,-z
1/2-x,y,z
x,1/2-y,z
loop_
_atom_site_type_symbol
_atom_site_label
_atom_site_fract_x
_atom_site_fract_y
_atom_site_fract_z
Si Si1 0.831201 0.432100 0.098867
Si Si2 0.668682 0.432354 0.428689
Si Si3 0.670139 0.931943 0.616567
Si Si4 0.430906 0.566574 0.237893
Si Si5 0.591414 0.932453 0.264951
Si Si6 0.069993 0.066331 0.044510
O O1 0.750000 0.478583 0.105904
O O2 0.841851 0.250000 0.072856
O O3 0.866000 0.461800 0.195077
O O4 0.865390 0.540876 0.022807
O O5 0.750000 0.480091 0.414487
O O6 0.655834 0.250000 0.406714
O O7 0.645713 0.466483 0.530782
O O8 0.620815 0.537632 0.364100
O O9 0.750000 0.975803 0.643609
O O10 0.663721 0.750000 0.589822
O O11 0.621098 0.967459 0.700491
O O12 0.417531 0.750000 0.255023
O O13 0.510177 0.516980 0.261973
O O14 0.413790 0.526287 0.135372
O O15 0.599979 0.750000 0.238391
O O16 0.060243 0.250000 0.065217
O O17 0.000000 0.000000 0.000000
#
# Coordination Sequence:
#
# PCOD8245548 Si02
#       6
#     8   8   8   8   8   8
#     4  11  24  41  63  92 125 162 205 253 305 364
#     4  10  21  38  61  88 121 162 204 250 306 365
#     4  10  22  41  64  90 120 157 204 256 308 364
#     4  11  24  41  63  91 122 161 204 249 305 366
#     4  11  23  38  60  90 124 162 203 250 304 365
#     4  12  24  41  65  90 121 162 204 251 306 364
#
# _framework density 20.013583000000001
#
# number of rings (size 3 to 8) (size 9 to 14) (size 15 to 20)
#    0.000    1.167    1.667    4.500    0.000    8.667 
#    0.000    0.000    0.000    0.000    0.000    0.000 
#    0.000    0.000    0.000    0.000    0.000    0.000 
#
# Total GULP energy -595593.175342 kJ/mol
# GULP energy per Si atom -12408.191153 kJ/mol
# Density = 1.996803 g / cm^3
# Si number density = 20.013583 Si / 1000 Ang^3
#
#
#
# Elastic Constant Matrix: (Units=GPa)
#
#
# Indices 1 2 3 4 5 6 
#
# 1 114.7322 31.3067 56.7617 0.0000 0.0000 0.0000
# 2 31.3067 57.7136 8.4323 0.0000 0.0000 0.0000
# 3 56.7617 8.4323 118.9855 0.0000 0.0000 0.0000
# 4 0.0000 0.0000 0.0000 39.7300 0.0000 0.0000
# 5 0.0000 0.0000 0.0000 0.0000 37.6807 0.0000
# 6 0.0000 0.0000 0.0000 0.0000 0.0000 31.7131
#
#
#
# Elastic Compliance Matrix: (Units=1/GPa)
#
#
# Indices 1 2 3 4 5 6 
#
# 1 0.013401 -0.006402 -0.005939 0.000000 0.000000 0.000000
# 2 -0.006402 0.020566 0.001596 0.000000 0.000000 0.000000
# 3 -0.005939 0.001596 0.011125 0.000000 0.000000 0.000000
# 4 0.000000 0.000000 0.000000 0.025170 0.000000 0.000000
# 5 0.000000 0.000000 0.000000 0.000000 0.026539 0.000000
# 6 0.000000 0.000000 0.000000 0.000000 0.000000 0.031533
#
#
# Mechanical properties :
#
#
# Convention : Reuss Voigt Hill
#
# Bulk Modulus (GPa) = 42.36780 53.82588 48.09684
# Shear Modulus (GPa) = 31.70779 34.82014 33.26396
#
# Velocity S-wave (km/s) = 3.98466 4.17565 4.08127
# Velocity P-wave (km/s) = 6.51042 7.08527 6.80392
#
# Compressibility (1/GPa) = 0.02360283
#
# Stress axis : x y z
#
# Youngs Moduli (GPa) = 74.62070 48.62334 89.89115
#
# Poissons Ratio (x) = 0.31127 0.53389
# Poissons Ratio (y) = 0.47770 -0.14350
# Poissons Ratio (z) = 0.44319 -0.07762
#
# Static dielectric constant tensor:
#      x y z
#    x 3.704520 0.000000 0.000000 
#    y 0.000000 3.722650 0.000000 
#    z 0.000000 0.000000 3.605170 
# 
# 
# High freq. dielectric constant tensor:
#      x y z
#    x 1.782350 0.000000 0.000000 
#    y 0.000000 1.792520 0.000000 
#    z 0.000000 0.000000 1.788670 
# 
# From -- ./inp_files/20347.got.cif
#   From: 2010.03.12/outbox.cif.g09.slc.cpg/sg59_11_cif.got.tgz:20347.got - 2010.04.16 16:29:54.
