data_PCOD8245593
_publ_section_title
;
Structure prediction by ZEFSAII (Michael W. Deem and Ramdas Pophale) SiO2 
 PCOD8245593
Probable space group: P M M N
;
_chemical_formula_sum "Si O2"
_cell_formula_units_Z 48
_cell_length_a 8.732457
_cell_length_b 18.874791
_cell_length_c 14.946260
_cell_angle_alpha 90.000000
_cell_angle_beta 90.000000
_cell_angle_gamma 90.000000
_cell_volume 2463.491908
_symmetry_space_group_name_H-M "P M M N"
_symmetry_group_IT_number 59
_space_group.IT_coordinate_system_code '2'
_symmetry_cell_setting 'orthorhombic'
loop_
_space_group_symop_operation_xyz
x,y,z
1/2-x,1/2-y,z
1/2+x,-y,-z
-x,1/2+y,-z
-x,-y,-z
1/2+x,1/2+y,-z
1/2-x,y,z
x,1/2-y,z
loop_
_atom_site_type_symbol
_atom_site_label
_atom_site_fract_x
_atom_site_fract_y
_atom_site_fract_z
Si Si1 0.425011 0.934499 0.725304
Si Si2 0.571252 0.421745 0.780159
Si Si3 0.427279 0.924806 0.521205
Si Si4 0.073599 0.333307 0.626489
Si Si5 0.570425 0.573848 0.030333
Si Si6 0.428206 0.668769 0.883253
O O1 0.250000 0.959397 0.740646
O O2 0.448540 0.906093 0.625250
O O3 0.469665 0.871019 0.791430
O O4 0.534365 0.000589 0.742975
O O5 0.750000 0.416232 0.799339
O O6 0.523463 0.363332 0.708435
O O7 0.482944 0.405138 0.871172
O O8 0.250000 0.926517 0.493066
O O9 0.513549 0.864198 0.466735
O O10 0.500000 0.000000 0.500000
O O11 0.250000 0.355218 0.639278
O O12 0.050621 0.250000 0.623410
O O13 0.750000 0.563907 0.029840
O O14 0.500000 0.500000 0.000000
O O15 0.524260 0.636584 0.964196
O O16 0.250000 0.660741 0.906596
O O17 0.476335 0.750000 0.870821
#
# Coordination Sequence:
#
# PCOD8245593 Si02
#       6
#     8   8   8   8   8   8
#     4  10  21  38  63  92 126 166 207 255 307 369
#     4  12  24  39  65  95 123 162 209 261 314 375
#     4  11  22  37  63  95 128 165 211 259 309 375
#     4  11  25  44  64  90 128 169 210 263 321 374
#     4  12  24  40  64  93 126 164 210 259 310 374
#     4  10  22  41  64  92 127 165 207 257 312 370
#
# _framework density 19.484537
#
# number of rings (size 3 to 8) (size 9 to 14) (size 15 to 20)
#    0.000    1.000    3.333    4.000    0.000    3.667 
#    0.000    1.667    0.000    0.000    0.000    0.000 
#    0.000    0.000    0.000    0.000    0.000    0.000 
#
# Total GULP energy -595529.562391 kJ/mol
# GULP energy per Si atom -12406.865883 kJ/mol
# Density = 1.944019 g / cm^3
# Si number density = 19.484537 Si / 1000 Ang^3
#
#
#
# Elastic Constant Matrix: (Units=GPa)
#
#
# Indices 1 2 3 4 5 6 
#
# 1 106.2025 53.2834 34.3638 0.0000 0.0000 0.0000
# 2 53.2834 117.0881 53.5321 0.0000 0.0000 0.0000
# 3 34.3638 53.5321 129.7483 0.0000 0.0000 0.0000
# 4 0.0000 0.0000 0.0000 36.1889 0.0000 0.0000
# 5 0.0000 0.0000 0.0000 0.0000 35.0715 0.0000
# 6 0.0000 0.0000 0.0000 0.0000 0.0000 27.2337
#
#
#
# Elastic Compliance Matrix: (Units=1/GPa)
#
#
# Indices 1 2 3 4 5 6 
#
# 1 0.012345 -0.005082 -0.001173 0.000000 0.000000 0.000000
# 2 -0.005082 0.012618 -0.003860 0.000000 0.000000 0.000000
# 3 -0.001173 -0.003860 0.009611 0.000000 0.000000 0.000000
# 4 0.000000 0.000000 0.000000 0.027633 0.000000 0.000000
# 5 0.000000 0.000000 0.000000 0.000000 0.028513 0.000000
# 6 0.000000 0.000000 0.000000 0.000000 0.000000 0.036719
#
#
# Mechanical properties :
#
#
# Convention : Reuss Voigt Hill
#
# Bulk Modulus (GPa) = 69.71512 70.59973 70.15742
# Shear Modulus (GPa) = 32.79782 33.82281 33.31031
#
# Velocity S-wave (km/s) = 4.10722 4.17091 4.13919
# Velocity P-wave (km/s) = 7.63870 7.71412 7.67650
#
# Compressibility (1/GPa) = 0.01434409
#
# Stress axis : x y z
#
# Youngs Moduli (GPa) = 81.00429 79.25269 104.05276
#
# Poissons Ratio (x) = 0.40273 0.12205
# Poissons Ratio (y) = 0.41163 0.40165
# Poissons Ratio (z) = 0.09502 0.30592
#
# Static dielectric constant tensor:
#      x y z
#    x 3.141920 0.000000 0.000000 
#    y 0.000000 3.540250 0.000000 
#    z 0.000000 0.000000 4.060000 
# 
# 
# High freq. dielectric constant tensor:
#      x y z
#    x 1.767850 0.000000 0.000000 
#    y 0.000000 1.754380 0.000000 
#    z 0.000000 0.000000 1.777310 
# 
# From -- ./inp_files/20346.got.cif
#   From: 2010.03.12/outbox.cif.g09.slc.cpg/sg59_11_cif.got.tgz:20346.got - 2010.04.16 16:29:54.
