data_PCOD8245642
_publ_section_title
;
Structure prediction by ZEFSAII (Michael W. Deem and Ramdas Pophale) SiO2 
 PCOD8245642
Probable space group: P M M N
;
_chemical_formula_sum "Si O2"
_cell_formula_units_Z 48
_cell_length_a 14.927159
_cell_length_b 8.569474
_cell_length_c 18.787080
_cell_angle_alpha 90.000000
_cell_angle_beta 90.000000
_cell_angle_gamma 90.000000
_cell_volume 2403.203838
_symmetry_space_group_name_H-M "P M M N"
_symmetry_group_IT_number 59
_space_group.IT_coordinate_system_code '2'
_symmetry_cell_setting 'orthorhombic'
loop_
_space_group_symop_operation_xyz
x,y,z
1/2-x,1/2-y,z
1/2+x,-y,-z
-x,1/2+y,-z
-x,-y,-z
1/2+x,1/2+y,-z
1/2-x,y,z
x,1/2-y,z
loop_
_atom_site_type_symbol
_atom_site_label
_atom_site_fract_x
_atom_site_fract_y
_atom_site_fract_z
Si Si1 0.514711 0.068960 0.831363
Si Si2 0.647469 0.431883 0.092013
Si Si3 0.146207 0.069554 0.595955
Si Si4 0.849002 0.564640 0.563526
Si Si5 0.352117 0.069624 0.057240
Si Si6 0.509499 0.932845 0.678652
O O1 0.532833 0.250000 0.843840
O O2 0.413343 0.026871 0.853045
O O3 0.584890 0.971013 0.877218
O O4 0.530091 0.027054 0.749706
O O5 0.750000 0.483602 0.104902
O O6 0.633437 0.250000 0.106187
O O7 0.618653 0.469454 0.011247
O O8 0.250000 0.045906 0.614582
O O9 0.118654 0.250000 0.604267
O O10 0.125794 0.008124 0.516010
O O11 0.090440 0.966073 0.651227
O O12 0.750000 0.501969 0.584382
O O13 0.847433 0.750000 0.562887
O O14 0.920828 0.501834 0.619921
O O15 0.250000 0.031443 0.079151
O O16 0.363956 0.250000 0.037170
O O17 0.521573 0.750000 0.693333
#
# Coordination Sequence:
#
# PCOD8245642 Si02
#       6
#     8   8   8   8   8   8
#     4  12  25  39  56  80 115 154 190 230 277 331
#     4  10  21  39  63  88 113 143 184 233 280 329
#     4   9  18  35  58  81 107 142 182 223 272 331
#     4   8  16  33  57  82 107 139 180 224 272 329
#     4  10  21  39  63  88 114 146 185 228 275 329
#     4  11  22  35  54  81 112 145 183 228 278 329
#
# _framework density 19.973337000000001
#
# number of rings (size 3 to 8) (size 9 to 14) (size 15 to 20)
#    0.000    2.000    0.000    5.000    0.000    3.667 
#    0.000    2.500    0.000    3.500    0.000    0.000 
#    0.000    0.000    0.000    0.000    0.000    0.000 
#
# Total GULP energy -595383.660956 kJ/mol
# GULP energy per Si atom -12403.826270 kJ/mol
# Density = 1.992788 g / cm^3
# Si number density = 19.973337 Si / 1000 Ang^3
#
#
#
# Elastic Constant Matrix: (Units=GPa)
#
#
# Indices 1 2 3 4 5 6 
#
# 1 60.8511 13.1638 10.2088 0.0000 0.0000 0.0000
# 2 13.1638 49.4408 4.5000 0.0000 0.0000 0.0000
# 3 10.2088 4.5000 54.0409 0.0000 0.0000 0.0000
# 4 0.0000 0.0000 0.0000 25.3401 0.0000 0.0000
# 5 0.0000 0.0000 0.0000 0.0000 19.2656 0.0000
# 6 0.0000 0.0000 0.0000 0.0000 0.0000 28.4961
#
#
#
# Elastic Compliance Matrix: (Units=1/GPa)
#
#
# Indices 1 2 3 4 5 6 
#
# 1 0.017911 -0.004495 -0.003009 0.000000 0.000000 0.000000
# 2 -0.004495 0.021509 -0.000942 0.000000 0.000000 0.000000
# 3 -0.003009 -0.000942 0.019151 0.000000 0.000000 0.000000
# 4 0.000000 0.000000 0.000000 0.039463 0.000000 0.000000
# 5 0.000000 0.000000 0.000000 0.000000 0.051906 0.000000
# 6 0.000000 0.000000 0.000000 0.000000 0.000000 0.035092
#
#
# Mechanical properties :
#
#
# Convention : Reuss Voigt Hill
#
# Bulk Modulus (GPa) = 23.99299 24.45311 24.22305
# Shear Modulus (GPa) = 23.16771 23.71770 23.44271
#
# Velocity S-wave (km/s) = 3.40947 3.44970 3.42965
# Velocity P-wave (km/s) = 5.24766 5.30441 5.27611
#
# Compressibility (1/GPa) = 0.04167883
#
# Stress axis : x y z
#
# Youngs Moduli (GPa) = 55.83230 46.49280 52.21544
#
# Poissons Ratio (x) = 0.20898 0.15713
# Poissons Ratio (y) = 0.25096 0.04918
# Poissons Ratio (z) = 0.16801 0.04379
#
# Static dielectric constant tensor:
#      x y z
#    x 3.809100 0.000000 0.000000 
#    y 0.000000 3.433140 0.000000 
#    z 0.000000 0.000000 3.586750 
# 
# 
# High freq. dielectric constant tensor:
#      x y z
#    x 1.788960 0.000000 0.000000 
#    y 0.000000 1.767720 0.000000 
#    z 0.000000 0.000000 1.775590 
# 
# From -- ./inp_files/25415.got.cif
#   From: 2010.03.12/outbox.cif.g09.slc.cpg/sg59_13_cif.got.tgz:25415.got - 2010.04.16 16:29:54.
