data_PCOD8245872
_publ_section_title
;
Structure prediction by ZEFSAII (Michael W. Deem and Ramdas Pophale) SiO2 
 PCOD8245872
Probable space group: P M M N
;
_chemical_formula_sum "Si O2"
_cell_formula_units_Z 48
_cell_length_a 19.894173
_cell_length_b 8.870801
_cell_length_c 13.353055
_cell_angle_alpha 90.000000
_cell_angle_beta 90.000000
_cell_angle_gamma 90.000000
_cell_volume 2356.510422
_symmetry_space_group_name_H-M "P M M N"
_symmetry_group_IT_number 59
_space_group.IT_coordinate_system_code '2'
_symmetry_cell_setting 'orthorhombic'
loop_
_space_group_symop_operation_xyz
x,y,z
1/2-x,1/2-y,z
1/2+x,-y,-z
-x,1/2+y,-z
-x,-y,-z
1/2+x,1/2+y,-z
1/2-x,y,z
x,1/2-y,z
loop_
_atom_site_type_symbol
_atom_site_label
_atom_site_fract_x
_atom_site_fract_y
_atom_site_fract_z
Si Si1 0.173290 0.078575 0.099293
Si Si2 0.250000 0.927914 0.455832
Si Si3 0.932365 0.074110 0.038217
Si Si4 0.005957 0.924638 0.392978
Si Si5 0.250000 0.075075 0.667618
Si Si6 0.637466 0.927044 0.676059
Si Si7 0.109135 0.078270 0.761496
O O1 0.250000 0.058291 0.065345
O O2 0.149008 0.250000 0.081837
O O3 0.167304 0.035845 0.215519
O O4 0.129182 0.968326 0.033040
O O5 0.250000 0.750000 0.441226
O O6 0.250000 0.967774 0.572200
O O7 0.183226 0.995957 0.407317
O O8 0.943593 0.250000 0.033845
O O9 0.917006 0.028843 0.151518
O O10 0.000000 0.000000 0.000000
O O11 0.024609 0.750000 0.405791
O O12 0.935386 0.946491 0.337220
O O13 0.000000 0.000000 0.500000
O O14 0.062931 0.006201 0.328099
O O15 0.250000 0.250000 0.633309
O O16 0.185489 0.036953 0.735022
O O17 0.635802 0.750000 0.653883
O O18 0.103704 0.250000 0.799700
#
# Coordination Sequence:
#
# PCOD8245872 Si02
#       7
#     8   4   8   8   4   8   8
#     4  10  22  42  67  95 127 167 211 259 318 382
#     4  12  24  38  61  94 131 168 209 264 322 378
#     4  12  26  43  66  95 129 168 211 263 318 377
#     4  11  23  39  62  94 129 169 215 266 320 377
#     4  10  22  42  67  92 125 170 213 256 312 382
#     4  11  22  40  64  91 125 167 214 262 316 379
#     4  10  23  43  66  94 127 169 215 260 315 377
#
# _framework density 20.369101000000001
#
# number of rings (size 3 to 8) (size 9 to 14) (size 15 to 20)
#    0.000    1.167    0.833    5.250    1.167    7.667 
#    0.000    0.000    0.000    0.000    0.000    0.000 
#    0.000    0.000    0.000    0.000    0.000    0.000 
#
# Total GULP energy -595566.952943 kJ/mol
# GULP energy per Si atom -12407.644853 kJ/mol
# Density = 2.032274 g / cm^3
# Si number density = 20.369101 Si / 1000 Ang^3
#
#
#
# Elastic Constant Matrix: (Units=GPa)
#
#
# Indices 1 2 3 4 5 6 
#
# 1 131.0284 51.7919 50.4339 0.0000 0.0000 0.0000
# 2 51.7919 139.9729 69.2333 0.0000 0.0000 0.0000
# 3 50.4339 69.2333 111.5189 0.0000 0.0000 0.0000
# 4 0.0000 0.0000 0.0000 37.4595 0.0000 0.0000
# 5 0.0000 0.0000 0.0000 0.0000 33.5414 0.0000
# 6 0.0000 0.0000 0.0000 0.0000 0.0000 34.0449
#
#
#
# Elastic Compliance Matrix: (Units=1/GPa)
#
#
# Indices 1 2 3 4 5 6 
#
# 1 0.009625 -0.002033 -0.003091 0.000000 0.000000 0.000000
# 2 -0.002033 0.010739 -0.005748 0.000000 0.000000 0.000000
# 3 -0.003091 -0.005748 0.013934 0.000000 0.000000 0.000000
# 4 0.000000 0.000000 0.000000 0.026695 0.000000 0.000000
# 5 0.000000 0.000000 0.000000 0.000000 0.029814 0.000000
# 6 0.000000 0.000000 0.000000 0.000000 0.000000 0.029373
#
#
# Mechanical properties :
#
#
# Convention : Reuss Voigt Hill
#
# Bulk Modulus (GPa) = 79.65118 80.60426 80.12772
# Shear Modulus (GPa) = 34.22114 35.07992 34.65053
#
# Velocity S-wave (km/s) = 4.10329 4.15446 4.12895
# Velocity P-wave (km/s) = 7.85100 7.91647 7.88380
#
# Compressibility (1/GPa) = 0.01255474
#
# Stress axis : x y z
#
# Youngs Moduli (GPa) = 103.89490 93.11515 71.76936
#
# Poissons Ratio (x) = 0.18926 0.22185
# Poissons Ratio (y) = 0.21117 0.41253
# Poissons Ratio (z) = 0.32115 0.53523
#
# Static dielectric constant tensor:
#      x y z
#    x 3.985060 0.000000 0.000000 
#    y 0.000000 3.780610 0.000000 
#    z 0.000000 0.000000 3.652760 
# 
# 
# High freq. dielectric constant tensor:
#      x y z
#    x 1.814860 0.000000 0.000000 
#    y 0.000000 1.797650 0.000000 
#    z 0.000000 0.000000 1.803290 
# 
# From -- ./inp_files/23718.got.cif
#   From: 2010.03.12/outbox.cif.g09.slc.cpg/sg59_12_cif.got.tgz:23718.got - 2010.04.16 16:29:54.
