data_PCOD8245416
_publ_section_title
;
Structure prediction by ZEFSAII (Michael W. Deem and Ramdas Pophale) SiO2 
 PCOD8245416
Probable space group: P M M N
;
_chemical_formula_sum "Si O2"
_cell_formula_units_Z 40
_cell_length_a 8.688748
_cell_length_b 18.043128
_cell_length_c 13.792818
_cell_angle_alpha 90.000000
_cell_angle_beta 90.000000
_cell_angle_gamma 90.000000
_cell_volume 2162.330316
_symmetry_space_group_name_H-M "P M M N"
_symmetry_group_IT_number 59
_space_group.IT_coordinate_system_code '2'
_symmetry_cell_setting 'orthorhombic'
loop_
_space_group_symop_operation_xyz
x,y,z
1/2-x,1/2-y,z
1/2+x,-y,-z
-x,1/2+y,-z
-x,-y,-z
1/2+x,1/2+y,-z
1/2-x,y,z
x,1/2-y,z
loop_
_atom_site_type_symbol
_atom_site_label
_atom_site_fract_x
_atom_site_fract_y
_atom_site_fract_z
Si Si1 0.570734 0.524187 0.899920
Si Si2 0.428283 0.332834 0.207131
Si Si3 0.070768 0.164070 0.573720
Si Si4 0.929620 0.405329 0.385394
Si Si5 0.068420 0.952279 0.298069
O O1 0.750000 0.515724 0.911852
O O2 0.524342 0.609428 0.877001
O O3 0.514138 0.472792 0.810924
O O4 0.500000 0.500000 0.000000
O O5 0.250000 0.345206 0.236152
O O6 0.458157 0.250000 0.167914
O O7 0.528623 0.345736 0.302862
O O8 0.250000 0.152173 0.551610
O O9 0.030660 0.250000 0.587411
O O10 0.970609 0.130189 0.487715
O O11 0.021527 0.122092 0.672116
O O12 0.750000 0.424064 0.382048
O O13 0.024385 0.480927 0.370446
O O14 0.250000 0.939107 0.304028
#
# Coordination Sequence:
#
# PCOD8245416 Si02
#       5
#     8   8   8   8   8
#     4   9  19  35  56  79 102 133 171 214 265 316
#     4   9  18  34  54  77 106 137 172 217 266 313
#     4  11  23  37  53  76 108 144 179 215 257 306
#     4  11  21  33  53  80 109 140 175 214 258 310
#     4  10  21  38  57  77 104 138 177 218 261 309
#
# _framework density 18.498560999999999
#
# number of rings (size 3 to 8) (size 9 to 14) (size 15 to 20)
#    0.000    2.000    0.000    5.400    0.000    8.400 
#    0.000    1.000    0.000    3.600    0.000    0.000 
#    0.000    0.000    0.000    0.000    0.000    0.000 
#
# Total GULP energy -496065.369376 kJ/mol
# GULP energy per Si atom -12401.634234 kJ/mol
# Density = 1.845646 g / cm^3
# Si number density = 18.498561 Si / 1000 Ang^3
#
#
#
# Elastic Constant Matrix: (Units=GPa)
#
#
# Indices 1 2 3 4 5 6 
#
# 1 48.2086 22.1048 27.1771 0.0000 0.0000 0.0000
# 2 22.1048 115.3880 68.5134 0.0000 0.0000 0.0000
# 3 27.1771 68.5134 119.3652 0.0000 0.0000 0.0000
# 4 0.0000 0.0000 0.0000 19.6218 0.0000 0.0000
# 5 0.0000 0.0000 0.0000 0.0000 33.3590 0.0000
# 6 0.0000 0.0000 0.0000 0.0000 0.0000 29.3340
#
#
#
# Elastic Compliance Matrix: (Units=1/GPa)
#
#
# Indices 1 2 3 4 5 6 
#
# 1 0.024117 -0.002063 -0.004307 0.000000 0.000000 0.000000
# 2 -0.002063 0.013323 -0.007178 0.000000 0.000000 0.000000
# 3 -0.004307 -0.007178 0.013478 0.000000 0.000000 0.000000
# 4 0.000000 0.000000 0.000000 0.050964 0.000000 0.000000
# 5 0.000000 0.000000 0.000000 0.000000 0.029977 0.000000
# 6 0.000000 0.000000 0.000000 0.000000 0.000000 0.034090
#
#
# Mechanical properties :
#
#
# Convention : Reuss Voigt Hill
#
# Bulk Modulus (GPa) = 41.97510 57.61695 49.79603
# Shear Modulus (GPa) = 24.87736 27.47404 26.17570
#
# Velocity S-wave (km/s) = 3.67117 3.85801 3.76575
# Velocity P-wave (km/s) = 6.38046 7.14563 6.77385
#
# Compressibility (1/GPa) = 0.02382365
#
# Stress axis : x y z
#
# Youngs Moduli (GPa) = 41.46450 75.05539 74.19387
#
# Poissons Ratio (x) = 0.15482 0.31955
# Poissons Ratio (y) = 0.08553 0.53255
# Poissons Ratio (z) = 0.17859 0.53873
#
# Static dielectric constant tensor:
#      x y z
#    x 3.635810 0.000000 0.000000 
#    y 0.000000 3.572910 0.000000 
#    z 0.000000 0.000000 3.939170 
# 
# 
# High freq. dielectric constant tensor:
#      x y z
#    x 1.720940 0.000000 0.000000 
#    y 0.000000 1.721660 0.000000 
#    z 0.000000 0.000000 1.701360 
# 
# From -- ./inp_files/19866.got.cif
#   From: 2010.03.12/outbox.cif.g09.slc.cpg/sg59_10_cif.got.tgz:19866.got - 2010.04.16 16:29:54.
