data_PCOD8245446
_publ_section_title
;
Structure prediction by ZEFSAII (Michael W. Deem and Ramdas Pophale) SiO2 
 PCOD8245446
Probable space group: P M M N
;
_chemical_formula_sum "Si O2"
_cell_formula_units_Z 40
_cell_length_a 14.834866
_cell_length_b 8.993136
_cell_length_c 14.823602
_cell_angle_alpha 90.000000
_cell_angle_beta 90.000000
_cell_angle_gamma 90.000000
_cell_volume 1977.645908
_symmetry_space_group_name_H-M "P M M N"
_symmetry_group_IT_number 59
_space_group.IT_coordinate_system_code '2'
_symmetry_cell_setting 'orthorhombic'
loop_
_space_group_symop_operation_xyz
x,y,z
1/2-x,1/2-y,z
1/2+x,-y,-z
-x,1/2+y,-z
-x,-y,-z
1/2+x,1/2+y,-z
1/2-x,y,z
x,1/2-y,z
loop_
_atom_site_type_symbol
_atom_site_label
_atom_site_fract_x
_atom_site_fract_y
_atom_site_fract_z
Si Si1 0.649700 0.426895 0.771201
Si Si2 0.493278 0.426991 0.903271
Si Si3 0.143803 0.921515 0.778574
Si Si4 0.356913 0.584881 0.427248
Si Si5 0.357045 0.415618 0.599429
O O1 0.750000 0.488448 0.794842
O O2 0.653171 0.250000 0.768617
O O3 0.579098 0.483680 0.845341
O O4 0.618374 0.481778 0.671461
O O5 0.491166 0.250000 0.911793
O O6 0.402025 0.483589 0.857258
O O7 0.500000 0.500000 0.000000
O O8 0.250000 0.942772 0.790508
O O9 0.115510 0.750000 0.786305
O O10 0.110465 0.982612 0.682109
O O11 0.250000 0.594447 0.435837
O O12 0.397964 0.750000 0.439305
O O13 0.396921 0.480712 0.506097
O O14 0.250000 0.412070 0.595013
O O15 0.395993 0.250000 0.613574
#
# Coordination Sequence:
#
# PCOD8245446 Si02
#       5
#     8   8   8   8   8
#     4   8  16  33  57  82 108 142 182 221 265 322
#     4  11  23  39  59  83 111 142 181 231 283 333
#     4  10  21  38  59  81 108 146 189 230 274 325
#     4   8  13  25  48  76 105 139 178 215 254 310
#     4   9  16  27  47  78 113 144 175 216 267 321
#
# _framework density 20.226068000000001
#
# number of rings (size 3 to 8) (size 9 to 14) (size 15 to 20)
#    0.000    2.800    0.000    3.000    0.000    4.400 
#    0.000    5.000    0.000    4.200    0.000    0.000 
#    0.000    0.000    0.000    0.000    0.000    0.000 
#
# Total GULP energy -495886.847297 kJ/mol
# GULP energy per Si atom -12397.171182 kJ/mol
# Density = 2.018003 g / cm^3
# Si number density = 20.226068 Si / 1000 Ang^3
#
#
#
# Elastic Constant Matrix: (Units=GPa)
#
#
# Indices 1 2 3 4 5 6 
#
# 1 58.7923 34.4440 51.6478 0.0000 0.0000 0.0000
# 2 34.4440 103.0834 66.2819 0.0000 0.0000 0.0000
# 3 51.6478 66.2819 186.0895 0.0000 0.0000 0.0000
# 4 0.0000 0.0000 0.0000 34.3273 0.0000 0.0000
# 5 0.0000 0.0000 0.0000 0.0000 -21.8827 0.0000
# 6 0.0000 0.0000 0.0000 0.0000 0.0000 16.4248
#
#
#
# Elastic Compliance Matrix: (Units=1/GPa)
#
#
# Indices 1 2 3 4 5 6 
#
# 1 0.024262 -0.004899 -0.004989 0.000000 0.000000 0.000000
# 2 -0.004899 0.013572 -0.003474 0.000000 0.000000 0.000000
# 3 -0.004989 -0.003474 0.007996 0.000000 0.000000 0.000000
# 4 0.000000 0.000000 0.000000 0.029131 0.000000 0.000000
# 5 0.000000 0.000000 0.000000 0.000000 -0.045698 0.000000
# 6 0.000000 0.000000 0.000000 0.000000 0.000000 0.060883
#
#
# Mechanical properties :
#
#
# Convention : Reuss Voigt Hill
#
# Bulk Modulus (GPa) = 52.34193 72.52361 62.43277
# Shear Modulus (GPa) = 40.57176 18.81331 29.69253
#
# Velocity S-wave (km/s) = 4.48360 3.05315 3.83565
# Velocity P-wave (km/s) = 7.26211 6.95437 7.10991
#
# Compressibility (1/GPa) = 0.01910514
#
# Stress axis : x y z
#
# Youngs Moduli (GPa) = 41.21736 73.68219 125.06498
#
# Poissons Ratio (x) = 0.36097 0.62391
# Poissons Ratio (y) = 0.20192 0.43452
# Poissons Ratio (z) = 0.20562 0.25600
#
# Static dielectric constant tensor:
#      x y z
#    x 3.601130 0.000000 0.000000 
#    y 0.000000 3.667330 0.000000 
#    z 0.000000 0.000000 3.856560 
# 
# 
# High freq. dielectric constant tensor:
#      x y z
#    x 1.776630 0.000000 0.000000 
#    y 0.000000 1.772210 0.000000 
#    z 0.000000 0.000000 1.794380 
# 
# From -- ./inp_files/19839.got.cif
#   From: 2010.03.12/outbox.cif.g09.slc.cpg/sg59_10_cif.got.tgz:19839.got - 2010.04.16 16:29:54.
