data_PCOD8245957
_publ_section_title
;
Structure prediction by ZEFSAII (Michael W. Deem and Ramdas Pophale) SiO2 
 PCOD8245957
Probable space group: P M M N
;
_chemical_formula_sum "Si O2"
_cell_formula_units_Z 64
_cell_length_a 14.547491
_cell_length_b 17.641674
_cell_length_c 11.991982
_cell_angle_alpha 90.000000
_cell_angle_beta 90.000000
_cell_angle_gamma 90.000000
_cell_volume 3077.647369
_symmetry_space_group_name_H-M "P M M N"
_symmetry_group_IT_number 59
_space_group.IT_coordinate_system_code '2'
_symmetry_cell_setting 'orthorhombic'
loop_
_space_group_symop_operation_xyz
x,y,z
1/2-x,1/2-y,z
1/2+x,-y,-z
-x,1/2+y,-z
-x,-y,-z
1/2+x,1/2+y,-z
1/2-x,y,z
x,1/2-y,z
loop_
_atom_site_type_symbol
_atom_site_label
_atom_site_fract_x
_atom_site_fract_y
_atom_site_fract_z
Si Si1 0.034679 0.164101 0.916796
Si Si2 0.106867 0.939485 0.802237
Si Si3 0.522178 0.912034 0.495160
Si Si4 0.349393 0.909910 0.054020
Si Si5 0.647146 0.663408 0.674285
Si Si6 0.406342 0.430034 0.126775
Si Si7 0.146089 0.661635 0.592213
Si Si8 0.354316 0.102324 0.719495
O O1 0.036943 0.250000 0.960227
O O2 0.098859 0.157358 0.809080
O O3 0.929178 0.140859 0.890799
O O4 0.073020 0.107757 0.008873
O O5 0.127565 0.875284 0.712062
O O6 0.998691 0.954530 0.809920
O O7 0.153709 0.016984 0.763790
O O8 0.144435 0.911361 0.920193
O O9 0.579962 0.888187 0.602646
O O10 0.423980 0.869075 0.497798
O O11 0.582065 0.890430 0.388753
O O12 0.500000 0.000000 0.500000
O O13 0.250000 0.874580 0.085350
O O14 0.349655 0.994459 0.103649
O O15 0.750000 0.660481 0.624843
O O16 0.611043 0.750000 0.677496
O O17 0.650009 0.629467 0.798937
O O18 0.250000 0.643469 0.552191
O O19 0.129990 0.750000 0.608371
O O20 0.250000 0.130160 0.693853
#
# Coordination Sequence:
#
# PCOD8245957 Si02
#       8
#     8   8   8   8   8   8   8   8
#     4  11  25  42  63  96 135 172 218 267 320 381
#     4  11  20  39  66  98 132 167 212 268 320 380
#     4  12  25  42  66  97 128 166 213 268 323 383
#     4  11  22  39  66  97 135 178 219 263 316 388
#     4  11  24  41  64  96 132 169 211 266 331 389
#     4  11  20  40  66  99 132 173 212 261 327 378
#     4  11  24  42  67  98 130 166 213 270 332 388
#     4  12  24  43  68  94 125 169 221 268 317 383
#
# _framework density 20.795106000000001
#
# number of rings (size 3 to 8) (size 9 to 14) (size 15 to 20)
#    0.000    0.750    5.000    3.375    0.000    4.500 
#    0.000    0.625    0.000    0.000    0.000    0.000 
#    0.000    0.000    0.000    0.000    0.000    0.000 
#
# Total GULP energy -793713.045371 kJ/mol
# GULP energy per Si atom -12401.766334 kJ/mol
# Density = 2.074778 g / cm^3
# Si number density = 20.795106 Si / 1000 Ang^3
#
#
#
# Elastic Constant Matrix: (Units=GPa)
#
#
# Indices 1 2 3 4 5 6 
#
# 1 157.9925 31.3242 47.0507 0.0000 0.0000 0.0000
# 2 31.3242 78.0217 21.0706 0.0000 0.0000 0.0000
# 3 47.0507 21.0706 77.3462 0.0000 0.0000 0.0000
# 4 0.0000 0.0000 0.0000 30.5428 0.0000 0.0000
# 5 0.0000 0.0000 0.0000 0.0000 19.3395 0.0000
# 6 0.0000 0.0000 0.0000 0.0000 0.0000 25.8040
#
#
#
# Elastic Compliance Matrix: (Units=1/GPa)
#
#
# Indices 1 2 3 4 5 6 
#
# 1 0.008024 -0.002054 -0.004321 0.000000 0.000000 0.000000
# 2 -0.002054 0.014361 -0.002662 0.000000 0.000000 0.000000
# 3 -0.004321 -0.002662 0.016283 0.000000 0.000000 0.000000
# 4 0.000000 0.000000 0.000000 0.032741 0.000000 0.000000
# 5 0.000000 0.000000 0.000000 0.000000 0.051708 0.000000
# 6 0.000000 0.000000 0.000000 0.000000 0.000000 0.038754
#
#
# Mechanical properties :
#
#
# Convention : Reuss Voigt Hill
#
# Bulk Modulus (GPa) = 48.56455 56.91683 52.74069
# Shear Modulus (GPa) = 26.76529 29.39826 28.08177
#
# Velocity S-wave (km/s) = 3.59150 3.76401 3.67877
# Velocity P-wave (km/s) = 6.37205 6.80589 6.59254
#
# Compressibility (1/GPa) = 0.02059115
#
# Stress axis : x y z
#
# Youngs Moduli (GPa) = 124.63263 69.63427 61.41438
#
# Poissons Ratio (x) = 0.14305 0.26538
# Poissons Ratio (y) = 0.25604 0.16351
# Poissons Ratio (z) = 0.53856 0.18540
#
# Static dielectric constant tensor:
#      x y z
#    x 4.134900 0.000000 0.000000 
#    y 0.000000 3.696940 0.000000 
#    z 0.000000 0.000000 3.804950 
# 
# 
# High freq. dielectric constant tensor:
#      x y z
#    x 1.833580 0.000000 0.000000 
#    y 0.000000 1.809830 0.000000 
#    z 0.000000 0.000000 1.802400 
# 
# From -- ./inp_files/17251.got.cif
#   From: 2010.03.12/outbox.cif.g09.slc.cpg/sg59_9_cif.got.tgz:17251.got - 2010.04.16 16:29:54.
