data_PCOD8245236
_publ_section_title
;
Structure prediction by ZEFSAII (Michael W. Deem and Ramdas Pophale) SiO2 
 PCOD8245236
Probable space group: P M M N
;
_chemical_formula_sum "Si O2"
_cell_formula_units_Z 64
_cell_length_a 15.077560
_cell_length_b 8.969266
_cell_length_c 24.023701
_cell_angle_alpha 90.000000
_cell_angle_beta 90.000000
_cell_angle_gamma 90.000000
_cell_volume 3248.836707
_symmetry_space_group_name_H-M "P M M N"
_symmetry_group_IT_number 59
_space_group.IT_coordinate_system_code '2'
_symmetry_cell_setting 'orthorhombic'
loop_
_space_group_symop_operation_xyz
x,y,z
1/2-x,1/2-y,z
1/2+x,-y,-z
-x,1/2+y,-z
-x,-y,-z
1/2+x,1/2+y,-z
1/2-x,y,z
x,1/2-y,z
loop_
_atom_site_type_symbol
_atom_site_label
_atom_site_fract_x
_atom_site_fract_y
_atom_site_fract_z
Si Si1 0.855311 0.917364 0.006440
Si Si2 0.904893 0.573547 0.496174
Si Si3 0.996929 0.923642 0.188170
Si Si4 0.850934 0.075323 0.895528
Si Si5 0.852136 0.425460 0.117825
Si Si6 0.850185 0.080100 0.385530
Si Si7 0.504814 0.923898 0.315916
Si Si8 0.848089 0.419708 0.603592
O O1 0.750000 0.920014 0.005924
O O2 0.893011 0.750000 0.008552
O O3 0.889611 0.004084 0.060722
O O4 0.889807 0.996166 0.950521
O O5 0.913619 0.750000 0.493493
O O6 0.856553 0.517641 0.440994
O O7 0.849596 0.525762 0.550035
O O8 0.000000 0.500000 0.500000
O O9 0.976233 0.750000 0.179530
O O10 0.014133 0.963754 0.252171
O O11 0.086123 0.970900 0.155593
O O12 0.911256 0.014665 0.168302
O O13 0.750000 0.023900 0.881828
O O14 0.853332 0.250000 0.907188
O O15 0.750000 0.471929 0.128807
O O16 0.861884 0.250000 0.112973
O O17 0.750000 0.072044 0.363137
O O18 0.877944 0.250000 0.399081
O O19 0.911393 0.016711 0.336782
O O20 0.525458 0.750000 0.324029
O O21 0.418379 0.973250 0.350593
O O22 0.750000 0.431016 0.630231
O O23 0.868727 0.250000 0.584839
#
# Coordination Sequence:
#
# PCOD8245236 Si02
#       8
#     8   8   8   8   8   8   8   8
#     4   9  17  31  54  83 113 144 181 228 282 339
#     4  12  23  37  61  91 123 156 190 233 288 343
#     4  10  22  38  57  83 112 148 195 238 281 333
#     4   9  18  34  56  82 114 149 185 228 278 336
#     4  10  21  37  57  81 110 146 187 232 287 345
#     4  11  24  41  62  88 118 154 194 237 288 344
#     4  10  22  40  60  83 114 153 195 240 286 335
#     4  10  21  38  61  89 120 154 192 235 285 341
#
# _framework density 19.699359999999999
#
# number of rings (size 3 to 8) (size 9 to 14) (size 15 to 20)
#    0.000    1.875    1.250    2.625    0.000    7.500 
#    0.000    5.000    0.000    0.000    0.000    3.500 
#    0.000    0.000    0.000    0.000    0.000    0.000 
#
# Total GULP energy -793811.167995 kJ/mol
# GULP energy per Si atom -12403.299500 kJ/mol
# Density = 1.965452 g / cm^3
# Si number density = 19.699360 Si / 1000 Ang^3
#
#
#
# Elastic Constant Matrix: (Units=GPa)
#
#
# Indices 1 2 3 4 5 6 
#
# 1 99.0663 38.0818 43.6129 0.0000 0.0000 0.0000
# 2 38.0818 92.3765 44.4565 0.0000 0.0000 0.0000
# 3 43.6129 44.4565 120.0393 0.0000 0.0000 0.0000
# 4 0.0000 0.0000 0.0000 31.7090 0.0000 0.0000
# 5 0.0000 0.0000 0.0000 0.0000 17.8119 0.0000
# 6 0.0000 0.0000 0.0000 0.0000 0.0000 25.9252
#
#
#
# Elastic Compliance Matrix: (Units=1/GPa)
#
#
# Indices 1 2 3 4 5 6 
#
# 1 0.013006 -0.003757 -0.003334 0.000000 0.000000 0.000000
# 2 -0.003757 0.014259 -0.003916 0.000000 0.000000 0.000000
# 3 -0.003334 -0.003916 0.010992 0.000000 0.000000 0.000000
# 4 0.000000 0.000000 0.000000 0.031537 0.000000 0.000000
# 5 0.000000 0.000000 0.000000 0.000000 0.056142 0.000000
# 6 0.000000 0.000000 0.000000 0.000000 0.000000 0.038572
#
#
# Mechanical properties :
#
#
# Convention : Reuss Voigt Hill
#
# Bulk Modulus (GPa) = 61.56392 62.64273 62.10332
# Shear Modulus (GPa) = 26.05026 27.44460 26.74743
#
# Velocity S-wave (km/s) = 3.64041 3.73657 3.68881
# Velocity P-wave (km/s) = 6.99927 7.10523 7.05245
#
# Compressibility (1/GPa) = 0.01624328
#
# Stress axis : x y z
#
# Youngs Moduli (GPa) = 76.88564 70.13325 90.97502
#
# Poissons Ratio (x) = 0.26351 0.30331
# Poissons Ratio (y) = 0.28888 0.35622
# Poissons Ratio (z) = 0.25633 0.27461
#
# Static dielectric constant tensor:
#      x y z
#    x 3.579630 0.000000 0.000000 
#    y 0.000000 3.634650 0.000000 
#    z 0.000000 0.000000 3.608230 
# 
# 
# High freq. dielectric constant tensor:
#      x y z
#    x 1.772160 0.000000 0.000000 
#    y 0.000000 1.766820 0.000000 
#    z 0.000000 0.000000 1.761850 
# 
# From -- ./inp_files/31681.got.cif
#   From: 2010.03.12/outbox.cif.g09.slc.cpg/sg59_16_cif.got.tgz:31681.got - 2010.04.16 16:29:54.
