data_PCOD8245239
_publ_section_title
;
Structure prediction by ZEFSAII (Michael W. Deem and Ramdas Pophale) SiO2 
 PCOD8245239
Probable space group: P M M N
;
_chemical_formula_sum "Si O2"
_cell_formula_units_Z 48
_cell_length_a 8.929716
_cell_length_b 14.815178
_cell_length_c 18.971576
_cell_angle_alpha 90.000000
_cell_angle_beta 90.000000
_cell_angle_gamma 90.000000
_cell_volume 2509.850946
_symmetry_space_group_name_H-M "P M M N"
_symmetry_group_IT_number 59
_space_group.IT_coordinate_system_code '2'
_symmetry_cell_setting 'orthorhombic'
loop_
_space_group_symop_operation_xyz
x,y,z
1/2-x,1/2-y,z
1/2+x,-y,-z
-x,1/2+y,-z
-x,-y,-z
1/2+x,1/2+y,-z
1/2-x,y,z
x,1/2-y,z
loop_
_atom_site_type_symbol
_atom_site_label
_atom_site_fract_x
_atom_site_fract_y
_atom_site_fract_z
Si Si1 0.927015 0.853886 0.007916
Si Si2 0.926063 0.495263 0.736844
Si Si3 0.919598 0.849424 0.632500
Si Si4 0.073072 0.596741 0.495452
Si Si5 0.074267 0.503266 0.102578
Si Si6 0.581522 0.851564 0.354959
O O1 0.750000 0.852383 0.016658
O O2 0.986762 0.750000 0.002067
O O3 0.975175 0.912626 0.939334
O O4 0.995494 0.905411 0.075195
O O5 0.750000 0.478424 0.730488
O O6 0.977604 0.581350 0.691216
O O7 0.974635 0.512405 0.817011
O O8 0.010851 0.408665 0.707791
O O9 0.750000 0.874012 0.609102
O O10 0.925590 0.750000 0.666629
O O11 0.025327 0.848358 0.564386
O O12 0.250000 0.589055 0.491524
O O13 0.000000 0.500000 0.500000
O O14 0.015966 0.645455 0.425593
O O15 0.250000 0.519096 0.094738
O O16 0.750000 0.885706 0.371346
O O17 0.583319 0.750000 0.326738
#
# Coordination Sequence:
#
# PCOD8245239 Si02
#       6
#     8   8   8   8   8   8
#     4   9  18  34  57  83 111 145 184 224 270 325
#     4  10  21  37  57  81 112 149 184 225 278 333
#     4  10  21  37  57  82 111 144 184 230 281 336
#     4  12  23  37  59  83 109 144 187 235 285 332
#     4   9  19  35  55  82 113 145 184 227 271 322
#     4  11  24  40  58  81 110 147 189 233 281 332
#
# _framework density 19.124641
#
# number of rings (size 3 to 8) (size 9 to 14) (size 15 to 20)
#    0.000    1.833    1.667    2.500    0.000    6.000 
#    0.000    6.667    0.000    0.000    0.000    4.667 
#    0.000    0.000    0.000    0.000    0.000    0.000 
#
# Total GULP energy -595231.339266 kJ/mol
# GULP energy per Si atom -12400.652901 kJ/mol
# Density = 1.908111 g / cm^3
# Si number density = 19.124641 Si / 1000 Ang^3
#
#
#
# Elastic Constant Matrix: (Units=GPa)
#
#
# Indices 1 2 3 4 5 6 
#
# 1 72.7021 32.2954 43.5325 0.0000 0.0000 0.0000
# 2 32.2954 133.2239 50.2731 0.0000 0.0000 0.0000
# 3 43.5325 50.2731 125.7624 0.0000 0.0000 0.0000
# 4 0.0000 0.0000 0.0000 8.0576 0.0000 0.0000
# 5 0.0000 0.0000 0.0000 0.0000 29.4505 0.0000
# 6 0.0000 0.0000 0.0000 0.0000 0.0000 28.8426
#
#
#
# Elastic Compliance Matrix: (Units=1/GPa)
#
#
# Indices 1 2 3 4 5 6 
#
# 1 0.017962 -0.002365 -0.005272 0.000000 0.000000 0.000000
# 2 -0.002365 0.009151 -0.002839 0.000000 0.000000 0.000000
# 3 -0.005272 -0.002839 0.010912 0.000000 0.000000 0.000000
# 4 0.000000 0.000000 0.000000 0.124107 0.000000 0.000000
# 5 0.000000 0.000000 0.000000 0.000000 0.033955 0.000000
# 6 0.000000 0.000000 0.000000 0.000000 0.000000 0.034671
#
#
# Mechanical properties :
#
#
# Convention : Reuss Voigt Hill
#
# Bulk Modulus (GPa) = 58.57681 64.87672 61.72676
# Shear Modulus (GPa) = 19.42493 26.97596 23.20045
#
# Velocity S-wave (km/s) = 3.19047 3.75978 3.48676
# Velocity P-wave (km/s) = 6.65339 7.26944 6.96822
#
# Compressibility (1/GPa) = 0.01707160
#
# Stress axis : x y z
#
# Youngs Moduli (GPa) = 55.67262 109.27869 91.64578
#
# Poissons Ratio (x) = 0.25842 0.48318
# Poissons Ratio (y) = 0.13165 0.26023
# Poissons Ratio (z) = 0.29352 0.31030
#
# Static dielectric constant tensor:
#      x y z
#    x 3.511650 0.000000 0.000000 
#    y 0.000000 3.308870 0.000000 
#    z 0.000000 0.000000 3.774630 
# 
# 
# High freq. dielectric constant tensor:
#      x y z
#    x 1.739180 0.000000 0.000000 
#    y 0.000000 1.754420 0.000000 
#    z 0.000000 0.000000 1.736730 
# 
# From -- ./inp_files/25455.got.cif
#   From: 2010.03.12/outbox.cif.g09.slc.cpg/sg59_13_cif.got.tgz:25455.got - 2010.04.16 16:29:54.
