data_PCOD8245114
_publ_section_title
;
Structure prediction by ZEFSAII (Michael W. Deem and Ramdas Pophale) SiO2 
 PCOD8245114
Probable space group: P M M N
;
_chemical_formula_sum "Si O2"
_cell_formula_units_Z 48
_cell_length_a 15.636156
_cell_length_b 9.038452
_cell_length_c 17.037366
_cell_angle_alpha 90.000000
_cell_angle_beta 90.000000
_cell_angle_gamma 90.000000
_cell_volume 2407.833784
_symmetry_space_group_name_H-M "P M M N"
_symmetry_group_IT_number 59
_space_group.IT_coordinate_system_code '2'
_symmetry_cell_setting 'orthorhombic'
loop_
_space_group_symop_operation_xyz
x,y,z
1/2-x,1/2-y,z
1/2+x,-y,-z
-x,1/2+y,-z
-x,-y,-z
1/2+x,1/2+y,-z
1/2-x,y,z
x,1/2-y,z
loop_
_atom_site_type_symbol
_atom_site_label
_atom_site_fract_x
_atom_site_fract_y
_atom_site_fract_z
Si Si1 0.750000 0.577466 0.259209
Si Si2 0.588075 0.076183 0.522513
Si Si3 0.587348 0.577697 0.837853
Si Si4 0.910639 0.078337 0.988237
Si Si5 0.250000 0.425725 0.558174
Si Si6 0.389453 0.580244 0.840160
Si Si7 0.652575 0.084791 0.691241
O O1 0.750000 0.750000 0.246320
O O2 0.750000 0.534827 0.350090
O O3 0.835105 0.516429 0.219049
O O4 0.588139 0.250000 0.500679
O O5 0.595135 0.052498 0.615675
O O6 0.500000 0.000000 0.500000
O O7 0.665484 0.996580 0.478439
O O8 0.598783 0.750000 0.852646
O O9 0.633183 0.494783 0.911573
O O10 0.488069 0.532366 0.831658
O O11 0.633785 0.533535 0.758190
O O12 0.926015 0.250000 0.971596
O O13 0.857701 0.056719 0.069370
O O14 0.000000 0.000000 0.000000
O O15 0.250000 0.250000 0.543080
O O16 0.377309 0.750000 0.815635
O O17 0.750000 0.068679 0.663555
O O18 0.634427 0.250000 0.723691
#
# Coordination Sequence:
#
# PCOD8245114 Si02
#       7
#     4   8   8   8   4   8   8
#     4  11  25  39  57  86 119 156 199 247 298 347
#     4  11  24  44  69  97 126 165 208 257 317 378
#     4  10  21  36  59  91 119 154 201 247 298 357
#     4   9  17  33  57  84 114 154 197 245 298 353
#     4  11  25  45  65  94 129 164 209 259 310 377
#     4   9  20  38  58  83 117 156 199 243 296 355
#     4  10  22  42  63  87 122 160 198 244 302 362
#
# _framework density 19.934930999999999
#
# number of rings (size 3 to 8) (size 9 to 14) (size 15 to 20)
#    0.000    2.000    0.833    3.000    2.333    7.000 
#    1.500    0.000    0.000    0.000    0.000    0.000 
#    0.000    0.000    0.000    0.000    0.000    0.000 
#
# Total GULP energy -595146.297606 kJ/mol
# GULP energy per Si atom -12398.881200 kJ/mol
# Density = 1.988956 g / cm^3
# Si number density = 19.934931 Si / 1000 Ang^3
#
#
#
# Elastic Constant Matrix: (Units=GPa)
#
#
# Indices 1 2 3 4 5 6 
#
# 1 85.9000 43.4163 44.3292 0.0000 0.0000 0.0000
# 2 43.4163 114.4081 68.0704 0.0000 0.0000 0.0000
# 3 44.3292 68.0704 125.0162 0.0000 0.0000 0.0000
# 4 0.0000 0.0000 0.0000 39.4218 0.0000 0.0000
# 5 0.0000 0.0000 0.0000 0.0000 24.2865 0.0000
# 6 0.0000 0.0000 0.0000 0.0000 0.0000 34.0614
#
#
#
# Elastic Compliance Matrix: (Units=1/GPa)
#
#
# Indices 1 2 3 4 5 6 
#
# 1 0.015296 -0.003813 -0.003348 0.000000 0.000000 0.000000
# 2 -0.003813 0.013880 -0.006205 0.000000 0.000000 0.000000
# 3 -0.003348 -0.006205 0.012565 0.000000 0.000000 0.000000
# 4 0.000000 0.000000 0.000000 0.025367 0.000000 0.000000
# 5 0.000000 0.000000 0.000000 0.000000 0.041175 0.000000
# 6 0.000000 0.000000 0.000000 0.000000 0.000000 0.029359
#
#
# Mechanical properties :
#
#
# Convention : Reuss Voigt Hill
#
# Bulk Modulus (GPa) = 66.62815 70.77289 68.70052
# Shear Modulus (GPa) = 29.52011 30.85450 30.18730
#
# Velocity S-wave (km/s) = 3.85232 3.93843 3.89561
# Velocity P-wave (km/s) = 7.29949 7.50071 7.40078
#
# Compressibility (1/GPa) = 0.01500867
#
# Stress axis : x y z
#
# Youngs Moduli (GPa) = 65.37573 72.04804 79.58738
#
# Poissons Ratio (x) = 0.27471 0.26644
# Poissons Ratio (y) = 0.24927 0.49387
# Poissons Ratio (z) = 0.21886 0.44708
#
# Static dielectric constant tensor:
#      x y z
#    x 3.351140 0.000000 0.000000 
#    y 0.000000 3.753920 0.000000 
#    z 0.000000 0.000000 3.776850 
# 
# 
# High freq. dielectric constant tensor:
#      x y z
#    x 1.763780 0.000000 0.000000 
#    y 0.000000 1.787300 0.000000 
#    z 0.000000 0.000000 1.792340 
# 
# From -- ./inp_files/27463.got.cif
#   From: 2010.03.12/outbox.cif.g09.slc.cpg/sg59_14_cif.got.tgz:27463.got - 2010.04.16 16:29:54.
