data_PCOD8245682
_publ_section_title
;
Structure prediction by ZEFSAII (Michael W. Deem and Ramdas Pophale) SiO2 
 PCOD8245682
Probable space group: P M M N
;
_chemical_formula_sum "Si O2"
_cell_formula_units_Z 48
_cell_length_a 8.819638
_cell_length_b 16.595274
_cell_length_c 16.223993
_cell_angle_alpha 90.000000
_cell_angle_beta 90.000000
_cell_angle_gamma 90.000000
_cell_volume 2374.613528
_symmetry_space_group_name_H-M "P M M N"
_symmetry_group_IT_number 59
_space_group.IT_coordinate_system_code '2'
_symmetry_cell_setting 'orthorhombic'
loop_
_space_group_symop_operation_xyz
x,y,z
1/2-x,1/2-y,z
1/2+x,-y,-z
-x,1/2+y,-z
-x,-y,-z
1/2+x,1/2+y,-z
1/2-x,y,z
x,1/2-y,z
loop_
_atom_site_type_symbol
_atom_site_label
_atom_site_fract_x
_atom_site_fract_y
_atom_site_fract_z
Si Si1 0.072021 0.250000 0.978893
Si Si2 0.929302 0.922896 0.952820
Si Si3 0.422033 0.557318 0.780120
Si Si4 0.421193 0.658418 0.627371
Si Si5 0.575876 0.250000 0.805473
Si Si6 0.921148 0.617266 0.293912
Si Si7 0.572269 0.915949 0.478395
O O1 0.250000 0.250000 0.991878
O O2 0.032891 0.250000 0.883470
O O3 0.008415 0.334739 0.016881
O O4 0.750000 0.928261 0.966170
O O5 0.969230 0.928561 0.857041
O O6 0.000000 0.000000 0.000000
O O7 0.250000 0.585006 0.801394
O O8 0.488894 0.607557 0.703191
O O9 0.423496 0.465165 0.755205
O O10 0.250000 0.628452 0.608808
O O11 0.424473 0.750000 0.655881
O O12 0.519455 0.649651 0.544837
O O13 0.750000 0.250000 0.833829
O O14 0.542030 0.327320 0.750729
O O15 0.750000 0.653255 0.292235
O O16 0.979390 0.609723 0.387428
O O17 0.750000 0.925939 0.481529
O O18 0.500000 0.000000 0.500000
#
# Coordination Sequence:
#
# PCOD8245682 Si02
#       7
#     4   8   8   8   4   8   8
#     4  10  24  46  66  87 126 169 198 241 314 383
#     4  11  24  42  65  94 125 161 205 255 309 371
#     4  10  21  40  64  90 121 162 203 246 303 365
#     4  10  22  40  61  89 126 164 205 253 304 358
#     4  12  26  40  62  95 122 149 204 263 302 351
#     4  10  22  41  62  85 123 168 204 241 305 373
#     4  11  22  39  62  87 119 161 209 254 303 364
#
# _framework density 20.213815
#
# number of rings (size 3 to 8) (size 9 to 14) (size 15 to 20)
#    0.000    1.500    1.667    2.750    2.333    8.333 
#    0.000    0.000    0.000    0.000    0.000    0.000 
#    0.000    0.000    0.000    0.000    0.000    0.000 
#
# Total GULP energy -595234.325096 kJ/mol
# GULP energy per Si atom -12400.715106 kJ/mol
# Density = 2.016781 g / cm^3
# Si number density = 20.213815 Si / 1000 Ang^3
#
#
#
# Elastic Constant Matrix: (Units=GPa)
#
#
# Indices 1 2 3 4 5 6 
#
# 1 40.3997 27.3984 26.2332 0.0000 0.0000 0.0000
# 2 27.3984 123.6475 50.3580 0.0000 0.0000 0.0000
# 3 26.2332 50.3580 137.9221 0.0000 0.0000 0.0000
# 4 0.0000 0.0000 0.0000 11.0889 0.0000 0.0000
# 5 0.0000 0.0000 0.0000 0.0000 36.3079 0.0000
# 6 0.0000 0.0000 0.0000 0.0000 0.0000 21.3936
#
#
#
# Elastic Compliance Matrix: (Units=1/GPa)
#
#
# Indices 1 2 3 4 5 6 
#
# 1 0.030871 -0.005226 -0.003963 0.000000 0.000000 0.000000
# 2 -0.005226 0.010385 -0.002798 0.000000 0.000000 0.000000
# 3 -0.003963 -0.002798 0.009026 0.000000 0.000000 0.000000
# 4 0.000000 0.000000 0.000000 0.090180 0.000000 0.000000
# 5 0.000000 0.000000 0.000000 0.000000 0.027542 0.000000
# 6 0.000000 0.000000 0.000000 0.000000 0.000000 0.046743
#
#
# Mechanical properties :
#
#
# Convention : Reuss Voigt Hill
#
# Bulk Modulus (GPa) = 38.01331 56.66096 47.33713
# Shear Modulus (GPa) = 20.20282 26.95674 23.57978
#
# Velocity S-wave (km/s) = 3.16485 3.65578 3.41914
# Velocity P-wave (km/s) = 5.67463 6.77579 6.24951
#
# Compressibility (1/GPa) = 0.02630658
#
# Stress axis : x y z
#
# Youngs Moduli (GPa) = 32.39322 96.29276 110.79314
#
# Poissons Ratio (x) = 0.50325 0.43913
# Poissons Ratio (y) = 0.16930 0.30997
# Poissons Ratio (z) = 0.12839 0.26940
#
# Static dielectric constant tensor:
#      x y z
#    x 3.773480 0.000000 0.000000 
#    y 0.000000 3.829250 0.000000 
#    z 0.000000 0.000000 3.880910 
# 
# 
# High freq. dielectric constant tensor:
#      x y z
#    x 1.776500 0.000000 0.000000 
#    y 0.000000 1.803190 0.000000 
#    z 0.000000 0.000000 1.801520 
# 
# From -- ./inp_files/20575.got.cif
#   From: 2010.03.12/outbox.cif.g09.slc.cpg/sg59_11_cif.got.tgz:20575.got - 2010.04.16 16:29:54.
