data_PCOD8245811
_publ_section_title
;
Structure prediction by ZEFSAII (Michael W. Deem and Ramdas Pophale) SiO2 
 PCOD8245811
Probable space group: P M M N
;
_chemical_formula_sum "Si O2"
_cell_formula_units_Z 40
_cell_length_a 7.547851
_cell_length_b 20.331038
_cell_length_c 13.163650
_cell_angle_alpha 90.000000
_cell_angle_beta 90.000000
_cell_angle_gamma 90.000000
_cell_volume 2020.036408
_symmetry_space_group_name_H-M "P M M N"
_symmetry_group_IT_number 59
_space_group.IT_coordinate_system_code '2'
_symmetry_cell_setting 'orthorhombic'
loop_
_space_group_symop_operation_xyz
x,y,z
1/2-x,1/2-y,z
1/2+x,-y,-z
-x,1/2+y,-z
-x,-y,-z
1/2+x,1/2+y,-z
1/2-x,y,z
x,1/2-y,z
loop_
_atom_site_type_symbol
_atom_site_label
_atom_site_fract_x
_atom_site_fract_y
_atom_site_fract_z
Si Si1 0.250000 0.327617 0.883788
Si Si2 0.541803 0.374131 0.741995
Si Si3 0.250000 0.327642 0.122722
Si Si4 0.550358 0.130130 0.261401
Si Si5 0.040941 0.750000 0.385074
Si Si6 0.545249 0.504575 0.619007
Si Si7 0.460107 0.750000 0.606561
O O1 0.250000 0.250000 0.855065
O O2 0.424835 0.365957 0.843342
O O3 0.250000 0.336911 0.003310
O O4 0.750000 0.371589 0.770938
O O5 0.477720 0.314487 0.672254
O O6 0.492259 0.438430 0.677799
O O7 0.250000 0.250000 0.151701
O O8 0.422411 0.366778 0.164061
O O9 0.750000 0.145771 0.224196
O O10 0.557245 0.062365 0.323629
O O11 0.473696 0.185279 0.336567
O O12 0.250000 0.750000 0.395286
O O13 0.951925 0.750000 0.495710
O O14 0.500000 0.500000 0.500000
O O15 0.750000 0.519568 0.631141
O O16 0.250000 0.750000 0.598209
#
# Coordination Sequence:
#
# PCOD8245811 Si02
#       7
#     4   8   4   8   4   8   4
#     4  11  24  42  68  94 118 159 216 273 323 373
#     4  10  22  40  61  89 127 164 204 259 314 373
#     4  11  24  44  66  94 122 157 216 275 323 373
#     4  11  22  40  63  90 127 166 206 261 317 375
#     4   9  16  33  57  84 121 157 198 246 302 376
#     4  11  23  39  63  95 133 172 208 251 312 384
#     4   9  18  33  57  88 121 161 202 244 312 380
#
# _framework density 19.801622999999999
#
# number of rings (size 3 to 8) (size 9 to 14) (size 15 to 20)
#    0.000    1.600    3.000    1.800    2.800    4.000 
#    0.000    4.000    0.000    0.000    0.000    0.000 
#    0.000    0.000    0.000    0.000    0.000    0.000 
#
# Total GULP energy -495932.351602 kJ/mol
# GULP energy per Si atom -12398.308790 kJ/mol
# Density = 1.975655 g / cm^3
# Si number density = 19.801623 Si / 1000 Ang^3
#
#
#
# Elastic Constant Matrix: (Units=GPa)
#
#
# Indices 1 2 3 4 5 6 
#
# 1 100.9199 33.9408 57.9305 0.0000 0.0000 0.0000
# 2 33.9408 140.0000 59.0844 0.0000 0.0000 0.0000
# 3 57.9305 59.0844 137.5538 0.0000 0.0000 0.0000
# 4 0.0000 0.0000 0.0000 35.4838 0.0000 0.0000
# 5 0.0000 0.0000 0.0000 0.0000 31.8022 0.0000
# 6 0.0000 0.0000 0.0000 0.0000 0.0000 19.9016
#
#
#
# Elastic Compliance Matrix: (Units=1/GPa)
#
#
# Indices 1 2 3 4 5 6 
#
# 1 0.013191 -0.001042 -0.005108 0.000000 0.000000 0.000000
# 2 -0.001042 0.008807 -0.003344 0.000000 0.000000 0.000000
# 3 -0.005108 -0.003344 0.010857 0.000000 0.000000 0.000000
# 4 0.000000 0.000000 0.000000 0.028182 0.000000 0.000000
# 5 0.000000 0.000000 0.000000 0.000000 0.031444 0.000000
# 6 0.000000 0.000000 0.000000 0.000000 0.000000 0.050247
#
#
# Mechanical properties :
#
#
# Convention : Reuss Voigt Hill
#
# Bulk Modulus (GPa) = 72.11122 75.59833 73.85477
# Shear Modulus (GPa) = 30.05903 32.60540 31.33221
#
# Velocity S-wave (km/s) = 3.90039 4.06224 3.98214
# Velocity P-wave (km/s) = 7.53525 7.76293 7.64993
#
# Compressibility (1/GPa) = 0.01386747
#
# Stress axis : x y z
#
# Youngs Moduli (GPa) = 75.80692 113.54898 92.10389
#
# Poissons Ratio (x) = 0.11836 0.47045
# Poissons Ratio (y) = 0.07902 0.30798
# Poissons Ratio (z) = 0.38720 0.37969
#
# Static dielectric constant tensor:
#      x y z
#    x 3.537940 0.000000 0.000000 
#    y 0.000000 3.697530 0.000000 
#    z 0.000000 0.000000 3.535240 
# 
# 
# High freq. dielectric constant tensor:
#      x y z
#    x 1.778800 0.000000 0.000000 
#    y 0.000000 1.777600 0.000000 
#    z 0.000000 0.000000 1.759730 
# 
# From -- ./inp_files/14158.got.cif
#   From: 2010.03.12/outbox.cif.g09.slc.cpg/sg59_8_cif.got.tgz:14158.got - 2010.04.16 16:29:54.
