data_PCOD8245019
_publ_section_title
;
Structure prediction by ZEFSAII (Michael W. Deem and Ramdas Pophale) SiO2 
 PCOD8245019
Probable space group: P M M N
;
_chemical_formula_sum "Si O2"
_cell_formula_units_Z 48
_cell_length_a 8.838001
_cell_length_b 9.186026
_cell_length_c 30.613810
_cell_angle_alpha 90.000000
_cell_angle_beta 90.000000
_cell_angle_gamma 90.000000
_cell_volume 2485.416054
_symmetry_space_group_name_H-M "P M M N"
_symmetry_group_IT_number 59
_space_group.IT_coordinate_system_code '2'
_symmetry_cell_setting 'orthorhombic'
loop_
_space_group_symop_operation_xyz
x,y,z
1/2-x,1/2-y,z
1/2+x,-y,-z
-x,1/2+y,-z
-x,-y,-z
1/2+x,1/2+y,-z
1/2-x,y,z
x,1/2-y,z
loop_
_atom_site_type_symbol
_atom_site_label
_atom_site_fract_x
_atom_site_fract_y
_atom_site_fract_z
Si Si1 0.926204 0.080916 0.698995
Si Si2 0.572084 0.588146 0.961340
Si Si3 0.427161 0.919743 0.620755
Si Si4 0.428822 0.582583 0.459505
Si Si5 0.076761 0.083231 0.788677
Si Si6 0.579733 0.577031 0.864811
O O1 0.750000 0.047910 0.691823
O O2 0.963634 0.250000 0.689548
O O3 0.971394 0.038405 0.748134
O O4 0.025025 0.979957 0.667689
O O5 0.750000 0.589909 0.967724
O O6 0.505340 0.750000 0.964361
O O7 0.532998 0.522577 0.913416
O O8 0.500000 0.500000 0.000000
O O9 0.250000 0.945214 0.613316
O O10 0.468684 0.750000 0.617522
O O11 0.519571 0.007725 0.584857
O O12 0.500000 0.500000 0.500000
O O13 0.250000 0.572320 0.463259
O O14 0.482887 0.750000 0.459750
O O15 0.250000 0.054917 0.775360
O O16 0.048600 0.250000 0.801501
O O17 0.036915 0.987244 0.830376
O O18 0.750000 0.524237 0.853681
O O19 0.572218 0.750000 0.863345
#
# Coordination Sequence:
#
# PCOD8245019 Si02
#       6
#     8   8   8   8   8   8
#     4  10  21  38  60  84 110 144 186 228 272 325
#     4   9  19  35  53  75 104 137 175 219 266 319
#     4  11  24  40  59  86 118 151 189 231 276 329
#     4  11  24  41  62  89 119 152 192 235 280 331
#     4  10  21  36  55  81 111 142 178 222 272 324
#     4   9  19  36  55  75 103 140 179 219 266 320
#
# _framework density 19.312660999999999
#
# number of rings (size 3 to 8) (size 9 to 14) (size 15 to 20)
#    0.000    2.000    0.000    4.000    0.000   11.333 
#    0.000    5.000    0.000    0.000    0.000    0.000 
#    0.000    0.000    0.000    0.000    0.000    0.000 
#
# Total GULP energy -595315.344752 kJ/mol
# GULP energy per Si atom -12402.403016 kJ/mol
# Density = 1.926870 g / cm^3
# Si number density = 19.312661 Si / 1000 Ang^3
#
#
#
# Elastic Constant Matrix: (Units=GPa)
#
#
# Indices 1 2 3 4 5 6 
#
# 1 56.1478 40.4304 32.7882 0.0000 0.0000 0.0000
# 2 40.4304 94.5327 59.1348 0.0000 0.0000 0.0000
# 3 32.7882 59.1348 122.3021 0.0000 0.0000 0.0000
# 4 0.0000 0.0000 0.0000 40.0438 0.0000 0.0000
# 5 0.0000 0.0000 0.0000 0.0000 42.0769 0.0000
# 6 0.0000 0.0000 0.0000 0.0000 0.0000 31.9666
#
#
#
# Elastic Compliance Matrix: (Units=1/GPa)
#
#
# Indices 1 2 3 4 5 6 
#
# 1 0.026180 -0.009758 -0.002301 0.000000 0.000000 0.000000
# 2 -0.009758 0.018802 -0.006475 0.000000 0.000000 0.000000
# 3 -0.002301 -0.006475 0.011924 0.000000 0.000000 0.000000
# 4 0.000000 0.000000 0.000000 0.024973 0.000000 0.000000
# 5 0.000000 0.000000 0.000000 0.000000 0.023766 0.000000
# 6 0.000000 0.000000 0.000000 0.000000 0.000000 0.031283
#
#
# Mechanical properties :
#
#
# Convention : Reuss Voigt Hill
#
# Bulk Modulus (GPa) = 50.40533 59.74327 55.07430
# Shear Modulus (GPa) = 27.68442 32.19274 29.93858
#
# Velocity S-wave (km/s) = 3.79025 4.08723 3.94154
# Velocity P-wave (km/s) = 6.73134 7.29903 7.02092
#
# Compressibility (1/GPa) = 0.01983917
#
# Stress axis : x y z
#
# Youngs Moduli (GPa) = 38.19745 53.18571 83.86385
#
# Poissons Ratio (x) = 0.51896 0.19294
# Poissons Ratio (y) = 0.37271 0.54303
# Poissons Ratio (z) = 0.08788 0.34438
#
# Static dielectric constant tensor:
#      x y z
#    x 3.548690 0.000000 0.000000 
#    y 0.000000 3.241630 0.000000 
#    z 0.000000 0.000000 3.633400 
# 
# 
# High freq. dielectric constant tensor:
#      x y z
#    x 1.755810 0.000000 0.000000 
#    y 0.000000 1.748780 0.000000 
#    z 0.000000 0.000000 1.766300 
# 
# From -- ./inp_files/32906.got.cif
#   From: 2010.03.12/outbox.cif.g09.slc.cpg/sg59_17_cif.got.tgz:32906.got - 2010.04.16 16:29:54.
