data_PCOD8245286
_publ_section_title
;
Structure prediction by ZEFSAII (Michael W. Deem and Ramdas Pophale) SiO2 
 PCOD8245286
Probable space group: P M M N
;
_chemical_formula_sum "Si O2"
_cell_formula_units_Z 64
_cell_length_a 8.831895
_cell_length_b 28.358294
_cell_length_c 12.540091
_cell_angle_alpha 90.000000
_cell_angle_beta 90.000000
_cell_angle_gamma 90.000000
_cell_volume 3140.759528
_symmetry_space_group_name_H-M "P M M N"
_symmetry_group_IT_number 59
_space_group.IT_coordinate_system_code '2'
_symmetry_cell_setting 'orthorhombic'
loop_
_space_group_symop_operation_xyz
x,y,z
1/2-x,1/2-y,z
1/2+x,-y,-z
-x,1/2+y,-z
-x,-y,-z
1/2+x,1/2+y,-z
1/2-x,y,z
x,1/2-y,z
loop_
_atom_site_type_symbol
_atom_site_label
_atom_site_fract_x
_atom_site_fract_y
_atom_site_fract_z
Si Si1 0.428554 0.481908 0.108247
Si Si2 0.928697 0.131005 0.388537
Si Si3 0.428881 0.376243 0.166698
Si Si4 0.077889 0.305336 0.560852
Si Si5 0.422451 0.665627 0.222821
Si Si6 0.577058 0.438046 0.730780
Si Si7 0.427673 0.050120 0.513986
Si Si8 0.423216 0.196913 0.986425
O O1 0.250000 0.484014 0.094042
O O2 0.482720 0.429063 0.135902
O O3 0.481618 0.517235 0.202044
O O4 0.500000 0.500000 0.000000
O O5 0.750000 0.124785 0.391420
O O6 0.984180 0.142836 0.270013
O O7 0.974879 0.172021 0.469662
O O8 0.007722 0.082364 0.420622
O O9 0.250000 0.374620 0.188017
O O10 0.478507 0.340587 0.073668
O O11 0.250000 0.323696 0.547835
O O12 0.068167 0.250000 0.544837
O O13 0.022323 0.318950 0.677632
O O14 0.250000 0.679882 0.247385
O O15 0.436392 0.609577 0.200068
O O16 0.476463 0.692764 0.118668
O O17 0.750000 0.446358 0.692829
O O18 0.471484 0.429381 0.628870
O O19 0.250000 0.046812 0.500650
O O20 0.500000 0.000000 0.500000
O O21 0.250000 0.186388 0.954941
O O22 0.441257 0.250000 0.032087
#
# Coordination Sequence:
#
# PCOD8245286 Si02
#       8
#     8   8   8   8   8   8   8   8
#     4  10  21  37  59  87 121 161 207 257 312 374
#     4  12  25  42  64  93 128 165 210 264 322 385
#     4  10  22  41  63  88 122 167 214 262 316 378
#     4  11  24  42  65  92 124 166 214 263 319 384
#     4  11  22  37  61  92 127 162 204 262 323 383
#     4  10  21  37  57  86 123 161 202 255 314 374
#     4  12  24  39  62  90 123 165 210 257 310 373
#     4  10  22  40  62  88 120 161 211 265 321 383
#
# _framework density 20.377237000000001
#
# number of rings (size 3 to 8) (size 9 to 14) (size 15 to 20)
#    0.000    1.250    1.250    4.875    0.000    6.250 
#    0.000    1.250    0.000    0.000    0.000    0.000 
#    0.000    0.000    0.000    0.000    0.000    0.000 
#
# Total GULP energy -793941.706250 kJ/mol
# GULP energy per Si atom -12405.339160 kJ/mol
# Density = 2.033086 g / cm^3
# Si number density = 20.377237 Si / 1000 Ang^3
#
#
#
# Elastic Constant Matrix: (Units=GPa)
#
#
# Indices 1 2 3 4 5 6 
#
# 1 105.0374 32.3401 42.2744 0.0000 0.0000 0.0000
# 2 32.3401 95.9714 32.7902 0.0000 0.0000 0.0000
# 3 42.2744 32.7902 116.8626 0.0000 0.0000 0.0000
# 4 0.0000 0.0000 0.0000 34.1321 0.0000 0.0000
# 5 0.0000 0.0000 0.0000 0.0000 36.4485 0.0000
# 6 0.0000 0.0000 0.0000 0.0000 0.0000 28.7516
#
#
#
# Elastic Compliance Matrix: (Units=1/GPa)
#
#
# Indices 1 2 3 4 5 6 
#
# 1 0.011777 -0.002779 -0.003480 0.000000 0.000000 0.000000
# 2 -0.002779 0.012181 -0.002412 0.000000 0.000000 0.000000
# 3 -0.003480 -0.002412 0.010493 0.000000 0.000000 0.000000
# 4 0.000000 0.000000 0.000000 0.029298 0.000000 0.000000
# 5 0.000000 0.000000 0.000000 0.000000 0.027436 0.000000
# 6 0.000000 0.000000 0.000000 0.000000 0.000000 0.034781
#
#
# Mechanical properties :
#
#
# Convention : Reuss Voigt Hill
#
# Bulk Modulus (GPa) = 58.45806 59.18674 58.82240
# Shear Modulus (GPa) = 33.55453 33.89756 33.72604
#
# Velocity S-wave (km/s) = 4.06232 4.08303 4.07269
# Velocity P-wave (km/s) = 7.12414 7.16497 7.14458
#
# Compressibility (1/GPa) = 0.01710628
#
# Stress axis : x y z
#
# Youngs Moduli (GPa) = 84.91179 82.09800 95.30236
#
# Poissons Ratio (x) = 0.22819 0.33169
# Poissons Ratio (y) = 0.23601 0.22990
# Poissons Ratio (z) = 0.29552 0.19804
#
# Static dielectric constant tensor:
#      x y z
#    x 3.465780 0.000000 0.000000 
#    y 0.000000 3.705040 0.000000 
#    z 0.000000 0.000000 3.884270 
# 
# 
# High freq. dielectric constant tensor:
#      x y z
#    x 1.795490 0.000000 0.000000 
#    y 0.000000 1.812250 0.000000 
#    z 0.000000 0.000000 1.797610 
# 
# From -- ./inp_files/15007.got.cif
#   From: 2010.03.12/outbox.cif.g09.slc.cpg/sg59_8_cif.got.tgz:15007.got - 2010.04.16 16:29:54.
