data_PCOD8245299
_publ_section_title
;
Structure prediction by ZEFSAII (Michael W. Deem and Ramdas Pophale) SiO2 
 PCOD8245299
Probable space group: P M M N
;
_chemical_formula_sum "Si O2"
_cell_formula_units_Z 48
_cell_length_a 8.928161
_cell_length_b 8.951367
_cell_length_c 30.706323
_cell_angle_alpha 90.000000
_cell_angle_beta 90.000000
_cell_angle_gamma 90.000000
_cell_volume 2454.026174
_symmetry_space_group_name_H-M "P M M N"
_symmetry_group_IT_number 59
_space_group.IT_coordinate_system_code '2'
_symmetry_cell_setting 'orthorhombic'
loop_
_space_group_symop_operation_xyz
x,y,z
1/2-x,1/2-y,z
1/2+x,-y,-z
-x,1/2+y,-z
-x,-y,-z
1/2+x,1/2+y,-z
1/2-x,y,z
x,1/2-y,z
loop_
_atom_site_type_symbol
_atom_site_label
_atom_site_fract_x
_atom_site_fract_y
_atom_site_fract_z
Si Si1 0.922302 0.574375 0.629152
Si Si2 0.923552 0.923305 0.290789
Si Si3 0.925586 0.077957 0.120831
Si Si4 0.921479 0.074176 0.959210
Si Si5 0.926387 0.420350 0.540528
Si Si6 0.924903 0.578304 0.788828
O O1 0.750000 0.531175 0.639048
O O2 0.942166 0.750000 0.624309
O O3 0.979465 0.499662 0.584722
O O4 0.025764 0.516771 0.667680
O O5 0.750000 0.956020 0.281573
O O6 0.954326 0.750000 0.299997
O O7 0.018372 0.972528 0.249266
O O8 0.750000 0.048320 0.121307
O O9 0.963354 0.250000 0.110181
O O10 0.990896 0.031158 0.167346
O O11 0.999321 0.973888 0.084995
O O12 0.750000 0.021445 0.957837
O O13 0.935052 0.250000 0.964554
O O14 0.000000 0.000000 0.000000
O O15 0.750000 0.433508 0.535121
O O16 0.980838 0.250000 0.542228
O O17 0.000000 0.500000 0.500000
O O18 0.750000 0.552089 0.796091
O O19 0.959694 0.750000 0.776462
#
# Coordination Sequence:
#
# PCOD8245299 Si02
#       6
#     8   8   8   8   8   8
#     4  10  21  38  60  84 110 144 187 233 282 336
#     4  11  24  39  56  82 115 150 188 231 280 333
#     4  10  21  38  61  88 117 150 189 233 282 336
#     4  11  24  40  59  85 116 151 192 236 284 338
#     4  10  21  37  58  84 114 149 188 230 279 334
#     4  10  21  38  61  87 114 148 189 231 279 335
#
# _framework density 19.559692999999999
#
# number of rings (size 3 to 8) (size 9 to 14) (size 15 to 20)
#    0.000    1.667    0.000    4.000    0.000   12.000 
#    0.000    0.000    0.000    0.000    0.000    0.000 
#    0.000    0.000    0.000    0.000    0.000    0.000 
#
# Total GULP energy -595507.517724 kJ/mol
# GULP energy per Si atom -12406.406619 kJ/mol
# Density = 1.951517 g / cm^3
# Si number density = 19.559693 Si / 1000 Ang^3
#
#
#
# Elastic Constant Matrix: (Units=GPa)
#
#
# Indices 1 2 3 4 5 6 
#
# 1 86.7702 41.4189 54.9544 0.0000 0.0000 0.0000
# 2 41.4189 87.3911 54.8389 0.0000 0.0000 0.0000
# 3 54.9544 54.8389 140.2326 0.0000 0.0000 0.0000
# 4 0.0000 0.0000 0.0000 43.9722 0.0000 0.0000
# 5 0.0000 0.0000 0.0000 0.0000 43.9720 0.0000
# 6 0.0000 0.0000 0.0000 0.0000 0.0000 32.2544
#
#
#
# Elastic Compliance Matrix: (Units=1/GPa)
#
#
# Indices 1 2 3 4 5 6 
#
# 1 0.016888 -0.005104 -0.004622 0.000000 0.000000 0.000000
# 2 -0.005104 0.016706 -0.004533 0.000000 0.000000 0.000000
# 3 -0.004622 -0.004533 0.010715 0.000000 0.000000 0.000000
# 4 0.000000 0.000000 0.000000 0.022742 0.000000 0.000000
# 5 0.000000 0.000000 0.000000 0.000000 0.022742 0.000000
# 6 0.000000 0.000000 0.000000 0.000000 0.000000 0.031004
#
#
# Mechanical properties :
#
#
# Convention : Reuss Voigt Hill
#
# Bulk Modulus (GPa) = 63.32511 68.53536 65.93024
# Shear Modulus (GPa) = 32.34599 34.91850 33.63224
#
# Velocity S-wave (km/s) = 4.07099 4.22978 4.15114
# Velocity P-wave (km/s) = 7.38531 7.67918 7.53368
#
# Compressibility (1/GPa) = 0.01579152
#
# Stress axis : x y z
#
# Youngs Moduli (GPa) = 59.21235 59.85799 93.32597
#
# Poissons Ratio (x) = 0.30549 0.43139
# Poissons Ratio (y) = 0.30220 0.42305
# Poissons Ratio (z) = 0.27370 0.27134
#
# Static dielectric constant tensor:
#      x y z
#    x 3.684720 0.000000 0.000000 
#    y 0.000000 3.617680 0.000000 
#    z 0.000000 0.000000 3.735900 
# 
# 
# High freq. dielectric constant tensor:
#      x y z
#    x 1.769590 0.000000 0.000000 
#    y 0.000000 1.768720 0.000000 
#    z 0.000000 0.000000 1.777600 
# 
# From -- ./inp_files/32820.got.cif
#   From: 2010.03.12/outbox.cif.g09.slc.cpg/sg59_17_cif.got.tgz:32820.got - 2010.04.16 16:29:54.
