data_PCOD8245303
_publ_section_title
;
Structure prediction by ZEFSAII (Michael W. Deem and Ramdas Pophale) SiO2 
 PCOD8245303
Probable space group: P M M N
;
_chemical_formula_sum "Si O2"
_cell_formula_units_Z 32
_cell_length_a 8.858391
_cell_length_b 8.890902
_cell_length_c 20.566066
_cell_angle_alpha 90.000000
_cell_angle_beta 90.000000
_cell_angle_gamma 90.000000
_cell_volume 1619.764566
_symmetry_space_group_name_H-M "P M M N"
_symmetry_group_IT_number 59
_space_group.IT_coordinate_system_code '2'
_symmetry_cell_setting 'orthorhombic'
loop_
_space_group_symop_operation_xyz
x,y,z
1/2-x,1/2-y,z
1/2+x,-y,-z
-x,1/2+y,-z
-x,-y,-z
1/2+x,1/2+y,-z
1/2-x,y,z
x,1/2-y,z
loop_
_atom_site_type_symbol
_atom_site_label
_atom_site_fract_x
_atom_site_fract_y
_atom_site_fract_z
Si Si1 0.072193 0.420932 0.938755
Si Si2 0.928088 0.077989 0.438205
Si Si3 0.574666 0.074852 0.684095
Si Si4 0.923934 0.427258 0.194505
O O1 0.250000 0.429375 0.947020
O O2 0.014635 0.250000 0.934443
O O3 0.020379 0.506566 0.873897
O O4 0.000000 0.500000 0.000000
O O5 0.750000 0.068080 0.445028
O O6 0.983118 0.250000 0.434757
O O7 0.000000 0.000000 0.500000
O O8 0.977221 0.993963 0.373468
O O9 0.750000 0.046024 0.669644
O O10 0.537144 0.250000 0.689586
O O11 0.530017 0.996012 0.750820
O O12 0.750000 0.471097 0.208481
O O13 0.946001 0.250000 0.192945
#
# Coordination Sequence:
#
# PCOD8245303 Si02
#       4
#     8   8   8   8
#     4  10  21  37  58  84 114 150 191 235 286 342
#     4  11  24  41  62  89 119 152 192 236 283 337
#     4  11  24  40  59  86 118 152 192 236 283 338
#     4  10  21  38  60  85 113 148 191 237 286 341
#
# _framework density 19.755956000000001
#
# number of rings (size 3 to 8) (size 9 to 14) (size 15 to 20)
#    0.000    1.500    0.000    4.500    0.000   14.000 
#    0.000    0.000    0.000    0.000    0.000    0.000 
#    0.000    0.000    0.000    0.000    0.000    0.000 
#
# Total GULP energy -396998.254787 kJ/mol
# GULP energy per Si atom -12406.195462 kJ/mol
# Density = 1.971099 g / cm^3
# Si number density = 19.755956 Si / 1000 Ang^3
#
#
#
# Elastic Constant Matrix: (Units=GPa)
#
#
# Indices 1 2 3 4 5 6 
#
# 1 42.2260 37.6181 32.8025 0.0000 0.0000 0.0000
# 2 37.6181 130.8367 63.2927 0.0000 0.0000 0.0000
# 3 32.8025 63.2927 151.4785 0.0000 0.0000 0.0000
# 4 0.0000 0.0000 0.0000 47.8873 0.0000 0.0000
# 5 0.0000 0.0000 0.0000 0.0000 43.3325 0.0000
# 6 0.0000 0.0000 0.0000 0.0000 0.0000 33.0128
#
#
#
# Elastic Compliance Matrix: (Units=1/GPa)
#
#
# Indices 1 2 3 4 5 6 
#
# 1 0.033732 -0.007727 -0.004076 0.000000 0.000000 0.000000
# 2 -0.007727 0.011349 -0.003069 0.000000 0.000000 0.000000
# 3 -0.004076 -0.003069 0.008767 0.000000 0.000000 0.000000
# 4 0.000000 0.000000 0.000000 0.020882 0.000000 0.000000
# 5 0.000000 0.000000 0.000000 0.000000 0.023077 0.000000
# 6 0.000000 0.000000 0.000000 0.000000 0.000000 0.030291
#
#
# Mechanical properties :
#
#
# Convention : Reuss Voigt Hill
#
# Bulk Modulus (GPa) = 41.48627 65.77420 53.63024
# Shear Modulus (GPa) = 30.14273 37.56838 33.85555
#
# Velocity S-wave (km/s) = 3.91033 4.36549 4.14416
# Velocity P-wave (km/s) = 6.43681 7.66653 7.07842
#
# Compressibility (1/GPa) = 0.02410436
#
# Stress axis : x y z
#
# Youngs Moduli (GPa) = 29.64532 88.11117 114.06983
#
# Poissons Ratio (x) = 0.68082 0.46497
# Poissons Ratio (y) = 0.22906 0.35007
# Poissons Ratio (z) = 0.12084 0.27040
#
# Static dielectric constant tensor:
#      x y z
#    x 3.586640 0.000000 0.000000 
#    y 0.000000 3.889350 0.000000 
#    z 0.000000 0.000000 3.459710 
# 
# 
# High freq. dielectric constant tensor:
#      x y z
#    x 1.768530 0.000000 0.000000 
#    y 0.000000 1.791750 0.000000 
#    z 0.000000 0.000000 1.788720 
# 
# From -- ./inp_files/28566.got.cif
#   From: 2010.03.12/outbox.cif.g09.slc.cpg/sg59_15_cif.got.tgz:28566.got - 2010.04.16 16:29:54.
