data_PCOD8245735
_publ_section_title
;
Structure prediction by ZEFSAII (Michael W. Deem and Ramdas Pophale) SiO2 
 PCOD8245735
Probable space group: P M M N
;
_chemical_formula_sum "Si O2"
_cell_formula_units_Z 40
_cell_length_a 16.502164
_cell_length_b 9.527768
_cell_length_c 12.712271
_cell_angle_alpha 90.000000
_cell_angle_beta 90.000000
_cell_angle_gamma 90.000000
_cell_volume 1998.734989
_symmetry_space_group_name_H-M "P M M N"
_symmetry_group_IT_number 59
_space_group.IT_coordinate_system_code '2'
_symmetry_cell_setting 'orthorhombic'
loop_
_space_group_symop_operation_xyz
x,y,z
1/2-x,1/2-y,z
1/2+x,-y,-z
-x,1/2+y,-z
-x,-y,-z
1/2+x,1/2+y,-z
1/2-x,y,z
x,1/2-y,z
loop_
_atom_site_type_symbol
_atom_site_label
_atom_site_fract_x
_atom_site_fract_y
_atom_site_fract_z
Si Si1 0.843932 0.099196 0.656608
Si Si2 0.924734 0.082529 0.449803
Si Si3 0.655906 0.598475 0.829377
Si Si4 0.423011 0.413479 0.962454
Si Si5 0.154268 0.415305 0.740078
O O1 0.750000 0.107299 0.682576
O O2 0.885831 0.250000 0.674507
O O3 0.854501 0.055632 0.535730
O O4 0.887369 0.998879 0.741877
O O5 0.941786 0.250000 0.431928
O O6 0.893658 0.009458 0.343970
O O7 0.000000 0.000000 0.500000
O O8 0.750000 0.606475 0.804620
O O9 0.614879 0.750000 0.813211
O O10 0.644171 0.550347 0.949226
O O11 0.446076 0.250000 0.959172
O O12 0.384781 0.459460 0.851656
O O13 0.500000 0.500000 0.000000
O O14 0.250000 0.451413 0.740292
O O15 0.141444 0.250000 0.716807
#
# Coordination Sequence:
#
# PCOD8245735 Si02
#       5
#     8   8   8   8   8
#     4   9  19  36  57  81 111 147 186 234 291 348
#     4  11  24  40  60  87 122 159 201 252 306 362
#     4   9  18  34  57  83 111 146 189 235 283 342
#     4  10  22  38  58  86 120 156 197 246 300 355
#     4  10  22  42  66  90 121 164 210 254 306 370
#
# _framework density 20.01266
#
# number of rings (size 3 to 8) (size 9 to 14) (size 15 to 20)
#    0.000    2.200    0.000    1.800    2.800    6.800 
#    0.000    2.000    0.000    3.600    0.000    0.000 
#    0.000    0.000    0.000    0.000    0.000    0.000 
#
# Total GULP energy -495579.145684 kJ/mol
# GULP energy per Si atom -12389.478642 kJ/mol
# Density = 1.996711 g / cm^3
# Si number density = 20.012660 Si / 1000 Ang^3
#
#
#
# Elastic Constant Matrix: (Units=GPa)
#
#
# Indices 1 2 3 4 5 6 
#
# 1 69.3228 46.2357 40.7483 0.0000 0.0000 0.0000
# 2 46.2357 103.8835 92.4690 0.0000 0.0000 0.0000
# 3 40.7483 92.4690 188.8269 0.0000 0.0000 0.0000
# 4 0.0000 0.0000 0.0000 38.0070 0.0000 0.0000
# 5 0.0000 0.0000 0.0000 0.0000 38.0463 0.0000
# 6 0.0000 0.0000 0.0000 0.0000 0.0000 23.2718
#
#
#
# Elastic Compliance Matrix: (Units=1/GPa)
#
#
# Indices 1 2 3 4 5 6 
#
# 1 0.020516 -0.009201 0.000078 0.000000 0.000000 0.000000
# 2 -0.009201 0.021191 -0.008392 0.000000 0.000000 0.000000
# 3 0.000078 -0.008392 0.009388 0.000000 0.000000 0.000000
# 4 0.000000 0.000000 0.000000 0.026311 0.000000 0.000000
# 5 0.000000 0.000000 0.000000 0.000000 0.026284 0.000000
# 6 0.000000 0.000000 0.000000 0.000000 0.000000 0.042970
#
#
# Mechanical properties :
#
#
# Convention : Reuss Voigt Hill
#
# Bulk Modulus (GPa) = 62.24017 80.10436 71.17226
# Shear Modulus (GPa) = 26.73170 32.03703 29.38437
#
# Velocity S-wave (km/s) = 3.65874 4.00539 3.83598
# Velocity P-wave (km/s) = 7.00117 7.84249 7.43374
#
# Compressibility (1/GPa) = 0.01606679
#
# Stress axis : x y z
#
# Youngs Moduli (GPa) = 48.74295 47.19028 106.51488
#
# Poissons Ratio (x) = 0.43419 -0.00835
# Poissons Ratio (y) = 0.44847 0.89384
# Poissons Ratio (z) = -0.00382 0.39601
#
# Static dielectric constant tensor:
#      x y z
#    x 3.515830 0.000000 0.000000 
#    y 0.000000 4.184190 0.000000 
#    z 0.000000 0.000000 4.069430 
# 
# 
# High freq. dielectric constant tensor:
#      x y z
#    x 1.767740 0.000000 0.000000 
#    y 0.000000 1.782710 0.000000 
#    z 0.000000 0.000000 1.798540 
# 
# From -- ./inp_files/13829.got.cif
#   From: 2010.03.12/outbox.cif.g09.slc.cpg/sg59_7_cif.got.tgz:13829.got - 2010.04.16 16:29:54.
