data_PCOD8245690
_publ_section_title
;
Structure prediction by ZEFSAII (Michael W. Deem and Ramdas Pophale) SiO2 
 PCOD8245690
Probable space group: P M M N
;
_chemical_formula_sum "Si O2"
_cell_formula_units_Z 40
_cell_length_a 24.260991
_cell_length_b 8.598469
_cell_length_c 9.686964
_cell_angle_alpha 90.000000
_cell_angle_beta 90.000000
_cell_angle_gamma 90.000000
_cell_volume 2020.772171
_symmetry_space_group_name_H-M "P M M N"
_symmetry_group_IT_number 59
_space_group.IT_coordinate_system_code '2'
_symmetry_cell_setting 'orthorhombic'
loop_
_space_group_symop_operation_xyz
x,y,z
1/2-x,1/2-y,z
1/2+x,-y,-z
-x,1/2+y,-z
-x,-y,-z
1/2+x,1/2+y,-z
1/2-x,y,z
x,1/2-y,z
loop_
_atom_site_type_symbol
_atom_site_label
_atom_site_fract_x
_atom_site_fract_y
_atom_site_fract_z
Si Si1 0.250000 0.064376 0.776529
Si Si2 0.345183 0.432980 0.976559
Si Si3 0.035257 0.433558 0.879225
Si Si4 0.150184 0.064128 0.289014
Si Si5 0.250000 0.934251 0.467613
Si Si6 0.028079 0.067999 0.367394
O O1 0.250000 0.250000 0.756841
O O2 0.250000 0.987668 0.626393
O O3 0.198863 0.003016 0.867380
O O4 0.339124 0.250000 0.989646
O O5 0.338296 0.498604 0.132939
O O6 0.402716 0.481569 0.911235
O O7 0.027669 0.250000 0.861294
O O8 0.015957 0.523996 0.746476
O O9 0.000000 0.500000 0.000000
O O10 0.152830 0.250000 0.293962
O O11 0.089625 0.002877 0.336118
O O12 0.195503 0.997152 0.392563
O O13 0.250000 0.750000 0.461181
O O14 0.033379 0.250000 0.382267
O O15 0.000000 0.000000 0.500000
#
# Coordination Sequence:
#
# PCOD8245690 Si02
#       6
#     4   8   8   8   4   8
#     4  10  21  40  66  90 114 154 203 254 306 366
#     4   9  19  38  66  92 115 152 208 254 294 362
#     4  11  21  38  62  94 128 163 206 252 307 369
#     4  10  21  43  68  88 117 164 211 248 298 373
#     4  12  27  42  58  90 128 158 199 258 314 360
#     4  11  24  41  63  93 128 167 209 256 310 370
#
# _framework density 19.794414
#
# number of rings (size 3 to 8) (size 9 to 14) (size 15 to 20)
#    0.000    1.600    2.000    2.700    2.800    3.200 
#    0.000    3.000    0.000    0.000    0.000    0.000 
#    0.000    0.000    0.000    0.000    0.000    0.000 
#
# Total GULP energy -495846.832915 kJ/mol
# GULP energy per Si atom -12396.170823 kJ/mol
# Density = 1.974936 g / cm^3
# Si number density = 19.794414 Si / 1000 Ang^3
#
#
#
# Elastic Constant Matrix: (Units=GPa)
#
#
# Indices 1 2 3 4 5 6 
#
# 1 163.8056 28.4250 92.6090 0.0000 0.0000 0.0000
# 2 28.4250 37.9145 23.2409 0.0000 0.0000 0.0000
# 3 92.6090 23.2409 193.7872 0.0000 0.0000 0.0000
# 4 0.0000 0.0000 0.0000 32.6260 0.0000 0.0000
# 5 0.0000 0.0000 0.0000 0.0000 -5.4588 0.0000
# 6 0.0000 0.0000 0.0000 0.0000 0.0000 29.3253
#
#
#
# Elastic Compliance Matrix: (Units=1/GPa)
#
#
# Indices 1 2 3 4 5 6 
#
# 1 0.009008 -0.004441 -0.003772 0.000000 0.000000 0.000000
# 2 -0.004441 0.030658 -0.001554 0.000000 0.000000 0.000000
# 3 -0.003772 -0.001554 0.007149 0.000000 0.000000 0.000000
# 4 0.000000 0.000000 0.000000 0.030650 0.000000 0.000000
# 5 0.000000 0.000000 0.000000 0.000000 -0.183191 0.000000
# 6 0.000000 0.000000 0.000000 0.000000 0.000000 0.034100
#
#
# Mechanical properties :
#
#
# Convention : Reuss Voigt Hill
#
# Bulk Modulus (GPa) = 36.65761 76.00633 56.33197
# Shear Modulus (GPa) = -116.28916 28.04732 -44.12092
#
# Velocity S-wave (km/s) = -7.67307 3.76830 -4.72631
# Velocity P-wave (km/s) = 7.74222 7.57725 1.12413
#
# Compressibility (1/GPa) = 0.02727947
#
# Stress axis : x y z
#
# Youngs Moduli (GPa) = 111.01040 32.61844 139.87089
#
# Poissons Ratio (x) = 0.14486 0.52763
# Poissons Ratio (y) = 0.49302 0.21741
# Poissons Ratio (z) = 0.41876 0.05070
#
# Static dielectric constant tensor:
#      x y z
#    x 3.816660 0.000000 0.000000 
#    y 0.000000 3.457450 0.000000 
#    z 0.000000 0.000000 3.622100 
# 
# 
# High freq. dielectric constant tensor:
#      x y z
#    x 1.791030 0.000000 0.000000 
#    y 0.000000 1.747370 0.000000 
#    z 0.000000 0.000000 1.792430 
# 
# From -- ./inp_files/12398.got.cif
#   From: 2010.03.12/outbox.cif.g09.slc.cpg/sg59_7_cif.got.tgz:12398.got - 2010.04.16 16:29:54.
