data_PCOD8245051
_publ_section_title
;
Structure prediction by ZEFSAII (Michael W. Deem and Ramdas Pophale) SiO2 
 PCOD8245051
Probable space group: P M M N
;
_chemical_formula_sum "Si O2"
_cell_formula_units_Z 40
_cell_length_a 8.885303
_cell_length_b 14.892698
_cell_length_c 15.144371
_cell_angle_alpha 90.000000
_cell_angle_beta 90.000000
_cell_angle_gamma 90.000000
_cell_volume 2003.996070
_symmetry_space_group_name_H-M "P M M N"
_symmetry_group_IT_number 59
_space_group.IT_coordinate_system_code '2'
_symmetry_cell_setting 'orthorhombic'
loop_
_space_group_symop_operation_xyz
x,y,z
1/2-x,1/2-y,z
1/2+x,-y,-z
-x,1/2+y,-z
-x,-y,-z
1/2+x,1/2+y,-z
1/2-x,y,z
x,1/2-y,z
loop_
_atom_site_type_symbol
_atom_site_label
_atom_site_fract_x
_atom_site_fract_y
_atom_site_fract_z
Si Si1 0.074657 0.397208 0.167513
Si Si2 0.427043 0.069016 0.770612
Si Si3 0.570801 0.750000 0.698838
Si Si4 0.927501 0.250000 0.838312
Si Si5 0.928705 0.750000 0.501699
Si Si6 0.423050 0.250000 0.023474
Si Si7 0.073504 0.064271 0.570639
O O1 0.250000 0.420260 0.177032
O O2 0.014963 0.339239 0.250750
O O3 0.044276 0.339939 0.079353
O O4 0.983387 0.490444 0.164034
O O5 0.250000 0.082795 0.782407
O O6 0.505596 0.162333 0.792329
O O7 0.470186 0.039755 0.670786
O O8 0.750000 0.750000 0.702051
O O9 0.503138 0.750000 0.600680
O O10 0.750000 0.250000 0.826231
O O11 0.966198 0.250000 0.941431
O O12 0.750000 0.750000 0.509112
O O13 0.987288 0.664178 0.448510
O O14 0.250000 0.250000 0.991440
O O15 0.250000 0.059005 0.555637
O O16 0.000000 0.000000 0.500000
#
# Coordination Sequence:
#
# PCOD8245051 Si02
#       7
#     8   8   4   4   4   4   8
#     4   9  18  35  60  87 113 145 188 234 286 347
#     4  11  23  39  58  83 118 156 191 236 292 340
#     4   8  14  27  52  83 111 142 183 234 282 328
#     4  12  26  42  62  85 112 151 196 237 282 345
#     4   9  16  29  50  74 105 146 186 225 273 327
#     4   9  20  40  64  90 118 145 181 236 291 342
#     4  10  21  36  56  82 113 151 193 235 280 332
#
# _framework density 19.960118000000001
#
# number of rings (size 3 to 8) (size 9 to 14) (size 15 to 20)
#    0.000    2.200    0.000    4.500    0.000    6.400 
#    0.000    2.000    0.000    6.000    0.000    0.000 
#    0.000    0.000    0.000    0.000    0.000    0.000 
#
# Total GULP energy -496008.864903 kJ/mol
# GULP energy per Si atom -12400.221623 kJ/mol
# Density = 1.991469 g / cm^3
# Si number density = 19.960118 Si / 1000 Ang^3
#
#
#
# Elastic Constant Matrix: (Units=GPa)
#
#
# Indices 1 2 3 4 5 6 
#
# 1 85.7235 59.7582 48.0241 0.0000 0.0000 0.0000
# 2 59.7582 161.1390 45.8585 0.0000 0.0000 0.0000
# 3 48.0241 45.8585 93.4886 0.0000 0.0000 0.0000
# 4 0.0000 0.0000 0.0000 23.7295 0.0000 0.0000
# 5 0.0000 0.0000 0.0000 0.0000 28.9369 0.0000
# 6 0.0000 0.0000 0.0000 0.0000 0.0000 29.0240
#
#
#
# Elastic Compliance Matrix: (Units=1/GPa)
#
#
# Indices 1 2 3 4 5 6 
#
# 1 0.019379 -0.005060 -0.007473 0.000000 0.000000 0.000000
# 2 -0.005060 0.008534 -0.001587 0.000000 0.000000 0.000000
# 3 -0.007473 -0.001587 0.015314 0.000000 0.000000 0.000000
# 4 0.000000 0.000000 0.000000 0.042142 0.000000 0.000000
# 5 0.000000 0.000000 0.000000 0.000000 0.034558 0.000000
# 6 0.000000 0.000000 0.000000 0.000000 0.000000 0.034454
#
#
# Mechanical properties :
#
#
# Convention : Reuss Voigt Hill
#
# Bulk Modulus (GPa) = 66.72296 71.95921 69.34108
# Shear Modulus (GPa) = 26.65021 28.78542 27.71782
#
# Velocity S-wave (km/s) = 3.65797 3.80168 3.73052
# Velocity P-wave (km/s) = 7.16531 7.44313 7.30554
#
# Compressibility (1/GPa) = 0.01498734
#
# Stress axis : x y z
#
# Youngs Moduli (GPa) = 51.60161 117.17924 65.30164
#
# Poissons Ratio (x) = 0.59294 0.48799
# Poissons Ratio (y) = 0.26111 0.10362
# Poissons Ratio (z) = 0.38561 0.18594
#
# Static dielectric constant tensor:
#      x y z
#    x 3.318090 0.000000 0.000000 
#    y 0.000000 3.773890 0.000000 
#    z 0.000000 0.000000 3.709990 
# 
# 
# High freq. dielectric constant tensor:
#      x y z
#    x 1.751330 0.000000 0.000000 
#    y 0.000000 1.792420 0.000000 
#    z 0.000000 0.000000 1.783380 
# 
# From -- ./inp_files/20067.got.cif
#   From: 2010.03.12/outbox.cif.g09.slc.cpg/sg59_11_cif.got.tgz:20067.got - 2010.04.16 16:29:54.
