data_PCOD8245671
_publ_section_title
;
Structure prediction by ZEFSAII (Michael W. Deem and Ramdas Pophale) SiO2 
 PCOD8245671
Probable space group: P M M N
;
_chemical_formula_sum "Si O2"
_cell_formula_units_Z 64
_cell_length_a 14.568549
_cell_length_b 8.874793
_cell_length_c 23.947122
_cell_angle_alpha 90.000000
_cell_angle_beta 90.000000
_cell_angle_gamma 90.000000
_cell_volume 3096.191813
_symmetry_space_group_name_H-M "P M M N"
_symmetry_group_IT_number 59
_space_group.IT_coordinate_system_code '2'
_symmetry_cell_setting 'orthorhombic'
loop_
_space_group_symop_operation_xyz
x,y,z
1/2-x,1/2-y,z
1/2+x,-y,-z
-x,1/2+y,-z
-x,-y,-z
1/2+x,1/2+y,-z
1/2-x,y,z
x,1/2-y,z
loop_
_atom_site_type_symbol
_atom_site_label
_atom_site_fract_x
_atom_site_fract_y
_atom_site_fract_z
Si Si1 0.644822 0.571579 0.194693
Si Si2 0.642762 0.073731 0.842114
Si Si3 0.979590 0.927641 0.749176
Si Si4 0.144532 0.573514 0.574537
Si Si5 0.641374 0.914877 0.071594
Si Si6 0.642811 0.924120 0.542656
Si Si7 0.982699 0.428951 0.634188
Si Si8 0.640798 0.083501 0.965529
O O1 0.750000 0.534506 0.209002
O O2 0.626597 0.750000 0.199223
O O3 0.583038 0.480664 0.238007
O O4 0.619276 0.512664 0.132083
O O5 0.750000 0.046759 0.831800
O O6 0.618516 0.250000 0.834739
O O7 0.614114 0.017337 0.904571
O O8 0.587721 0.973214 0.798857
O O9 0.976776 0.750000 0.739840
O O10 0.945884 0.010655 0.693284
O O11 0.250000 0.543257 0.590693
O O12 0.124331 0.750000 0.567540
O O13 0.117533 0.489981 0.517560
O O14 0.082172 0.502995 0.623006
O O15 0.750000 0.905773 0.064600
O O16 0.597544 0.750000 0.070654
O O17 0.596506 0.998442 0.018579
O O18 0.750000 0.941782 0.555125
O O19 0.611750 0.750000 0.544987
O O20 0.589805 0.021251 0.587969
O O21 0.991495 0.250000 0.635292
O O22 0.750000 0.084603 0.970519
O O23 0.601042 0.250000 0.969333
#
# Coordination Sequence:
#
# PCOD8245671 Si02
#       8
#     8   8   8   8   8   8   8   8
#     4   9  19  38  61  82 109 148 190 233 285 344
#     4   9  19  38  61  82 109 148 190 233 285 344
#     4  12  26  41  58  83 114 148 193 244 289 338
#     4  10  21  39  64  94 127 159 193 235 282 334
#     4   8  14  26  48  78 108 138 175 222 278 339
#     4  10  21  39  64  94 127 159 193 235 282 334
#     4  12  25  41  62  85 116 158 199 240 286 338
#     4   8  14  26  48  78 108 138 175 222 278 339
#
# _framework density 20.670555
#
# number of rings (size 3 to 8) (size 9 to 14) (size 15 to 20)
#    0.000    2.250    0.000    4.875    0.000    4.000 
#    0.000    3.125    0.000    0.000    0.000    0.000 
#    0.000    0.000    0.000    0.000    0.000    0.000 
#
# Total GULP energy -793484.680281 kJ/mol
# GULP energy per Si atom -12398.198129 kJ/mol
# Density = 2.062351 g / cm^3
# Si number density = 20.670555 Si / 1000 Ang^3
#
#
#
# Elastic Constant Matrix: (Units=GPa)
#
#
# Indices 1 2 3 4 5 6 
#
# 1 34.8533 22.7266 9.9957 0.0000 0.0000 0.0000
# 2 22.7266 103.2454 30.7716 0.0000 0.0000 0.0000
# 3 9.9957 30.7716 77.3434 0.0000 0.0000 0.0000
# 4 0.0000 0.0000 0.0000 40.7727 0.0000 0.0000
# 5 0.0000 0.0000 0.0000 0.0000 30.6343 0.0000
# 6 0.0000 0.0000 0.0000 0.0000 0.0000 28.7159
#
#
#
# Elastic Compliance Matrix: (Units=1/GPa)
#
#
# Indices 1 2 3 4 5 6 
#
# 1 0.033672 -0.006938 -0.001592 0.000000 0.000000 0.000000
# 2 -0.006938 0.012418 -0.004044 0.000000 0.000000 0.000000
# 3 -0.001592 -0.004044 0.014744 0.000000 0.000000 0.000000
# 4 0.000000 0.000000 0.000000 0.024526 0.000000 0.000000
# 5 0.000000 0.000000 0.000000 0.000000 0.032643 0.000000
# 6 0.000000 0.000000 0.000000 0.000000 0.000000 0.034824
#
#
# Mechanical properties :
#
#
# Convention : Reuss Voigt Hill
#
# Bulk Modulus (GPa) = 28.02087 38.04777 33.03432
# Shear Modulus (GPa) = 26.33391 30.15446 28.24419
#
# Velocity S-wave (km/s) = 3.57316 3.82358 3.70049
# Velocity P-wave (km/s) = 5.53251 6.15953 5.85442
#
# Compressibility (1/GPa) = 0.03568769
#
# Stress axis : x y z
#
# Youngs Moduli (GPa) = 29.69840 80.52790 67.82435
#
# Poissons Ratio (x) = 0.55867 0.10794
# Poissons Ratio (y) = 0.20603 0.27428
# Poissons Ratio (z) = 0.04727 0.32566
#
# Static dielectric constant tensor:
#      x y z
#    x 3.634530 0.000000 0.000000 
#    y 0.000000 3.800440 0.000000 
#    z 0.000000 0.000000 3.865800 
# 
# 
# High freq. dielectric constant tensor:
#      x y z
#    x 1.806450 0.000000 0.000000 
#    y 0.000000 1.800170 0.000000 
#    z 0.000000 0.000000 1.814840 
# 
# From -- ./inp_files/32183.got.cif
#   From: 2010.03.12/outbox.cif.g09.slc.cpg/sg59_17_cif.got.tgz:32183.got - 2010.04.16 16:29:54.
