data_PCOD8245519
_publ_section_title
;
Structure prediction by ZEFSAII (Michael W. Deem and Ramdas Pophale) SiO2 
 PCOD8245519
Probable space group: P M M N
;
_chemical_formula_sum "Si O2"
_cell_formula_units_Z 48
_cell_length_a 8.988501
_cell_length_b 16.536940
_cell_length_c 16.272537
_cell_angle_alpha 90.000000
_cell_angle_beta 90.000000
_cell_angle_gamma 90.000000
_cell_volume 2418.787355
_symmetry_space_group_name_H-M "P M M N"
_symmetry_group_IT_number 59
_space_group.IT_coordinate_system_code '2'
_symmetry_cell_setting 'orthorhombic'
loop_
_space_group_symop_operation_xyz
x,y,z
1/2-x,1/2-y,z
1/2+x,-y,-z
-x,1/2+y,-z
-x,-y,-z
1/2+x,1/2+y,-z
1/2-x,y,z
x,1/2-y,z
loop_
_atom_site_type_symbol
_atom_site_label
_atom_site_fract_x
_atom_site_fract_y
_atom_site_fract_z
Si Si1 0.579654 0.064338 0.235217
Si Si2 0.579892 0.608138 0.315980
Si Si3 0.925819 0.075650 0.046536
Si Si4 0.574481 0.084999 0.517557
Si Si5 0.413089 0.156937 0.369684
Si Si6 0.076748 0.250000 0.804608
Si Si7 0.925843 0.250000 0.977844
O O1 0.750000 0.092447 0.242902
O O2 0.529081 0.064467 0.141128
O O3 0.477329 0.125242 0.284453
O O4 0.554774 0.977538 0.274887
O O5 0.750000 0.621104 0.344237
O O6 0.476486 0.620061 0.395122
O O7 0.532662 0.672341 0.248066
O O8 0.750000 0.068694 0.032573
O O9 0.983887 0.165509 0.018984
O O10 0.000000 0.000000 0.000000
O O11 0.750000 0.075728 0.515861
O O12 0.524562 0.144144 0.445229
O O13 0.500000 0.000000 0.500000
O O14 0.250000 0.117235 0.387067
O O15 0.391580 0.250000 0.355832
O O16 0.250000 0.250000 0.829516
O O17 0.977242 0.250000 0.884632
O O18 0.750000 0.250000 0.982974
#
# Coordination Sequence:
#
# PCOD8245519 Si02
#       7
#     8   8   8   8   8   4   4
#     4  10  21  38  63  89 119 161 208 250 305 370
#     4  10  21  38  60  90 122 159 204 254 303 358
#     4  10  22  40  63  93 126 164 207 256 312 373
#     4  12  24  40  62  88 120 160 204 250 303 363
#     4  11  25  42  61  88 123 161 205 254 304 360
#     4  10  22  40  64  91 124 161 204 251 302 361
#     4  10  22  40  62  91 128 163 204 257 310 367
#
# _framework density 19.844653999999998
#
# number of rings (size 3 to 8) (size 9 to 14) (size 15 to 20)
#    0.000    1.500    1.667    3.000    2.333    4.667 
#    0.000    0.000    0.000    0.000    0.000    0.000 
#    0.000    0.000    0.000    0.000    0.000    0.000 
#
# Total GULP energy -595227.761550 kJ/mol
# GULP energy per Si atom -12400.578366 kJ/mol
# Density = 1.979949 g / cm^3
# Si number density = 19.844654 Si / 1000 Ang^3
#
#
#
# Elastic Constant Matrix: (Units=GPa)
#
#
# Indices 1 2 3 4 5 6 
#
# 1 98.4560 43.1032 62.3509 0.0000 0.0000 0.0000
# 2 43.1032 85.0306 44.9998 0.0000 0.0000 0.0000
# 3 62.3509 44.9998 150.7201 0.0000 0.0000 0.0000
# 4 0.0000 0.0000 0.0000 76.0617 0.0000 0.0000
# 5 0.0000 0.0000 0.0000 0.0000 37.1676 0.0000
# 6 0.0000 0.0000 0.0000 0.0000 0.0000 142.9642
#
#
#
# Elastic Compliance Matrix: (Units=1/GPa)
#
#
# Indices 1 2 3 4 5 6 
#
# 1 0.015555 -0.005320 -0.004847 0.000000 0.000000 0.000000
# 2 -0.005320 0.015787 -0.002513 0.000000 0.000000 0.000000
# 3 -0.004847 -0.002513 0.009390 0.000000 0.000000 0.000000
# 4 0.000000 0.000000 0.000000 0.013147 0.000000 0.000000
# 5 0.000000 0.000000 0.000000 0.000000 0.026905 0.000000
# 6 0.000000 0.000000 0.000000 0.000000 0.000000 0.006995
#
#
# Mechanical properties :
#
#
# Convention : Reuss Voigt Hill
#
# Bulk Modulus (GPa) = 65.04697 70.56827 67.80762
# Shear Modulus (GPa) = 42.27879 63.48889 52.88384
#
# Velocity S-wave (km/s) = 4.62073 5.66237 5.16786
# Velocity P-wave (km/s) = 7.83054 8.85367 8.35778
#
# Compressibility (1/GPa) = 0.01537351
#
# Stress axis : x y z
#
# Youngs Moduli (GPa) = 64.28697 63.34295 106.49713
#
# Poissons Ratio (x) = 0.33700 0.51614
# Poissons Ratio (y) = 0.34202 0.26758
# Poissons Ratio (z) = 0.31157 0.15915
#
# Static dielectric constant tensor:
#      x y z
#    x 0.648660 0.000000 0.000000 
#    y 0.000000 3.887770 0.000000 
#    z 0.000000 0.000000 7.879910 
# 
# 
# High freq. dielectric constant tensor:
#      x y z
#    x 1.769270 0.000000 0.000000 
#    y 0.000000 1.785000 0.000000 
#    z 0.000000 0.000000 1.786450 
# 
# From -- ./inp_files/20579.got.cif
#   From: 2010.03.12/outbox.cif.g09.slc.cpg/sg59_11_cif.got.tgz:20579.got - 2010.04.16 16:29:54.
