data_PCOD8245808
_publ_section_title
;
Structure prediction by ZEFSAII (Michael W. Deem and Ramdas Pophale) SiO2 
 PCOD8245808
Probable space group: P M M N
;
_chemical_formula_sum "Si O2"
_cell_formula_units_Z 64
_cell_length_a 8.503845
_cell_length_b 30.845310
_cell_length_c 11.875413
_cell_angle_alpha 90.000000
_cell_angle_beta 90.000000
_cell_angle_gamma 90.000000
_cell_volume 3114.965187
_symmetry_space_group_name_H-M "P M M N"
_symmetry_group_IT_number 59
_space_group.IT_coordinate_system_code '2'
_symmetry_cell_setting 'orthorhombic'
loop_
_space_group_symop_operation_xyz
x,y,z
1/2-x,1/2-y,z
1/2+x,-y,-z
-x,1/2+y,-z
-x,-y,-z
1/2+x,1/2+y,-z
1/2-x,y,z
x,1/2-y,z
loop_
_atom_site_type_symbol
_atom_site_label
_atom_site_fract_x
_atom_site_fract_y
_atom_site_fract_z
Si Si1 0.068485 0.456374 0.216296
Si Si2 0.932157 0.954973 0.239950
Si Si3 0.064114 0.375222 0.603419
Si Si4 0.063414 0.298068 0.760808
Si Si5 0.067139 0.620599 0.642116
Si Si6 0.433475 0.334493 0.997542
Si Si7 0.068793 0.573243 0.008302
Si Si8 0.568560 0.298179 0.212561
O O1 0.250000 0.453676 0.184039
O O2 0.029205 0.502249 0.275185
O O3 0.030155 0.417694 0.300925
O O4 0.968520 0.455222 0.101486
O O5 0.750000 0.965217 0.256230
O O6 0.985263 0.915966 0.320530
O O7 0.962230 0.941493 0.111645
O O8 0.250000 0.374296 0.580507
O O9 0.005859 0.331626 0.666162
O O10 0.969500 0.378247 0.488894
O O11 0.250000 0.297122 0.764398
O O12 0.996720 0.250000 0.733638
O O13 0.002261 0.313041 0.883026
O O14 0.250000 0.611362 0.662069
O O15 0.015394 0.666675 0.694854
O O16 0.250000 0.346173 0.987705
O O17 0.532081 0.377431 0.024014
O O18 0.463546 0.302071 0.100542
O O19 0.250000 0.567111 0.041189
O O20 0.750000 0.305112 0.179381
O O21 0.540611 0.250000 0.262934
#
# Coordination Sequence:
#
# PCOD8245808 Si02
#       8
#     8   8   8   8   8   8   8   8
#     4  12  25  42  65  93 123 159 203 252 306 367
#     4  11  23  42  65  92 125 162 204 251 305 364
#     4  10  22  41  63  88 120 161 207 256 304 355
#     4   9  18  35  60  91 125 159 199 249 303 356
#     4  11  24  42  63  88 121 163 207 256 308 360
#     4  11  20  35  61  93 125 163 204 250 304 365
#     4  12  23  38  62  93 128 164 200 246 307 369
#     4  10  22  40  61  88 125 165 203 250 307 365
#
# _framework density 20.545976
#
# number of rings (size 3 to 8) (size 9 to 14) (size 15 to 20)
#    0.000    1.250    2.500    4.125    0.000    3.250 
#    0.000    0.000    0.000    1.500    0.000    0.000 
#    0.000    0.000    0.000    0.000    0.000    0.000 
#
# Total GULP energy -793937.962778 kJ/mol
# GULP energy per Si atom -12405.280668 kJ/mol
# Density = 2.049921 g / cm^3
# Si number density = 20.545976 Si / 1000 Ang^3
#
#
#
# Elastic Constant Matrix: (Units=GPa)
#
#
# Indices 1 2 3 4 5 6 
#
# 1 55.8702 28.4225 16.1647 0.0000 0.0000 0.0000
# 2 28.4225 151.9934 46.2500 0.0000 0.0000 0.0000
# 3 16.1647 46.2500 113.9969 0.0000 0.0000 0.0000
# 4 0.0000 0.0000 0.0000 12.3927 0.0000 0.0000
# 5 0.0000 0.0000 0.0000 0.0000 31.7662 0.0000
# 6 0.0000 0.0000 0.0000 0.0000 0.0000 18.8664
#
#
#
# Elastic Compliance Matrix: (Units=1/GPa)
#
#
# Indices 1 2 3 4 5 6 
#
# 1 0.020004 -0.003283 -0.001505 0.000000 0.000000 0.000000
# 2 -0.003283 0.008045 -0.002798 0.000000 0.000000 0.000000
# 3 -0.001505 -0.002798 0.010121 0.000000 0.000000 0.000000
# 4 0.000000 0.000000 0.000000 0.080693 0.000000 0.000000
# 5 0.000000 0.000000 0.000000 0.000000 0.031480 0.000000
# 6 0.000000 0.000000 0.000000 0.000000 0.000000 0.053004
#
#
# Mechanical properties :
#
#
# Convention : Reuss Voigt Hill
#
# Bulk Modulus (GPa) = 43.48235 55.94832 49.71533
# Shear Modulus (GPa) = 22.10589 28.00662 25.05626
#
# Velocity S-wave (km/s) = 3.28369 3.69605 3.49595
# Velocity P-wave (km/s) = 5.96541 6.74569 6.36751
#
# Compressibility (1/GPa) = 0.02299784
#
# Stress axis : x y z
#
# Youngs Moduli (GPa) = 49.98994 124.30674 98.80606
#
# Poissons Ratio (x) = 0.40808 0.14867
# Poissons Ratio (y) = 0.16411 0.27649
# Poissons Ratio (z) = 0.07522 0.34785
#
# Static dielectric constant tensor:
#      x y z
#    x 3.506600 0.000000 0.000000 
#    y 0.000000 4.057140 0.000000 
#    z 0.000000 0.000000 3.579990 
# 
# 
# High freq. dielectric constant tensor:
#      x y z
#    x 1.791280 0.000000 0.000000 
#    y 0.000000 1.821570 0.000000 
#    z 0.000000 0.000000 1.795720 
# 
# From -- ./inp_files/15055.got.cif
#   From: 2010.03.12/outbox.cif.g09.slc.cpg/sg59_8_cif.got.tgz:15055.got - 2010.04.16 16:29:54.
