data_PCOD8245463
_publ_section_title
;
Structure prediction by ZEFSAII (Michael W. Deem and Ramdas Pophale) SiO2 
 PCOD8245463
Probable space group: P M M N
;
_chemical_formula_sum "Si O2"
_cell_formula_units_Z 32
_cell_length_a 9.703742
_cell_length_b 8.916287
_cell_length_c 18.659579
_cell_angle_alpha 90.000000
_cell_angle_beta 90.000000
_cell_angle_gamma 90.000000
_cell_volume 1614.451940
_symmetry_space_group_name_H-M "P M M N"
_symmetry_group_IT_number 59
_space_group.IT_coordinate_system_code '2'
_symmetry_cell_setting 'orthorhombic'
loop_
_space_group_symop_operation_xyz
x,y,z
1/2-x,1/2-y,z
1/2+x,-y,-z
-x,1/2+y,-z
-x,-y,-z
1/2+x,1/2+y,-z
1/2-x,y,z
x,1/2-y,z
loop_
_atom_site_type_symbol
_atom_site_label
_atom_site_fract_x
_atom_site_fract_y
_atom_site_fract_z
Si Si1 0.090884 0.927066 0.061535
Si Si2 0.404436 0.078410 0.806825
Si Si3 0.250000 0.071588 0.558138
Si Si4 0.536656 0.073518 0.340089
Si Si5 0.750000 0.573974 0.602602
O O1 0.250000 0.984324 0.060565
O O2 0.085743 0.750000 0.050727
O O3 0.019071 0.973825 0.136152
O O4 0.000000 0.000000 0.000000
O O5 0.250000 0.060930 0.839634
O O6 0.430687 0.250000 0.783678
O O7 0.413817 0.973855 0.737962
O O8 0.250000 0.250000 0.560912
O O9 0.250000 0.005487 0.477419
O O10 0.383868 0.010858 0.597521
O O11 0.560368 0.250000 0.348746
O O12 0.379613 0.022785 0.350573
O O13 0.750000 0.750000 0.591633
#
# Coordination Sequence:
#
# PCOD8245463 Si02
#       5
#     8   8   4   8   4
#     4  10  22  40  63  92 124 158 198 240 285 344
#     4  10  21  38  59  84 119 158 197 241 293 349
#     4  11  21  39  61  83 114 155 198 243 299 358
#     4  11  22  38  59  86 118 153 197 247 297 350
#     4   9  22  39  57  83 118 153 194 249 301 352
#
# _framework density 19.820968000000001
#
# number of rings (size 3 to 8) (size 9 to 14) (size 15 to 20)
#    0.000    1.750    1.250    2.625    1.750    2.500 
#    0.000    5.625    0.000    0.000    0.000    0.000 
#    0.000    0.000    0.000    0.000    0.000    0.000 
#
# Total GULP energy -396811.831562 kJ/mol
# GULP energy per Si atom -12400.369736 kJ/mol
# Density = 1.977585 g / cm^3
# Si number density = 19.820968 Si / 1000 Ang^3
#
#
#
# Elastic Constant Matrix: (Units=GPa)
#
#
# Indices 1 2 3 4 5 6 
#
# 1 162.0867 28.8159 49.4253 0.0000 0.0000 0.0000
# 2 28.8159 56.9926 25.4556 0.0000 0.0000 0.0000
# 3 49.4253 25.4556 98.5888 0.0000 0.0000 0.0000
# 4 0.0000 0.0000 0.0000 27.6797 0.0000 0.0000
# 5 0.0000 0.0000 0.0000 0.0000 43.0319 0.0000
# 6 0.0000 0.0000 0.0000 0.0000 0.0000 26.8842
#
#
#
# Elastic Compliance Matrix: (Units=1/GPa)
#
#
# Indices 1 2 3 4 5 6 
#
# 1 0.007564 -0.002409 -0.003170 0.000000 0.000000 0.000000
# 2 -0.002409 0.020600 -0.004111 0.000000 0.000000 0.000000
# 3 -0.003170 -0.004111 0.012794 0.000000 0.000000 0.000000
# 4 0.000000 0.000000 0.000000 0.036128 0.000000 0.000000
# 5 0.000000 0.000000 0.000000 0.000000 0.023239 0.000000
# 6 0.000000 0.000000 0.000000 0.000000 0.000000 0.037197
#
#
# Mechanical properties :
#
#
# Convention : Reuss Voigt Hill
#
# Bulk Modulus (GPa) = 46.34360 58.34021 52.34191
# Shear Modulus (GPa) = 30.47008 33.78390 32.12699
#
# Velocity S-wave (km/s) = 3.92505 4.13298 4.03036
# Velocity P-wave (km/s) = 6.63123 7.23000 6.93708
#
# Compressibility (1/GPa) = 0.02157795
#
# Stress axis : x y z
#
# Youngs Moduli (GPa) = 132.19647 48.54288 78.16080
#
# Poissons Ratio (x) = 0.11692 0.24780
# Poissons Ratio (y) = 0.31841 0.32136
# Poissons Ratio (z) = 0.41911 0.19958
#
# Static dielectric constant tensor:
#      x y z
#    x 3.488160 0.000000 0.000000 
#    y 0.000000 3.458170 0.000000 
#    z 0.000000 0.000000 3.585550 
# 
# 
# High freq. dielectric constant tensor:
#      x y z
#    x 1.794190 0.000000 0.000000 
#    y 0.000000 1.759610 0.000000 
#    z 0.000000 0.000000 1.776010 
# 
# From -- ./inp_files/28582.got.cif
#   From: 2010.03.12/outbox.cif.g09.slc.cpg/sg59_15_cif.got.tgz:28582.got - 2010.04.16 16:29:54.
