data_PCOD8245130
_publ_section_title
;
Structure prediction by ZEFSAII (Michael W. Deem and Ramdas Pophale) SiO2 
 PCOD8245130
Probable space group: P M M N
;
_chemical_formula_sum "Si O2"
_cell_formula_units_Z 56
_cell_length_a 19.373100
_cell_length_b 8.763611
_cell_length_c 18.387471
_cell_angle_alpha 90.000000
_cell_angle_beta 90.000000
_cell_angle_gamma 90.000000
_cell_volume 3121.793793
_symmetry_space_group_name_H-M "P M M N"
_symmetry_group_IT_number 59
_space_group.IT_coordinate_system_code '2'
_symmetry_cell_setting 'orthorhombic'
loop_
_space_group_symop_operation_xyz
x,y,z
1/2-x,1/2-y,z
1/2+x,-y,-z
-x,1/2+y,-z
-x,-y,-z
1/2+x,1/2+y,-z
1/2-x,y,z
x,1/2-y,z
loop_
_atom_site_type_symbol
_atom_site_label
_atom_site_fract_x
_atom_site_fract_y
_atom_site_fract_z
Si Si1 0.424490 0.432712 0.004221
Si Si2 0.418759 0.579821 0.148594
Si Si3 0.925568 0.571053 0.702347
Si Si4 0.330884 0.925425 0.414832
Si Si5 0.583255 0.581332 0.149567
Si Si6 0.072996 0.067555 0.695060
Si Si7 0.829427 0.927339 0.434661
O O1 0.427411 0.250000 0.008184
O O2 0.388018 0.487541 0.927295
O O3 0.500000 0.500000 0.000000
O O4 0.387032 0.498631 0.076158
O O5 0.387834 0.750000 0.153363
O O6 0.396759 0.488114 0.220413
O O7 0.500767 0.584921 0.143628
O O8 0.936819 0.750000 0.707460
O O9 0.869115 0.531922 0.642248
O O10 0.997254 0.494844 0.678088
O O11 0.250000 0.951180 0.403466
O O12 0.352318 0.750000 0.403497
O O13 0.352516 0.975875 0.495725
O O14 0.614276 0.750000 0.154829
O O15 0.600953 0.499457 0.226684
O O16 0.067514 0.250000 0.700187
O O17 0.125234 0.013921 0.632887
O O18 0.750000 0.957160 0.414402
O O19 0.843080 0.750000 0.451180
#
# Coordination Sequence:
#
# PCOD8245130 Si02
#       7
#     8   8   8   8   8   8   8
#     4   9  14  21  35  57  86 122 162 198 235 280
#     4   9  16  27  41  60  90 124 157 194 238 287
#     4  11  21  32  49  73  99 125 157 199 243 288
#     4  10  21  37  55  72  93 124 159 194 237 290
#     4   7  12  22  37  58  86 121 156 190 229 274
#     4   9  17  31  49  70 100 132 160 196 242 288
#     4   9  18  33  53  75  97 124 161 202 240 280
#
# _framework density 17.938403999999998
#
# number of rings (size 3 to 8) (size 9 to 14) (size 15 to 20)
#    0.000    2.857    0.000    4.286    0.000    2.000 
#    0.000    0.714    0.000    0.000    0.000    1.000 
#    0.000    3.429    0.000    0.000    0.000    0.000 
#
# Total GULP energy -693739.946507 kJ/mol
# GULP energy per Si atom -12388.213330 kJ/mol
# Density = 1.789758 g / cm^3
# Si number density = 17.938404 Si / 1000 Ang^3
#
#
#
# Elastic Constant Matrix: (Units=GPa)
#
#
# Indices 1 2 3 4 5 6 
#
# 1 33.7613 17.5946 50.1441 0.0000 0.0000 0.0000
# 2 17.5946 67.7337 43.6051 0.0000 0.0000 0.0000
# 3 50.1441 43.6051 173.6133 0.0000 0.0000 0.0000
# 4 0.0000 0.0000 0.0000 30.3864 0.0000 0.0000
# 5 0.0000 0.0000 0.0000 0.0000 -0.2574 0.0000
# 6 0.0000 0.0000 0.0000 0.0000 0.0000 13.6936
#
#
#
# Elastic Compliance Matrix: (Units=1/GPa)
#
#
# Indices 1 2 3 4 5 6 
#
# 1 0.053084 -0.004675 -0.014158 0.000000 0.000000 0.000000
# 2 -0.004675 0.018023 -0.003177 0.000000 0.000000 0.000000
# 3 -0.014158 -0.003177 0.010647 0.000000 0.000000 0.000000
# 4 0.000000 0.000000 0.000000 0.032909 0.000000 0.000000
# 5 0.000000 0.000000 0.000000 0.000000 -3.885246 0.000000
# 6 0.000000 0.000000 0.000000 0.000000 0.000000 0.073027
#
#
# Mechanical properties :
#
#
# Convention : Reuss Voigt Hill
#
# Bulk Modulus (GPa) = 26.50017 55.31066 40.90541
# Shear Modulus (GPa) = -1.37326 19.68216 9.15445
#
# Velocity S-wave (km/s) = -0.87590 3.31601 2.26149
# Velocity P-wave (km/s) = 3.71241 6.74995 5.44719
#
# Compressibility (1/GPa) = 0.03773561
#
# Stress axis : x y z
#
# Youngs Moduli (GPa) = 18.83808 55.48478 93.92372
#
# Poissons Ratio (x) = 0.25937 1.32977
# Poissons Ratio (y) = 0.08806 0.29835
# Poissons Ratio (z) = 0.26671 0.17625
#
# Static dielectric constant tensor:
#      x y z
#    x 2.782950 0.000000 0.000000 
#    y 0.000000 3.313040 0.000000 
#    z 0.000000 0.000000 3.979010 
# 
# 
# High freq. dielectric constant tensor:
#      x y z
#    x 1.628580 0.000000 0.000000 
#    y 0.000000 1.685200 0.000000 
#    z 0.000000 0.000000 1.725780 
# 
# From -- ./inp_files/28064.got.cif
#   From: 2010.03.12/outbox.cif.g09.slc.cpg/sg59_15_cif.got.tgz:28064.got - 2010.04.16 16:29:54.
