data_PCOD8245596
_publ_section_title
;
Structure prediction by ZEFSAII (Michael W. Deem and Ramdas Pophale) SiO2 
 PCOD8245596
Probable space group: P M M N
;
_chemical_formula_sum "Si O2"
_cell_formula_units_Z 64
_cell_length_a 17.381994
_cell_length_b 13.440881
_cell_length_c 13.831110
_cell_angle_alpha 90.000000
_cell_angle_beta 90.000000
_cell_angle_gamma 90.000000
_cell_volume 3231.352726
_symmetry_space_group_name_H-M "P M M N"
_symmetry_group_IT_number 59
_space_group.IT_coordinate_system_code '2'
_symmetry_cell_setting 'orthorhombic'
loop_
_space_group_symop_operation_xyz
x,y,z
1/2-x,1/2-y,z
1/2+x,-y,-z
-x,1/2+y,-z
-x,-y,-z
1/2+x,1/2+y,-z
1/2-x,y,z
x,1/2-y,z
loop_
_atom_site_type_symbol
_atom_site_label
_atom_site_fract_x
_atom_site_fract_y
_atom_site_fract_z
Si Si1 0.455744 0.365349 0.781815
Si Si2 0.160769 0.634543 0.843582
Si Si3 0.336587 0.362117 0.616209
Si Si4 0.340692 0.364793 0.147663
Si Si5 0.914999 0.528003 0.031913
Si Si6 0.161737 0.957286 0.483082
Si Si7 0.428907 0.864065 0.649865
Si Si8 0.070503 0.011138 0.302522
O O1 0.477564 0.250000 0.777482
O O2 0.394863 0.395320 0.699343
O O3 0.417208 0.389865 0.883975
O O4 0.533222 0.429218 0.768432
O O5 0.250000 0.610191 0.827776
O O6 0.147638 0.750000 0.868536
O O7 0.127286 0.571993 0.932652
O O8 0.116943 0.603160 0.745966
O O9 0.250000 0.372652 0.657743
O O10 0.353241 0.250000 0.581586
O O11 0.348202 0.430946 0.523204
O O12 0.250000 0.374230 0.159605
O O13 0.366682 0.250000 0.138844
O O14 0.379251 0.411491 0.242060
O O15 0.366648 0.424707 0.053939
O O16 0.000000 0.500000 0.000000
O O17 0.250000 0.926513 0.470953
O O18 0.123725 0.878915 0.555968
O O19 0.122250 0.951677 0.378864
O O20 0.453171 0.750000 0.656492
O O21 0.505319 0.929050 0.639592
#
# Coordination Sequence:
#
# PCOD8245596 Si02
#       8
#     8   8   8   8   8   8   8   8
#     4  11  23  39  62  91 122 158 201 254 314 372
#     4  10  21  38  63  95 128 162 201 249 311 376
#     4   9  19  36  59  90 125 157 195 248 308 368
#     4  11  25  44  66  93 126 164 210 260 309 368
#     4  12  22  41  64  91 124 162 204 258 309 363
#     4  11  23  39  61  88 122 163 209 254 304 364
#     4  11  22  38  63  93 125 161 205 256 307 365
#     4  12  23  43  60  90 124 169 209 255 308 366
#
# _framework density 19.805947
#
# number of rings (size 3 to 8) (size 9 to 14) (size 15 to 20)
#    0.000    1.125    3.750    2.250    0.000    6.250 
#    0.000    2.500    0.000    1.125    0.000    0.000 
#    0.000    0.000    0.000    0.000    0.000    0.000 
#
# Total GULP energy -793983.197973 kJ/mol
# GULP energy per Si atom -12405.987468 kJ/mol
# Density = 1.976087 g / cm^3
# Si number density = 19.805947 Si / 1000 Ang^3
#
#
#
# Elastic Constant Matrix: (Units=GPa)
#
#
# Indices 1 2 3 4 5 6 
#
# 1 99.5758 33.2606 35.3402 0.0000 0.0000 0.0000
# 2 33.2606 83.0316 24.0163 0.0000 0.0000 0.0000
# 3 35.3402 24.0163 83.0399 0.0000 0.0000 0.0000
# 4 0.0000 0.0000 0.0000 30.9809 0.0000 0.0000
# 5 0.0000 0.0000 0.0000 0.0000 37.5356 0.0000
# 6 0.0000 0.0000 0.0000 0.0000 0.0000 30.9419
#
#
#
# Elastic Compliance Matrix: (Units=1/GPa)
#
#
# Indices 1 2 3 4 5 6 
#
# 1 0.012893 -0.003904 -0.004358 0.000000 0.000000 0.000000
# 2 -0.003904 0.014325 -0.002481 0.000000 0.000000 0.000000
# 3 -0.004358 -0.002481 0.014615 0.000000 0.000000 0.000000
# 4 0.000000 0.000000 0.000000 0.032278 0.000000 0.000000
# 5 0.000000 0.000000 0.000000 0.000000 0.026641 0.000000
# 6 0.000000 0.000000 0.000000 0.000000 0.000000 0.032319
#
#
# Mechanical properties :
#
#
# Convention : Reuss Voigt Hill
#
# Bulk Modulus (GPa) = 49.14989 50.09795 49.62392
# Shear Modulus (GPa) = 30.99025 31.42703 31.20864
#
# Velocity S-wave (km/s) = 3.95991 3.98772 3.97384
# Velocity P-wave (km/s) = 6.76591 6.82289 6.79446
#
# Compressibility (1/GPa) = 0.02034592
#
# Stress axis : x y z
#
# Youngs Moduli (GPa) = 77.55896 69.80639 68.42387
#
# Poissons Ratio (x) = 0.27254 0.29819
# Poissons Ratio (y) = 0.30281 0.16979
# Poissons Ratio (z) = 0.33800 0.17322
#
# Static dielectric constant tensor:
#      x y z
#    x 3.729260 0.000000 0.000000 
#    y 0.000000 2.879810 0.000000 
#    z 0.000000 0.000000 3.664860 
# 
# 
# High freq. dielectric constant tensor:
#      x y z
#    x 1.780340 0.000000 0.000000 
#    y 0.000000 1.781740 0.000000 
#    z 0.000000 0.000000 1.766740 
# 
# From -- ./inp_files/17843.got.cif
#   From: 2010.03.12/outbox.cif.g09.slc.cpg/sg59_9_cif.got.tgz:17843.got - 2010.04.16 16:29:54.
