data_PCOD8245144
_publ_section_title
;
Structure prediction by ZEFSAII (Michael W. Deem and Ramdas Pophale) SiO2 
 PCOD8245144
Probable space group: P M M N
;
_chemical_formula_sum "Si O2"
_cell_formula_units_Z 64
_cell_length_a 14.125586
_cell_length_b 8.777251
_cell_length_c 26.544671
_cell_angle_alpha 90.000000
_cell_angle_beta 90.000000
_cell_angle_gamma 90.000000
_cell_volume 3291.109548
_symmetry_space_group_name_H-M "P M M N"
_symmetry_group_IT_number 59
_space_group.IT_coordinate_system_code '2'
_symmetry_cell_setting 'orthorhombic'
loop_
_space_group_symop_operation_xyz
x,y,z
1/2-x,1/2-y,z
1/2+x,-y,-z
-x,1/2+y,-z
-x,-y,-z
1/2+x,1/2+y,-z
1/2-x,y,z
x,1/2-y,z
loop_
_atom_site_type_symbol
_atom_site_label
_atom_site_fract_x
_atom_site_fract_y
_atom_site_fract_z
Si Si1 0.140477 0.071112 0.136512
Si Si2 0.028014 0.069746 0.426055
Si Si3 0.443206 0.570221 0.236468
Si Si4 0.850680 0.930742 0.232644
Si Si5 0.857592 0.930388 0.476355
Si Si6 0.357423 0.074518 0.330179
Si Si7 0.980089 0.068354 0.945865
Si Si8 0.352085 0.428114 0.879693
O O1 0.250000 0.033826 0.146633
O O2 0.121979 0.250000 0.133026
O O3 0.079805 0.004045 0.182738
O O4 0.112684 0.994545 0.082908
O O5 0.018235 0.250000 0.426865
O O6 0.098263 0.015040 0.470564
O O7 0.073291 0.012301 0.373781
O O8 0.923507 0.997523 0.431906
O O9 0.437204 0.750000 0.228479
O O10 0.548799 0.519337 0.256882
O O11 0.369953 0.519242 0.278985
O O12 0.750000 0.990011 0.257798
O O13 0.845477 0.750000 0.231932
O O14 0.854464 0.997052 0.176172
O O15 0.750000 0.992730 0.471385
O O16 0.857759 0.750000 0.471936
O O17 0.250000 0.053913 0.349129
O O18 0.379368 0.250000 0.318239
O O19 0.974997 0.250000 0.949519
O O20 0.067094 0.000097 0.913719
O O21 0.000000 0.000000 0.000000
O O22 0.250000 0.461852 0.904880
O O23 0.371769 0.250000 0.875658
#
# Coordination Sequence:
#
# PCOD8245144 Si02
#       8
#     8   8   8   8   8   8   8   8
#     4  11  24  41  59  79 108 148 188 225 272 329
#     4   9  18  33  53  77 107 145 189 233 276 327
#     4  11  21  35  58  86 111 139 180 230 277 323
#     4   8  14  28  52  79 102 127 163 206 255 312
#     4   9  17  31  53  80 109 143 185 233 284 336
#     4  10  21  37  55  76 107 148 187 223 271 331
#     4  11  22  37  57  83 112 142 176 218 268 323
#     4   8  14  28  52  77  99 127 164 203 247 304
#
# _framework density 19.44633
#
# number of rings (size 3 to 8) (size 9 to 14) (size 15 to 20)
#    0.000    2.375    1.250    2.625    0.000    5.500 
#    0.000    1.875    0.000    7.875    0.000    0.000 
#    0.000    0.000    0.000    0.000    0.000    0.000 
#
# Total GULP energy -793048.951643 kJ/mol
# GULP energy per Si atom -12391.389869 kJ/mol
# Density = 1.940207 g / cm^3
# Si number density = 19.446330 Si / 1000 Ang^3
#
#
#
# Elastic Constant Matrix: (Units=GPa)
#
#
# Indices 1 2 3 4 5 6 
#
# 1 127.3682 33.1211 33.3407 0.0000 0.0000 0.0000
# 2 33.1211 52.9950 25.6505 0.0000 0.0000 0.0000
# 3 33.3407 25.6505 87.5262 0.0000 0.0000 0.0000
# 4 0.0000 0.0000 0.0000 27.0305 0.0000 0.0000
# 5 0.0000 0.0000 0.0000 0.0000 30.1242 0.0000
# 6 0.0000 0.0000 0.0000 0.0000 0.0000 25.3304
#
#
#
# Elastic Compliance Matrix: (Units=1/GPa)
#
#
# Indices 1 2 3 4 5 6 
#
# 1 0.009739 -0.005000 -0.002244 0.000000 0.000000 0.000000
# 2 -0.005000 0.024556 -0.005292 0.000000 0.000000 0.000000
# 3 -0.002244 -0.005292 0.013831 0.000000 0.000000 0.000000
# 4 0.000000 0.000000 0.000000 0.036995 0.000000 0.000000
# 5 0.000000 0.000000 0.000000 0.000000 0.033196 0.000000
# 6 0.000000 0.000000 0.000000 0.000000 0.000000 0.039478
#
#
# Mechanical properties :
#
#
# Convention : Reuss Voigt Hill
#
# Bulk Modulus (GPa) = 43.37812 50.23489 46.80651
# Shear Modulus (GPa) = 26.23942 28.21549 27.22745
#
# Velocity S-wave (km/s) = 3.67730 3.81326 3.74589
# Velocity P-wave (km/s) = 6.35492 6.72879 6.54453
#
# Compressibility (1/GPa) = 0.02305310
#
# Stress axis : x y z
#
# Youngs Moduli (GPa) = 102.67892 40.72290 72.30197
#
# Poissons Ratio (x) = 0.20363 0.16228
# Poissons Ratio (y) = 0.51344 0.38260
# Poissons Ratio (z) = 0.23045 0.21549
#
# Static dielectric constant tensor:
#      x y z
#    x 4.042220 0.000000 0.000000 
#    y 0.000000 3.236430 0.000000 
#    z 0.000000 0.000000 3.426750 
# 
# 
# High freq. dielectric constant tensor:
#      x y z
#    x 1.778140 0.000000 0.000000 
#    y 0.000000 1.728530 0.000000 
#    z 0.000000 0.000000 1.736720 
# 
# From -- ./inp_files/32225.got.cif
#   From: 2010.03.12/outbox.cif.g09.slc.cpg/sg59_17_cif.got.tgz:32225.got - 2010.04.16 16:29:54.
