data_PCOD8245327
_publ_section_title
;
Structure prediction by ZEFSAII (Michael W. Deem and Ramdas Pophale) SiO2 
 PCOD8245327
Probable space group: P M M N
;
_chemical_formula_sum "Si O2"
_cell_formula_units_Z 40
_cell_length_a 14.315773
_cell_length_b 8.764661
_cell_length_c 17.138048
_cell_angle_alpha 90.000000
_cell_angle_beta 90.000000
_cell_angle_gamma 90.000000
_cell_volume 2150.360537
_symmetry_space_group_name_H-M "P M M N"
_symmetry_group_IT_number 59
_space_group.IT_coordinate_system_code '2'
_symmetry_cell_setting 'orthorhombic'
loop_
_space_group_symop_operation_xyz
x,y,z
1/2-x,1/2-y,z
1/2+x,-y,-z
-x,1/2+y,-z
-x,-y,-z
1/2+x,1/2+y,-z
1/2-x,y,z
x,1/2-y,z
loop_
_atom_site_type_symbol
_atom_site_label
_atom_site_fract_x
_atom_site_fract_y
_atom_site_fract_z
Si Si1 0.052915 0.070332 0.284383
Si Si2 0.506160 0.426644 0.877407
Si Si3 0.052209 0.430224 0.573212
Si Si4 0.250000 0.070262 0.518724
Si Si5 0.250000 0.068819 0.344209
Si Si6 0.357866 0.572753 0.982887
O O1 0.046399 0.250000 0.296611
O O2 0.158331 0.010233 0.298724
O O3 0.021037 0.027850 0.198358
O O4 0.984404 0.992047 0.345410
O O5 0.501265 0.250000 0.854090
O O6 0.408075 0.473870 0.916349
O O7 0.592734 0.460896 0.934685
O O8 0.040347 0.250000 0.570149
O O9 0.159871 0.482318 0.567073
O O10 0.000000 0.500000 0.500000
O O11 0.250000 0.250000 0.507387
O O12 0.250000 0.998613 0.431538
O O13 0.250000 0.250000 0.347440
O O14 0.250000 0.522288 0.988918
O O15 0.367590 0.750000 0.960795
#
# Coordination Sequence:
#
# PCOD8245327 Si02
#       6
#     8   8   8   4   4   8
#     4  11  22  38  58  83 115 150 188 233 281 335
#     4  10  21  37  58  87 118 147 184 231 283 337
#     4  11  21  37  59  82 111 149 189 234 283 337
#     4   9  18  36  58  78 107 146 187 228 280 337
#     4   9  18  34  56  82 111 146 185 228 282 337
#     4   9  19  38  62  85 114 150 186 229 279 334
#
# _framework density 18.601531999999999
#
# number of rings (size 3 to 8) (size 9 to 14) (size 15 to 20)
#    0.000    2.000    2.000    1.800    1.400    1.200 
#    1.800    4.500    0.000    0.000    0.000    0.000 
#    0.000    0.000    0.000    0.000    0.000    0.000 
#
# Total GULP energy -496079.626332 kJ/mol
# GULP energy per Si atom -12401.990658 kJ/mol
# Density = 1.855919 g / cm^3
# Si number density = 18.601532 Si / 1000 Ang^3
#
#
#
# Elastic Constant Matrix: (Units=GPa)
#
#
# Indices 1 2 3 4 5 6 
#
# 1 166.4393 42.3097 66.3069 0.0000 0.0000 0.0000
# 2 42.3097 59.6751 30.4002 0.0000 0.0000 0.0000
# 3 66.3069 30.4002 111.1959 0.0000 0.0000 0.0000
# 4 0.0000 0.0000 0.0000 32.4578 0.0000 0.0000
# 5 0.0000 0.0000 0.0000 0.0000 22.2837 0.0000
# 6 0.0000 0.0000 0.0000 0.0000 0.0000 25.9954
#
#
#
# Elastic Compliance Matrix: (Units=1/GPa)
#
#
# Indices 1 2 3 4 5 6 
#
# 1 0.008657 -0.004076 -0.004048 0.000000 0.000000 0.000000
# 2 -0.004076 0.021388 -0.003417 0.000000 0.000000 0.000000
# 3 -0.004048 -0.003417 0.012341 0.000000 0.000000 0.000000
# 4 0.000000 0.000000 0.000000 0.030809 0.000000 0.000000
# 5 0.000000 0.000000 0.000000 0.000000 0.044876 0.000000
# 6 0.000000 0.000000 0.000000 0.000000 0.000000 0.038468
#
#
# Mechanical properties :
#
#
# Convention : Reuss Voigt Hill
#
# Bulk Modulus (GPa) = 51.80070 68.37155 60.08612
# Shear Modulus (GPa) = 26.87377 29.36693 28.12035
#
# Velocity S-wave (km/s) = 3.80505 3.97764 3.89231
# Velocity P-wave (km/s) = 6.87114 7.61125 7.25065
#
# Compressibility (1/GPa) = 0.01930476
#
# Stress axis : x y z
#
# Youngs Moduli (GPa) = 115.51534 46.75582 81.02998
#
# Poissons Ratio (x) = 0.19056 0.32800
# Poissons Ratio (y) = 0.47079 0.27688
# Poissons Ratio (z) = 0.46760 0.15976
#
# Static dielectric constant tensor:
#      x y z
#    x 3.047250 0.000000 0.000000 
#    y 0.000000 3.345320 0.000000 
#    z 0.000000 0.000000 3.279250 
# 
# 
# High freq. dielectric constant tensor:
#      x y z
#    x 1.732670 0.000000 0.000000 
#    y 0.000000 1.713130 0.000000 
#    z 0.000000 0.000000 1.721200 
# 
# From -- ./inp_files/19994.got.cif
#   From: 2010.03.12/outbox.cif.g09.slc.cpg/sg59_10_cif.got.tgz:19994.got - 2010.04.16 16:29:54.
