data_PCOD8245472
_publ_section_title
;
Structure prediction by ZEFSAII (Michael W. Deem and Ramdas Pophale) SiO2 
 PCOD8245472
Probable space group: P M M N
;
_chemical_formula_sum "Si O2"
_cell_formula_units_Z 48
_cell_length_a 15.356001
_cell_length_b 7.849457
_cell_length_c 19.027987
_cell_angle_alpha 90.000000
_cell_angle_beta 90.000000
_cell_angle_gamma 90.000000
_cell_volume 2293.562570
_symmetry_space_group_name_H-M "P M M N"
_symmetry_group_IT_number 59
_space_group.IT_coordinate_system_code '2'
_symmetry_cell_setting 'orthorhombic'
loop_
_space_group_symop_operation_xyz
x,y,z
1/2-x,1/2-y,z
1/2+x,-y,-z
-x,1/2+y,-z
-x,-y,-z
1/2+x,1/2+y,-z
1/2-x,y,z
x,1/2-y,z
loop_
_atom_site_type_symbol
_atom_site_label
_atom_site_fract_x
_atom_site_fract_y
_atom_site_fract_z
Si Si1 0.851190 0.551952 0.174586
Si Si2 0.750000 0.441447 0.420311
Si Si3 0.146545 0.937547 0.974299
Si Si4 0.146827 0.250000 0.224223
Si Si5 0.099728 0.948179 0.323259
Si Si6 0.353957 0.250000 0.064804
Si Si7 0.750000 0.451194 0.573512
Si Si8 0.096205 0.444678 0.676184
O O1 0.750000 0.514072 0.185540
O O2 0.870048 0.750000 0.163105
O O3 0.888309 0.458304 0.105481
O O4 0.898329 0.479488 0.244662
O O5 0.750000 0.250000 0.444676
O O6 0.750000 0.539305 0.495905
O O7 0.662542 0.469508 0.376941
O O8 0.250000 0.958679 0.972296
O O9 0.119252 0.750000 0.001977
O O10 0.107814 0.081804 0.025944
O O11 0.250000 0.250000 0.228740
O O12 0.111919 0.425076 0.258015
O O13 0.112947 0.250000 0.144410
O O14 0.117036 0.750000 0.300320
O O15 0.163776 0.010643 0.384924
O O16 0.001550 0.967563 0.352478
O O17 0.250000 0.250000 0.061741
O O18 0.750000 0.250000 0.570341
O O19 0.125841 0.250000 0.680778
#
# Coordination Sequence:
#
# PCOD8245472 Si02
#       8
#     8   4   8   4   8   4   4   8
#     4   9  15  28  51  76 114 156 197 245 297 356
#     4  11  23  37  59  93 131 160 195 252 307 365
#     4   9  16  27  46  76 112 154 194 236 302 363
#     4  11  22  38  66  95 113 155 212 254 316 361
#     4  10  22  42  65  88 122 162 207 257 303 362
#     4   9  18  32  50  82 119 143 190 261 300 350
#     4   9  20  42  64  86 123 162 199 253 314 358
#     4  10  21  38  59  89 124 164 206 249 304 365
#
# _framework density 20.928139999999999
#
# number of rings (size 3 to 8) (size 9 to 14) (size 15 to 20)
#    0.000    2.333    2.500    0.250    1.167    2.000 
#    3.000    1.667    0.000    1.000    0.000    0.000 
#    0.000    0.000    0.000    0.000    0.000    0.000 
#
# Total GULP energy -594974.809555 kJ/mol
# GULP energy per Si atom -12395.308532 kJ/mol
# Density = 2.088051 g / cm^3
# Si number density = 20.928140 Si / 1000 Ang^3
#
#
#
# Elastic Constant Matrix: (Units=GPa)
#
#
# Indices 1 2 3 4 5 6 
#
# 1 87.0496 30.6485 51.5278 0.0000 0.0000 0.0000
# 2 30.6485 101.7727 63.6781 0.0000 0.0000 0.0000
# 3 51.5278 63.6781 169.2711 0.0000 0.0000 0.0000
# 4 0.0000 0.0000 0.0000 22.8131 0.0000 0.0000
# 5 0.0000 0.0000 0.0000 0.0000 4.7689 0.0000
# 6 0.0000 0.0000 0.0000 0.0000 0.0000 17.4874
#
#
#
# Elastic Compliance Matrix: (Units=1/GPa)
#
#
# Indices 1 2 3 4 5 6 
#
# 1 0.014340 -0.002076 -0.003584 0.000000 0.000000 0.000000
# 2 -0.002076 0.013151 -0.004315 0.000000 0.000000 0.000000
# 3 -0.003584 -0.004315 0.008622 0.000000 0.000000 0.000000
# 4 0.000000 0.000000 0.000000 0.043834 0.000000 0.000000
# 5 0.000000 0.000000 0.000000 0.000000 0.209692 0.000000
# 6 0.000000 0.000000 0.000000 0.000000 0.000000 0.057184
#
#
# Mechanical properties :
#
#
# Convention : Reuss Voigt Hill
#
# Bulk Modulus (GPa) = 61.87232 72.20026 67.03629
# Shear Modulus (GPa) = 13.43499 23.16316 18.29908
#
# Velocity S-wave (km/s) = 2.53644 3.33046 2.96019
# Velocity P-wave (km/s) = 6.18113 7.02590 6.61701
#
# Compressibility (1/GPa) = 0.01616232
#
# Stress axis : x y z
#
# Youngs Moduli (GPa) = 69.73352 76.03969 115.97934
#
# Poissons Ratio (x) = 0.15784 0.41572
# Poissons Ratio (y) = 0.14475 0.50050
# Poissons Ratio (z) = 0.24996 0.32814
#
# Static dielectric constant tensor:
#      x y z
#    x 3.573620 0.000000 0.000000 
#    y 0.000000 3.769150 0.000000 
#    z 0.000000 0.000000 3.923990 
# 
# 
# High freq. dielectric constant tensor:
#      x y z
#    x 1.799640 0.000000 0.000000 
#    y 0.000000 1.815470 0.000000 
#    z 0.000000 0.000000 1.816650 
# 
# From -- ./inp_files/27517.got.cif
#   From: 2010.03.12/outbox.cif.g09.slc.cpg/sg59_14_cif.got.tgz:27517.got - 2010.04.16 16:29:54.
