data_PCOD8245356
_publ_section_title
;
Structure prediction by ZEFSAII (Michael W. Deem and Ramdas Pophale) SiO2 
 PCOD8245356
Probable space group: P M M N
;
_chemical_formula_sum "Si O2"
_cell_formula_units_Z 48
_cell_length_a 14.644277
_cell_length_b 8.716948
_cell_length_c 19.655439
_cell_angle_alpha 90.000000
_cell_angle_beta 90.000000
_cell_angle_gamma 90.000000
_cell_volume 2509.083639
_symmetry_space_group_name_H-M "P M M N"
_symmetry_group_IT_number 59
_space_group.IT_coordinate_system_code '2'
_symmetry_cell_setting 'orthorhombic'
loop_
_space_group_symop_operation_xyz
x,y,z
1/2-x,1/2-y,z
1/2+x,-y,-z
-x,1/2+y,-z
-x,-y,-z
1/2+x,1/2+y,-z
1/2-x,y,z
x,1/2-y,z
loop_
_atom_site_type_symbol
_atom_site_label
_atom_site_fract_x
_atom_site_fract_y
_atom_site_fract_z
Si Si1 0.750000 0.067903 0.868465
Si Si2 0.750000 0.431589 0.020998
Si Si3 0.985114 0.070863 0.662406
Si Si4 0.946236 0.068677 0.063247
Si Si5 0.645141 0.927740 0.553845
Si Si6 0.056831 0.930456 0.183826
Si Si7 0.855245 0.071047 0.412584
O O1 0.750000 0.250000 0.869908
O O2 0.659641 0.009156 0.829627
O O3 0.750000 0.999613 0.944640
O O4 0.750000 0.250000 0.015048
O O5 0.659276 0.487416 0.060227
O O6 0.968409 0.250000 0.650477
O O7 0.970318 0.024194 0.740184
O O8 0.913659 0.975907 0.618174
O O9 0.087751 0.024542 0.642417
O O10 0.953060 0.250000 0.057881
O O11 0.986371 0.013334 0.134292
O O12 0.000000 0.000000 0.000000
O O13 0.750000 0.962831 0.571712
O O14 0.628952 0.750000 0.537172
O O15 0.613573 0.024547 0.488342
O O16 0.049797 0.750000 0.170428
O O17 0.750000 0.027713 0.400813
O O18 0.874091 0.250000 0.402559
#
# Coordination Sequence:
#
# PCOD8245356 Si02
#       7
#     4   4   8   8   8   8   8
#     4   9  16  34  60  82 112 147 182 221 274 340
#     4   9  18  34  60  84 108 147 186 227 280 336
#     4  11  23  37  58  85 117 153 191 236 288 346
#     4  11  21  37  60  85 115 148 190 236 281 338
#     4  10  21  37  59  87 119 151 188 238 289 338
#     4  10  22  39  59  84 114 152 190 229 279 336
#     4  10  21  39  62  84 110 149 198 242 284 341
#
# _framework density 19.130490000000002
#
# number of rings (size 3 to 8) (size 9 to 14) (size 15 to 20)
#    0.000    1.833    1.667    2.500    1.167    3.333 
#    1.500    2.917    0.000    0.000    0.000    0.000 
#    0.000    0.000    0.000    0.000    0.000    0.000 
#
# Total GULP energy -595365.148441 kJ/mol
# GULP energy per Si atom -12403.440593 kJ/mol
# Density = 1.908695 g / cm^3
# Si number density = 19.130490 Si / 1000 Ang^3
#
#
#
# Elastic Constant Matrix: (Units=GPa)
#
#
# Indices 1 2 3 4 5 6 
#
# 1 151.4438 32.6400 82.3863 0.0000 0.0000 0.0000
# 2 32.6400 42.3195 28.5031 0.0000 0.0000 0.0000
# 3 82.3863 28.5031 131.4586 0.0000 0.0000 0.0000
# 4 0.0000 0.0000 0.0000 32.8460 0.0000 0.0000
# 5 0.0000 0.0000 0.0000 0.0000 26.2104 0.0000
# 6 0.0000 0.0000 0.0000 0.0000 0.0000 29.5587
#
#
#
# Elastic Compliance Matrix: (Units=1/GPa)
#
#
# Indices 1 2 3 4 5 6 
#
# 1 0.010664 -0.004361 -0.005738 0.000000 0.000000 0.000000
# 2 -0.004361 0.029454 -0.003653 0.000000 0.000000 0.000000
# 3 -0.005738 -0.003653 0.011995 0.000000 0.000000 0.000000
# 4 0.000000 0.000000 0.000000 0.030445 0.000000 0.000000
# 5 0.000000 0.000000 0.000000 0.000000 0.038153 0.000000
# 6 0.000000 0.000000 0.000000 0.000000 0.000000 0.033831
#
#
# Mechanical properties :
#
#
# Convention : Reuss Voigt Hill
#
# Bulk Modulus (GPa) = 40.63509 68.03119 54.33314
# Shear Modulus (GPa) = 26.28133 29.83585 28.05859
#
# Velocity S-wave (km/s) = 3.71049 3.95346 3.83390
# Velocity P-wave (km/s) = 6.29636 7.51523 6.93263
#
# Compressibility (1/GPa) = 0.02460927
#
# Stress axis : x y z
#
# Youngs Moduli (GPa) = 93.76950 33.95172 83.36676
#
# Poissons Ratio (x) = 0.14805 0.47836
# Poissons Ratio (y) = 0.40888 0.30457
# Poissons Ratio (z) = 0.53805 0.12404
#
# Static dielectric constant tensor:
#      x y z
#    x 3.801070 0.000000 0.000000 
#    y 0.000000 3.409070 0.000000 
#    z 0.000000 0.000000 3.478290 
# 
# 
# High freq. dielectric constant tensor:
#      x y z
#    x 1.760060 0.000000 0.000000 
#    y 0.000000 1.735430 0.000000 
#    z 0.000000 0.000000 1.738940 
# 
# From -- ./inp_files/25561.got.cif
#   From: 2010.03.12/outbox.cif.g09.slc.cpg/sg59_13_cif.got.tgz:25561.got - 2010.04.16 16:29:54.
