data_PCOD8245102
_publ_section_title
;
Structure prediction by ZEFSAII (Michael W. Deem and Ramdas Pophale) SiO2 
 PCOD8245102
Probable space group: P M M N
;
_chemical_formula_sum "Si O2"
_cell_formula_units_Z 48
_cell_length_a 8.830541
_cell_length_b 9.734252
_cell_length_c 28.819907
_cell_angle_alpha 90.000000
_cell_angle_beta 90.000000
_cell_angle_gamma 90.000000
_cell_volume 2477.322068
_symmetry_space_group_name_H-M "P M M N"
_symmetry_group_IT_number 59
_space_group.IT_coordinate_system_code '2'
_symmetry_cell_setting 'orthorhombic'
loop_
_space_group_symop_operation_xyz
x,y,z
1/2-x,1/2-y,z
1/2+x,-y,-z
-x,1/2+y,-z
-x,-y,-z
1/2+x,1/2+y,-z
1/2-x,y,z
x,1/2-y,z
loop_
_atom_site_type_symbol
_atom_site_label
_atom_site_fract_x
_atom_site_fract_y
_atom_site_fract_z
Si Si1 0.929553 0.750000 0.071059
Si Si2 0.570855 0.750000 0.966976
Si Si3 0.429995 0.096706 0.358643
Si Si4 0.429503 0.477247 0.103718
Si Si5 0.927020 0.593476 0.538401
Si Si6 0.425200 0.596228 0.801757
Si Si7 0.429347 0.590553 0.275184
O O1 0.750000 0.750000 0.070058
O O2 0.988899 0.621685 0.099591
O O3 0.997940 0.750000 0.018759
O O4 0.750000 0.750000 0.969267
O O5 0.515650 0.884859 0.939622
O O6 0.250000 0.099492 0.359335
O O7 0.488974 0.250000 0.345364
O O8 0.488884 0.055835 0.410051
O O9 0.488652 0.984484 0.321855
O O10 0.250000 0.496260 0.104438
O O11 0.481664 0.405951 0.150785
O O12 0.750000 0.568234 0.536854
O O13 0.968409 0.750000 0.526847
O O14 0.000000 0.500000 0.500000
O O15 0.250000 0.563267 0.811604
O O16 0.444552 0.750000 0.780586
O O17 0.490381 0.481108 0.767877
O O18 0.250000 0.574233 0.269298
O O19 0.476892 0.750000 0.277442
#
# Coordination Sequence:
#
# PCOD8245102 Si02
#       7
#     4   4   8   8   8   8   8
#     4  11  23  39  59  89 125 155 183 229 286 333
#     4   9  20  39  63  89 117 149 193 237 276 325
#     4   8  15  31  54  78 107 145 189 234 279 329
#     4  11  22  40  63  88 115 151 194 234 275 330
#     4   9  18  32  51  78 111 147 189 235 281 333
#     4  11  24  41  60  83 111 147 188 231 283 339
#     4  10  21  36  58  87 113 140 180 230 283 340
#
# _framework density 19.37576
#
# number of rings (size 3 to 8) (size 9 to 14) (size 15 to 20)
#    0.000    2.167    0.833    3.250    1.167    3.000 
#    0.000    5.000    0.000    1.000    0.000    0.000 
#    0.000    0.000    0.000    0.000    0.000    0.000 
#
# Total GULP energy -595166.337097 kJ/mol
# GULP energy per Si atom -12399.298690 kJ/mol
# Density = 1.933166 g / cm^3
# Si number density = 19.375760 Si / 1000 Ang^3
#
#
#
# Elastic Constant Matrix: (Units=GPa)
#
#
# Indices 1 2 3 4 5 6 
#
# 1 49.4855 38.2245 31.0545 0.0000 0.0000 0.0000
# 2 38.2245 135.5626 57.1240 0.0000 0.0000 0.0000
# 3 31.0545 57.1240 112.8744 0.0000 0.0000 0.0000
# 4 0.0000 0.0000 0.0000 32.5099 0.0000 0.0000
# 5 0.0000 0.0000 0.0000 0.0000 26.7113 0.0000
# 6 0.0000 0.0000 0.0000 0.0000 0.0000 24.3254
#
#
#
# Elastic Compliance Matrix: (Units=1/GPa)
#
#
# Indices 1 2 3 4 5 6 
#
# 1 0.027631 -0.005831 -0.004651 0.000000 0.000000 0.000000
# 2 -0.005831 0.010607 -0.003764 0.000000 0.000000 0.000000
# 3 -0.004651 -0.003764 0.012044 0.000000 0.000000 0.000000
# 4 0.000000 0.000000 0.000000 0.030760 0.000000 0.000000
# 5 0.000000 0.000000 0.000000 0.000000 0.037437 0.000000
# 6 0.000000 0.000000 0.000000 0.000000 0.000000 0.041109
#
#
# Mechanical properties :
#
#
# Convention : Reuss Voigt Hill
#
# Bulk Modulus (GPa) = 45.89274 61.19206 53.54240
# Shear Modulus (GPa) = 25.59606 28.14397 26.87001
#
# Velocity S-wave (km/s) = 3.63855 3.81535 3.72800
# Velocity P-wave (km/s) = 6.43344 7.14559 6.79885
#
# Compressibility (1/GPa) = 0.02178994
#
# Stress axis : x y z
#
# Youngs Moduli (GPa) = 36.19140 94.27872 83.03117
#
# Poissons Ratio (x) = 0.54977 0.38616
# Poissons Ratio (y) = 0.21104 0.31250
# Poissons Ratio (z) = 0.16832 0.35483
#
# Static dielectric constant tensor:
#      x y z
#    x 3.298910 0.000000 0.000000 
#    y 0.000000 3.651170 0.000000 
#    z 0.000000 0.000000 3.678400 
# 
# 
# High freq. dielectric constant tensor:
#      x y z
#    x 1.728720 0.000000 0.000000 
#    y 0.000000 1.763750 0.000000 
#    z 0.000000 0.000000 1.763270 
# 
# From -- ./inp_files/32994.got.cif
#   From: 2010.03.12/outbox.cif.g09.slc.cpg/sg59_17_cif.got.tgz:32994.got - 2010.04.16 16:29:54.
