data_PCOD8245036
_publ_section_title
;
Structure prediction by ZEFSAII (Michael W. Deem and Ramdas Pophale) SiO2 
 PCOD8245036
Probable space group: P M M N
;
_chemical_formula_sum "Si O2"
_cell_formula_units_Z 48
_cell_length_a 8.907227
_cell_length_b 17.550619
_cell_length_c 15.243631
_cell_angle_alpha 90.000000
_cell_angle_beta 90.000000
_cell_angle_gamma 90.000000
_cell_volume 2382.996399
_symmetry_space_group_name_H-M "P M M N"
_symmetry_group_IT_number 59
_space_group.IT_coordinate_system_code '2'
_symmetry_cell_setting 'orthorhombic'
loop_
_space_group_symop_operation_xyz
x,y,z
1/2-x,1/2-y,z
1/2+x,-y,-z
-x,1/2+y,-z
-x,-y,-z
1/2+x,1/2+y,-z
1/2-x,y,z
x,1/2-y,z
loop_
_atom_site_type_symbol
_atom_site_label
_atom_site_fract_x
_atom_site_fract_y
_atom_site_fract_z
Si Si1 0.076696 0.161988 0.857134
Si Si2 0.073749 0.597069 0.662890
Si Si3 0.072773 0.663990 0.478540
Si Si4 0.422603 0.162052 0.173034
Si Si5 0.074691 0.078311 0.681294
Si Si6 0.572879 0.081265 0.014731
O O1 0.250000 0.145472 0.880401
O O2 0.050598 0.250000 0.833912
O O3 0.023613 0.112334 0.774404
O O4 0.977117 0.140263 0.940276
O O5 0.250000 0.612127 0.676461
O O6 0.021084 0.619456 0.565507
O O7 0.030122 0.509839 0.680026
O O8 0.981560 0.650028 0.728779
O O9 0.250000 0.664281 0.471033
O O10 0.009817 0.750000 0.481856
O O11 0.009876 0.621603 0.394824
O O12 0.250000 0.136125 0.165857
O O13 0.439907 0.250000 0.147067
O O14 0.523269 0.111746 0.108950
O O15 0.250000 0.090819 0.665999
O O16 0.750000 0.072120 0.014070
O O17 0.500000 0.000000 0.000000
#
# Coordination Sequence:
#
# PCOD8245036 Si02
#       6
#     8   8   8   8   8   8
#     4  10  21  38  59  85 119 155 194 244 296 347
#     4  10  21  38  60  86 118 156 197 241 291 348
#     4  10  21  36  55  82 117 156 197 243 294 347
#     4  11  24  41  62  90 122 155 194 241 291 346
#     4  10  21  37  59  86 114 150 195 241 292 347
#     4  12  25  41  63  89 118 154 196 241 291 349
#
# _framework density 20.142707999999999
#
# number of rings (size 3 to 8) (size 9 to 14) (size 15 to 20)
#    0.000    1.500    0.000    5.000    0.000    8.667 
#    0.000    0.000    0.000    0.000    0.000    0.000 
#    0.000    0.000    0.000    0.000    0.000    0.000 
#
# Total GULP energy -595536.700092 kJ/mol
# GULP energy per Si atom -12407.014585 kJ/mol
# Density = 2.009686 g / cm^3
# Si number density = 20.142708 Si / 1000 Ang^3
#
#
#
# Elastic Constant Matrix: (Units=GPa)
#
#
# Indices 1 2 3 4 5 6 
#
# 1 83.9678 35.0755 36.0530 0.0000 0.0000 0.0000
# 2 35.0755 85.6948 22.6531 0.0000 0.0000 0.0000
# 3 36.0530 22.6531 100.2708 0.0000 0.0000 0.0000
# 4 0.0000 0.0000 0.0000 42.3625 0.0000 0.0000
# 5 0.0000 0.0000 0.0000 0.0000 40.8391 0.0000
# 6 0.0000 0.0000 0.0000 0.0000 0.0000 22.8682
#
#
#
# Elastic Compliance Matrix: (Units=1/GPa)
#
#
# Indices 1 2 3 4 5 6 
#
# 1 0.016128 -0.005390 -0.004581 0.000000 0.000000 0.000000
# 2 -0.005390 0.014212 -0.001273 0.000000 0.000000 0.000000
# 3 -0.004581 -0.001273 0.011908 0.000000 0.000000 0.000000
# 4 0.000000 0.000000 0.000000 0.023606 0.000000 0.000000
# 5 0.000000 0.000000 0.000000 0.000000 0.024486 0.000000
# 6 0.000000 0.000000 0.000000 0.000000 0.000000 0.043729
#
#
# Mechanical properties :
#
#
# Convention : Reuss Voigt Hill
#
# Bulk Modulus (GPa) = 50.60854 50.83295 50.72075
# Shear Modulus (GPa) = 30.64789 32.95741 31.80265
#
# Velocity S-wave (km/s) = 3.90492 4.04938 3.97781
# Velocity P-wave (km/s) = 6.74617 6.86691 6.80681
#
# Compressibility (1/GPa) = 0.01975951
#
# Stress axis : x y z
#
# Youngs Moduli (GPa) = 62.00405 70.36294 83.97933
#
# Poissons Ratio (x) = 0.37928 0.38472
# Poissons Ratio (y) = 0.33422 0.10688
# Poissons Ratio (z) = 0.28405 0.08955
#
# Static dielectric constant tensor:
#      x y z
#    x 3.622910 0.000000 0.000000 
#    y 0.000000 3.821990 0.000000 
#    z 0.000000 0.000000 3.750790 
# 
# 
# High freq. dielectric constant tensor:
#      x y z
#    x 1.778630 0.000000 0.000000 
#    y 0.000000 1.803210 0.000000 
#    z 0.000000 0.000000 1.801430 
# 
# From -- ./inp_files/20464.got.cif
#   From: 2010.03.12/outbox.cif.g09.slc.cpg/sg59_11_cif.got.tgz:20464.got - 2010.04.16 16:29:54.
