data_PCOD8245048
_publ_section_title
;
Structure prediction by ZEFSAII (Michael W. Deem and Ramdas Pophale) SiO2 
 PCOD8245048
Probable space group: P M M N
;
_chemical_formula_sum "Si O2"
_cell_formula_units_Z 48
_cell_length_a 8.958322
_cell_length_b 30.407766
_cell_length_c 9.076837
_cell_angle_alpha 90.000000
_cell_angle_beta 90.000000
_cell_angle_gamma 90.000000
_cell_volume 2472.553628
_symmetry_space_group_name_H-M "P M M N"
_symmetry_group_IT_number 59
_space_group.IT_coordinate_system_code '2'
_symmetry_cell_setting 'orthorhombic'
loop_
_space_group_symop_operation_xyz
x,y,z
1/2-x,1/2-y,z
1/2+x,-y,-z
-x,1/2+y,-z
-x,-y,-z
1/2+x,1/2+y,-z
1/2-x,y,z
x,1/2-y,z
loop_
_atom_site_type_symbol
_atom_site_label
_atom_site_fract_x
_atom_site_fract_y
_atom_site_fract_z
Si Si1 0.422217 0.463335 0.403005
Si Si2 0.075236 0.876348 0.099066
Si Si3 0.427696 0.298619 0.401282
Si Si4 0.577234 0.699328 0.928982
Si Si5 0.926593 0.039279 0.088880
Si Si6 0.421104 0.122441 0.596460
O O1 0.500000 0.500000 0.500000
O O2 0.250000 0.476156 0.375352
O O3 0.508073 0.459615 0.250963
O O4 0.436228 0.417070 0.483177
O O5 0.250000 0.871632 0.113131
O O6 0.013144 0.888629 0.258775
O O7 0.029483 0.915024 0.988082
O O8 0.011441 0.830161 0.044191
O O9 0.250000 0.300108 0.395644
O O10 0.482231 0.250000 0.450363
O O11 0.485420 0.309021 0.236116
O O12 0.489186 0.334231 0.516921
O O13 0.750000 0.686243 0.938542
O O14 0.553708 0.750000 0.973944
O O15 0.750000 0.031923 0.095174
O O16 0.000000 0.000000 0.000000
O O17 0.250000 0.130407 0.642045
#
# Coordination Sequence:
#
# PCOD8245048 Si02
#       6
#     8   8   8   8   8   8
#     4  11  23  39  61  87 115 148 187 234 286 340
#     4  11  24  38  54  81 117 152 186 231 285 337
#     4   8  15  31  56  83 107 134 177 230 275 319
#     4   9  18  35  60  85 109 144 190 235 280 336
#     4  11  24  41  61  85 114 151 194 239 289 343
#     4  10  21  36  56  82 111 146 187 229 276 334
#
# _framework density 19.413129000000001
#
# number of rings (size 3 to 8) (size 9 to 14) (size 15 to 20)
#    0.000    2.000    0.000    4.500    0.000    9.000 
#    0.000    2.500    0.000    1.000    0.000    0.000 
#    0.000    0.000    0.000    0.000    0.000    0.000 
#
# Total GULP energy -595315.646531 kJ/mol
# GULP energy per Si atom -12402.409303 kJ/mol
# Density = 1.936894 g / cm^3
# Si number density = 19.413129 Si / 1000 Ang^3
#
#
#
# Elastic Constant Matrix: (Units=GPa)
#
#
# Indices 1 2 3 4 5 6 
#
# 1 73.1694 53.0032 51.9737 0.0000 0.0000 0.0000
# 2 53.0032 107.5276 53.4197 0.0000 0.0000 0.0000
# 3 51.9737 53.4197 130.0454 0.0000 0.0000 0.0000
# 4 0.0000 0.0000 0.0000 38.0526 0.0000 0.0000
# 5 0.0000 0.0000 0.0000 0.0000 32.7416 0.0000
# 6 0.0000 0.0000 0.0000 0.0000 0.0000 27.4635
#
#
#
# Elastic Compliance Matrix: (Units=1/GPa)
#
#
# Indices 1 2 3 4 5 6 
#
# 1 0.024576 -0.009089 -0.006088 0.000000 0.000000 0.000000
# 2 -0.009089 0.015046 -0.002548 0.000000 0.000000 0.000000
# 3 -0.006088 -0.002548 0.011169 0.000000 0.000000 0.000000
# 4 0.000000 0.000000 0.000000 0.026279 0.000000 0.000000
# 5 0.000000 0.000000 0.000000 0.000000 0.030542 0.000000
# 6 0.000000 0.000000 0.000000 0.000000 0.000000 0.036412
#
#
# Mechanical properties :
#
#
# Convention : Reuss Voigt Hill
#
# Bulk Modulus (GPa) = 65.18794 69.72617 67.45705
# Shear Modulus (GPa) = 27.08712 29.80792 28.44752
#
# Velocity S-wave (km/s) = 3.73942 3.92274 3.83217
# Velocity P-wave (km/s) = 7.23164 7.51745 7.37593
#
# Compressibility (1/GPa) = 0.01534026
#
# Stress axis : x y z
#
# Youngs Moduli (GPa) = 40.69049 66.46201 89.52988
#
# Poissons Ratio (x) = 0.60410 0.54507
# Poissons Ratio (y) = 0.36985 0.22812
# Poissons Ratio (z) = 0.24773 0.16934
#
# Static dielectric constant tensor:
#      x y z
#    x 3.462200 0.000000 0.000000 
#    y 0.000000 3.844990 0.000000 
#    z 0.000000 0.000000 3.595720 
# 
# 
# High freq. dielectric constant tensor:
#      x y z
#    x 1.739130 0.000000 0.000000 
#    y 0.000000 1.771890 0.000000 
#    z 0.000000 0.000000 1.765180 
# 
# From -- ./inp_files/6220.got.cif
#   From: 2010.03.12/outbox.cif.g09.slc.cpg/sg59_4_cif.got.tgz:6220.got - 2010.04.16 16:29:54.
