data_PCOD8245364
_publ_section_title
;
Structure prediction by ZEFSAII (Michael W. Deem and Ramdas Pophale) SiO2 
 PCOD8245364
Probable space group: P M M N
;
_chemical_formula_sum "Si O2"
_cell_formula_units_Z 40
_cell_length_a 8.732218
_cell_length_b 14.190316
_cell_length_c 17.006768
_cell_angle_alpha 90.000000
_cell_angle_beta 90.000000
_cell_angle_gamma 90.000000
_cell_volume 2107.358500
_symmetry_space_group_name_H-M "P M M N"
_symmetry_group_IT_number 59
_space_group.IT_coordinate_system_code '2'
_symmetry_cell_setting 'orthorhombic'
loop_
_space_group_symop_operation_xyz
x,y,z
1/2-x,1/2-y,z
1/2+x,-y,-z
-x,1/2+y,-z
-x,-y,-z
1/2+x,1/2+y,-z
1/2-x,y,z
x,1/2-y,z
loop_
_atom_site_type_symbol
_atom_site_label
_atom_site_fract_x
_atom_site_fract_y
_atom_site_fract_z
Si Si1 0.072047 0.939569 0.068748
Si Si2 0.072754 0.520772 0.623577
Si Si3 0.928653 0.250000 0.147844
Si Si4 0.569267 0.750000 0.024141
Si Si5 0.926770 0.931815 0.784192
Si Si6 0.572782 0.857891 0.494256
O O1 0.250000 0.926635 0.050604
O O2 0.040798 0.988777 0.151384
O O3 0.991767 0.839008 0.071764
O O4 0.000000 0.000000 0.000000
O O5 0.250000 0.529881 0.646227
O O6 0.036190 0.421055 0.582032
O O7 0.970835 0.523780 0.701142
O O8 0.029056 0.607479 0.567016
O O9 0.750000 0.250000 0.129009
O O10 0.018003 0.250000 0.066090
O O11 0.970752 0.340855 0.198900
O O12 0.750000 0.750000 0.024558
O O13 0.750000 0.900923 0.784445
O O14 0.750000 0.868733 0.518391
O O15 0.530692 0.750000 0.474488
#
# Coordination Sequence:
#
# PCOD8245364 Si02
#       6
#     8   8   4   4   8   8
#     4  11  23  40  63  87 119 159 204 250 298 355
#     4  10  21  37  59  88 120 151 195 244 292 350
#     4  12  24  38  62  90 119 152 199 252 298 352
#     4  12  24  40  62  88 119 158 203 248 304 362
#     4  11  24  41  61  87 122 158 195 244 303 356
#     4   9  19  38  62  85 115 155 195 239 292 351
#
# _framework density 18.981107000000002
#
# number of rings (size 3 to 8) (size 9 to 14) (size 15 to 20)
#    0.000    1.400    2.000    3.600    1.400    3.600 
#    1.800    0.000    0.000    0.000    0.000    0.000 
#    0.000    0.000    0.000    0.000    0.000    0.000 
#
# Total GULP energy -496248.894505 kJ/mol
# GULP energy per Si atom -12406.222363 kJ/mol
# Density = 1.893791 g / cm^3
# Si number density = 18.981107 Si / 1000 Ang^3
#
#
#
# Elastic Constant Matrix: (Units=GPa)
#
#
# Indices 1 2 3 4 5 6 
#
# 1 105.7829 60.4781 48.4620 0.0000 0.0000 0.0000
# 2 60.4781 155.3055 54.7108 0.0000 0.0000 0.0000
# 3 48.4620 54.7108 111.5238 0.0000 0.0000 0.0000
# 4 0.0000 0.0000 0.0000 19.3127 0.0000 0.0000
# 5 0.0000 0.0000 0.0000 0.0000 35.8099 0.0000
# 6 0.0000 0.0000 0.0000 0.0000 0.0000 31.7322
#
#
#
# Elastic Compliance Matrix: (Units=1/GPa)
#
#
# Indices 1 2 3 4 5 6 
#
# 1 0.013470 -0.003849 -0.003965 0.000000 0.000000 0.000000
# 2 -0.003849 0.008884 -0.002686 0.000000 0.000000 0.000000
# 3 -0.003965 -0.002686 0.012007 0.000000 0.000000 0.000000
# 4 0.000000 0.000000 0.000000 0.051779 0.000000 0.000000
# 5 0.000000 0.000000 0.000000 0.000000 0.027925 0.000000
# 6 0.000000 0.000000 0.000000 0.000000 0.000000 0.031514
#
#
# Mechanical properties :
#
#
# Convention : Reuss Voigt Hill
#
# Bulk Modulus (GPa) = 74.83952 77.76821 76.30387
# Shear Modulus (GPa) = 29.23408 31.30173 30.26791
#
# Velocity S-wave (km/s) = 3.92875 4.06532 3.99762
# Velocity P-wave (km/s) = 7.75204 7.94330 7.84826
#
# Compressibility (1/GPa) = 0.01336192
#
# Stress axis : x y z
#
# Youngs Moduli (GPa) = 74.23744 112.56508 83.28189
#
# Poissons Ratio (x) = 0.43322 0.33025
# Poissons Ratio (y) = 0.28571 0.22368
# Poissons Ratio (z) = 0.29438 0.30232
#
# Static dielectric constant tensor:
#      x y z
#    x 3.639000 0.000000 0.000000 
#    y 0.000000 3.615320 0.000000 
#    z 0.000000 0.000000 3.432680 
# 
# 
# High freq. dielectric constant tensor:
#      x y z
#    x 1.751770 0.000000 0.000000 
#    y 0.000000 1.746240 0.000000 
#    z 0.000000 0.000000 1.734540 
# 
# From -- ./inp_files/19971.got.cif
#   From: 2010.03.12/outbox.cif.g09.slc.cpg/sg59_10_cif.got.tgz:19971.got - 2010.04.16 16:29:54.
