data_PCOD8245355
_publ_section_title
;
Structure prediction by ZEFSAII (Michael W. Deem and Ramdas Pophale) SiO2 
 PCOD8245355
Probable space group: P M M N
;
_chemical_formula_sum "Si O2"
_cell_formula_units_Z 64
_cell_length_a 8.968435
_cell_length_b 25.393600
_cell_length_c 14.166413
_cell_angle_alpha 90.000000
_cell_angle_beta 90.000000
_cell_angle_gamma 90.000000
_cell_volume 3226.270952
_symmetry_space_group_name_H-M "P M M N"
_symmetry_group_IT_number 59
_space_group.IT_coordinate_system_code '2'
_symmetry_cell_setting 'orthorhombic'
loop_
_space_group_symop_operation_xyz
x,y,z
1/2-x,1/2-y,z
1/2+x,-y,-z
-x,1/2+y,-z
-x,-y,-z
1/2+x,1/2+y,-z
1/2-x,y,z
x,1/2-y,z
loop_
_atom_site_type_symbol
_atom_site_label
_atom_site_fract_x
_atom_site_fract_y
_atom_site_fract_z
Si Si1 0.076515 0.189234 0.216957
Si Si2 0.421095 0.008410 0.207909
Si Si3 0.576156 0.397484 0.104438
Si Si4 0.423114 0.688744 0.588656
Si Si5 0.924773 0.690915 0.221863
Si Si6 0.421281 0.972949 0.412474
Si Si7 0.423152 0.901208 0.113117
Si Si8 0.925036 0.864185 0.413175
O O1 0.250000 0.177362 0.232438
O O2 0.047731 0.250000 0.191719
O O3 0.013407 0.155170 0.130969
O O4 0.989949 0.172208 0.311017
O O5 0.250000 0.017251 0.175469
O O6 0.433743 0.010409 0.321200
O O7 0.481072 0.952471 0.169034
O O8 0.524171 0.053987 0.167791
O O9 0.750000 0.387547 0.121775
O O10 0.540635 0.410411 0.996269
O O11 0.250000 0.673863 0.587180
O O12 0.450596 0.750000 0.569237
O O13 0.508377 0.656249 0.510176
O O14 0.750000 0.688028 0.204998
O O15 0.985025 0.750000 0.203465
O O16 0.963692 0.676262 0.329667
O O17 0.997491 0.651427 0.147956
O O18 0.250000 0.961894 0.438584
O O19 0.500907 0.918973 0.385659
O O20 0.500000 0.000000 0.500000
O O21 0.250000 0.892922 0.132855
O O22 0.750000 0.872330 0.426458
#
# Coordination Sequence:
#
# PCOD8245355 Si02
#       8
#     8   8   8   8   8   8   8   8
#     4  10  22  41  63  87 120 161 202 247 300 358
#     4  10  22  42  65  88 121 160 202 249 301 364
#     4  11  24  39  63  93 121 156 201 251 307 367
#     4  10  21  37  59  87 118 154 197 244 294 351
#     4  10  22  39  61  91 125 163 206 252 304 365
#     4  11  24  41  62  89 124 162 201 247 302 362
#     4  10  22  42  63  89 121 157 202 255 308 358
#     4  11  22  38  61  88 123 161 201 248 300 363
#
# _framework density 19.837143999999999
#
# number of rings (size 3 to 8) (size 9 to 14) (size 15 to 20)
#    0.000    1.625    1.250    2.625    1.750    5.750 
#    0.000    2.500    0.000    0.000    0.000    0.000 
#    0.000    0.000    0.000    0.000    0.000    0.000 
#
# Total GULP energy -793955.744440 kJ/mol
# GULP energy per Si atom -12405.558507 kJ/mol
# Density = 1.979199 g / cm^3
# Si number density = 19.837144 Si / 1000 Ang^3
#
#
#
# Elastic Constant Matrix: (Units=GPa)
#
#
# Indices 1 2 3 4 5 6 
#
# 1 91.1867 45.7589 43.6720 0.0000 0.0000 0.0000
# 2 45.7589 110.5635 44.1851 0.0000 0.0000 0.0000
# 3 43.6720 44.1851 95.6144 0.0000 0.0000 0.0000
# 4 0.0000 0.0000 0.0000 35.2645 0.0000 0.0000
# 5 0.0000 0.0000 0.0000 0.0000 34.7696 0.0000
# 6 0.0000 0.0000 0.0000 0.0000 0.0000 37.9605
#
#
#
# Elastic Compliance Matrix: (Units=1/GPa)
#
#
# Indices 1 2 3 4 5 6 
#
# 1 0.015629 -0.004435 -0.005089 0.000000 0.000000 0.000000
# 2 -0.004435 0.012352 -0.003682 0.000000 0.000000 0.000000
# 3 -0.005089 -0.003682 0.014485 0.000000 0.000000 0.000000
# 4 0.000000 0.000000 0.000000 0.028357 0.000000 0.000000
# 5 0.000000 0.000000 0.000000 0.000000 0.028761 0.000000
# 6 0.000000 0.000000 0.000000 0.000000 0.000000 0.026343
#
#
# Mechanical properties :
#
#
# Convention : Reuss Voigt Hill
#
# Bulk Modulus (GPa) = 62.29332 62.73296 62.51314
# Shear Modulus (GPa) = 31.70764 32.51548 32.11156
#
# Velocity S-wave (km/s) = 4.00233 4.05300 4.02775
# Velocity P-wave (km/s) = 7.26834 7.32086 7.29465
#
# Compressibility (1/GPa) = 0.01605309
#
# Stress axis : x y z
#
# Youngs Moduli (GPa) = 63.98224 80.96167 69.03713
#
# Poissons Ratio (x) = 0.35903 0.35136
# Poissons Ratio (y) = 0.28374 0.25422
# Poissons Ratio (z) = 0.32563 0.29813
#
# Static dielectric constant tensor:
#      x y z
#    x 3.688990 0.000000 0.000000 
#    y 0.000000 3.645140 0.000000 
#    z 0.000000 0.000000 3.606390 
# 
# 
# High freq. dielectric constant tensor:
#      x y z
#    x 1.779440 0.000000 0.000000 
#    y 0.000000 1.779590 0.000000 
#    z 0.000000 0.000000 1.780830 
# 
# From -- ./inp_files/21472.got.cif
#   From: 2010.03.12/outbox.cif.g09.slc.cpg/sg59_11_cif.got.tgz:21472.got - 2010.04.16 16:29:54.
