data_PCOD8245913
_publ_section_title
;
Structure prediction by ZEFSAII (Michael W. Deem and Ramdas Pophale) SiO2 
 PCOD8245913
Probable space group: P M M N
;
_chemical_formula_sum "Si O2"
_cell_formula_units_Z 18
_cell_length_a 7.324544
_cell_length_b 12.277679
_cell_length_c 10.418655
_cell_angle_alpha 90.000000
_cell_angle_beta 90.000000
_cell_angle_gamma 90.000000
_cell_volume 936.932975
_symmetry_space_group_name_H-M "P M M N"
_symmetry_group_IT_number 59
_space_group.IT_coordinate_system_code '2'
_symmetry_cell_setting 'orthorhombic'
loop_
_space_group_symop_operation_xyz
x,y,z
1/2-x,1/2-y,z
1/2+x,-y,-z
-x,1/2+y,-z
-x,-y,-z
1/2+x,1/2+y,-z
1/2-x,y,z
x,1/2-y,z
loop_
_atom_site_type_symbol
_atom_site_label
_atom_site_fract_x
_atom_site_fract_y
_atom_site_fract_z
Si Si1 0.036360 0.521037 0.647921
Si Si2 0.250000 0.870708 0.226039
Si Si3 0.549550 0.250000 0.266610
Si Si4 0.750000 0.250000 0.019630
O O1 0.250000 0.513428 0.682534
O O2 0.951924 0.639616 0.685250
O O3 0.000000 0.500000 0.500000
O O4 0.933003 0.431485 0.731459
O O5 0.250000 0.750000 0.290075
O O6 0.250000 0.857852 0.070605
O O7 0.750000 0.250000 0.332287
O O8 0.569730 0.250000 0.110714
#
# Coordination Sequence:
#
# PCOD8245913 Si02
#       4
#     8   4   4   2
#     4  11  22  39  66  93 126 165 201 265 316 371
#     4  10  24  40  61  92 123 168 209 254 312 368
#     4   8  20  40  60  90 123 160 205 254 312 362
#     4   8  20  44  62  82 134 166 200 272 294 374
#
# _framework density 19.21162
#
# number of rings (size 3 to 8) (size 9 to 14) (size 15 to 20)
#    1.333    0.889    2.222    0.000    3.111    3.556 
#    0.000    0.000    4.889    0.000    0.000    0.000 
#    0.000    0.000    0.000    0.000    0.000    0.000 
#
# Total GULP energy -223022.887417 kJ/mol
# GULP energy per Si atom -12390.160412 kJ/mol
# Density = 1.916789 g / cm^3
# Si number density = 19.211620 Si / 1000 Ang^3
#
#
#
# Elastic Constant Matrix: (Units=GPa)
#
#
# Indices 1 2 3 4 5 6 
#
# 1 89.2545 52.2830 23.3398 0.0000 0.0000 0.0000
# 2 52.2830 195.7814 80.9077 0.0000 0.0000 0.0000
# 3 23.3398 80.9077 158.1113 0.0000 0.0000 0.0000
# 4 0.0000 0.0000 0.0000 46.7638 0.0000 0.0000
# 5 0.0000 0.0000 0.0000 0.0000 26.9845 0.0000
# 6 0.0000 0.0000 0.0000 0.0000 0.0000 33.8906
#
#
#
# Elastic Compliance Matrix: (Units=1/GPa)
#
#
# Indices 1 2 3 4 5 6 
#
# 1 0.013286 -0.003472 -0.000185 0.000000 0.000000 0.000000
# 2 -0.003472 0.007385 -0.003266 0.000000 0.000000 0.000000
# 3 -0.000185 -0.003266 0.008023 0.000000 0.000000 0.000000
# 4 0.000000 0.000000 0.000000 0.021384 0.000000 0.000000
# 5 0.000000 0.000000 0.000000 0.000000 0.037058 0.000000
# 6 0.000000 0.000000 0.000000 0.000000 0.000000 0.029507
#
#
# Mechanical properties :
#
#
# Convention : Reuss Voigt Hill
#
# Bulk Modulus (GPa) = 67.34717 84.02312 75.68515
# Shear Modulus (GPa) = 36.91732 40.63557 38.77645
#
# Velocity S-wave (km/s) = 4.38838 4.60407 4.49752
# Velocity P-wave (km/s) = 7.79799 8.49081 8.15176
#
# Compressibility (1/GPa) = 0.01484843
#
# Stress axis : x y z
#
# Youngs Moduli (GPa) = 75.26834 135.41576 124.63587
#
# Poissons Ratio (x) = 0.47011 0.02302
# Poissons Ratio (y) = 0.26130 0.40711
# Poissons Ratio (z) = 0.01390 0.44232
#
# Static dielectric constant tensor:
#      x y z
#    x 3.183310 0.000000 0.000000 
#    y 0.000000 3.745760 0.000000 
#    z 0.000000 0.000000 3.355570 
# 
# 
# High freq. dielectric constant tensor:
#      x y z
#    x 1.728980 0.000000 0.000000 
#    y 0.000000 1.759570 0.000000 
#    z 0.000000 0.000000 1.741190 
# 
# From -- ./inp_files/13417.got.cif
#   From: 2010.03.12/outbox.cif.g09.slc.cpg/sg59_7_cif.got.tgz:13417.got - 2010.04.16 16:29:54.
