data_PCOD8245995
_publ_section_title
;
Structure prediction by ZEFSAII (Michael W. Deem and Ramdas Pophale) SiO2 
 PCOD8245995
Probable space group: P M M N
;
_chemical_formula_sum "Si O2"
_cell_formula_units_Z 48
_cell_length_a 8.432743
_cell_length_b 18.999267
_cell_length_c 14.972861
_cell_angle_alpha 90.000000
_cell_angle_beta 90.000000
_cell_angle_gamma 90.000000
_cell_volume 2398.890937
_symmetry_space_group_name_H-M "P M M N"
_symmetry_group_IT_number 59
_space_group.IT_coordinate_system_code '2'
_symmetry_cell_setting 'orthorhombic'
loop_
_space_group_symop_operation_xyz
x,y,z
1/2-x,1/2-y,z
1/2+x,-y,-z
-x,1/2+y,-z
-x,-y,-z
1/2+x,1/2+y,-z
1/2-x,y,z
x,1/2-y,z
loop_
_atom_site_type_symbol
_atom_site_label
_atom_site_fract_x
_atom_site_fract_y
_atom_site_fract_z
Si Si1 0.065913 0.947444 0.869411
Si Si2 0.065065 0.911182 0.057464
Si Si3 0.935922 0.427401 0.627135
Si Si4 0.564725 0.668539 0.526847
Si Si5 0.563935 0.173845 0.778675
Si Si6 0.437244 0.574873 0.673046
O O1 0.250000 0.937945 0.853981
O O2 0.989099 0.926921 0.774085
O O3 0.009332 0.899336 0.954285
O O4 0.030620 0.027163 0.895016
O O5 0.250000 0.932217 0.058838
O O6 0.030475 0.842545 0.116921
O O7 0.750000 0.442989 0.635570
O O8 0.005996 0.385343 0.712981
O O9 0.966518 0.379602 0.541100
O O10 0.025755 0.501723 0.621832
O O11 0.750000 0.660598 0.507127
O O12 0.511504 0.750000 0.518846
O O13 0.523872 0.640120 0.625448
O O14 0.750000 0.177543 0.760325
O O15 0.486488 0.250000 0.757883
O O16 0.250000 0.587606 0.670917
#
# Coordination Sequence:
#
# PCOD8245995 Si02
#       6
#     8   8   8   8   8   8
#     4   9  18  31  51  79 109 140 179 226 272 316
#     4   9  16  30  51  76 107 143 182 222 269 323
#     4  11  21  36  59  85 112 145 187 231 281 335
#     4  11  25  43  60  80 109 146 186 230 284 340
#     4   9  17  29  49  79 112 144 181 225 274 329
#     4  11  22  37  58  85 115 146 188 235 278 329
#
# _framework density 20.009246000000001
#
# number of rings (size 3 to 8) (size 9 to 14) (size 15 to 20)
#    0.000    2.000    1.667    2.500    0.000    2.667 
#    0.000    0.833    0.000    4.500    0.000    0.000 
#    0.000    0.000    0.000    0.000    0.000    0.000 
#
# Total GULP energy -594938.275325 kJ/mol
# GULP energy per Si atom -12394.547403 kJ/mol
# Density = 1.996370 g / cm^3
# Si number density = 20.009246 Si / 1000 Ang^3
#
#
#
# Elastic Constant Matrix: (Units=GPa)
#
#
# Indices 1 2 3 4 5 6 
#
# 1 25.9149 10.0674 8.0522 0.0000 0.0000 0.0000
# 2 10.0674 74.8777 27.5221 0.0000 0.0000 0.0000
# 3 8.0522 27.5221 124.5488 0.0000 0.0000 0.0000
# 4 0.0000 0.0000 0.0000 22.5339 0.0000 0.0000
# 5 0.0000 0.0000 0.0000 0.0000 20.0634 0.0000
# 6 0.0000 0.0000 0.0000 0.0000 0.0000 19.1362
#
#
#
# Elastic Compliance Matrix: (Units=1/GPa)
#
#
# Indices 1 2 3 4 5 6 
#
# 1 0.040991 -0.004938 -0.001559 0.000000 0.000000 0.000000
# 2 -0.004938 0.015131 -0.003024 0.000000 0.000000 0.000000
# 3 -0.001559 -0.003024 0.008798 0.000000 0.000000 0.000000
# 4 0.000000 0.000000 0.000000 0.044378 0.000000 0.000000
# 5 0.000000 0.000000 0.000000 0.000000 0.049842 0.000000
# 6 0.000000 0.000000 0.000000 0.000000 0.000000 0.052257
#
#
# Mechanical properties :
#
#
# Convention : Reuss Voigt Hill
#
# Bulk Modulus (GPa) = 21.79760 35.18051 28.48906
# Shear Modulus (GPa) = 20.34749 24.32669 22.33709
#
# Velocity S-wave (km/s) = 3.19235 3.49058 3.34479
# Velocity P-wave (km/s) = 4.95031 5.81943 5.40238
#
# Compressibility (1/GPa) = 0.04587662
#
# Stress axis : x y z
#
# Youngs Moduli (GPa) = 24.39588 66.09107 113.66167
#
# Poissons Ratio (x) = 0.32637 0.17718
# Poissons Ratio (y) = 0.12047 0.34374
# Poissons Ratio (z) = 0.03803 0.19987
#
# Static dielectric constant tensor:
#      x y z
#    x 3.368380 0.000000 0.000000 
#    y 0.000000 3.566140 0.000000 
#    z 0.000000 0.000000 4.201790 
# 
# 
# High freq. dielectric constant tensor:
#      x y z
#    x 1.758340 0.000000 0.000000 
#    y 0.000000 1.759240 0.000000 
#    z 0.000000 0.000000 1.800370 
# 
# From -- ./inp_files/20378.got.cif
#   From: 2010.03.12/outbox.cif.g09.slc.cpg/sg59_11_cif.got.tgz:20378.got - 2010.04.16 16:29:54.
