data_PCOD8245064
_publ_section_title
;
Structure prediction by ZEFSAII (Michael W. Deem and Ramdas Pophale) SiO2 
 PCOD8245064
Probable space group: P M M N
;
_chemical_formula_sum "Si O2"
_cell_formula_units_Z 64
_cell_length_a 8.849299
_cell_length_b 24.846367
_cell_length_c 14.524388
_cell_angle_alpha 90.000000
_cell_angle_beta 90.000000
_cell_angle_gamma 90.000000
_cell_volume 3193.519755
_symmetry_space_group_name_H-M "P M M N"
_symmetry_group_IT_number 59
_space_group.IT_coordinate_system_code '2'
_symmetry_cell_setting 'orthorhombic'
loop_
_space_group_symop_operation_xyz
x,y,z
1/2-x,1/2-y,z
1/2+x,-y,-z
-x,1/2+y,-z
-x,-y,-z
1/2+x,1/2+y,-z
1/2-x,y,z
x,1/2-y,z
loop_
_atom_site_type_symbol
_atom_site_label
_atom_site_fract_x
_atom_site_fract_y
_atom_site_fract_z
Si Si1 0.924825 0.106033 0.644386
Si Si2 0.422763 0.690910 0.830778
Si Si3 0.572824 0.089950 0.287107
Si Si4 0.425055 0.188332 0.783876
Si Si5 0.571079 0.557821 0.522230
Si Si6 0.427847 0.161400 0.987792
Si Si7 0.581287 0.490037 0.772862
Si Si8 0.077465 0.552875 0.034358
O O1 0.750000 0.118686 0.625226
O O2 0.947320 0.045775 0.683176
O O3 0.985750 0.151739 0.712169
O O4 0.016553 0.104081 0.548987
O O5 0.250000 0.676852 0.853449
O O6 0.438526 0.750000 0.783493
O O7 0.484913 0.644947 0.761640
O O8 0.508732 0.695745 0.927856
O O9 0.750000 0.092445 0.309903
O O10 0.477212 0.079859 0.378541
O O11 0.537740 0.039099 0.220156
O O12 0.250000 0.171204 0.781179
O O13 0.447493 0.250000 0.753731
O O14 0.488402 0.181460 0.888292
O O15 0.500000 0.500000 0.500000
O O16 0.750000 0.551698 0.518159
O O17 0.250000 0.166099 0.989991
O O18 0.481721 0.101119 0.006994
O O19 0.750000 0.514987 0.772340
O O20 0.564380 0.447625 0.855558
O O21 0.250000 0.557209 0.000374
O O22 0.000000 0.500000 0.000000
#
# Coordination Sequence:
#
# PCOD8245064 Si02
#       8
#     8   8   8   8   8   8   8   8
#     4  11  22  39  62  90 122 157 199 248 300 358
#     4  10  23  43  64  88 121 161 206 255 302 353
#     4  11  23  39  63  92 121 158 202 248 304 366
#     4  10  22  40  61  88 124 164 206 252 301 355
#     4  12  24  40  64  93 124 158 196 245 303 367
#     4  11  22  37  60  89 122 161 207 254 301 358
#     4  10  21  36  56  83 121 158 194 244 301 359
#     4  11  22  36  53  81 120 162 205 250 303 361
#
# _framework density 20.040585
#
# number of rings (size 3 to 8) (size 9 to 14) (size 15 to 20)
#    0.000    1.250    2.500    3.750    0.000    6.000 
#    0.000    0.625    0.000    2.250    0.000    0.000 
#    0.000    0.000    0.000    0.000    0.000    0.000 
#
# Total GULP energy -793623.732256 kJ/mol
# GULP energy per Si atom -12400.370816 kJ/mol
# Density = 1.999497 g / cm^3
# Si number density = 20.040585 Si / 1000 Ang^3
#
#
#
# Elastic Constant Matrix: (Units=GPa)
#
#
# Indices 1 2 3 4 5 6 
#
# 1 95.6317 40.1653 46.0564 0.0000 0.0000 0.0000
# 2 40.1653 109.1212 42.7073 0.0000 0.0000 0.0000
# 3 46.0564 42.7073 91.2593 0.0000 0.0000 0.0000
# 4 0.0000 0.0000 0.0000 23.0437 0.0000 0.0000
# 5 0.0000 0.0000 0.0000 0.0000 34.8638 0.0000
# 6 0.0000 0.0000 0.0000 0.0000 0.0000 26.5025
#
#
#
# Elastic Compliance Matrix: (Units=1/GPa)
#
#
# Indices 1 2 3 4 5 6 
#
# 1 0.014598 -0.003048 -0.005941 0.000000 0.000000 0.000000
# 2 -0.003048 0.011855 -0.004010 0.000000 0.000000 0.000000
# 3 -0.005941 -0.004010 0.015832 0.000000 0.000000 0.000000
# 4 0.000000 0.000000 0.000000 0.043396 0.000000 0.000000
# 5 0.000000 0.000000 0.000000 0.000000 0.028683 0.000000
# 6 0.000000 0.000000 0.000000 0.000000 0.000000 0.037732
#
#
# Mechanical properties :
#
#
# Convention : Reuss Voigt Hill
#
# Bulk Modulus (GPa) = 61.39302 61.54111 61.46707
# Shear Modulus (GPa) = 27.24436 28.02088 27.63262
#
# Velocity S-wave (km/s) = 3.69108 3.74332 3.71729
# Velocity P-wave (km/s) = 6.99045 7.03265 7.01158
#
# Compressibility (1/GPa) = 0.01628850
#
# Stress axis : x y z
#
# Youngs Moduli (GPa) = 68.50190 84.34981 63.16141
#
# Poissons Ratio (x) = 0.25711 0.37523
# Poissons Ratio (y) = 0.20881 0.25326
# Poissons Ratio (z) = 0.40696 0.33822
#
# Static dielectric constant tensor:
#      x y z
#    x 3.692340 0.000000 0.000000 
#    y 0.000000 3.703370 0.000000 
#    z 0.000000 0.000000 4.102730 
# 
# 
# High freq. dielectric constant tensor:
#      x y z
#    x 1.783490 0.000000 0.000000 
#    y 0.000000 1.779430 0.000000 
#    z 0.000000 0.000000 1.783430 
# 
# From -- ./inp_files/21426.got.cif
#   From: 2010.03.12/outbox.cif.g09.slc.cpg/sg59_11_cif.got.tgz:21426.got - 2010.04.16 16:29:54.
