data_PCOD8245502
_publ_section_title
;
Structure prediction by ZEFSAII (Michael W. Deem and Ramdas Pophale) SiO2 
 PCOD8245502
Probable space group: P M M N
;
_chemical_formula_sum "Si O2"
_cell_formula_units_Z 48
_cell_length_a 8.860079
_cell_length_b 15.277289
_cell_length_c 17.265666
_cell_angle_alpha 90.000000
_cell_angle_beta 90.000000
_cell_angle_gamma 90.000000
_cell_volume 2337.045802
_symmetry_space_group_name_H-M "P M M N"
_symmetry_group_IT_number 59
_space_group.IT_coordinate_system_code '2'
_symmetry_cell_setting 'orthorhombic'
loop_
_space_group_symop_operation_xyz
x,y,z
1/2-x,1/2-y,z
1/2+x,-y,-z
-x,1/2+y,-z
-x,-y,-z
1/2+x,1/2+y,-z
1/2-x,y,z
x,1/2-y,z
loop_
_atom_site_type_symbol
_atom_site_label
_atom_site_fract_x
_atom_site_fract_y
_atom_site_fract_z
Si Si1 0.415284 0.149472 0.150502
Si Si2 0.073739 0.850509 0.696337
Si Si3 0.928223 0.093856 0.998736
Si Si4 0.428388 0.005779 0.583610
Si Si5 0.584146 0.649691 0.154283
Si Si6 0.926851 0.146984 0.691503
O O1 0.250000 0.105193 0.136248
O O2 0.390918 0.250000 0.167875
O O3 0.492489 0.110318 0.227187
O O4 0.522361 0.141915 0.076556
O O5 0.250000 0.854341 0.713953
O O6 0.026090 0.750000 0.675908
O O7 0.028297 0.915296 0.626930
O O8 0.750000 0.090053 0.994566
O O9 0.988862 0.143289 0.923783
O O10 0.000000 0.000000 0.000000
O O11 0.250000 0.016984 0.577605
O O12 0.494719 0.091887 0.624213
O O13 0.500000 0.000000 0.500000
O O14 0.750000 0.603859 0.146288
O O15 0.610787 0.750000 0.172300
O O16 0.492792 0.610712 0.226915
O O17 0.750000 0.128152 0.691305
O O18 0.959960 0.250000 0.678141
#
# Coordination Sequence:
#
# PCOD8245502 Si02
#       6
#     8   8   8   8   8   8
#     4  10  21  38  60  86 117 154 197 246 299 357
#     4   9  20  40  64  89 120 161 205 249 302 366
#     4  12  25  38  55  82 118 159 203 250 299 354
#     4  11  24  41  64  94 127 162 203 254 311 373
#     4  10  21  39  62  87 118 156 200 250 302 359
#     4  10  22  41  65  92 124 165 210 255 308 370
#
# _framework density 20.538747999999998
#
# number of rings (size 3 to 8) (size 9 to 14) (size 15 to 20)
#    0.000    1.667    0.000    4.000    2.333    7.000 
#    0.000    1.667    0.000    0.000    0.000    0.000 
#    0.000    0.000    0.000    0.000    0.000    0.000 
#
# Total GULP energy -595133.235101 kJ/mol
# GULP energy per Si atom -12398.609065 kJ/mol
# Density = 2.049200 g / cm^3
# Si number density = 20.538748 Si / 1000 Ang^3
#
#
#
# Elastic Constant Matrix: (Units=GPa)
#
#
# Indices 1 2 3 4 5 6 
#
# 1 161.2428 47.4965 89.1772 0.0000 0.0000 0.0000
# 2 47.4965 71.1017 52.8578 0.0000 0.0000 0.0000
# 3 89.1772 52.8578 192.7259 0.0000 0.0000 0.0000
# 4 0.0000 0.0000 0.0000 30.8068 0.0000 0.0000
# 5 0.0000 0.0000 0.0000 0.0000 42.5757 0.0000
# 6 0.0000 0.0000 0.0000 0.0000 0.0000 29.2991
#
#
#
# Elastic Compliance Matrix: (Units=1/GPa)
#
#
# Indices 1 2 3 4 5 6 
#
# 1 0.009041 -0.003680 -0.003174 0.000000 0.000000 0.000000
# 2 -0.003680 0.019164 -0.003553 0.000000 0.000000 0.000000
# 3 -0.003174 -0.003553 0.007632 0.000000 0.000000 0.000000
# 4 0.000000 0.000000 0.000000 0.032460 0.000000 0.000000
# 5 0.000000 0.000000 0.000000 0.000000 0.023488 0.000000
# 6 0.000000 0.000000 0.000000 0.000000 0.000000 0.034131
#
#
# Mechanical properties :
#
#
# Convention : Reuss Voigt Hill
#
# Bulk Modulus (GPa) = 66.56655 89.34816 77.95735
# Shear Modulus (GPa) = 32.95136 36.23892 34.59514
#
# Velocity S-wave (km/s) = 4.00978 4.20505 4.10858
# Velocity P-wave (km/s) = 7.34291 8.19593 7.78112
#
# Compressibility (1/GPa) = 0.01502256
#
# Stress axis : x y z
#
# Youngs Moduli (GPa) = 110.60243 52.18081 131.02617
#
# Poissons Ratio (x) = 0.19202 0.41592
# Poissons Ratio (y) = 0.40701 0.46557
# Poissons Ratio (z) = 0.35109 0.18541
#
# Static dielectric constant tensor:
#      x y z
#    x 4.119690 0.000000 0.000000 
#    y 0.000000 3.674270 0.000000 
#    z 0.000000 0.000000 3.467270 
# 
# 
# High freq. dielectric constant tensor:
#      x y z
#    x 1.819290 0.000000 0.000000 
#    y 0.000000 1.799820 0.000000 
#    z 0.000000 0.000000 1.805120 
# 
# From -- ./inp_files/25406.got.cif
#   From: 2010.03.12/outbox.cif.g09.slc.cpg/sg59_13_cif.got.tgz:25406.got - 2010.04.16 16:29:54.
