data_PCOD8245315
_publ_section_title
;
Structure prediction by ZEFSAII (Michael W. Deem and Ramdas Pophale) SiO2 
 PCOD8245315
Probable space group: P M M N
;
_chemical_formula_sum "Si O2"
_cell_formula_units_Z 48
_cell_length_a 9.144318
_cell_length_b 7.767460
_cell_length_c 34.125997
_cell_angle_alpha 90.000000
_cell_angle_beta 90.000000
_cell_angle_gamma 90.000000
_cell_volume 2423.905557
_symmetry_space_group_name_H-M "P M M N"
_symmetry_group_IT_number 59
_space_group.IT_coordinate_system_code '2'
_symmetry_cell_setting 'orthorhombic'
loop_
_space_group_symop_operation_xyz
x,y,z
1/2-x,1/2-y,z
1/2+x,-y,-z
-x,1/2+y,-z
-x,-y,-z
1/2+x,1/2+y,-z
1/2-x,y,z
x,1/2-y,z
loop_
_atom_site_type_symbol
_atom_site_label
_atom_site_fract_x
_atom_site_fract_y
_atom_site_fract_z
Si Si1 0.081912 0.049639 0.960743
Si Si2 0.589069 0.948860 0.614715
Si Si3 0.585548 0.951650 0.461173
Si Si4 0.920605 0.448787 0.309465
Si Si5 0.079256 0.250000 0.748680
Si Si6 0.922293 0.250000 0.830856
Si Si7 0.582493 0.557924 0.885728
O O1 0.250000 0.995059 0.965170
O O2 0.064030 0.250000 0.951954
O O3 0.012615 0.946770 0.924877
O O4 0.000000 0.000000 0.000000
O O5 0.750000 0.036695 0.610749
O O6 0.611095 0.750000 0.622407
O O7 0.503747 0.022155 0.652302
O O8 0.497020 0.970544 0.575596
O O9 0.750000 0.027670 0.463368
O O10 0.591389 0.750000 0.456017
O O11 0.500000 0.000000 0.500000
O O12 0.750000 0.464331 0.319080
O O13 0.961330 0.250000 0.298841
O O14 0.965379 0.575589 0.274238
O O15 0.250000 0.250000 0.757725
O O16 0.994859 0.250000 0.788960
O O17 0.750000 0.250000 0.824696
O O18 0.974959 0.420129 0.854110
O O19 0.750000 0.515624 0.897029
O O20 0.568433 0.750000 0.867677
#
# Coordination Sequence:
#
# PCOD8245315 Si02
#       7
#     8   8   8   8   4   4   8
#     4  11  23  37  56  85 120 157 199 246 296 351
#     4  10  21  37  58  85 115 147 186 234 287 343
#     4  11  24  39  56  80 111 148 191 236 282 337
#     4   9  19  37  59  84 117 154 191 238 294 346
#     4  10  22  38  60  88 118 152 198 246 290 356
#     4  10  22  40  60  86 120 156 192 244 304 354
#     4  10  21  39  62  86 115 155 201 245 295 354
#
# _framework density 19.80275
#
# number of rings (size 3 to 8) (size 9 to 14) (size 15 to 20)
#    0.000    1.833    0.833    2.500    1.167    9.667 
#    0.000    0.000    0.000    0.000    0.000    0.000 
#    0.000    0.000    0.000    0.000    0.000    0.000 
#
# Total GULP energy -595246.101465 kJ/mol
# GULP energy per Si atom -12400.960447 kJ/mol
# Density = 1.975768 g / cm^3
# Si number density = 19.802750 Si / 1000 Ang^3
#
#
#
# Elastic Constant Matrix: (Units=GPa)
#
#
# Indices 1 2 3 4 5 6 
#
# 1 113.3091 34.5937 71.5936 0.0000 0.0000 0.0000
# 2 34.5937 93.7352 51.7508 0.0000 0.0000 0.0000
# 3 71.5936 51.7508 168.5254 0.0000 0.0000 0.0000
# 4 0.0000 0.0000 0.0000 32.4930 0.0000 0.0000
# 5 0.0000 0.0000 0.0000 0.0000 43.1809 0.0000
# 6 0.0000 0.0000 0.0000 0.0000 0.0000 22.0280
#
#
#
# Elastic Compliance Matrix: (Units=1/GPa)
#
#
# Indices 1 2 3 4 5 6 
#
# 1 0.012368 -0.002003 -0.004639 0.000000 0.000000 0.000000
# 2 -0.002003 0.013171 -0.003193 0.000000 0.000000 0.000000
# 3 -0.004639 -0.003193 0.008885 0.000000 0.000000 0.000000
# 4 0.000000 0.000000 0.000000 0.030776 0.000000 0.000000
# 5 0.000000 0.000000 0.000000 0.000000 0.023158 0.000000
# 6 0.000000 0.000000 0.000000 0.000000 0.000000 0.045397
#
#
# Mechanical properties :
#
#
# Convention : Reuss Voigt Hill
#
# Bulk Modulus (GPa) = 67.78515 76.82732 72.30624
# Shear Modulus (GPa) = 31.57669 34.04915 32.81292
#
# Velocity S-wave (km/s) = 3.99753 4.15108 4.07503
# Velocity P-wave (km/s) = 7.45731 7.86485 7.66379
#
# Compressibility (1/GPa) = 0.01475249
#
# Stress axis : x y z
#
# Youngs Moduli (GPa) = 80.85212 75.92572 112.54580
#
# Poissons Ratio (x) = 0.15211 0.52212
# Poissons Ratio (y) = 0.16198 0.35940
# Poissons Ratio (z) = 0.37508 0.24246
#
# Static dielectric constant tensor:
#      x y z
#    x 3.832930 0.000000 0.000000 
#    y 0.000000 3.794060 0.000000 
#    z 0.000000 0.000000 3.525750 
# 
# 
# High freq. dielectric constant tensor:
#      x y z
#    x 1.777750 0.000000 0.000000 
#    y 0.000000 1.781430 0.000000 
#    z 0.000000 0.000000 1.766600 
# 
# From -- ./inp_files/33016.got.cif
#   From: 2010.03.12/outbox.cif.g09.slc.cpg/sg59_17_cif.got.tgz:33016.got - 2010.04.16 16:29:54.
