data_PCOD8245732
_publ_section_title
;
Structure prediction by ZEFSAII (Michael W. Deem and Ramdas Pophale) SiO2 
 PCOD8245732
Probable space group: P M M N
;
_chemical_formula_sum "Si O2"
_cell_formula_units_Z 64
_cell_length_a 9.018505
_cell_length_b 19.533230
_cell_length_c 18.700678
_cell_angle_alpha 90.000000
_cell_angle_beta 90.000000
_cell_angle_gamma 90.000000
_cell_volume 3294.321393
_symmetry_space_group_name_H-M "P M M N"
_symmetry_group_IT_number 59
_space_group.IT_coordinate_system_code '2'
_symmetry_cell_setting 'orthorhombic'
loop_
_space_group_symop_operation_xyz
x,y,z
1/2-x,1/2-y,z
1/2+x,-y,-z
-x,1/2+y,-z
-x,-y,-z
1/2+x,1/2+y,-z
1/2-x,y,z
x,1/2-y,z
loop_
_atom_site_type_symbol
_atom_site_label
_atom_site_fract_x
_atom_site_fract_y
_atom_site_fract_z
Si Si1 0.920405 0.436155 0.175353
Si Si2 0.425079 0.827287 0.236703
Si Si3 0.923093 0.543877 0.293580
Si Si4 0.075536 0.067417 0.027932
Si Si5 0.925025 0.036998 0.434471
Si Si6 0.915913 0.674700 0.581578
Si Si7 0.081255 0.829611 0.073636
Si Si8 0.087375 0.174601 0.250062
O O1 0.750000 0.435810 0.150074
O O2 0.957962 0.504816 0.219386
O O3 0.030135 0.425257 0.109831
O O4 0.950776 0.372328 0.226787
O O5 0.250000 0.833324 0.244211
O O6 0.476014 0.750000 0.257457
O O7 0.498809 0.882031 0.290235
O O8 0.472228 0.842951 0.154862
O O9 0.750000 0.556841 0.302824
O O10 0.981586 0.498699 0.360648
O O11 0.250000 0.060467 0.021249
O O12 0.024794 0.131691 0.981111
O O13 0.000000 0.000000 0.000000
O O14 0.750000 0.031418 0.440553
O O15 0.969565 0.116412 0.441439
O O16 0.000000 0.000000 0.500000
O O17 0.750000 0.656612 0.553643
O O18 0.963815 0.750000 0.551350
O O19 0.914508 0.679268 0.665838
O O20 0.250000 0.855538 0.063884
O O21 0.070470 0.750000 0.055086
O O22 0.250000 0.146646 0.225155
O O23 0.062422 0.250000 0.217008
#
# Coordination Sequence:
#
# PCOD8245732 Si02
#       8
#     8   8   8   8   8   8   8   8
#     4  11  22  37  56  81 112 147 189 238 288 341
#     4   9  19  36  60  88 113 142 185 233 282 340
#     4  10  22  38  57  84 115 145 184 233 284 341
#     4  12  25  39  55  79 111 149 193 240 290 347
#     4  11  23  40  60  88 121 156 197 241 291 348
#     4   9  18  35  60  88 118 153 192 233 280 336
#     4   9  19  38  61  84 113 150 192 238 289 344
#     4   9  18  33  54  82 114 147 186 229 275 331
#
# _framework density 19.427371000000001
#
# number of rings (size 3 to 8) (size 9 to 14) (size 15 to 20)
#    0.000    2.000    1.250    4.125    0.000    6.000 
#    0.000    3.125    0.000    0.750    0.000    0.000 
#    0.000    0.000    0.000    0.000    0.000    0.000 
#
# Total GULP energy -793438.527039 kJ/mol
# GULP energy per Si atom -12397.476985 kJ/mol
# Density = 1.938315 g / cm^3
# Si number density = 19.427371 Si / 1000 Ang^3
#
#
#
# Elastic Constant Matrix: (Units=GPa)
#
#
# Indices 1 2 3 4 5 6 
#
# 1 88.7361 54.9016 37.2520 0.0000 0.0000 0.0000
# 2 54.9016 132.1847 44.3091 0.0000 0.0000 0.0000
# 3 37.2520 44.3091 62.8684 0.0000 0.0000 0.0000
# 4 0.0000 0.0000 0.0000 27.1311 0.0000 0.0000
# 5 0.0000 0.0000 0.0000 0.0000 27.7932 0.0000
# 6 0.0000 0.0000 0.0000 0.0000 0.0000 35.6048
#
#
#
# Elastic Compliance Matrix: (Units=1/GPa)
#
#
# Indices 1 2 3 4 5 6 
#
# 1 0.017084 -0.004848 -0.006706 0.000000 0.000000 0.000000
# 2 -0.004848 0.011281 -0.005078 0.000000 0.000000 0.000000
# 3 -0.006706 -0.005078 0.023459 0.000000 0.000000 0.000000
# 4 0.000000 0.000000 0.000000 0.036858 0.000000 0.000000
# 5 0.000000 0.000000 0.000000 0.000000 0.035980 0.000000
# 6 0.000000 0.000000 0.000000 0.000000 0.000000 0.028086
#
#
# Mechanical properties :
#
#
# Convention : Reuss Voigt Hill
#
# Bulk Modulus (GPa) = 53.88076 61.85718 57.86897
# Shear Modulus (GPa) = 26.01468 27.92759 26.97114
#
# Velocity S-wave (km/s) = 3.66331 3.79560 3.73004
# Velocity P-wave (km/s) = 6.75927 7.14969 6.95722
#
# Compressibility (1/GPa) = 0.01855950
#
# Stress axis : x y z
#
# Youngs Moduli (GPa) = 58.53418 88.64579 42.62738
#
# Poissons Ratio (x) = 0.42973 0.28587
# Poissons Ratio (y) = 0.28375 0.21647
# Poissons Ratio (z) = 0.39255 0.45016
#
# Static dielectric constant tensor:
#      x y z
#    x 3.627390 0.000000 0.000000 
#    y 0.000000 4.908460 0.000000 
#    z 0.000000 0.000000 3.347530 
# 
# 
# High freq. dielectric constant tensor:
#      x y z
#    x 1.751870 0.000000 0.000000 
#    y 0.000000 1.768610 0.000000 
#    z 0.000000 0.000000 1.738900 
# 
# From -- ./inp_files/29389.got.cif
#   From: 2010.03.12/outbox.cif.g09.slc.cpg/sg59_15_cif.got.tgz:29389.got - 2010.04.16 16:29:54.
