data_PCOD8245041
_publ_section_title
;
Structure prediction by ZEFSAII (Michael W. Deem and Ramdas Pophale) SiO2 
 PCOD8245041
Probable space group: P M M N
;
_chemical_formula_sum "Si O2"
_cell_formula_units_Z 64
_cell_length_a 23.476688
_cell_length_b 13.800493
_cell_length_c 10.097170
_cell_angle_alpha 90.000000
_cell_angle_beta 90.000000
_cell_angle_gamma 90.000000
_cell_volume 3271.380780
_symmetry_space_group_name_H-M "P M M N"
_symmetry_group_IT_number 59
_space_group.IT_coordinate_system_code '2'
_symmetry_cell_setting 'orthorhombic'
loop_
_space_group_symop_operation_xyz
x,y,z
1/2-x,1/2-y,z
1/2+x,-y,-z
-x,1/2+y,-z
-x,-y,-z
1/2+x,1/2+y,-z
1/2-x,y,z
x,1/2-y,z
loop_
_atom_site_type_symbol
_atom_site_label
_atom_site_fract_x
_atom_site_fract_y
_atom_site_fract_z
Si Si1 0.999651 0.139831 0.388209
Si Si2 0.314063 0.525001 0.621910
Si Si3 0.617084 0.053668 0.881137
Si Si4 0.005389 0.139384 0.863508
Si Si5 0.931783 0.950647 0.385597
Si Si6 0.072126 0.143460 0.133082
Si Si7 0.185955 0.859793 0.355170
Si Si8 0.684803 0.359601 0.114895
O O1 0.978645 0.250000 0.416805
O O2 0.051241 0.112624 0.487083
O O3 0.021842 0.130347 0.238997
O O4 0.947977 0.064204 0.408985
O O5 0.250000 0.479558 0.630615
O O6 0.363244 0.443411 0.635273
O O7 0.324250 0.574602 0.481689
O O8 0.322117 0.604757 0.735542
O O9 0.551515 0.081543 0.896867
O O10 0.643645 0.112796 0.761535
O O11 0.620546 0.938568 0.849759
O O12 0.648509 0.073132 0.018571
O O13 0.990287 0.250000 0.828243
O O14 0.036421 0.090583 0.740729
O O15 0.046223 0.132473 0.988223
O O16 0.100399 0.250000 0.150220
O O17 0.250000 0.872337 0.300947
O O18 0.173898 0.750000 0.397656
O O19 0.750000 0.364205 0.068520
O O20 0.661521 0.250000 0.106788
#
# Coordination Sequence:
#
# PCOD8245041 Si02
#       8
#     8   8   8   8   8   8   8   8
#     4  10  22  38  58  84 116 152 192 237 290 348
#     4  10  22  38  58  83 116 158 198 236 283 345
#     4  12  21  36  58  85 113 152 195 234 286 349
#     4  11  23  37  57  86 119 151 188 238 290 345
#     4  11  22  39  58  86 119 152 190 240 293 347
#     4  10  22  39  55  79 114 152 191 234 285 335
#     4  10  21  37  57  84 118 151 186 234 290 346
#     4  10  21  36  55  84 120 155 193 239 291 349
#
# _framework density 19.563604999999999
#
# number of rings (size 3 to 8) (size 9 to 14) (size 15 to 20)
#    0.000    1.500    1.250    4.125    3.500    3.500 
#    0.000    0.000    0.000    3.000    0.000   14.000 
#    0.000    0.000    0.000    0.000    0.000    0.000 
#
# Total GULP energy -793698.042034 kJ/mol
# GULP energy per Si atom -12401.531907 kJ/mol
# Density = 1.951908 g / cm^3
# Si number density = 19.563605 Si / 1000 Ang^3
#
#
#
# Elastic Constant Matrix: (Units=GPa)
#
#
# Indices 1 2 3 4 5 6 
#
# 1 67.8008 14.6187 8.8396 0.0000 0.0000 0.0000
# 2 14.6187 82.6303 6.1758 0.0000 0.0000 0.0000
# 3 8.8396 6.1758 67.9295 0.0000 0.0000 0.0000
# 4 0.0000 0.0000 0.0000 27.7258 0.0000 0.0000
# 5 0.0000 0.0000 0.0000 0.0000 23.4730 0.0000
# 6 0.0000 0.0000 0.0000 0.0000 0.0000 19.3603
#
#
#
# Elastic Compliance Matrix: (Units=1/GPa)
#
#
# Indices 1 2 3 4 5 6 
#
# 1 0.015546 -0.002617 -0.001785 0.000000 0.000000 0.000000
# 2 -0.002617 0.012625 -0.000807 0.000000 0.000000 0.000000
# 3 -0.001785 -0.000807 0.015027 0.000000 0.000000 0.000000
# 4 0.000000 0.000000 0.000000 0.036068 0.000000 0.000000
# 5 0.000000 0.000000 0.000000 0.000000 0.042602 0.000000
# 6 0.000000 0.000000 0.000000 0.000000 0.000000 0.051652
#
#
# Mechanical properties :
#
#
# Convention : Reuss Voigt Hill
#
# Bulk Modulus (GPa) = 30.50670 30.84764 30.67717
# Shear Modulus (GPa) = 25.65876 26.69359 26.17617
#
# Velocity S-wave (km/s) = 3.62547 3.69786 3.66184
# Velocity P-wave (km/s) = 5.75785 5.83389 5.79599
#
# Compressibility (1/GPa) = 0.03277968
#
# Stress axis : x y z
#
# Youngs Moduli (GPa) = 64.32498 79.20534 66.54763
#
# Poissons Ratio (x) = 0.20728 0.11879
# Poissons Ratio (y) = 0.16833 0.05372
# Poissons Ratio (z) = 0.11483 0.06394
#
# Static dielectric constant tensor:
#      x y z
#    x 3.614680 0.000000 0.000000 
#    y 0.000000 3.765830 0.000000 
#    z 0.000000 0.000000 3.675760 
# 
# 
# High freq. dielectric constant tensor:
#      x y z
#    x 1.746660 0.000000 0.000000 
#    y 0.000000 1.755560 0.000000 
#    z 0.000000 0.000000 1.782400 
# 
# From -- ./inp_files/12225.got.cif
#   From: 2010.03.12/outbox.cif.g09.slc.cpg/sg59_7_cif.got.tgz:12225.got - 2010.04.16 16:29:54.
