data_PCOD8245701
_publ_section_title
;
Structure prediction by ZEFSAII (Michael W. Deem and Ramdas Pophale) SiO2 
 PCOD8245701
Probable space group: P M M N
;
_chemical_formula_sum "Si O2"
_cell_formula_units_Z 32
_cell_length_a 8.548614
_cell_length_b 15.255759
_cell_length_c 11.942663
_cell_angle_alpha 90.000000
_cell_angle_beta 90.000000
_cell_angle_gamma 90.000000
_cell_volume 1557.509501
_symmetry_space_group_name_H-M "P M M N"
_symmetry_group_IT_number 59
_space_group.IT_coordinate_system_code '2'
_symmetry_cell_setting 'orthorhombic'
loop_
_space_group_symop_operation_xyz
x,y,z
1/2-x,1/2-y,z
1/2+x,-y,-z
-x,1/2+y,-z
-x,-y,-z
1/2+x,1/2+y,-z
1/2-x,y,z
x,1/2-y,z
loop_
_atom_site_type_symbol
_atom_site_label
_atom_site_fract_x
_atom_site_fract_y
_atom_site_fract_z
Si Si1 0.567116 0.250000 0.613397
Si Si2 0.575386 0.351374 0.253388
Si Si3 0.931692 0.593138 0.528130
Si Si4 0.433425 0.250000 0.859198
Si Si5 0.934785 0.097236 0.008535
O O1 0.750000 0.250000 0.640641
O O2 0.525832 0.335363 0.542013
O O3 0.472739 0.250000 0.728576
O O4 0.750000 0.392100 0.266845
O O5 0.582096 0.250000 0.281622
O O6 0.455639 0.395440 0.339121
O O7 0.512202 0.365615 0.128458
O O8 0.750000 0.600052 0.498012
O O9 0.000000 0.500000 0.500000
O O10 0.250000 0.250000 0.876284
O O11 0.499765 0.338882 0.913287
O O12 0.750000 0.095966 0.995546
O O13 0.000000 0.000000 0.000000
#
# Coordination Sequence:
#
# PCOD8245701 Si02
#       5
#     4   8   8   4   8
#     4  12  26  47  70  95 132 175 221 275 333 394
#     4  10  21  42  69  94 129 172 217 270 327 386
#     4  12  26  44  68  99 133 173 220 270 329 394
#     4  12  26  45  68  97 134 175 221 273 333 400
#     4  11  24  44  68  98 134 175 222 272 328 390
#
# _framework density 20.545622000000002
#
# number of rings (size 3 to 8) (size 9 to 14) (size 15 to 20)
#    0.000    0.750    2.500    5.250    3.500    2.000 
#    0.000    0.000    0.000    0.000    0.000    0.000 
#    0.000    0.000    0.000    0.000    0.000    0.000 
#
# Total GULP energy -396946.356597 kJ/mol
# GULP energy per Si atom -12404.573644 kJ/mol
# Density = 2.049886 g / cm^3
# Si number density = 20.545622 Si / 1000 Ang^3
#
#
#
# Elastic Constant Matrix: (Units=GPa)
#
#
# Indices 1 2 3 4 5 6 
#
# 1 103.4190 36.3491 26.5285 0.0000 0.0000 0.0000
# 2 36.3491 135.2844 33.5774 0.0000 0.0000 0.0000
# 3 26.5285 33.5774 110.2904 0.0000 0.0000 0.0000
# 4 0.0000 0.0000 0.0000 34.4803 0.0000 0.0000
# 5 0.0000 0.0000 0.0000 0.0000 37.0940 0.0000
# 6 0.0000 0.0000 0.0000 0.0000 0.0000 37.5783
#
#
#
# Elastic Compliance Matrix: (Units=1/GPa)
#
#
# Indices 1 2 3 4 5 6 
#
# 1 0.011032 -0.002494 -0.001894 0.000000 0.000000 0.000000
# 2 -0.002494 0.008560 -0.002006 0.000000 0.000000 0.000000
# 3 -0.001894 -0.002006 0.010133 0.000000 0.000000 0.000000
# 4 0.000000 0.000000 0.000000 0.029002 0.000000 0.000000
# 5 0.000000 0.000000 0.000000 0.000000 0.026959 0.000000
# 6 0.000000 0.000000 0.000000 0.000000 0.000000 0.026611
#
#
# Mechanical properties :
#
#
# Convention : Reuss Voigt Hill
#
# Bulk Modulus (GPa) = 59.04448 60.21155 59.62801
# Shear Modulus (GPa) = 38.24649 38.66643 38.45646
#
# Velocity S-wave (km/s) = 4.31924 4.34288 4.33108
# Velocity P-wave (km/s) = 7.32632 7.38359 7.35501
#
# Compressibility (1/GPa) = 0.01693638
#
# Stress axis : x y z
#
# Youngs Moduli (GPa) = 90.64645 116.82451 98.68396
#
# Poissons Ratio (x) = 0.29136 0.18693
# Poissons Ratio (y) = 0.22607 0.19797
# Poissons Ratio (z) = 0.17171 0.23436
#
# Static dielectric constant tensor:
#      x y z
#    x 3.856900 0.000000 0.000000 
#    y 0.000000 3.558420 0.000000 
#    z 0.000000 0.000000 4.081760 
# 
# 
# High freq. dielectric constant tensor:
#      x y z
#    x 1.811550 0.000000 0.000000 
#    y 0.000000 1.813820 0.000000 
#    z 0.000000 0.000000 1.818740 
# 
# From -- ./inp_files/13633.got.cif
#   From: 2010.03.12/outbox.cif.g09.slc.cpg/sg59_7_cif.got.tgz:13633.got - 2010.04.16 16:29:54.
