data_PCOD8245678
_publ_section_title
;
Structure prediction by ZEFSAII (Michael W. Deem and Ramdas Pophale) SiO2 
 PCOD8245678
Probable space group: P M M N
;
_chemical_formula_sum "Si O2"
_cell_formula_units_Z 64
_cell_length_a 30.763381
_cell_length_b 8.688780
_cell_length_c 11.851175
_cell_angle_alpha 90.000000
_cell_angle_beta 90.000000
_cell_angle_gamma 90.000000
_cell_volume 3167.774630
_symmetry_space_group_name_H-M "P M M N"
_symmetry_group_IT_number 59
_space_group.IT_coordinate_system_code '2'
_symmetry_cell_setting 'orthorhombic'
loop_
_space_group_symop_operation_xyz
x,y,z
1/2-x,1/2-y,z
1/2+x,-y,-z
-x,1/2+y,-z
-x,-y,-z
1/2+x,1/2+y,-z
1/2-x,y,z
x,1/2-y,z
loop_
_atom_site_type_symbol
_atom_site_label
_atom_site_fract_x
_atom_site_fract_y
_atom_site_fract_z
Si Si1 0.299041 0.926204 0.766812
Si Si2 0.127469 0.429845 0.621608
Si Si3 0.298440 0.926534 0.221357
Si Si4 0.577557 0.932682 0.995355
Si Si5 0.323758 0.069346 0.993782
Si Si6 0.623321 0.070047 0.620270
Si Si7 0.454410 0.068234 0.243519
Si Si8 0.044542 0.431739 0.767210
O O1 0.250000 0.943891 0.720615
O O2 0.314714 0.750000 0.755852
O O3 0.330191 0.036674 0.695806
O O4 0.299133 0.976673 0.896919
O O5 0.125858 0.250000 0.592531
O O6 0.130111 0.528324 0.509029
O O7 0.084879 0.482307 0.690240
O O8 0.250000 0.944622 0.273305
O O9 0.307414 0.750000 0.186514
O O10 0.333413 0.982619 0.313351
O O11 0.301227 0.033798 0.112191
O O12 0.577080 0.750000 0.992752
O O13 0.626845 0.990680 0.001904
O O14 0.551960 0.994141 0.105163
O O15 0.556153 0.999498 0.881166
O O16 0.320836 0.250000 0.967838
O O17 0.615157 0.250000 0.632794
O O18 0.581516 0.982880 0.667475
O O19 0.455452 0.250000 0.241408
O O20 0.501082 0.006308 0.283337
O O21 0.039363 0.250000 0.767179
#
# Coordination Sequence:
#
# PCOD8245678 Si02
#       8
#     8   8   8   8   8   8   8   8
#     4  11  24  41  62  91 127 163 201 247 299 360
#     4  11  24  43  66  89 118 158 205 258 305 356
#     4  10  22  40  61  88 122 159 199 245 301 362
#     4   9  18  35  59  88 123 156 190 242 301 355
#     4  11  20  36  62  92 125 160 198 246 301 355
#     4  11  24  42  63  87 119 162 206 252 307 365
#     4  11  22  38  62  92 123 157 200 250 301 359
#     4  10  21  40  62  88 122 158 195 243 306 365
#
# _framework density 20.203458000000001
#
# number of rings (size 3 to 8) (size 9 to 14) (size 15 to 20)
#    0.000    1.500    2.500    2.625    0.000    5.250 
#    0.000    1.875    0.000    0.000    0.000    0.000 
#    0.000    0.000    0.000    0.000    0.000    0.000 
#
# Total GULP energy -793891.489914 kJ/mol
# GULP energy per Si atom -12404.554530 kJ/mol
# Density = 2.015747 g / cm^3
# Si number density = 20.203458 Si / 1000 Ang^3
#
#
#
# Elastic Constant Matrix: (Units=GPa)
#
#
# Indices 1 2 3 4 5 6 
#
# 1 143.2196 30.9134 41.5265 0.0000 0.0000 0.0000
# 2 30.9134 38.3788 14.0918 0.0000 0.0000 0.0000
# 3 41.5265 14.0918 106.8120 0.0000 0.0000 0.0000
# 4 0.0000 0.0000 0.0000 32.6981 0.0000 0.0000
# 5 0.0000 0.0000 0.0000 0.0000 7.1106 0.0000
# 6 0.0000 0.0000 0.0000 0.0000 0.0000 30.0898
#
#
#
# Elastic Compliance Matrix: (Units=1/GPa)
#
#
# Indices 1 2 3 4 5 6 
#
# 1 0.009144 -0.006369 -0.002715 0.000000 0.000000 0.000000
# 2 -0.006369 0.031818 -0.001722 0.000000 0.000000 0.000000
# 3 -0.002715 -0.001722 0.010645 0.000000 0.000000 0.000000
# 4 0.000000 0.000000 0.000000 0.030583 0.000000 0.000000
# 5 0.000000 0.000000 0.000000 0.000000 0.140635 0.000000
# 6 0.000000 0.000000 0.000000 0.000000 0.000000 0.033234
#
#
# Mechanical properties :
#
#
# Convention : Reuss Voigt Hill
#
# Bulk Modulus (GPa) = 33.33712 51.27487 42.30599
# Shear Modulus (GPa) = 17.38114 27.43828 22.40971
#
# Velocity S-wave (km/s) = 2.93628 3.68924 3.33408
# Velocity P-wave (km/s) = 5.29454 6.60164 5.98389
#
# Compressibility (1/GPa) = 0.02999659
#
# Stress axis : x y z
#
# Youngs Moduli (GPa) = 109.36038 31.42874 93.94186
#
# Poissons Ratio (x) = 0.20016 0.25504
# Poissons Ratio (y) = 0.69647 0.16175
# Poissons Ratio (z) = 0.29690 0.05411
#
# Static dielectric constant tensor:
#      x y z
#    x 3.843910 0.000000 0.000000 
#    y 0.000000 3.476460 0.000000 
#    z 0.000000 0.000000 3.644830 
# 
# 
# High freq. dielectric constant tensor:
#      x y z
#    x 1.803680 0.000000 0.000000 
#    y 0.000000 1.779670 0.000000 
#    z 0.000000 0.000000 1.784220 
# 
# From -- ./inp_files/19283.got.cif
#   From: 2010.03.12/outbox.cif.g09.slc.cpg/sg59_10_cif.got.tgz:19283.got - 2010.04.16 16:29:54.
