data_PCOD8245499
_publ_section_title
;
Structure prediction by ZEFSAII (Michael W. Deem and Ramdas Pophale) SiO2 
 PCOD8245499
Probable space group: P M M N
;
_chemical_formula_sum "Si O2"
_cell_formula_units_Z 64
_cell_length_a 8.761522
_cell_length_b 15.097293
_cell_length_c 23.851771
_cell_angle_alpha 90.000000
_cell_angle_beta 90.000000
_cell_angle_gamma 90.000000
_cell_volume 3154.999324
_symmetry_space_group_name_H-M "P M M N"
_symmetry_group_IT_number 59
_space_group.IT_coordinate_system_code '2'
_symmetry_cell_setting 'orthorhombic'
loop_
_space_group_symop_operation_xyz
x,y,z
1/2-x,1/2-y,z
1/2+x,-y,-z
-x,1/2+y,-z
-x,-y,-z
1/2+x,1/2+y,-z
1/2-x,y,z
x,1/2-y,z
loop_
_atom_site_type_symbol
_atom_site_label
_atom_site_fract_x
_atom_site_fract_y
_atom_site_fract_z
Si Si1 0.924063 0.847821 0.208777
Si Si2 0.430694 0.147213 0.491862
Si Si3 0.928875 0.098333 0.117633
Si Si4 0.570158 0.998704 0.292118
Si Si5 0.570844 0.999068 0.419808
Si Si6 0.927659 0.083679 0.895662
Si Si7 0.578073 0.850238 0.995223
Si Si8 0.922656 0.847482 0.774124
O O1 0.750000 0.871476 0.193157
O O2 0.936563 0.750000 0.235355
O O3 0.988136 0.916367 0.254613
O O4 0.019882 0.846582 0.151119
O O5 0.250000 0.151436 0.487613
O O6 0.493157 0.250000 0.494268
O O7 0.482658 0.088766 0.545987
O O8 0.493130 0.091543 0.438858
O O9 0.750000 0.077727 0.117566
O O10 0.974096 0.144040 0.059562
O O11 0.973725 0.158852 0.170026
O O12 0.026666 0.010694 0.128984
O O13 0.750000 0.011561 0.285638
O O14 0.523479 0.980151 0.355966
O O15 0.488319 0.087136 0.272175
O O16 0.750000 0.013181 0.427063
O O17 0.750000 0.094378 0.907038
O O18 0.012195 0.090656 0.955096
O O19 0.750000 0.882577 0.981118
O O20 0.577756 0.750000 0.016912
O O21 0.750000 0.874915 0.790241
O O22 0.925929 0.750000 0.746792
#
# Coordination Sequence:
#
# PCOD8245499 Si02
#       8
#     8   8   8   8   8   8   8   8
#     4  10  21  38  60  86 116 152 195 244 299 357
#     4   9  18  34  57  85 119 159 200 242 293 348
#     4  12  24  40  62  86 114 148 191 242 299 358
#     4  10  21  38  60  86 118 157 199 244 294 350
#     4   9  19  35  56  85 119 156 200 247 292 341
#     4  12  24  39  60  85 115 151 193 240 295 357
#     4  11  24  41  60  84 115 149 189 239 295 358
#     4  11  24  41  61  86 117 155 197 243 297 355
#
# _framework density 20.285267000000001
#
# number of rings (size 3 to 8) (size 9 to 14) (size 15 to 20)
#    0.000    1.500    1.250    4.125    0.000    7.000 
#    0.000    5.000    0.000    0.000    0.000    3.500 
#    0.000    0.000    0.000    0.000    0.000    0.000 
#
# Total GULP energy -793614.616832 kJ/mol
# GULP energy per Si atom -12400.228388 kJ/mol
# Density = 2.023910 g / cm^3
# Si number density = 20.285267 Si / 1000 Ang^3
#
#
#
# Elastic Constant Matrix: (Units=GPa)
#
#
# Indices 1 2 3 4 5 6 
#
# 1 62.9777 26.8570 34.1260 0.0000 0.0000 0.0000
# 2 26.8570 120.1231 38.9365 0.0000 0.0000 0.0000
# 3 34.1260 38.9365 114.0246 0.0000 0.0000 0.0000
# 4 0.0000 0.0000 0.0000 16.0919 0.0000 0.0000
# 5 0.0000 0.0000 0.0000 0.0000 30.3469 0.0000
# 6 0.0000 0.0000 0.0000 0.0000 0.0000 28.7019
#
#
#
# Elastic Compliance Matrix: (Units=1/GPa)
#
#
# Indices 1 2 3 4 5 6 
#
# 1 0.019763 -0.002813 -0.004954 0.000000 0.000000 0.000000
# 2 -0.002813 0.009761 -0.002491 0.000000 0.000000 0.000000
# 3 -0.004954 -0.002491 0.011104 0.000000 0.000000 0.000000
# 4 0.000000 0.000000 0.000000 0.062143 0.000000 0.000000
# 5 0.000000 0.000000 0.000000 0.000000 0.032952 0.000000
# 6 0.000000 0.000000 0.000000 0.000000 0.000000 0.034841
#
#
# Mechanical properties :
#
#
# Convention : Reuss Voigt Hill
#
# Bulk Modulus (GPa) = 49.72456 55.21826 52.47141
# Shear Modulus (GPa) = 25.28013 28.17520 26.72767
#
# Velocity S-wave (km/s) = 3.53403 3.73090 3.63380
# Velocity P-wave (km/s) = 6.42015 6.77049 6.59764
#
# Compressibility (1/GPa) = 0.02011079
#
# Stress axis : x y z
#
# Youngs Moduli (GPa) = 50.60038 102.44639 90.06141
#
# Poissons Ratio (x) = 0.28815 0.44619
# Poissons Ratio (y) = 0.14232 0.22438
# Poissons Ratio (z) = 0.25069 0.25524
#
# Static dielectric constant tensor:
#      x y z
#    x 3.636220 0.000000 0.000000 
#    y 0.000000 3.803030 0.000000 
#    z 0.000000 0.000000 3.609340 
# 
# 
# High freq. dielectric constant tensor:
#      x y z
#    x 1.787640 0.000000 0.000000 
#    y 0.000000 1.802220 0.000000 
#    z 0.000000 0.000000 1.785330 
# 
# From -- ./inp_files/31461.got.cif
#   From: 2010.03.12/outbox.cif.g09.slc.cpg/sg59_16_cif.got.tgz:31461.got - 2010.04.16 16:29:54.
