data_PCOD8245066
_publ_section_title
;
Structure prediction by ZEFSAII (Michael W. Deem and Ramdas Pophale) SiO2 
 PCOD8245066
Probable space group: P M M N
;
_chemical_formula_sum "Si O2"
_cell_formula_units_Z 48
_cell_length_a 9.043954
_cell_length_b 15.443819
_cell_length_c 17.773489
_cell_angle_alpha 90.000000
_cell_angle_beta 90.000000
_cell_angle_gamma 90.000000
_cell_volume 2482.479882
_symmetry_space_group_name_H-M "P M M N"
_symmetry_group_IT_number 59
_space_group.IT_coordinate_system_code '2'
_symmetry_cell_setting 'orthorhombic'
loop_
_space_group_symop_operation_xyz
x,y,z
1/2-x,1/2-y,z
1/2+x,-y,-z
-x,1/2+y,-z
-x,-y,-z
1/2+x,1/2+y,-z
1/2-x,y,z
x,1/2-y,z
loop_
_atom_site_type_symbol
_atom_site_label
_atom_site_fract_x
_atom_site_fract_y
_atom_site_fract_z
Si Si1 0.077994 0.250000 0.204059
Si Si2 0.076802 0.578049 0.542266
Si Si3 0.920629 0.583694 0.699488
Si Si4 0.421468 0.907835 0.212438
Si Si5 0.924747 0.250000 0.045107
Si Si6 0.575675 0.420409 0.959906
Si Si7 0.925207 0.750000 0.293001
Si Si8 0.921997 0.250000 0.547998
O O1 0.250000 0.250000 0.183654
O O2 0.033143 0.165590 0.250842
O O3 0.988228 0.250000 0.127918
O O4 0.250000 0.560722 0.541861
O O5 0.035838 0.666646 0.500700
O O6 0.000000 0.500000 0.500000
O O7 0.022744 0.583249 0.627118
O O8 0.750000 0.589412 0.674312
O O9 0.951729 0.498304 0.747254
O O10 0.250000 0.880574 0.217658
O O11 0.473340 0.916921 0.126671
O O12 0.518365 0.835109 0.251502
O O13 0.750000 0.250000 0.050858
O O14 0.981191 0.166484 0.999930
O O15 0.750000 0.432112 0.966915
O O16 0.500000 0.500000 0.000000
O O17 0.750000 0.750000 0.292688
O O18 0.980467 0.750000 0.378002
O O19 0.750000 0.250000 0.571112
#
# Coordination Sequence:
#
# PCOD8245066 Si02
#       8
#     4   8   8   8   4   8   4   4
#     4  10  21  38  60  86 116 150 189 232 278 334
#     4  11  23  39  60  85 114 149 188 231 280 335
#     4  10  21  37  59  86 114 148 189 231 278 334
#     4  10  21  39  60  81 114 158 192 223 280 351
#     4  10  21  36  56  84 116 150 189 234 284 336
#     4  10  21  38  60  85 114 151 193 235 281 335
#     4  12  25  38  58  88 114 142 189 246 288 320
#     4  10  23  42  60  80 112 154 189 220 278 352
#
# _framework density 19.335504
#
# number of rings (size 3 to 8) (size 9 to 14) (size 15 to 20)
#    0.000    1.667    0.000    4.250    0.000   10.667 
#    0.000    0.833    0.000    0.000    0.000    0.000 
#    0.000    0.000    0.000    0.000    0.000    0.000 
#
# Total GULP energy -595472.517974 kJ/mol
# GULP energy per Si atom -12405.677458 kJ/mol
# Density = 1.929150 g / cm^3
# Si number density = 19.335504 Si / 1000 Ang^3
#
#
#
# Elastic Constant Matrix: (Units=GPa)
#
#
# Indices 1 2 3 4 5 6 
#
# 1 66.4662 70.0037 64.3391 0.0000 0.0000 0.0000
# 2 70.0037 188.0603 97.5057 0.0000 0.0000 0.0000
# 3 64.3391 97.5057 170.7483 0.0000 0.0000 0.0000
# 4 0.0000 0.0000 0.0000 35.2151 0.0000 0.0000
# 5 0.0000 0.0000 0.0000 0.0000 37.9380 0.0000
# 6 0.0000 0.0000 0.0000 0.0000 0.0000 43.2812
#
#
#
# Elastic Compliance Matrix: (Units=1/GPa)
#
#
# Indices 1 2 3 4 5 6 
#
# 1 0.029529 -0.007420 -0.006890 0.000000 0.000000 0.000000
# 2 -0.007420 0.009418 -0.002583 0.000000 0.000000 0.000000
# 3 -0.006890 -0.002583 0.009927 0.000000 0.000000 0.000000
# 4 0.000000 0.000000 0.000000 0.028397 0.000000 0.000000
# 5 0.000000 0.000000 0.000000 0.000000 0.026359 0.000000
# 6 0.000000 0.000000 0.000000 0.000000 0.000000 0.023105
#
#
# Mechanical properties :
#
#
# Convention : Reuss Voigt Hill
#
# Bulk Modulus (GPa) = 66.26515 98.77466 82.51991
# Shear Modulus (GPa) = 30.20238 36.18192 33.19215
#
# Velocity S-wave (km/s) = 3.95652 4.33051 4.14773
# Velocity P-wave (km/s) = 7.43086 8.72926 8.10610
#
# Compressibility (1/GPa) = 0.01509089
#
# Stress axis : x y z
#
# Youngs Moduli (GPa) = 33.86481 106.17528 100.73089
#
# Poissons Ratio (x) = 0.78780 0.69401
# Poissons Ratio (y) = 0.25127 0.26014
# Poissons Ratio (z) = 0.23332 0.27420
#
# Static dielectric constant tensor:
#      x y z
#    x 3.438820 0.000000 0.000000 
#    y 0.000000 3.716340 0.000000 
#    z 0.000000 0.000000 4.327870 
# 
# 
# High freq. dielectric constant tensor:
#      x y z
#    x 1.744670 0.000000 0.000000 
#    y 0.000000 1.775690 0.000000 
#    z 0.000000 0.000000 1.770910 
# 
# From -- ./inp_files/25672.got.cif
#   From: 2010.03.12/outbox.cif.g09.slc.cpg/sg59_13_cif.got.tgz:25672.got - 2010.04.16 16:29:54.
