data_PCOD8245369
_publ_section_title
;
Structure prediction by ZEFSAII (Michael W. Deem and Ramdas Pophale) SiO2 
 PCOD8245369
Probable space group: P M M N
;
_chemical_formula_sum "Si O2"
_cell_formula_units_Z 64
_cell_length_a 28.442520
_cell_length_b 9.073182
_cell_length_c 12.472760
_cell_angle_alpha 90.000000
_cell_angle_beta 90.000000
_cell_angle_gamma 90.000000
_cell_volume 3218.772339
_symmetry_space_group_name_H-M "P M M N"
_symmetry_group_IT_number 59
_space_group.IT_coordinate_system_code '2'
_symmetry_cell_setting 'orthorhombic'
loop_
_space_group_symop_operation_xyz
x,y,z
1/2-x,1/2-y,z
1/2+x,-y,-z
-x,1/2+y,-z
-x,-y,-z
1/2+x,1/2+y,-z
1/2-x,y,z
x,1/2-y,z
loop_
_atom_site_type_symbol
_atom_site_label
_atom_site_fract_x
_atom_site_fract_y
_atom_site_fract_z
Si Si1 0.452051 0.582127 0.485710
Si Si2 0.979554 0.074749 0.105686
Si Si3 0.842088 0.421321 0.785734
Si Si4 0.618286 0.578716 0.152242
Si Si5 0.372248 0.081732 0.603819
Si Si6 0.696731 0.578185 0.581169
Si Si7 0.802983 0.920190 0.985230
Si Si8 0.053837 0.583111 0.240281
O O1 0.500000 0.500000 0.500000
O O2 0.460401 0.750000 0.516301
O O3 0.414712 0.520197 0.568487
O O4 0.434474 0.561417 0.364834
O O5 0.979016 0.250000 0.092191
O O6 0.927223 0.019215 0.128564
O O7 0.013790 0.030133 0.203363
O O8 0.000000 0.000000 0.000000
O O9 0.830738 0.250000 0.775447
O O10 0.831847 0.493429 0.671605
O O11 0.896663 0.447922 0.819074
O O12 0.809333 0.489481 0.876462
O O13 0.605216 0.750000 0.134442
O O14 0.637794 0.550983 0.271591
O O15 0.660334 0.526445 0.074953
O O16 0.387956 0.250000 0.585168
O O17 0.325830 0.045002 0.535107
O O18 0.750000 0.520519 0.576947
O O19 0.694601 0.750000 0.609115
O O20 0.750000 0.946730 0.027917
O O21 0.811395 0.750000 0.957243
O O22 0.036232 0.750000 0.217076
#
# Coordination Sequence:
#
# PCOD8245369 Si02
#       8
#     8   8   8   8   8   8   8   8
#     4  11  22  37  57  84 118 156 198 243 294 350
#     4  12  25  40  61  89 120 158 202 249 302 362
#     4  11  22  38  60  88 120 156 199 251 307 361
#     4  10  22  41  63  88 121 160 201 249 301 358
#     4  10  21  38  60  87 120 157 200 247 297 356
#     4  10  21  37  59  88 122 160 202 249 302 361
#     4  10  22  40  62  88 117 153 198 249 306 365
#     4  10  22  39  58  83 119 158 199 247 297 355
#
# _framework density 19.883358000000001
#
# number of rings (size 3 to 8) (size 9 to 14) (size 15 to 20)
#    0.000    1.500    1.250    3.750    0.000   10.500 
#    0.000    2.500    0.000    0.000    0.000    3.500 
#    0.000    0.000    0.000    0.000    0.000    0.000 
#
# Total GULP energy -793844.212777 kJ/mol
# GULP energy per Si atom -12403.815825 kJ/mol
# Density = 1.983810 g / cm^3
# Si number density = 19.883358 Si / 1000 Ang^3
#
#
#
# Elastic Constant Matrix: (Units=GPa)
#
#
# Indices 1 2 3 4 5 6 
#
# 1 128.9346 57.1058 47.5752 0.0000 0.0000 0.0000
# 2 57.1058 101.0448 50.3093 0.0000 0.0000 0.0000
# 3 47.5752 50.3093 110.5009 0.0000 0.0000 0.0000
# 4 0.0000 0.0000 0.0000 25.0905 0.0000 0.0000
# 5 0.0000 0.0000 0.0000 0.0000 34.8660 0.0000
# 6 0.0000 0.0000 0.0000 0.0000 0.0000 29.4863
#
#
#
# Elastic Compliance Matrix: (Units=1/GPa)
#
#
# Indices 1 2 3 4 5 6 
#
# 1 0.010826 -0.004911 -0.002425 0.000000 0.000000 0.000000
# 2 -0.004911 0.015025 -0.004726 0.000000 0.000000 0.000000
# 3 -0.002425 -0.004726 0.012246 0.000000 0.000000 0.000000
# 4 0.000000 0.000000 0.000000 0.039856 0.000000 0.000000
# 5 0.000000 0.000000 0.000000 0.000000 0.028681 0.000000
# 6 0.000000 0.000000 0.000000 0.000000 0.000000 0.033914
#
#
# Mechanical properties :
#
#
# Convention : Reuss Voigt Hill
#
# Bulk Modulus (GPa) = 71.57200 72.27344 71.92272
# Shear Modulus (GPa) = 29.52823 30.25457 29.89140
#
# Velocity S-wave (km/s) = 3.85784 3.90500 3.88150
# Velocity P-wave (km/s) = 7.47784 7.53390 7.50592
#
# Compressibility (1/GPa) = 0.01397194
#
# Stress axis : x y z
#
# Youngs Moduli (GPa) = 92.37287 66.55501 81.66128
#
# Poissons Ratio (x) = 0.32683 0.19804
# Poissons Ratio (y) = 0.45362 0.38597
# Poissons Ratio (z) = 0.22402 0.31457
#
# Static dielectric constant tensor:
#      x y z
#    x 4.137530 0.000000 0.000000 
#    y 0.000000 3.635880 0.000000 
#    z 0.000000 0.000000 4.485070 
# 
# 
# High freq. dielectric constant tensor:
#      x y z
#    x 1.783990 0.000000 0.000000 
#    y 0.000000 1.772040 0.000000 
#    z 0.000000 0.000000 1.781230 
# 
# From -- ./inp_files/19395.got.cif
#   From: 2010.03.12/outbox.cif.g09.slc.cpg/sg59_10_cif.got.tgz:19395.got - 2010.04.16 16:29:54.
