data_PCOD8245782
_publ_section_title
;
Structure prediction by ZEFSAII (Michael W. Deem and Ramdas Pophale) SiO2 
 PCOD8245782
Probable space group: P M M N
;
_chemical_formula_sum "Si O2"
_cell_formula_units_Z 48
_cell_length_a 13.126120
_cell_length_b 27.348883
_cell_length_c 5.582827
_cell_angle_alpha 90.000000
_cell_angle_beta 90.000000
_cell_angle_gamma 90.000000
_cell_volume 2004.149588
_symmetry_space_group_name_H-M "P M M N"
_symmetry_group_IT_number 59
_space_group.IT_coordinate_system_code '2'
_symmetry_cell_setting 'orthorhombic'
loop_
_space_group_symop_operation_xyz
x,y,z
1/2-x,1/2-y,z
1/2+x,-y,-z
-x,1/2+y,-z
-x,-y,-z
1/2+x,1/2+y,-z
1/2-x,y,z
x,1/2-y,z
loop_
_atom_site_type_symbol
_atom_site_label
_atom_site_fract_x
_atom_site_fract_y
_atom_site_fract_z
Si Si1 0.866915 0.510529 0.634672
Si Si2 0.976165 0.125601 0.951948
Si Si3 0.054462 0.195011 0.314874
Si Si4 0.363337 0.803719 0.372168
Si Si5 0.127777 0.965046 0.864848
Si Si6 0.863059 0.891277 0.413892
O O1 0.750000 0.493721 0.627512
O O2 0.912193 0.492101 0.889814
O O3 0.877534 0.569588 0.629739
O O4 0.915843 0.488687 0.384169
O O5 0.886871 0.153202 0.811418
O O6 0.919670 0.089398 0.135307
O O7 0.051489 0.095369 0.779919
O O8 0.050280 0.166630 0.065243
O O9 0.098135 0.250000 0.286280
O O10 0.126210 0.164390 0.493921
O O11 0.938475 0.194712 0.403620
O O12 0.250000 0.812047 0.473100
O O13 0.372978 0.750000 0.247203
O O14 0.250000 0.964151 0.861315
O O15 0.750000 0.897835 0.301730
#
# Coordination Sequence:
#
# PCOD8245782 Si02
#       6
#     8   8   8   8   8   8
#     4   9  21  41  64  94 135 177 218 269 324 392
#     4  11  23  37  62  94 126 168 211 269 323 397
#     4  10  23  42  62  92 126 162 212 273 331 389
#     4   9  19  37  60  87 124 165 204 252 316 392
#     4  10  22  39  64  99 140 176 214 263 324 400
#     4  10  24  44  65  87 120 168 220 275 334 387
#
# _framework density 23.950309000000001
#
# number of rings (size 3 to 8) (size 9 to 14) (size 15 to 20)
#    0.000    2.167    0.000    1.000    7.000    4.333 
#    0.000    1.667    0.000    0.000    0.000    0.000 
#    0.000    0.000    0.000    0.000    0.000    0.000 
#
# Total GULP energy -595003.222211 kJ/mol
# GULP energy per Si atom -12395.900463 kJ/mol
# Density = 2.389580 g / cm^3
# Si number density = 23.950309 Si / 1000 Ang^3
#
#
#
# Elastic Constant Matrix: (Units=GPa)
#
#
# Indices 1 2 3 4 5 6 
#
# 1 70.6849 24.7470 27.2077 0.0000 0.0000 0.0000
# 2 24.7470 136.4254 40.6352 0.0000 0.0000 0.0000
# 3 27.2077 40.6352 115.7061 0.0000 0.0000 0.0000
# 4 0.0000 0.0000 0.0000 40.0120 0.0000 0.0000
# 5 0.0000 0.0000 0.0000 0.0000 23.8218 0.0000
# 6 0.0000 0.0000 0.0000 0.0000 0.0000 23.0657
#
#
#
# Elastic Compliance Matrix: (Units=1/GPa)
#
#
# Indices 1 2 3 4 5 6 
#
# 1 0.016026 -0.001993 -0.003069 0.000000 0.000000 0.000000
# 2 -0.001993 0.008434 -0.002493 0.000000 0.000000 0.000000
# 3 -0.003069 -0.002493 0.010240 0.000000 0.000000 0.000000
# 4 0.000000 0.000000 0.000000 0.024992 0.000000 0.000000
# 5 0.000000 0.000000 0.000000 0.000000 0.041978 0.000000
# 6 0.000000 0.000000 0.000000 0.000000 0.000000 0.043354
#
#
# Mechanical properties :
#
#
# Convention : Reuss Voigt Hill
#
# Bulk Modulus (GPa) = 51.04589 56.44403 53.74496
# Shear Modulus (GPa) = 30.00020 32.72833 31.36426
#
# Velocity S-wave (km/s) = 3.54305 3.70064 3.62270
# Velocity P-wave (km/s) = 6.17229 6.47132 6.32357
#
# Compressibility (1/GPa) = 0.01959022
#
# Stress axis : x y z
#
# Youngs Moduli (GPa) = 62.39782 118.56457 97.65827
#
# Poissons Ratio (x) = 0.23631 0.29967
# Poissons Ratio (y) = 0.12437 0.24350
# Poissons Ratio (z) = 0.19147 0.29563
#
# Static dielectric constant tensor:
#      x y z
#    x 4.190520 0.000000 0.000000 
#    y 0.000000 4.435320 0.000000 
#    z 0.000000 0.000000 4.184430 
# 
# 
# High freq. dielectric constant tensor:
#      x y z
#    x 1.953800 0.000000 0.000000 
#    y 0.000000 1.957760 0.000000 
#    z 0.000000 0.000000 1.934520 
# 
# From -- ./inp_files/2151.got.cif
#   From: 2010.03.12/outbox.cif.g09.slc.cpg/sg59_2_cif.got.tgz:2151.got - 2010.04.16 16:29:54.
