data_PCOD8245940
_publ_section_title
;
Structure prediction by ZEFSAII (Michael W. Deem and Ramdas Pophale) SiO2 
 PCOD8245940
Probable space group: P M M N
;
_chemical_formula_sum "Si O2"
_cell_formula_units_Z 64
_cell_length_a 14.487320
_cell_length_b 16.788746
_cell_length_c 16.214858
_cell_angle_alpha 90.000000
_cell_angle_beta 90.000000
_cell_angle_gamma 90.000000
_cell_volume 3943.841580
_symmetry_space_group_name_H-M "P M M N"
_symmetry_group_IT_number 59
_space_group.IT_coordinate_system_code '2'
_symmetry_cell_setting 'orthorhombic'
loop_
_space_group_symop_operation_xyz
x,y,z
1/2-x,1/2-y,z
1/2+x,-y,-z
-x,1/2+y,-z
-x,-y,-z
1/2+x,1/2+y,-z
1/2-x,y,z
x,1/2-y,z
loop_
_atom_site_type_symbol
_atom_site_label
_atom_site_fract_x
_atom_site_fract_y
_atom_site_fract_z
Si Si1 0.998774 0.955152 0.586654
Si Si2 0.357303 0.936775 0.820935
Si Si3 0.489607 0.438181 0.744357
Si Si4 0.355909 0.658835 0.657114
Si Si5 0.356569 0.159549 0.469510
Si Si6 0.650298 0.656976 0.347052
Si Si7 0.358733 0.837059 0.974370
Si Si8 0.642370 0.343120 0.839223
O O1 0.090491 0.901315 0.596470
O O2 0.912391 0.895469 0.593083
O O3 0.984275 0.015167 0.661784
O O4 0.000000 0.000000 0.500000
O O5 0.250000 0.965762 0.825358
O O6 0.367912 0.869230 0.751382
O O7 0.393188 0.900430 0.907299
O O8 0.428001 0.008813 0.805678
O O9 0.425639 0.364083 0.719824
O O10 0.581980 0.402732 0.783966
O O11 0.250000 0.653923 0.629422
O O12 0.391788 0.750000 0.649818
O O13 0.250000 0.153965 0.445930
O O14 0.392019 0.250000 0.461528
O O15 0.375401 0.125433 0.561752
O O16 0.750000 0.619931 0.321334
O O17 0.660997 0.750000 0.353957
O O18 0.250000 0.828401 0.966375
O O19 0.403127 0.750000 0.956904
O O20 0.384275 0.864350 0.066702
O O21 0.750000 0.360793 0.821557
O O22 0.621257 0.250000 0.820554
#
# Coordination Sequence:
#
# PCOD8245940 Si02
#       8
#     8   8   8   8   8   8   8   8
#     4  11  21  32  45  67  94 123 153 190 238 285
#     4   9  17  28  47  76 102 122 146 184 237 290
#     4  11  20  30  47  69  99 124 148 191 242 282
#     4   9  18  32  49  69  95 124 153 190 236 284
#     4   9  18  33  51  65  80 112 159 200 226 263
#     4   9  17  30  48  66  85 115 154 191 227 271
#     4   8  14  28  50  71  94 126 160 190 221 268
#     4   9  19  35  51  67  91 126 165 197 224 267
#
# _framework density 16.227833
#
# number of rings (size 3 to 8) (size 9 to 14) (size 15 to 20)
#    0.000    2.625    1.250    3.000    0.000    3.500 
#    0.000    0.000    0.000    1.500    0.000    0.000 
#    0.000    1.000    0.000    0.500    0.000    0.000 
#
# Total GULP energy -793208.610163 kJ/mol
# GULP energy per Si atom -12393.884534 kJ/mol
# Density = 1.619090 g / cm^3
# Si number density = 16.227833 Si / 1000 Ang^3
#
#
#
# Elastic Constant Matrix: (Units=GPa)
#
#
# Indices 1 2 3 4 5 6 
#
# 1 81.6365 51.5412 51.1086 0.0000 0.0000 0.0000
# 2 51.5412 80.6997 53.6470 0.0000 0.0000 0.0000
# 3 51.1086 53.6470 90.8145 0.0000 0.0000 0.0000
# 4 0.0000 0.0000 0.0000 19.8423 0.0000 0.0000
# 5 0.0000 0.0000 0.0000 0.0000 22.2401 0.0000
# 6 0.0000 0.0000 0.0000 0.0000 0.0000 30.2053
#
#
#
# Elastic Compliance Matrix: (Units=1/GPa)
#
#
# Indices 1 2 3 4 5 6 
#
# 1 0.022950 -0.009998 -0.007010 0.000000 0.000000 0.000000
# 2 -0.009998 0.024760 -0.009000 0.000000 0.000000 0.000000
# 3 -0.007010 -0.009000 0.020273 0.000000 0.000000 0.000000
# 4 0.000000 0.000000 0.000000 0.050397 0.000000 0.000000
# 5 0.000000 0.000000 0.000000 0.000000 0.044964 0.000000
# 6 0.000000 0.000000 0.000000 0.000000 0.000000 0.033107
#
#
# Mechanical properties :
#
#
# Convention : Reuss Voigt Hill
#
# Bulk Modulus (GPa) = 62.62563 62.86047 62.74305
# Shear Modulus (GPa) = 19.70145 20.91447 20.30796
#
# Velocity S-wave (km/s) = 3.48811 3.59388 3.54139
# Velocity P-wave (km/s) = 7.40930 7.48610 7.44780
#
# Compressibility (1/GPa) = 0.01596790
#
# Stress axis : x y z
#
# Youngs Moduli (GPa) = 43.57296 40.38793 49.32674
#
# Poissons Ratio (x) = 0.40379 0.34577
# Poissons Ratio (y) = 0.43563 0.44394
# Poissons Ratio (z) = 0.30544 0.36349
#
# Static dielectric constant tensor:
#      x y z
#    x 2.960970 0.000000 0.000000 
#    y 0.000000 3.158920 0.000000 
#    z 0.000000 0.000000 3.085900 
# 
# 
# High freq. dielectric constant tensor:
#      x y z
#    x 1.610540 0.000000 0.000000 
#    y 0.000000 1.628480 0.000000 
#    z 0.000000 0.000000 1.611520 
# 
# From -- ./inp_files/23493.got.cif
#   From: 2010.03.12/outbox.cif.g09.slc.cpg/sg59_12_cif.got.tgz:23493.got - 2010.04.16 16:29:54.
