data_PCOD8245187
_publ_section_title
;
Structure prediction by ZEFSAII (Michael W. Deem and Ramdas Pophale) SiO2 
 PCOD8245187
Probable space group: P M M N
;
_chemical_formula_sum "Si O2"
_cell_formula_units_Z 48
_cell_length_a 8.837838
_cell_length_b 9.227616
_cell_length_c 30.978439
_cell_angle_alpha 90.000000
_cell_angle_beta 90.000000
_cell_angle_gamma 90.000000
_cell_volume 2526.359089
_symmetry_space_group_name_H-M "P M M N"
_symmetry_group_IT_number 59
_space_group.IT_coordinate_system_code '2'
_symmetry_cell_setting 'orthorhombic'
loop_
_space_group_symop_operation_xyz
x,y,z
1/2-x,1/2-y,z
1/2+x,-y,-z
-x,1/2+y,-z
-x,-y,-z
1/2+x,1/2+y,-z
1/2-x,y,z
x,1/2-y,z
loop_
_atom_site_type_symbol
_atom_site_label
_atom_site_fract_x
_atom_site_fract_y
_atom_site_fract_z
Si Si1 0.430454 0.911887 0.366922
Si Si2 0.922933 0.419701 0.538844
Si Si3 0.428963 0.582948 0.960058
Si Si4 0.927483 0.419077 0.880861
Si Si5 0.426460 0.581428 0.803622
Si Si6 0.078150 0.080978 0.284859
O O1 0.250000 0.914626 0.368186
O O2 0.489269 0.750000 0.358180
O O3 0.489802 0.965894 0.413976
O O4 0.491986 0.010116 0.327957
O O5 0.750000 0.465190 0.537116
O O6 0.945678 0.250000 0.532488
O O7 0.000000 0.500000 0.500000
O O8 0.250000 0.572935 0.963628
O O9 0.482657 0.750000 0.960303
O O10 0.481147 0.507546 0.916395
O O11 0.500000 0.500000 0.000000
O O12 0.750000 0.442717 0.888139
O O13 0.970166 0.250000 0.883808
O O14 0.975155 0.480964 0.834697
O O15 0.250000 0.549627 0.810535
O O16 0.464061 0.750000 0.812761
O O17 0.473196 0.537585 0.755290
O O18 0.250000 0.027475 0.275910
O O19 0.075302 0.250000 0.293128
#
# Coordination Sequence:
#
# PCOD8245187 Si02
#       6
#     8   8   8   8   8   8
#     4   8  15  29  48  69  95 127 164 208 256 306
#     4   9  18  32  49  71  99 131 168 210 257 309
#     4  11  24  41  62  89 119 151 188 228 271 320
#     4  11  24  40  59  85 114 145 185 229 271 318
#     4  10  21  37  56  79 109 144 179 216 263 318
#     4   9  17  30  50  75 100 129 169 214 258 307
#
# _framework density 18.999675
#
# number of rings (size 3 to 8) (size 9 to 14) (size 15 to 20)
#    0.000    2.333    0.000    3.500    0.000    9.333 
#    0.000    4.167    0.000    3.000    0.000    0.000 
#    0.000    0.000    0.000    0.000    0.000    0.000 
#
# Total GULP energy -595129.181833 kJ/mol
# GULP energy per Si atom -12398.524622 kJ/mol
# Density = 1.895643 g / cm^3
# Si number density = 18.999675 Si / 1000 Ang^3
#
#
#
# Elastic Constant Matrix: (Units=GPa)
#
#
# Indices 1 2 3 4 5 6 
#
# 1 48.6472 41.0044 32.1980 0.0000 0.0000 0.0000
# 2 41.0044 91.2214 69.6727 0.0000 0.0000 0.0000
# 3 32.1980 69.6727 147.8850 0.0000 0.0000 0.0000
# 4 0.0000 0.0000 0.0000 43.8991 0.0000 0.0000
# 5 0.0000 0.0000 0.0000 0.0000 33.9471 0.0000
# 6 0.0000 0.0000 0.0000 0.0000 0.0000 25.9770
#
#
#
# Elastic Compliance Matrix: (Units=1/GPa)
#
#
# Indices 1 2 3 4 5 6 
#
# 1 0.033104 -0.014646 -0.000308 0.000000 0.000000 0.000000
# 2 -0.014646 0.023604 -0.007932 0.000000 0.000000 0.000000
# 3 -0.000308 -0.007932 0.010566 0.000000 0.000000 0.000000
# 4 0.000000 0.000000 0.000000 0.022780 0.000000 0.000000
# 5 0.000000 0.000000 0.000000 0.000000 0.029458 0.000000
# 6 0.000000 0.000000 0.000000 0.000000 0.000000 0.038496
#
#
# Mechanical properties :
#
#
# Convention : Reuss Voigt Hill
#
# Bulk Modulus (GPa) = 46.50279 63.72264 55.11271
# Shear Modulus (GPa) = 23.70295 30.42320 27.06307
#
# Velocity S-wave (km/s) = 3.53589 4.00590 3.77821
# Velocity P-wave (km/s) = 6.41862 7.41673 6.93566
#
# Compressibility (1/GPa) = 0.02150409
#
# Stress axis : x y z
#
# Youngs Moduli (GPa) = 30.20742 42.36650 94.64498
#
# Poissons Ratio (x) = 0.62048 0.02912
# Poissons Ratio (y) = 0.44241 0.75069
# Poissons Ratio (z) = 0.00929 0.33603
#
# Static dielectric constant tensor:
#      x y z
#    x 3.303210 0.000000 0.000000 
#    y 0.000000 3.534200 0.000000 
#    z 0.000000 0.000000 3.847210 
# 
# 
# High freq. dielectric constant tensor:
#      x y z
#    x 1.720190 0.000000 0.000000 
#    y 0.000000 1.736600 0.000000 
#    z 0.000000 0.000000 1.758660 
# 
# From -- ./inp_files/32824.got.cif
#   From: 2010.03.12/outbox.cif.g09.slc.cpg/sg59_17_cif.got.tgz:32824.got - 2010.04.16 16:29:54.
