data_PCOD8245262
_publ_section_title
;
Structure prediction by ZEFSAII (Michael W. Deem and Ramdas Pophale) SiO2 
 PCOD8245262
Probable space group: P M M N
;
_chemical_formula_sum "Si O2"
_cell_formula_units_Z 64
_cell_length_a 8.993047
_cell_length_b 14.520212
_cell_length_c 25.925754
_cell_angle_alpha 90.000000
_cell_angle_beta 90.000000
_cell_angle_gamma 90.000000
_cell_volume 3385.409560
_symmetry_space_group_name_H-M "P M M N"
_symmetry_group_IT_number 59
_space_group.IT_coordinate_system_code '2'
_symmetry_cell_setting 'orthorhombic'
loop_
_space_group_symop_operation_xyz
x,y,z
1/2-x,1/2-y,z
1/2+x,-y,-z
-x,1/2+y,-z
-x,-y,-z
1/2+x,1/2+y,-z
1/2-x,y,z
x,1/2-y,z
loop_
_atom_site_type_symbol
_atom_site_label
_atom_site_fract_x
_atom_site_fract_y
_atom_site_fract_z
Si Si1 0.081901 0.857268 0.124923
Si Si2 0.422073 0.142533 0.240650
Si Si3 0.925452 0.498025 0.311809
Si Si4 0.578343 0.643097 0.497196
Si Si5 0.423603 0.496436 0.945276
Si Si6 0.077631 0.989333 0.420638
Si Si7 0.420798 0.643400 0.242615
Si Si8 0.077247 0.644756 0.863209
O O1 0.250000 0.891740 0.115242
O O2 0.070390 0.750000 0.113146
O O3 0.034642 0.877881 0.183677
O O4 0.970812 0.906624 0.086145
O O5 0.250000 0.116190 0.242583
O O6 0.451048 0.250000 0.247910
O O7 0.485396 0.108449 0.185851
O O8 0.505114 0.093263 0.287202
O O9 0.750000 0.488780 0.311771
O O10 0.981414 0.507129 0.369587
O O11 0.971619 0.587503 0.279656
O O12 0.750000 0.634894 0.479979
O O13 0.533773 0.750000 0.506237
O O14 0.475679 0.599102 0.453153
O O15 0.551627 0.585614 0.549542
O O16 0.250000 0.492678 0.954953
O O17 0.470365 0.586662 0.912998
O O18 0.500000 0.500000 0.000000
O O19 0.250000 0.975156 0.406944
O O20 0.250000 0.614518 0.252270
O O21 0.443647 0.750000 0.255451
O O22 0.250000 0.631724 0.849859
O O23 0.037549 0.750000 0.875938
#
# Coordination Sequence:
#
# PCOD8245262 Si02
#       8
#     8   8   8   8   8   8   8   8
#     4   9  19  37  59  80 105 139 177 221 274 328
#     4  10  21  37  58  83 110 143 183 225 272 328
#     4  12  24  36  54  82 118 154 185 226 275 320
#     4   9  19  38  62  84 108 141 182 229 279 328
#     4  11  23  36  53  79 108 141 180 222 270 323
#     4  10  21  37  57  83 113 146 186 228 272 324
#     4   9  19  37  60  84 110 144 185 225 270 327
#     4   9  19  37  58  79 106 140 178 221 271 327
#
# _framework density 18.904655000000002
#
# number of rings (size 3 to 8) (size 9 to 14) (size 15 to 20)
#    0.000    2.125    0.000    3.750    0.000    7.000 
#    0.000    3.750    0.000    0.000    0.000    0.000 
#    0.000    0.000    0.000    0.000    0.000    0.000 
#
# Total GULP energy -793804.677527 kJ/mol
# GULP energy per Si atom -12403.198086 kJ/mol
# Density = 1.886163 g / cm^3
# Si number density = 18.904655 Si / 1000 Ang^3
#
#
#
# Elastic Constant Matrix: (Units=GPa)
#
#
# Indices 1 2 3 4 5 6 
#
# 1 85.1980 38.3417 47.7539 0.0000 0.0000 0.0000
# 2 38.3417 99.8272 47.1703 0.0000 0.0000 0.0000
# 3 47.7539 47.1703 110.2613 0.0000 0.0000 0.0000
# 4 0.0000 0.0000 0.0000 1529.4833 0.0000 0.0000
# 5 0.0000 0.0000 0.0000 0.0000 32.5480 0.0000
# 6 0.0000 0.0000 0.0000 0.0000 0.0000 31.3793
#
#
#
# Elastic Compliance Matrix: (Units=1/GPa)
#
#
# Indices 1 2 3 4 5 6 
#
# 1 0.016532 -0.003718 -0.005570 0.000000 0.000000 0.000000
# 2 -0.003718 0.013391 -0.004119 0.000000 0.000000 0.000000
# 3 -0.005570 -0.004119 0.013243 0.000000 0.000000 0.000000
# 4 0.000000 0.000000 0.000000 0.000654 0.000000 0.000000
# 5 0.000000 0.000000 0.000000 0.000000 0.030724 0.000000
# 6 0.000000 0.000000 0.000000 0.000000 0.000000 0.031868
#
#
# Mechanical properties :
#
#
# Convention : Reuss Voigt Hill
#
# Bulk Modulus (GPa) = 61.14389 62.42426 61.78408
# Shear Modulus (GPa) = 36.05497 329.48352 182.76925
#
# Velocity S-wave (km/s) = 4.37189 13.21610 9.84324
# Velocity P-wave (km/s) = 7.60908 16.30887 12.72551
#
# Compressibility (1/GPa) = 0.01635486
#
# Stress axis : x y z
#
# Youngs Moduli (GPa) = 60.48753 74.67432 75.50876
#
# Poissons Ratio (x) = 0.27764 0.42055
# Poissons Ratio (y) = 0.22489 0.31100
# Poissons Ratio (z) = 0.33689 0.30756
#
# Static dielectric constant tensor:
#      x y z
#    x 3.571240 0.000000 0.000000 
#    y 0.000000 3.542210 0.000000 
#    z 0.000000 0.000000 3.432590 
# 
# 
# High freq. dielectric constant tensor:
#      x y z
#    x 1.737900 0.000000 0.000000 
#    y 0.000000 1.743540 0.000000 
#    z 0.000000 0.000000 1.733360 
# 
# From -- ./inp_files/31417.got.cif
#   From: 2010.03.12/outbox.cif.g09.slc.cpg/sg59_16_cif.got.tgz:31417.got - 2010.04.16 16:29:54.
