data_PCOD8245971
_publ_section_title
;
Structure prediction by ZEFSAII (Michael W. Deem and Ramdas Pophale) SiO2 
 PCOD8245971
Probable space group: P M M N
;
_chemical_formula_sum "Si O2"
_cell_formula_units_Z 64
_cell_length_a 19.798193
_cell_length_b 9.028037
_cell_length_c 21.178894
_cell_angle_alpha 90.000000
_cell_angle_beta 90.000000
_cell_angle_gamma 90.000000
_cell_volume 3785.490500
_symmetry_space_group_name_H-M "P M M N"
_symmetry_group_IT_number 59
_space_group.IT_coordinate_system_code '2'
_symmetry_cell_setting 'orthorhombic'
loop_
_space_group_symop_operation_xyz
x,y,z
1/2-x,1/2-y,z
1/2+x,-y,-z
-x,1/2+y,-z
-x,-y,-z
1/2+x,1/2+y,-z
1/2-x,y,z
x,1/2-y,z
loop_
_atom_site_type_symbol
_atom_site_label
_atom_site_fract_x
_atom_site_fract_y
_atom_site_fract_z
Si Si1 0.121777 0.915018 0.837972
Si Si2 0.501830 0.084753 0.682930
Si Si3 0.460011 0.572664 0.556859
Si Si4 0.592624 0.583460 0.042329
Si Si5 0.324441 0.076444 0.584608
Si Si6 0.436189 0.582920 0.078072
Si Si7 0.649546 0.588374 0.277337
Si Si8 0.034612 0.082818 0.199263
O O1 0.147360 0.750000 0.851061
O O2 0.043831 0.915784 0.818398
O O3 0.134601 0.008213 0.901332
O O4 0.166769 0.981169 0.780923
O O5 0.530473 0.250000 0.667024
O O6 0.430183 0.103250 0.715542
O O7 0.495470 0.985299 0.620413
O O8 0.548695 0.001574 0.734370
O O9 0.500000 0.500000 0.500000
O O10 0.463490 0.750000 0.554426
O O11 0.381776 0.520681 0.550579
O O12 0.618927 0.750000 0.033702
O O13 0.514308 0.581267 0.059855
O O14 0.606026 0.496730 0.977204
O O15 0.250000 0.049892 0.553853
O O16 0.345315 0.250000 0.580950
O O17 0.319292 0.026125 0.657734
O O18 0.409626 0.750000 0.085325
O O19 0.423822 0.498556 0.143970
O O20 0.680316 0.750000 0.262398
O O21 0.061742 0.250000 0.205983
#
# Coordination Sequence:
#
# PCOD8245971 Si02
#       8
#     8   8   8   8   8   8   8   8
#     4   9  15  21  30  44  63  88 120 159 200 241
#     4   9  16  27  41  57  77 102 134 172 214 257
#     4  11  21  33  49  69  93 120 152 189 229 275
#     4   9  15  21  28  38  55  81 115 156 199 242
#     4   9  18  33  51  70  93 120 150 186 229 275
#     4   9  15  21  28  39  57  83 116 155 198 242
#     4   8  14  24  38  55  75 100 130 165 206 251
#     4   9  15  22  32  47  66  90 122 160 202 246
#
# _framework density 16.906661
#
# number of rings (size 3 to 8) (size 9 to 14) (size 15 to 20)
#    0.000    2.875    0.000    3.750    0.000    9.250 
#    0.000    0.000    0.000    0.000    0.000    0.000 
#    0.000    0.000    0.000    0.000    0.000    1.250 
#
# Total GULP energy -793183.137365 kJ/mol
# GULP energy per Si atom -12393.486521 kJ/mol
# Density = 1.686818 g / cm^3
# Si number density = 16.906661 Si / 1000 Ang^3
#
#
#
# Elastic Constant Matrix: (Units=GPa)
#
#
# Indices 1 2 3 4 5 6 
#
# 1 30.5339 28.7796 32.4535 0.0000 0.0000 0.0000
# 2 28.7796 159.7874 69.7495 0.0000 0.0000 0.0000
# 3 32.4535 69.7495 110.6406 0.0000 0.0000 0.0000
# 4 0.0000 0.0000 0.0000 34.4396 0.0000 0.0000
# 5 0.0000 0.0000 0.0000 0.0000 4.8999 0.0000
# 6 0.0000 0.0000 0.0000 0.0000 0.0000 5.9061
#
#
#
# Elastic Compliance Matrix: (Units=1/GPa)
#
#
# Indices 1 2 3 4 5 6 
#
# 1 0.048979 -0.003519 -0.012149 0.000000 0.000000 0.000000
# 2 -0.003519 0.008887 -0.004570 0.000000 0.000000 0.000000
# 3 -0.012149 -0.004570 0.015483 0.000000 0.000000 0.000000
# 4 0.000000 0.000000 0.000000 0.029036 0.000000 0.000000
# 5 0.000000 0.000000 0.000000 0.000000 0.204085 0.000000
# 6 0.000000 0.000000 0.000000 0.000000 0.000000 0.169317
#
#
# Mechanical properties :
#
#
# Convention : Reuss Voigt Hill
#
# Bulk Modulus (GPa) = 30.41912 62.54743 46.48327
# Shear Modulus (GPa) = 9.48368 20.38107 14.93238
#
# Velocity S-wave (km/s) = 2.37099 3.47581 2.97513
# Velocity P-wave (km/s) = 5.05242 7.29276 6.27341
#
# Compressibility (1/GPa) = 0.03287407
#
# Stress axis : x y z
#
# Youngs Moduli (GPa) = 20.41677 112.52189 64.58693
#
# Poissons Ratio (x) = 0.39594 0.78463
# Poissons Ratio (y) = 0.07184 0.29519
# Poissons Ratio (z) = 0.24803 0.51428
#
# Static dielectric constant tensor:
#      x y z
#    x 2.638620 0.000000 0.000000 
#    y 0.000000 3.442120 0.000000 
#    z 0.000000 0.000000 3.219620 
# 
# 
# High freq. dielectric constant tensor:
#      x y z
#    x 1.567580 0.000000 0.000000 
#    y 0.000000 1.668410 0.000000 
#    z 0.000000 0.000000 1.648420 
# 
# From -- ./inp_files/31064.got.cif
#   From: 2010.03.12/outbox.cif.g09.slc.cpg/sg59_16_cif.got.tgz:31064.got - 2010.04.16 16:29:54.
