data_PCOD8245018
_publ_section_title
;
Structure prediction by ZEFSAII (Michael W. Deem and Ramdas Pophale) SiO2 
 PCOD8245018
Probable space group: P M M N
;
_chemical_formula_sum "Si O2"
_cell_formula_units_Z 40
_cell_length_a 8.924434
_cell_length_b 9.348152
_cell_length_c 25.417686
_cell_angle_alpha 90.000000
_cell_angle_beta 90.000000
_cell_angle_gamma 90.000000
_cell_volume 2120.520414
_symmetry_space_group_name_H-M "P M M N"
_symmetry_group_IT_number 59
_space_group.IT_coordinate_system_code '2'
_symmetry_cell_setting 'orthorhombic'
loop_
_space_group_symop_operation_xyz
x,y,z
1/2-x,1/2-y,z
1/2+x,-y,-z
-x,1/2+y,-z
-x,-y,-z
1/2+x,1/2+y,-z
1/2-x,y,z
x,1/2-y,z
loop_
_atom_site_type_symbol
_atom_site_label
_atom_site_fract_x
_atom_site_fract_y
_atom_site_fract_z
Si Si1 0.426967 0.915950 0.452248
Si Si2 0.921967 0.914034 0.748423
Si Si3 0.425328 0.584482 0.640438
Si Si4 0.919592 0.919577 0.162254
Si Si5 0.925806 0.909478 0.045025
O O1 0.250000 0.933825 0.455895
O O2 0.474115 0.750000 0.455057
O O3 0.500000 0.000000 0.500000
O O4 0.484019 0.982445 0.398120
O O5 0.750000 0.943296 0.733205
O O6 0.948328 0.750000 0.764183
O O7 0.025017 0.956333 0.699145
O O8 0.965132 0.009398 0.797975
O O9 0.250000 0.554555 0.633991
O O10 0.463730 0.750000 0.627935
O O11 0.750000 0.967722 0.175744
O O12 0.933376 0.750000 0.166409
O O13 0.962631 0.970293 0.103241
O O14 0.750000 0.909286 0.036047
O O15 0.990629 0.750000 0.040367
O O16 0.000000 0.000000 0.000000
#
# Coordination Sequence:
#
# PCOD8245018 Si02
#       5
#     8   8   8   8   8
#     4  11  24  40  59  85 115 147 184 224 268 319
#     4  10  21  36  55  81 111 142 177 219 268 319
#     4  10  21  38  60  84 110 143 183 224 267 317
#     4   9  19  36  55  75 103 140 179 219 265 317
#     4   9  19  35  53  75 104 137 175 219 266 318
#
# _framework density 18.863294
#
# number of rings (size 3 to 8) (size 9 to 14) (size 15 to 20)
#    0.000    2.200    0.000    3.600    0.000    9.600 
#    0.000    6.000    0.000    0.000    0.000    0.000 
#    0.000    0.000    0.000    0.000    0.000    0.000 
#
# Total GULP energy -496076.316033 kJ/mol
# GULP energy per Si atom -12401.907901 kJ/mol
# Density = 1.882036 g / cm^3
# Si number density = 18.863294 Si / 1000 Ang^3
#
#
#
# Elastic Constant Matrix: (Units=GPa)
#
#
# Indices 1 2 3 4 5 6 
#
# 1 65.7701 46.5982 44.9375 0.0000 0.0000 0.0000
# 2 46.5982 87.8389 67.7891 0.0000 0.0000 0.0000
# 3 44.9375 67.7891 125.8009 0.0000 0.0000 0.0000
# 4 0.0000 0.0000 0.0000 39.6095 0.0000 0.0000
# 5 0.0000 0.0000 0.0000 0.0000 41.8542 0.0000
# 6 0.0000 0.0000 0.0000 0.0000 0.0000 32.9952
#
#
#
# Elastic Compliance Matrix: (Units=1/GPa)
#
#
# Indices 1 2 3 4 5 6 
#
# 1 0.025029 -0.010919 -0.003057 0.000000 0.000000 0.000000
# 2 -0.010919 0.024252 -0.009168 0.000000 0.000000 0.000000
# 3 -0.003057 -0.009168 0.013982 0.000000 0.000000 0.000000
# 4 0.000000 0.000000 0.000000 0.025246 0.000000 0.000000
# 5 0.000000 0.000000 0.000000 0.000000 0.023892 0.000000
# 6 0.000000 0.000000 0.000000 0.000000 0.000000 0.030307
#
#
# Mechanical properties :
#
#
# Convention : Reuss Voigt Hill
#
# Bulk Modulus (GPa) = 58.91041 66.45106 62.68073
# Shear Modulus (GPa) = 25.68635 30.89744 28.29190
#
# Velocity S-wave (km/s) = 3.69414 4.05157 3.87698
# Velocity P-wave (km/s) = 7.03516 7.56248 7.30358
#
# Compressibility (1/GPa) = 0.01697493
#
# Stress axis : x y z
#
# Youngs Moduli (GPa) = 39.95362 41.23301 71.52251
#
# Poissons Ratio (x) = 0.45020 0.21865
# Poissons Ratio (y) = 0.43623 0.65575
# Poissons Ratio (z) = 0.12214 0.37804
#
# Static dielectric constant tensor:
#      x y z
#    x 3.422440 0.000000 0.000000 
#    y 0.000000 2.190560 0.000000 
#    z 0.000000 0.000000 3.497350 
# 
# 
# High freq. dielectric constant tensor:
#      x y z
#    x 1.737300 0.000000 0.000000 
#    y 0.000000 1.728720 0.000000 
#    z 0.000000 0.000000 1.745360 
# 
# From -- ./inp_files/31117.got.cif
#   From: 2010.03.12/outbox.cif.g09.slc.cpg/sg59_16_cif.got.tgz:31117.got - 2010.04.16 16:29:54.
