data_PCOD8245746
_publ_section_title
;
Structure prediction by ZEFSAII (Michael W. Deem and Ramdas Pophale) SiO2 
 PCOD8245746
Probable space group: P M M N
;
_chemical_formula_sum "Si O2"
_cell_formula_units_Z 64
_cell_length_a 20.872221
_cell_length_b 17.456179
_cell_length_c 8.500637
_cell_angle_alpha 90.000000
_cell_angle_beta 90.000000
_cell_angle_gamma 90.000000
_cell_volume 3097.200511
_symmetry_space_group_name_H-M "P M M N"
_symmetry_group_IT_number 59
_space_group.IT_coordinate_system_code '2'
_symmetry_cell_setting 'orthorhombic'
loop_
_space_group_symop_operation_xyz
x,y,z
1/2-x,1/2-y,z
1/2+x,-y,-z
-x,1/2+y,-z
-x,-y,-z
1/2+x,1/2+y,-z
1/2-x,y,z
x,1/2-y,z
loop_
_atom_site_type_symbol
_atom_site_label
_atom_site_fract_x
_atom_site_fract_y
_atom_site_fract_z
Si Si1 0.019504 0.163879 0.076076
Si Si2 0.423767 0.945245 0.795077
Si Si3 0.821487 0.163784 0.733798
Si Si4 0.823852 0.660341 0.459812
Si Si5 0.179248 0.537293 0.025338
Si Si6 0.444864 0.115307 0.745455
Si Si7 0.933552 0.082700 0.561190
Si Si8 0.388905 0.433796 0.280754
O O1 0.001521 0.250000 0.124839
O O2 0.066671 0.131628 0.209117
O O3 0.957038 0.109794 0.076132
O O4 0.048794 0.166868 0.900704
O O5 0.430891 0.908352 0.625054
O O6 0.455025 0.028527 0.800523
O O7 0.350843 0.955989 0.851965
O O8 0.750000 0.160525 0.659775
O O9 0.844285 0.250000 0.764619
O O10 0.821509 0.121632 0.900761
O O11 0.868893 0.122835 0.615294
O O12 0.750000 0.646504 0.403443
O O13 0.834414 0.750000 0.497789
O O14 0.875473 0.633632 0.329069
O O15 0.835360 0.608708 0.614504
O O16 0.250000 0.504552 0.002425
O O17 0.142299 0.478323 0.136588
O O18 0.503730 0.128374 0.623504
O O19 0.931286 0.992445 0.611560
#
# Coordination Sequence:
#
# PCOD8245746 Si02
#       8
#     8   8   8   8   8   8   8   8
#     4  12  25  40  65  96 125 164 206 260 321 375
#     4  12  23  41  63  91 129 161 209 261 311 369
#     4   9  20  40  63  92 130 166 204 254 312 373
#     4  11  25  43  64  92 128 169 212 263 318 376
#     4  10  22  38  63  92 122 166 211 252 307 373
#     4  12  23  44  65  89 127 166 211 262 317 374
#     4  11  23  38  69  93 122 167 213 257 317 371
#     4  11  20  42  64  92 126 160 208 261 309 381
#
# _framework density 20.663820999999999
#
# number of rings (size 3 to 8) (size 9 to 14) (size 15 to 20)
#    0.000    1.000    3.750    4.125    0.000    4.500 
#    0.000    0.000    0.000    3.750    0.000    0.000 
#    0.000    0.000    0.000    0.000    0.000    0.000 
#
# Total GULP energy -793557.804778 kJ/mol
# GULP energy per Si atom -12399.340700 kJ/mol
# Density = 2.061679 g / cm^3
# Si number density = 20.663821 Si / 1000 Ang^3
#
#
#
# Elastic Constant Matrix: (Units=GPa)
#
#
# Indices 1 2 3 4 5 6 
#
# 1 112.8024 25.1865 44.2375 0.0000 0.0000 0.0000
# 2 25.1865 112.3071 20.2688 0.0000 0.0000 0.0000
# 3 44.2375 20.2688 102.2295 0.0000 0.0000 0.0000
# 4 0.0000 0.0000 0.0000 17.5283 0.0000 0.0000
# 5 0.0000 0.0000 0.0000 0.0000 34.5377 0.0000
# 6 0.0000 0.0000 0.0000 0.0000 0.0000 28.5607
#
#
#
# Elastic Compliance Matrix: (Units=1/GPa)
#
#
# Indices 1 2 3 4 5 6 
#
# 1 0.010968 -0.001663 -0.004417 0.000000 0.000000 0.000000
# 2 -0.001663 0.009487 -0.001161 0.000000 0.000000 0.000000
# 3 -0.004417 -0.001161 0.011923 0.000000 0.000000 0.000000
# 4 0.000000 0.000000 0.000000 0.057051 0.000000 0.000000
# 5 0.000000 0.000000 0.000000 0.000000 0.028954 0.000000
# 6 0.000000 0.000000 0.000000 0.000000 0.000000 0.035013
#
#
# Mechanical properties :
#
#
# Convention : Reuss Voigt Hill
#
# Bulk Modulus (GPa) = 55.87563 56.30273 56.08918
# Shear Modulus (GPa) = 28.76154 31.96842 30.36498
#
# Velocity S-wave (km/s) = 3.73484 3.93755 3.83753
# Velocity P-wave (km/s) = 6.76001 6.92666 6.84384
#
# Compressibility (1/GPa) = 0.01789689
#
# Stress axis : x y z
#
# Youngs Moduli (GPa) = 91.17121 105.41132 83.86885
#
# Poissons Ratio (x) = 0.17527 0.37042
# Poissons Ratio (y) = 0.15159 0.09741
# Poissons Ratio (z) = 0.40267 0.12242
#
# Static dielectric constant tensor:
#      x y z
#    x 3.942510 0.000000 0.000000 
#    y 0.000000 3.793970 0.000000 
#    z 0.000000 0.000000 3.716030 
# 
# 
# High freq. dielectric constant tensor:
#      x y z
#    x 1.816390 0.000000 0.000000 
#    y 0.000000 1.808980 0.000000 
#    z 0.000000 0.000000 1.802590 
# 
# From -- ./inp_files/11612.got.cif
#   From: 2010.03.12/outbox.cif.g09.slc.cpg/sg59_6_cif.got.tgz:11612.got - 2010.04.16 16:29:54.
