data_PCOD8245589
_publ_section_title
;
Structure prediction by ZEFSAII (Michael W. Deem and Ramdas Pophale) SiO2 
 PCOD8245589
Probable space group: P M M N
;
_chemical_formula_sum "Si O2"
_cell_formula_units_Z 56
_cell_length_a 9.406730
_cell_length_b 20.840352
_cell_length_c 14.219783
_cell_angle_alpha 90.000000
_cell_angle_beta 90.000000
_cell_angle_gamma 90.000000
_cell_volume 2787.640065
_symmetry_space_group_name_H-M "P M M N"
_symmetry_group_IT_number 59
_space_group.IT_coordinate_system_code '2'
_symmetry_cell_setting 'orthorhombic'
loop_
_space_group_symop_operation_xyz
x,y,z
1/2-x,1/2-y,z
1/2+x,-y,-z
-x,1/2+y,-z
-x,-y,-z
1/2+x,1/2+y,-z
1/2-x,y,z
x,1/2-y,z
loop_
_atom_site_type_symbol
_atom_site_label
_atom_site_fract_x
_atom_site_fract_y
_atom_site_fract_z
Si Si1 0.588581 0.322155 0.197304
Si Si2 0.413892 0.320737 0.766068
Si Si3 0.588518 0.118488 0.388062
Si Si4 0.914256 0.934951 0.892209
Si Si5 0.910426 0.362341 0.599076
Si Si6 0.913724 0.941024 0.113502
Si Si7 0.088342 0.495060 0.405702
O O1 0.750000 0.338440 0.165731
O O2 0.547230 0.250000 0.167613
O O3 0.578552 0.325637 0.311059
O O4 0.480982 0.370429 0.148617
O O5 0.250000 0.333132 0.744302
O O6 0.437253 0.250000 0.812100
O O7 0.492520 0.319755 0.665849
O O8 0.470180 0.376149 0.836032
O O9 0.750000 0.092985 0.400776
O O10 0.534455 0.142145 0.490682
O O11 0.490954 0.060379 0.346240
O O12 0.750000 0.939504 0.861452
O O13 0.932482 0.929952 0.003403
O O14 0.993139 0.998288 0.852674
O O15 0.750000 0.335878 0.603676
O O16 0.917365 0.434866 0.641186
O O17 0.750000 0.955489 0.139071
O O18 0.250000 0.473840 0.425047
O O19 0.000000 0.500000 0.500000
#
# Coordination Sequence:
#
# PCOD8245589 Si02
#       7
#     8   8   8   8   8   8   8
#     4  10  22  39  58  83 117 156 195 233 282 346
#     4  10  22  38  56  81 112 149 191 230 275 334
#     4   9  19  35  54  77 108 150 194 233 277 331
#     4  10  21  38  63  91 116 143 184 238 289 340
#     4   9  19  34  52  78 111 147 187 232 280 329
#     4   9  20  40  63  86 114 150 186 227 284 348
#     4   9  17  30  49  75 105 137 180 232 282 330
#
# _framework density 20.088678000000002
#
# number of rings (size 3 to 8) (size 9 to 14) (size 15 to 20)
#    0.000    2.571    0.000    1.714    2.000    6.286 
#    0.000    2.857    0.000    0.000    0.000    0.000 
#    0.000    0.000    0.000    0.000    0.000    0.000 
#
# Total GULP energy -694153.133319 kJ/mol
# GULP energy per Si atom -12395.591666 kJ/mol
# Density = 2.004295 g / cm^3
# Si number density = 20.088678 Si / 1000 Ang^3
#
#
#
# Elastic Constant Matrix: (Units=GPa)
#
#
# Indices 1 2 3 4 5 6 
#
# 1 98.1671 65.8537 35.2298 0.0000 0.0000 0.0000
# 2 65.8537 135.6824 47.7649 0.0000 0.0000 0.0000
# 3 35.2298 47.7649 49.3822 0.0000 0.0000 0.0000
# 4 0.0000 0.0000 0.0000 26.1171 0.0000 0.0000
# 5 0.0000 0.0000 0.0000 0.0000 27.4376 0.0000
# 6 0.0000 0.0000 0.0000 0.0000 0.0000 23.8425
#
#
#
# Elastic Compliance Matrix: (Units=1/GPa)
#
#
# Indices 1 2 3 4 5 6 
#
# 1 0.016195 -0.005751 -0.005991 0.000000 0.000000 0.000000
# 2 -0.005751 0.013218 -0.008682 0.000000 0.000000 0.000000
# 3 -0.005991 -0.008682 0.032922 0.000000 0.000000 0.000000
# 4 0.000000 0.000000 0.000000 0.038289 0.000000 0.000000
# 5 0.000000 0.000000 0.000000 0.000000 0.036446 0.000000
# 6 0.000000 0.000000 0.000000 0.000000 0.000000 0.041942
#
#
# Mechanical properties :
#
#
# Convention : Reuss Voigt Hill
#
# Bulk Modulus (GPa) = 46.54071 64.54762 55.54416
# Shear Modulus (GPa) = 22.02433 24.43831 23.23132
#
# Velocity S-wave (km/s) = 3.31472 3.49165 3.40433
# Velocity P-wave (km/s) = 6.15368 6.96108 6.56979
#
# Compressibility (1/GPa) = 0.02148656
#
# Stress axis : x y z
#
# Youngs Moduli (GPa) = 61.74853 75.65505 30.37513
#
# Poissons Ratio (x) = 0.43511 0.18197
# Poissons Ratio (y) = 0.35513 0.26372
# Poissons Ratio (z) = 0.36991 0.65684
#
# Static dielectric constant tensor:
#      x y z
#    x 3.857420 0.000000 0.000000 
#    y 0.000000 3.982170 0.000000 
#    z 0.000000 0.000000 3.489710 
# 
# 
# High freq. dielectric constant tensor:
#      x y z
#    x 1.780750 0.000000 0.000000 
#    y 0.000000 1.782830 0.000000 
#    z 0.000000 0.000000 1.770840 
# 
# From -- ./inp_files/21042.got.cif
#   From: 2010.03.12/outbox.cif.g09.slc.cpg/sg59_11_cif.got.tgz:21042.got - 2010.04.16 16:29:54.
