data_PCOD8245013
_publ_section_title
;
Structure prediction by ZEFSAII (Michael W. Deem and Ramdas Pophale) SiO2 
 PCOD8245013
Probable space group: P M M N
;
_chemical_formula_sum "Si O2"
_cell_formula_units_Z 48
_cell_length_a 9.765327
_cell_length_b 8.475541
_cell_length_c 29.133136
_cell_angle_alpha 90.000000
_cell_angle_beta 90.000000
_cell_angle_gamma 90.000000
_cell_volume 2411.245643
_symmetry_space_group_name_H-M "P M M N"
_symmetry_group_IT_number 59
_space_group.IT_coordinate_system_code '2'
_symmetry_cell_setting 'orthorhombic'
loop_
_space_group_symop_operation_xyz
x,y,z
1/2-x,1/2-y,z
1/2+x,-y,-z
-x,1/2+y,-z
-x,-y,-z
1/2+x,1/2+y,-z
1/2-x,y,z
x,1/2-y,z
loop_
_atom_site_type_symbol
_atom_site_label
_atom_site_fract_x
_atom_site_fract_y
_atom_site_fract_z
Si Si1 0.405606 0.061766 0.780687
Si Si2 0.594944 0.063075 0.862957
Si Si3 0.094880 0.435855 0.039708
Si Si4 0.012522 0.564124 0.400178
Si Si5 0.250000 0.065421 0.459734
Si Si6 0.598343 0.437297 0.700459
Si Si7 0.250000 0.569020 0.558106
O O1 0.250000 0.995492 0.781577
O O2 0.402716 0.250000 0.780500
O O3 0.490169 0.998544 0.824595
O O4 0.483970 0.996718 0.735503
O O5 0.750000 0.002027 0.852916
O O6 0.593542 0.250000 0.863421
O O7 0.541448 0.000970 0.911743
O O8 0.250000 0.494496 0.030903
O O9 0.086415 0.250000 0.040590
O O10 0.000000 0.500000 0.000000
O O11 0.982247 0.750000 0.400736
O O12 0.877593 0.465864 0.409653
O O13 0.118670 0.521821 0.439753
O O14 0.066931 0.506042 0.350969
O O15 0.250000 0.250000 0.447392
O O16 0.250000 0.045411 0.514332
O O17 0.750000 0.499173 0.714387
O O18 0.597630 0.250000 0.702477
O O19 0.250000 0.750000 0.541719
#
# Coordination Sequence:
#
# PCOD8245013 Si02
#       7
#     8   8   8   8   4   8   4
#     4   9  17  28  48  81 115 143 180 232 283 328
#     4   9  17  31  51  76 109 148 188 232 281 334
#     4  10  21  36  55  80 110 147 191 238 286 340
#     4  11  22  39  62  90 119 153 195 241 289 343
#     4  12  24  42  64  88 118 154 194 238 287 348
#     4   9  17  31  53  82 113 145 183 230 278 329
#     4  12  26  42  60  86 120 156 192 238 293 348
#
# _framework density 19.906723
#
# number of rings (size 3 to 8) (size 9 to 14) (size 15 to 20)
#    0.000    2.000    0.833    3.500    1.167    3.667 
#    0.000    1.667    0.000    2.000    0.000    0.000 
#    0.000    0.000    0.000    0.000    0.000    0.000 
#
# Total GULP energy -595246.927792 kJ/mol
# GULP energy per Si atom -12400.977662 kJ/mol
# Density = 1.986141 g / cm^3
# Si number density = 19.906723 Si / 1000 Ang^3
#
#
#
# Elastic Constant Matrix: (Units=GPa)
#
#
# Indices 1 2 3 4 5 6 
#
# 1 157.9576 13.9537 78.1874 0.0000 0.0000 0.0000
# 2 13.9537 28.9974 13.2041 0.0000 0.0000 0.0000
# 3 78.1874 13.2041 142.3581 0.0000 0.0000 0.0000
# 4 0.0000 0.0000 0.0000 22.6344 0.0000 0.0000
# 5 0.0000 0.0000 0.0000 0.0000 39.5275 0.0000
# 6 0.0000 0.0000 0.0000 0.0000 0.0000 23.5695
#
#
#
# Elastic Compliance Matrix: (Units=1/GPa)
#
#
# Indices 1 2 3 4 5 6 
#
# 1 0.008819 -0.002128 -0.004646 0.000000 0.000000 0.000000
# 2 -0.002128 0.036520 -0.002219 0.000000 0.000000 0.000000
# 3 -0.004646 -0.002219 0.009782 0.000000 0.000000 0.000000
# 4 0.000000 0.000000 0.000000 0.044181 0.000000 0.000000
# 5 0.000000 0.000000 0.000000 0.000000 0.025299 0.000000
# 6 0.000000 0.000000 0.000000 0.000000 0.000000 0.042428
#
#
# Mechanical properties :
#
#
# Convention : Reuss Voigt Hill
#
# Bulk Modulus (GPa) = 26.92840 60.00038 43.46439
# Shear Modulus (GPa) = 25.33039 32.07749 28.70394
#
# Velocity S-wave (km/s) = 3.57102 4.01857 3.80138
# Velocity P-wave (km/s) = 5.52807 7.19292 6.41473
#
# Compressibility (1/GPa) = 0.03713551
#
# Stress axis : x y z
#
# Youngs Moduli (GPa) = 113.39764 27.38222 102.22798
#
# Poissons Ratio (x) = 0.05827 0.47495
# Poissons Ratio (y) = 0.24130 0.22680
# Poissons Ratio (z) = 0.52685 0.06075
#
# Static dielectric constant tensor:
#      x y z
#    x 3.807890 0.000000 0.000000 
#    y 0.000000 2.791810 0.000000 
#    z 0.000000 0.000000 3.737480 
# 
# 
# High freq. dielectric constant tensor:
#      x y z
#    x 1.786310 0.000000 0.000000 
#    y 0.000000 1.741850 0.000000 
#    z 0.000000 0.000000 1.786300 
# 
# From -- ./inp_files/32975.got.cif
#   From: 2010.03.12/outbox.cif.g09.slc.cpg/sg59_17_cif.got.tgz:32975.got - 2010.04.16 16:29:54.
