data_PCOD8245302
_publ_section_title
;
Structure prediction by ZEFSAII (Michael W. Deem and Ramdas Pophale) SiO2 
 PCOD8245302
Probable space group: P M M N
;
_chemical_formula_sum "Si O2"
_cell_formula_units_Z 48
_cell_length_a 8.975077
_cell_length_b 9.132281
_cell_length_c 30.655882
_cell_angle_alpha 90.000000
_cell_angle_beta 90.000000
_cell_angle_gamma 90.000000
_cell_volume 2512.645762
_symmetry_space_group_name_H-M "P M M N"
_symmetry_group_IT_number 59
_space_group.IT_coordinate_system_code '2'
_symmetry_cell_setting 'orthorhombic'
loop_
_space_group_symop_operation_xyz
x,y,z
1/2-x,1/2-y,z
1/2+x,-y,-z
-x,1/2+y,-z
-x,-y,-z
1/2+x,1/2+y,-z
1/2-x,y,z
x,1/2-y,z
loop_
_atom_site_type_symbol
_atom_site_label
_atom_site_fract_x
_atom_site_fract_y
_atom_site_fract_z
Si Si1 0.575289 0.080826 0.635652
Si Si2 0.577069 0.078118 0.792186
Si Si3 0.422917 0.577807 0.712593
Si Si4 0.421070 0.078160 0.039681
Si Si5 0.075041 0.581196 0.871208
Si Si6 0.416502 0.919781 0.462006
O O1 0.750000 0.043596 0.640659
O O2 0.548357 0.250000 0.648413
O O3 0.518262 0.050933 0.586333
O O4 0.476473 0.976300 0.665542
O O5 0.750000 0.040672 0.799158
O O6 0.549571 0.250000 0.787776
O O7 0.521461 0.002227 0.748474
O O8 0.484291 0.018850 0.832694
O O9 0.250000 0.538276 0.719412
O O10 0.449683 0.750000 0.716446
O O11 0.250000 0.029200 0.041568
O O12 0.438866 0.250000 0.032703
O O13 0.498276 0.028053 0.084368
O O14 0.500000 0.000000 0.000000
O O15 0.250000 0.558009 0.876255
O O16 0.035664 0.750000 0.860901
O O17 0.250000 0.980291 0.462428
O O18 0.421626 0.750000 0.472807
O O19 0.500000 0.000000 0.500000
#
# Coordination Sequence:
#
# PCOD8245302 Si02
#       6
#     8   8   8   8   8   8
#     4   9  19  37  58  79 106 142 183 225 270 321
#     4  11  24  40  59  84 112 144 183 225 270 323
#     4  11  24  39  56  82 113 143 178 222 272 325
#     4  10  21  37  58  84 114 150 190 231 278 329
#     4  10  21  38  60  85 113 146 185 229 276 326
#     4   9  19  35  54  78 109 143 180 224 271 320
#
# _framework density 19.103369000000001
#
# number of rings (size 3 to 8) (size 9 to 14) (size 15 to 20)
#    0.000    2.000    0.000    4.000    0.000   11.333 
#    0.000    5.000    0.000    0.000    0.000    0.000 
#    0.000    0.000    0.000    0.000    0.000    0.000 
#
# Total GULP energy -595324.039308 kJ/mol
# GULP energy per Si atom -12402.584152 kJ/mol
# Density = 1.905989 g / cm^3
# Si number density = 19.103369 Si / 1000 Ang^3
#
#
#
# Elastic Constant Matrix: (Units=GPa)
#
#
# Indices 1 2 3 4 5 6 
#
# 1 90.9015 44.0628 51.1457 0.0000 0.0000 0.0000
# 2 44.0628 63.8134 49.7030 0.0000 0.0000 0.0000
# 3 51.1457 49.7030 132.4379 0.0000 0.0000 0.0000
# 4 0.0000 0.0000 0.0000 43.1625 0.0000 0.0000
# 5 0.0000 0.0000 0.0000 0.0000 43.1249 0.0000
# 6 0.0000 0.0000 0.0000 0.0000 0.0000 34.3086
#
#
#
# Elastic Compliance Matrix: (Units=1/GPa)
#
#
# Indices 1 2 3 4 5 6 
#
# 1 0.017405 -0.009584 -0.003125 0.000000 0.000000 0.000000
# 2 -0.009584 0.027421 -0.006590 0.000000 0.000000 0.000000
# 3 -0.003125 -0.006590 0.011230 0.000000 0.000000 0.000000
# 4 0.000000 0.000000 0.000000 0.023168 0.000000 0.000000
# 5 0.000000 0.000000 0.000000 0.000000 0.023188 0.000000
# 6 0.000000 0.000000 0.000000 0.000000 0.000000 0.029147
#
#
# Mechanical properties :
#
#
# Convention : Reuss Voigt Hill
#
# Bulk Modulus (GPa) = 57.27582 64.10840 60.69211
# Shear Modulus (GPa) = 28.41284 33.60196 31.00740
#
# Velocity S-wave (km/s) = 3.86076 4.19854 4.03319
# Velocity P-wave (km/s) = 7.06549 7.55878 7.31629
#
# Compressibility (1/GPa) = 0.01745937
#
# Stress axis : x y z
#
# Youngs Moduli (GPa) = 57.45564 36.46831 89.04383
#
# Poissons Ratio (x) = 0.34952 0.27823
# Poissons Ratio (y) = 0.55067 0.58677
# Poissons Ratio (z) = 0.17953 0.24031
#
# Static dielectric constant tensor:
#      x y z
#    x 3.663980 0.000000 0.000000 
#    y 0.000000 3.456680 0.000000 
#    z 0.000000 0.000000 3.585150 
# 
# 
# High freq. dielectric constant tensor:
#      x y z
#    x 1.750310 0.000000 0.000000 
#    y 0.000000 1.739530 0.000000 
#    z 0.000000 0.000000 1.759740 
# 
# From -- ./inp_files/32828.got.cif
#   From: 2010.03.12/outbox.cif.g09.slc.cpg/sg59_17_cif.got.tgz:32828.got - 2010.04.16 16:29:54.
