data_PCOD8245451
_publ_section_title
;
Structure prediction by ZEFSAII (Michael W. Deem and Ramdas Pophale) SiO2 
 PCOD8245451
Probable space group: P M M N
;
_chemical_formula_sum "Si O2"
_cell_formula_units_Z 48
_cell_length_a 8.719906
_cell_length_b 15.674605
_cell_length_c 17.499168
_cell_angle_alpha 90.000000
_cell_angle_beta 90.000000
_cell_angle_gamma 90.000000
_cell_volume 2391.805220
_symmetry_space_group_name_H-M "P M M N"
_symmetry_group_IT_number 59
_space_group.IT_coordinate_system_code '2'
_symmetry_cell_setting 'orthorhombic'
loop_
_space_group_symop_operation_xyz
x,y,z
1/2-x,1/2-y,z
1/2+x,-y,-z
-x,1/2+y,-z
-x,-y,-z
1/2+x,1/2+y,-z
1/2-x,y,z
x,1/2-y,z
loop_
_atom_site_type_symbol
_atom_site_label
_atom_site_fract_x
_atom_site_fract_y
_atom_site_fract_z
Si Si1 0.930634 0.650338 0.312976
Si Si2 0.418503 0.848764 0.157617
Si Si3 0.566627 0.653773 0.683145
Si Si4 0.432356 0.994902 0.416408
Si Si5 0.932576 0.592014 0.004326
Si Si6 0.084367 0.151480 0.153360
O O1 0.750000 0.637903 0.317195
O O2 0.974335 0.750000 0.327319
O O3 0.987269 0.616148 0.230197
O O4 0.008651 0.591456 0.376751
O O5 0.250000 0.892925 0.154330
O O6 0.396427 0.750000 0.170820
O O7 0.507998 0.861229 0.079140
O O8 0.750000 0.654514 0.688022
O O9 0.509603 0.750000 0.659868
O O10 0.508622 0.581748 0.624742
O O11 0.500231 0.624981 0.767283
O O12 0.250000 0.991816 0.418883
O O13 0.500000 0.000000 0.500000
O O14 0.750000 0.595675 0.007390
O O15 0.002311 0.633816 0.926487
O O16 0.000000 0.500000 0.000000
O O17 0.250000 0.104147 0.148195
O O18 0.114270 0.250000 0.161897
#
# Coordination Sequence:
#
# PCOD8245451 Si02
#       6
#     8   8   8   8   8   8
#     4  10  22  41  64  89 119 157 202 251 304 362
#     4  10  21  38  59  82 112 152 197 244 295 353
#     4   8  16  33  57  84 112 147 192 239 289 346
#     4  11  23  38  61  91 123 158 195 242 298 361
#     4  11  22  33  50  80 116 153 193 238 289 345
#     4   8  15  30  52  76 103 139 186 236 282 334
#
# _framework density 20.068524
#
# number of rings (size 3 to 8) (size 9 to 14) (size 15 to 20)
#    0.000    2.333    0.000    3.500    2.333    3.333 
#    0.000    1.667    0.000    1.500    0.000    7.000 
#    0.000    0.000    0.000    0.000    0.000    0.000 
#
# Total GULP energy -594630.383767 kJ/mol
# GULP energy per Si atom -12388.132995 kJ/mol
# Density = 2.002285 g / cm^3
# Si number density = 20.068524 Si / 1000 Ang^3
#
#
#
# Elastic Constant Matrix: (Units=GPa)
#
#
# Indices 1 2 3 4 5 6 
#
# 1 78.8241 34.9051 50.6170 0.0000 0.0000 0.0000
# 2 34.9051 88.4455 75.0419 0.0000 0.0000 0.0000
# 3 50.6170 75.0419 206.3716 0.0000 0.0000 0.0000
# 4 0.0000 0.0000 0.0000 37.3221 0.0000 0.0000
# 5 0.0000 0.0000 0.0000 0.0000 28.9237 0.0000
# 6 0.0000 0.0000 0.0000 0.0000 0.0000 24.9152
#
#
#
# Elastic Compliance Matrix: (Units=1/GPa)
#
#
# Indices 1 2 3 4 5 6 
#
# 1 0.016140 -0.004354 -0.002375 0.000000 0.000000 0.000000
# 2 -0.004354 0.017526 -0.005305 0.000000 0.000000 0.000000
# 3 -0.002375 -0.005305 0.007357 0.000000 0.000000 0.000000
# 4 0.000000 0.000000 0.000000 0.026794 0.000000 0.000000
# 5 0.000000 0.000000 0.000000 0.000000 0.034574 0.000000
# 6 0.000000 0.000000 0.000000 0.000000 0.000000 0.040136
#
#
# Mechanical properties :
#
#
# Convention : Reuss Voigt Hill
#
# Bulk Modulus (GPa) = 58.98315 77.19659 68.08987
# Shear Modulus (GPa) = 29.02812 32.43734 30.73273
#
# Velocity S-wave (km/s) = 3.80735 4.02472 3.91754
# Velocity P-wave (km/s) = 6.98445 7.75550 7.38005
#
# Compressibility (1/GPa) = 0.01695399
#
# Stress axis : x y z
#
# Youngs Moduli (GPa) = 61.95787 57.05911 135.92153
#
# Poissons Ratio (x) = 0.24845 0.32286
# Poissons Ratio (y) = 0.26978 0.72104
# Poissons Ratio (z) = 0.14717 0.30269
#
# Static dielectric constant tensor:
#      x y z
#    x 3.488360 0.000000 0.000000 
#    y 0.000000 3.414180 0.000000 
#    z 0.000000 0.000000 3.626050 
# 
# 
# High freq. dielectric constant tensor:
#      x y z
#    x 1.753090 0.000000 0.000000 
#    y 0.000000 1.783930 0.000000 
#    z 0.000000 0.000000 1.798920 
# 
# From -- ./inp_files/20376.got.cif
#   From: 2010.03.12/outbox.cif.g09.slc.cpg/sg59_11_cif.got.tgz:20376.got - 2010.04.16 16:29:54.
