data_PCOD8245116
_publ_section_title
;
Structure prediction by ZEFSAII (Michael W. Deem and Ramdas Pophale) SiO2 
 PCOD8245116
Probable space group: P M M N
;
_chemical_formula_sum "Si O2"
_cell_formula_units_Z 64
_cell_length_a 19.957984
_cell_length_b 9.325562
_cell_length_c 20.468813
_cell_angle_alpha 90.000000
_cell_angle_beta 90.000000
_cell_angle_gamma 90.000000
_cell_volume 3809.643546
_symmetry_space_group_name_H-M "P M M N"
_symmetry_group_IT_number 59
_space_group.IT_coordinate_system_code '2'
_symmetry_cell_setting 'orthorhombic'
loop_
_space_group_symop_operation_xyz
x,y,z
1/2-x,1/2-y,z
1/2+x,-y,-z
-x,1/2+y,-z
-x,-y,-z
1/2+x,1/2+y,-z
1/2-x,y,z
x,1/2-y,z
loop_
_atom_site_type_symbol
_atom_site_label
_atom_site_fract_x
_atom_site_fract_y
_atom_site_fract_z
Si Si1 0.896628 0.408453 0.693055
Si Si2 0.884732 0.584596 0.812951
Si Si3 0.038070 0.914363 0.826372
Si Si4 0.672816 0.915233 0.948348
Si Si5 0.564406 0.082232 0.026425
Si Si6 0.943782 0.912598 0.295267
Si Si7 0.561489 0.085142 0.416608
Si Si8 0.570217 0.415081 0.557307
O O1 0.874029 0.250000 0.713040
O O2 0.861046 0.510065 0.745717
O O3 0.876841 0.442085 0.617092
O O4 0.976833 0.425038 0.695727
O O5 0.877314 0.750000 0.798138
O O6 0.837930 0.537531 0.873122
O O7 0.960243 0.541021 0.832101
O O8 0.044283 0.750000 0.804178
O O9 0.071926 0.940892 0.896168
O O10 0.076225 0.010612 0.772646
O O11 0.750000 0.933772 0.967032
O O12 0.649018 0.750000 0.957050
O O13 0.631255 0.018137 0.995287
O O14 0.557223 0.250000 0.009092
O O15 0.500000 0.000000 0.000000
O O16 0.918020 0.750000 0.292715
O O17 0.908209 0.991997 0.356881
O O18 0.558751 0.250000 0.393705
O O19 0.603674 0.068224 0.484928
O O20 0.487453 0.032622 0.434944
O O21 0.542386 0.250000 0.564647
#
# Coordination Sequence:
#
# PCOD8245116 Si02
#       8
#     8   8   8   8   8   8   8   8
#     4   8  14  23  34  51  74 102 138 180 220 257
#     4   9  16  28  43  61  84 112 147 185 226 273
#     4   9  17  29  44  63  86 112 146 189 229 273
#     4  10  21  37  53  70  96 128 160 196 242 292
#     4  11  21  34  53  75  98 122 157 199 242 291
#     4   9  16  24  34  52  77 105 139 178 219 267
#     4   9  14  20  31  45  67 101 137 175 215 260
#     4   8  14  22  30  44  67  98 139 177 213 258
#
# _framework density 16.799472000000002
#
# number of rings (size 3 to 8) (size 9 to 14) (size 15 to 20)
#    0.000    2.875    1.250    1.875    0.000    5.250 
#    0.000    0.000    0.000    0.000    0.000    0.000 
#    0.000    0.000    0.000    1.125    0.000   20.000 
#
# Total GULP energy -793017.283060 kJ/mol
# GULP energy per Si atom -12390.895048 kJ/mol
# Density = 1.676124 g / cm^3
# Si number density = 16.799472 Si / 1000 Ang^3
#
#
#
# Elastic Constant Matrix: (Units=GPa)
#
#
# Indices 1 2 3 4 5 6 
#
# 1 30.4797 24.5162 29.0070 0.0000 0.0000 0.0000
# 2 24.5162 102.6981 76.4581 0.0000 0.0000 0.0000
# 3 29.0070 76.4581 144.5385 0.0000 0.0000 0.0000
# 4 0.0000 0.0000 0.0000 34.6001 0.0000 0.0000
# 5 0.0000 0.0000 0.0000 0.0000 9.9042 0.0000
# 6 0.0000 0.0000 0.0000 0.0000 0.0000 11.8611
#
#
#
# Elastic Compliance Matrix: (Units=1/GPa)
#
#
# Indices 1 2 3 4 5 6 
#
# 1 0.042906 -0.006322 -0.005267 0.000000 0.000000 0.000000
# 2 -0.006322 0.016995 -0.007721 0.000000 0.000000 0.000000
# 3 -0.005267 -0.007721 0.012060 0.000000 0.000000 0.000000
# 4 0.000000 0.000000 0.000000 0.028902 0.000000 0.000000
# 5 0.000000 0.000000 0.000000 0.000000 0.100968 0.000000
# 6 0.000000 0.000000 0.000000 0.000000 0.000000 0.084309
#
#
# Mechanical properties :
#
#
# Convention : Reuss Voigt Hill
#
# Bulk Modulus (GPa) = 29.99266 59.74211 44.86738
# Shear Modulus (GPa) = 14.88666 21.12208 18.00437
#
# Velocity S-wave (km/s) = 2.98004 3.54970 3.27727
# Velocity P-wave (km/s) = 5.45279 7.24152 6.40986
#
# Compressibility (1/GPa) = 0.03334150
#
# Stress axis : x y z
#
# Youngs Moduli (GPa) = 23.30695 58.84146 82.91919
#
# Poissons Ratio (x) = 0.37197 0.43671
# Poissons Ratio (y) = 0.14734 0.64024
# Poissons Ratio (z) = 0.12275 0.45433
#
# Static dielectric constant tensor:
#      x y z
#    x 2.460100 0.000000 0.000000 
#    y 0.000000 3.266630 0.000000 
#    z 0.000000 0.000000 3.676950 
# 
# 
# High freq. dielectric constant tensor:
#      x y z
#    x 1.553630 0.000000 0.000000 
#    y 0.000000 1.656710 0.000000 
#    z 0.000000 0.000000 1.673710 
# 
# From -- ./inp_files/31008.got.cif
#   From: 2010.03.12/outbox.cif.g09.slc.cpg/sg59_16_cif.got.tgz:31008.got - 2010.04.16 16:29:54.
