data_PCOD8245204
_publ_section_title
;
Structure prediction by ZEFSAII (Michael W. Deem and Ramdas Pophale) SiO2 
 PCOD8245204
Probable space group: P M M N
;
_chemical_formula_sum "Si O2"
_cell_formula_units_Z 48
_cell_length_a 9.586602
_cell_length_b 9.095803
_cell_length_c 29.143719
_cell_angle_alpha 90.000000
_cell_angle_beta 90.000000
_cell_angle_gamma 90.000000
_cell_volume 2541.269441
_symmetry_space_group_name_H-M "P M M N"
_symmetry_group_IT_number 59
_space_group.IT_coordinate_system_code '2'
_symmetry_cell_setting 'orthorhombic'
loop_
_space_group_symop_operation_xyz
x,y,z
1/2-x,1/2-y,z
1/2+x,-y,-z
-x,1/2+y,-z
-x,-y,-z
1/2+x,1/2+y,-z
1/2-x,y,z
x,1/2-y,z
loop_
_atom_site_type_symbol
_atom_site_label
_atom_site_fract_x
_atom_site_fract_y
_atom_site_fract_z
Si Si1 0.589215 0.923112 0.128290
Si Si2 0.592015 0.577280 0.797328
Si Si3 0.250000 0.921812 0.452513
Si Si4 0.412677 0.576460 0.039712
Si Si5 0.587203 0.916430 0.692453
Si Si6 0.009588 0.077223 0.607152
Si Si7 0.250000 0.575974 0.554711
O O1 0.750000 0.975421 0.120585
O O2 0.584979 0.750000 0.135262
O O3 0.490650 0.971223 0.086205
O O4 0.524874 0.996434 0.173199
O O5 0.750000 0.523647 0.809242
O O6 0.581716 0.750000 0.806270
O O7 0.556333 0.539339 0.744795
O O8 0.250000 0.750000 0.460082
O O9 0.378684 0.971965 0.422486
O O10 0.250000 0.993979 0.503286
O O11 0.250000 0.524269 0.040611
O O12 0.420270 0.750000 0.032136
O O13 0.500000 0.500000 0.000000
O O14 0.750000 0.929879 0.682216
O O15 0.536344 0.750000 0.682984
O O16 0.505677 0.029963 0.660091
O O17 0.042842 0.250000 0.605287
O O18 0.122739 0.980341 0.583329
O O19 0.250000 0.750000 0.552633
#
# Coordination Sequence:
#
# PCOD8245204 Si02
#       7
#     8   8   4   8   8   8   4
#     4  10  21  37  56  81 114 150 189 233 281 333
#     4   9  19  36  58  83 110 141 183 231 276 330
#     4   9  20  37  59  83 111 141 183 231 276 329
#     4  10  21  37  58  84 114 151 194 238 285 337
#     4   9  18  35  58  83 109 142 185 228 275 336
#     4  11  21  37  58  84 113 143 181 231 281 331
#     4  11  23  39  55  79 113 151 185 223 274 333
#
# _framework density 18.888197999999999
#
# number of rings (size 3 to 8) (size 9 to 14) (size 15 to 20)
#    0.000    2.167    0.833    3.250    0.000    3.667 
#    1.500    4.167    0.000    0.000    0.000    0.000 
#    0.000    0.000    0.000    0.000    0.000    0.000 
#
# Total GULP energy -595045.180652 kJ/mol
# GULP energy per Si atom -12396.774597 kJ/mol
# Density = 1.884521 g / cm^3
# Si number density = 18.888198 Si / 1000 Ang^3
#
#
#
# Elastic Constant Matrix: (Units=GPa)
#
#
# Indices 1 2 3 4 5 6 
#
# 1 144.0921 41.3526 74.2503 0.0000 0.0000 0.0000
# 2 41.3526 50.8072 46.2125 0.0000 0.0000 0.0000
# 3 74.2503 46.2125 140.2605 0.0000 0.0000 0.0000
# 4 0.0000 0.0000 0.0000 31.8015 0.0000 0.0000
# 5 0.0000 0.0000 0.0000 0.0000 23.8124 0.0000
# 6 0.0000 0.0000 0.0000 0.0000 0.0000 29.5458
#
#
#
# Elastic Compliance Matrix: (Units=1/GPa)
#
#
# Indices 1 2 3 4 5 6 
#
# 1 0.010334 -0.004905 -0.003854 0.000000 0.000000 0.000000
# 2 -0.004905 0.030433 -0.007430 0.000000 0.000000 0.000000
# 3 -0.003854 -0.007430 0.011618 0.000000 0.000000 0.000000
# 4 0.000000 0.000000 0.000000 0.031445 0.000000 0.000000
# 5 0.000000 0.000000 0.000000 0.000000 0.041995 0.000000
# 6 0.000000 0.000000 0.000000 0.000000 0.000000 0.033846
#
#
# Mechanical properties :
#
#
# Convention : Reuss Voigt Hill
#
# Bulk Modulus (GPa) = 49.98657 73.19896 61.59276
# Shear Modulus (GPa) = 25.16124 28.58824 26.87474
#
# Velocity S-wave (km/s) = 3.65377 3.89466 3.77614
# Velocity P-wave (km/s) = 6.65748 7.68521 7.18973
#
# Compressibility (1/GPa) = 0.02000537
#
# Stress axis : x y z
#
# Youngs Moduli (GPa) = 96.76953 32.85925 86.07245
#
# Poissons Ratio (x) = 0.16117 0.33176
# Poissons Ratio (y) = 0.47465 0.63955
# Poissons Ratio (z) = 0.37299 0.24415
#
# Static dielectric constant tensor:
#      x y z
#    x 3.498580 0.000000 0.000000 
#    y 0.000000 3.289530 0.000000 
#    z 0.000000 0.000000 3.643350 
# 
# 
# High freq. dielectric constant tensor:
#      x y z
#    x 1.737180 0.000000 0.000000 
#    y 0.000000 1.721550 0.000000 
#    z 0.000000 0.000000 1.747390 
# 
# From -- ./inp_files/33066.got.cif
#   From: 2010.03.12/outbox.cif.g09.slc.cpg/sg59_17_cif.got.tgz:33066.got - 2010.04.16 16:29:54.
