data_PCOD8245246
_publ_section_title
;
Structure prediction by ZEFSAII (Michael W. Deem and Ramdas Pophale) SiO2 
 PCOD8245246
Probable space group: P M M N
;
_chemical_formula_sum "Si O2"
_cell_formula_units_Z 48
_cell_length_a 9.224100
_cell_length_b 15.518549
_cell_length_c 17.218603
_cell_angle_alpha 90.000000
_cell_angle_beta 90.000000
_cell_angle_gamma 90.000000
_cell_volume 2464.750863
_symmetry_space_group_name_H-M "P M M N"
_symmetry_group_IT_number 59
_space_group.IT_coordinate_system_code '2'
_symmetry_cell_setting 'orthorhombic'
loop_
_space_group_symop_operation_xyz
x,y,z
1/2-x,1/2-y,z
1/2+x,-y,-z
-x,1/2+y,-z
-x,-y,-z
1/2+x,1/2+y,-z
1/2-x,y,z
x,1/2-y,z
loop_
_atom_site_type_symbol
_atom_site_label
_atom_site_fract_x
_atom_site_fract_y
_atom_site_fract_z
Si Si1 0.079974 0.651350 0.693346
Si Si2 0.081305 0.349839 0.697228
Si Si3 0.080167 0.500028 0.580835
Si Si4 0.910402 0.349512 0.846857
Si Si5 0.577499 0.589712 0.005981
Si Si6 0.092314 0.349528 0.160186
O O1 0.250000 0.646818 0.705202
O O2 0.031569 0.750000 0.673358
O O3 0.028616 0.586017 0.626394
O O4 0.014534 0.614490 0.774013
O O5 0.250000 0.359257 0.718403
O O6 0.044517 0.250000 0.676009
O O7 0.039377 0.411910 0.625832
O O8 0.991667 0.385823 0.770957
O O9 0.250000 0.504280 0.564956
O O10 0.000000 0.500000 0.500000
O O11 0.750000 0.392988 0.856703
O O12 0.887787 0.250000 0.832591
O O13 0.010381 0.360366 0.921823
O O14 0.750000 0.582473 0.016966
O O15 0.500000 0.500000 0.000000
O O16 0.533219 0.637840 0.926718
O O17 0.250000 0.394977 0.168388
O O18 0.109525 0.250000 0.176356
#
# Coordination Sequence:
#
# PCOD8245246 Si02
#       6
#     8   8   8   8   8   8
#     4   9  19  36  57  81 111 145 181 224 275 331
#     4   9  19  37  59  82 111 148 188 231 280 335
#     4  10  22  38  57  84 112 143 181 224 279 340
#     4  10  21  37  57  82 111 146 190 236 284 338
#     4  11  23  36  52  79 114 151 191 235 282 331
#     4   9  19  36  56  78 105 141 185 229 274 325
#
# _framework density 19.474585000000001
#
# number of rings (size 3 to 8) (size 9 to 14) (size 15 to 20)
#    0.000    2.333    0.000    1.500    2.333    5.000 
#    0.000    1.667    0.000    0.000    0.000    0.000 
#    0.000    0.000    0.000    0.000    0.000    0.000 
#
# Total GULP energy -594956.970428 kJ/mol
# GULP energy per Si atom -12394.936884 kJ/mol
# Density = 1.943026 g / cm^3
# Si number density = 19.474585 Si / 1000 Ang^3
#
#
#
# Elastic Constant Matrix: (Units=GPa)
#
#
# Indices 1 2 3 4 5 6 
#
# 1 84.5980 38.3890 78.0760 0.0000 0.0000 0.0000
# 2 38.3890 81.6890 60.9412 0.0000 0.0000 0.0000
# 3 78.0760 60.9412 188.2414 0.0000 0.0000 0.0000
# 4 0.0000 0.0000 0.0000 31.4386 0.0000 0.0000
# 5 0.0000 0.0000 0.0000 0.0000 41.0834 0.0000
# 6 0.0000 0.0000 0.0000 0.0000 0.0000 20.5886
#
#
#
# Elastic Compliance Matrix: (Units=1/GPa)
#
#
# Indices 1 2 3 4 5 6 
#
# 1 0.020227 -0.004281 -0.007004 0.000000 0.000000 0.000000
# 2 -0.004281 0.017045 -0.003743 0.000000 0.000000 0.000000
# 3 -0.007004 -0.003743 0.009429 0.000000 0.000000 0.000000
# 4 0.000000 0.000000 0.000000 0.031808 0.000000 0.000000
# 5 0.000000 0.000000 0.000000 0.000000 0.024341 0.000000
# 6 0.000000 0.000000 0.000000 0.000000 0.000000 0.048571
#
#
# Mechanical properties :
#
#
# Convention : Reuss Voigt Hill
#
# Bulk Modulus (GPa) = 60.07088 78.81565 69.44326
# Shear Modulus (GPa) = 26.73466 30.43025 28.58245
#
# Velocity S-wave (km/s) = 3.70915 3.95721 3.83519
# Velocity P-wave (km/s) = 7.01829 7.83826 7.43958
#
# Compressibility (1/GPa) = 0.01664700
#
# Stress axis : x y z
#
# Youngs Moduli (GPa) = 49.43968 58.66695 106.05755
#
# Poissons Ratio (x) = 0.25113 0.74278
# Poissons Ratio (y) = 0.21163 0.39695
# Poissons Ratio (z) = 0.34625 0.21958
#
# Static dielectric constant tensor:
#      x y z
#    x 3.800650 0.000000 0.000000 
#    y 0.000000 15.409840 0.000000 
#    z 0.000000 0.000000 3.909590 
# 
# 
# High freq. dielectric constant tensor:
#      x y z
#    x 1.758570 0.000000 0.000000 
#    y 0.000000 1.759750 0.000000 
#    z 0.000000 0.000000 1.756790 
# 
# From -- ./inp_files/20475.got.cif
#   From: 2010.03.12/outbox.cif.g09.slc.cpg/sg59_11_cif.got.tgz:20475.got - 2010.04.16 16:29:54.
