data_PCOD8245627
_publ_section_title
;
Structure prediction by ZEFSAII (Michael W. Deem and Ramdas Pophale) SiO2 
 PCOD8245627
Probable space group: P M M N
;
_chemical_formula_sum "Si O2"
_cell_formula_units_Z 48
_cell_length_a 8.778054
_cell_length_b 17.693671
_cell_length_c 15.782942
_cell_angle_alpha 90.000000
_cell_angle_beta 90.000000
_cell_angle_gamma 90.000000
_cell_volume 2451.343412
_symmetry_space_group_name_H-M "P M M N"
_symmetry_group_IT_number 59
_space_group.IT_coordinate_system_code '2'
_symmetry_cell_setting 'orthorhombic'
loop_
_space_group_symop_operation_xyz
x,y,z
1/2-x,1/2-y,z
1/2+x,-y,-z
-x,1/2+y,-z
-x,-y,-z
1/2+x,1/2+y,-z
1/2-x,y,z
x,1/2-y,z
loop_
_atom_site_type_symbol
_atom_site_label
_atom_site_fract_x
_atom_site_fract_y
_atom_site_fract_z
Si Si1 0.925496 0.250000 0.106472
Si Si2 0.076503 0.966246 0.127042
Si Si3 0.571764 0.750000 0.713813
Si Si4 0.422571 0.115427 0.019043
Si Si5 0.927931 0.961636 0.308049
Si Si6 0.428119 0.838169 0.421450
Si Si7 0.072146 0.881692 0.608217
O O1 0.750000 0.250000 0.134726
O O2 0.032534 0.250000 0.187785
O O3 0.959740 0.322127 0.049355
O O4 0.250000 0.937080 0.126003
O O5 0.019387 0.972464 0.222177
O O6 0.063635 0.047837 0.085202
O O7 0.971360 0.908328 0.075349
O O8 0.750000 0.750000 0.702083
O O9 0.508828 0.673923 0.672971
O O10 0.250000 0.146459 0.015317
O O11 0.750000 0.958692 0.287262
O O12 0.977793 0.884004 0.351937
O O13 0.967902 0.031984 0.369176
O O14 0.250000 0.855525 0.410049
O O15 0.463903 0.750000 0.408957
O O16 0.485745 0.864637 0.513629
O O17 0.250000 0.864549 0.615308
#
# Coordination Sequence:
#
# PCOD8245627 Si02
#       7
#     4   8   4   8   8   8   8
#     4  12  24  38  58  87 122 159 196 236 292 359
#     4  10  21  39  62  87 118 157 198 241 294 355
#     4  12  24  36  58  91 124 157 198 252 300 347
#     4  10  21  39  63  89 120 153 194 247 297 348
#     4  11  23  37  60  91 120 155 202 252 296 351
#     4  10  21  40  63  84 117 161 201 246 302 359
#     4  10  21  40  62  86 120 160 199 243 303 364
#
# _framework density 19.581098999999998
#
# number of rings (size 3 to 8) (size 9 to 14) (size 15 to 20)
#    0.000    1.500    0.833    4.500    0.000    7.000 
#    1.500    0.000    0.000    0.000    0.000    0.000 
#    0.000    0.000    0.000    0.000    0.000    0.000 
#
# Total GULP energy -595478.753376 kJ/mol
# GULP energy per Si atom -12405.807362 kJ/mol
# Density = 1.953653 g / cm^3
# Si number density = 19.581099 Si / 1000 Ang^3
#
#
#
# Elastic Constant Matrix: (Units=GPa)
#
#
# Indices 1 2 3 4 5 6 
#
# 1 68.2590 41.8282 37.7965 0.0000 0.0000 0.0000
# 2 41.8282 86.2934 33.9381 0.0000 0.0000 0.0000
# 3 37.7965 33.9381 74.0637 0.0000 0.0000 0.0000
# 4 0.0000 0.0000 0.0000 17.0647 0.0000 0.0000
# 5 0.0000 0.0000 0.0000 0.0000 33.7455 0.0000
# 6 0.0000 0.0000 0.0000 0.0000 0.0000 18.1469
#
#
#
# Elastic Compliance Matrix: (Units=1/GPa)
#
#
# Indices 1 2 3 4 5 6 
#
# 1 0.024704 -0.008559 -0.008685 0.000000 0.000000 0.000000
# 2 -0.008559 0.017101 -0.003468 0.000000 0.000000 0.000000
# 3 -0.008685 -0.003468 0.019523 0.000000 0.000000 0.000000
# 4 0.000000 0.000000 0.000000 0.058601 0.000000 0.000000
# 5 0.000000 0.000000 0.000000 0.000000 0.029634 0.000000
# 6 0.000000 0.000000 0.000000 0.000000 0.000000 0.055106
#
#
# Mechanical properties :
#
#
# Convention : Reuss Voigt Hill
#
# Bulk Modulus (GPa) = 50.24175 50.63796 50.43985
# Shear Modulus (GPa) = 19.78414 21.46164 20.62289
#
# Velocity S-wave (km/s) = 3.18208 3.31424 3.24883
# Velocity P-wave (km/s) = 6.26217 6.36886 6.31574
#
# Compressibility (1/GPa) = 0.01990377
#
# Stress axis : x y z
#
# Youngs Moduli (GPa) = 40.47940 58.47581 51.22037
#
# Poissons Ratio (x) = 0.50048 0.44486
# Poissons Ratio (y) = 0.34645 0.17766
# Poissons Ratio (z) = 0.35157 0.20282
#
# Static dielectric constant tensor:
#      x y z
#    x 3.609360 0.000000 0.000000 
#    y 0.000000 3.600760 0.000000 
#    z 0.000000 0.000000 3.592160 
# 
# 
# High freq. dielectric constant tensor:
#      x y z
#    x 1.768520 0.000000 0.000000 
#    y 0.000000 1.765480 0.000000 
#    z 0.000000 0.000000 1.769000 
# 
# From -- ./inp_files/20486.got.cif
#   From: 2010.03.12/outbox.cif.g09.slc.cpg/sg59_11_cif.got.tgz:20486.got - 2010.04.16 16:29:54.
