data_PCOD8245845
_publ_section_title
;
Structure prediction by ZEFSAII (Michael W. Deem and Ramdas Pophale) SiO2 
 PCOD8245845
Probable space group: P M M N
;
_chemical_formula_sum "Si O2"
_cell_formula_units_Z 56
_cell_length_a 8.722997
_cell_length_b 15.231147
_cell_length_c 21.257932
_cell_angle_alpha 90.000000
_cell_angle_beta 90.000000
_cell_angle_gamma 90.000000
_cell_volume 2824.355409
_symmetry_space_group_name_H-M "P M M N"
_symmetry_group_IT_number 59
_space_group.IT_coordinate_system_code '2'
_symmetry_cell_setting 'orthorhombic'
loop_
_space_group_symop_operation_xyz
x,y,z
1/2-x,1/2-y,z
1/2+x,-y,-z
-x,1/2+y,-z
-x,-y,-z
1/2+x,1/2+y,-z
1/2-x,y,z
x,1/2-y,z
loop_
_atom_site_type_symbol
_atom_site_label
_atom_site_fract_x
_atom_site_fract_y
_atom_site_fract_z
Si Si1 0.569725 0.505457 0.346708
Si Si2 0.428096 0.350829 0.418679
Si Si3 0.930687 0.096128 0.001459
Si Si4 0.425546 0.348808 0.876535
Si Si5 0.925676 0.848583 0.872228
Si Si6 0.432568 0.152638 0.559958
Si Si7 0.428867 0.990203 0.212157
O O1 0.750000 0.511239 0.349652
O O2 0.518108 0.409923 0.369163
O O3 0.498726 0.581053 0.391970
O O4 0.518786 0.523628 0.276237
O O5 0.250000 0.373581 0.412898
O O6 0.459208 0.250000 0.400694
O O7 0.488333 0.370227 0.489305
O O8 0.750000 0.092547 0.990087
O O9 0.009824 0.152654 0.947085
O O10 0.965678 0.141389 0.067735
O O11 0.000000 0.000000 0.000000
O O12 0.250000 0.382214 0.876415
O O13 0.435734 0.250000 0.849644
O O14 0.528573 0.411988 0.834544
O O15 0.750000 0.867570 0.892467
O O16 0.943963 0.750000 0.845231
O O17 0.976491 0.916613 0.818297
O O18 0.250000 0.152915 0.560383
O O19 0.491856 0.250000 0.579149
O O20 0.250000 0.987126 0.226802
#
# Coordination Sequence:
#
# PCOD8245845 Si02
#       7
#     8   8   8   8   8   8   8
#     4  11  22  35  56  85 118 153 191 239 293 347
#     4   9  18  35  59  84 112 149 193 238 286 345
#     4  12  23  37  62  92 122 153 189 239 295 349
#     4  11  24  42  64  89 119 155 194 241 297 351
#     4  10  22  41  63  86 113 149 194 244 298 351
#     4   8  16  33  57  84 113 148 190 235 288 349
#     4  11  24  41  60  83 116 160 202 243 286 342
#
# _framework density 19.827532999999999
#
# number of rings (size 3 to 8) (size 9 to 14) (size 15 to 20)
#    0.000    1.714    1.429    4.286    0.000    5.143 
#    0.000    3.571    0.000    3.000    0.000    0.000 
#    0.000    0.000    0.000    0.000    0.000    0.000 
#
# Total GULP energy -694560.573045 kJ/mol
# GULP energy per Si atom -12402.867376 kJ/mol
# Density = 1.978240 g / cm^3
# Si number density = 19.827533 Si / 1000 Ang^3
#
#
#
# Elastic Constant Matrix: (Units=GPa)
#
#
# Indices 1 2 3 4 5 6 
#
# 1 49.1589 23.5414 11.5395 0.0000 0.0000 0.0000
# 2 23.5414 100.7070 24.0819 0.0000 0.0000 0.0000
# 3 11.5395 24.0819 67.2104 0.0000 0.0000 0.0000
# 4 0.0000 0.0000 0.0000 14.2566 0.0000 0.0000
# 5 0.0000 0.0000 0.0000 0.0000 32.3889 0.0000
# 6 0.0000 0.0000 0.0000 0.0000 0.0000 26.6938
#
#
#
# Elastic Compliance Matrix: (Units=1/GPa)
#
#
# Indices 1 2 3 4 5 6 
#
# 1 0.023209 -0.004892 -0.002232 0.000000 0.000000 0.000000
# 2 -0.004892 0.011891 -0.003421 0.000000 0.000000 0.000000
# 3 -0.002232 -0.003421 0.016488 0.000000 0.000000 0.000000
# 4 0.000000 0.000000 0.000000 0.070143 0.000000 0.000000
# 5 0.000000 0.000000 0.000000 0.000000 0.030875 0.000000
# 6 0.000000 0.000000 0.000000 0.000000 0.000000 0.037462
#
#
# Mechanical properties :
#
#
# Convention : Reuss Voigt Hill
#
# Bulk Modulus (GPa) = 32.78849 37.26690 35.02769
# Shear Modulus (GPa) = 22.59153 25.19545 23.89349
#
# Velocity S-wave (km/s) = 3.37916 3.56860 3.47517
# Velocity P-wave (km/s) = 5.63895 5.98466 5.81438
#
# Compressibility (1/GPa) = 0.03049851
#
# Stress axis : x y z
#
# Youngs Moduli (GPa) = 43.08749 84.09531 60.65165
#
# Poissons Ratio (x) = 0.41135 0.13538
# Poissons Ratio (y) = 0.21076 0.20748
# Poissons Ratio (z) = 0.09617 0.28768
#
# Static dielectric constant tensor:
#      x y z
#    x 3.484000 0.000000 0.000000 
#    y 0.000000 3.865630 0.000000 
#    z 0.000000 0.000000 3.586190 
# 
# 
# High freq. dielectric constant tensor:
#      x y z
#    x 1.761670 0.000000 0.000000 
#    y 0.000000 1.787210 0.000000 
#    z 0.000000 0.000000 1.767410 
# 
# From -- ./inp_files/28993.got.cif
#   From: 2010.03.12/outbox.cif.g09.slc.cpg/sg59_15_cif.got.tgz:28993.got - 2010.04.16 16:29:54.
