data_PCOD8245474
_publ_section_title
;
Structure prediction by ZEFSAII (Michael W. Deem and Ramdas Pophale) SiO2 
 PCOD8245474
Probable space group: P M M N
;
_chemical_formula_sum "Si O2"
_cell_formula_units_Z 40
_cell_length_a 25.213977
_cell_length_b 8.841647
_cell_length_c 9.542663
_cell_angle_alpha 90.000000
_cell_angle_beta 90.000000
_cell_angle_gamma 90.000000
_cell_volume 2127.375293
_symmetry_space_group_name_H-M "P M M N"
_symmetry_group_IT_number 59
_space_group.IT_coordinate_system_code '2'
_symmetry_cell_setting 'orthorhombic'
loop_
_space_group_symop_operation_xyz
x,y,z
1/2-x,1/2-y,z
1/2+x,-y,-z
-x,1/2+y,-z
-x,-y,-z
1/2+x,1/2+y,-z
1/2-x,y,z
x,1/2-y,z
loop_
_atom_site_type_symbol
_atom_site_label
_atom_site_fract_x
_atom_site_fract_y
_atom_site_fract_z
Si Si1 0.750000 0.072342 0.608367
Si Si2 0.661735 0.422773 0.093216
Si Si3 0.459345 0.574231 0.894740
Si Si4 0.544142 0.928791 0.403803
Si Si5 0.750000 0.572922 0.911873
Si Si6 0.653434 0.427833 0.412913
O O1 0.750000 0.250000 0.632605
O O2 0.801152 0.022291 0.519966
O O3 0.750000 0.994715 0.757519
O O4 0.679712 0.250000 0.072041
O O5 0.600560 0.445033 0.048600
O O6 0.670557 0.471145 0.254815
O O7 0.697309 0.525544 0.994205
O O8 0.472767 0.750000 0.871794
O O9 0.466251 0.486405 0.751324
O O10 0.500000 0.500000 0.000000
O O11 0.540229 0.750000 0.408658
O O12 0.500000 0.000000 0.500000
O O13 0.601443 0.981387 0.459030
O O14 0.750000 0.750000 0.895835
O O15 0.640609 0.250000 0.419033
#
# Coordination Sequence:
#
# PCOD8245474 Si02
#       6
#     4   8   8   8   4   8
#     4  10  21  38  60  82 110 146 181 224 282 338
#     4   9  19  38  61  81 107 144 184 224 274 335
#     4  10  21  38  60  86 114 147 187 232 280 334
#     4  11  22  37  58  84 115 151 188 231 279 330
#     4  12  25  36  52  82 116 146 183 230 274 320
#     4   9  19  38  62  85 107 140 187 232 276 334
#
# _framework density 18.802513000000001
#
# number of rings (size 3 to 8) (size 9 to 14) (size 15 to 20)
#    0.000    2.000    0.000    5.100    0.000    8.000 
#    0.000    3.000    0.000    0.000    0.000    0.000 
#    0.000    0.000    0.000    0.000    0.000    0.000 
#
# Total GULP energy -496109.081699 kJ/mol
# GULP energy per Si atom -12402.727042 kJ/mol
# Density = 1.875972 g / cm^3
# Si number density = 18.802513 Si / 1000 Ang^3
#
#
#
# Elastic Constant Matrix: (Units=GPa)
#
#
# Indices 1 2 3 4 5 6 
#
# 1 151.4273 78.2705 96.0427 0.0000 0.0000 0.0000
# 2 78.2705 99.0197 56.9859 0.0000 0.0000 0.0000
# 3 96.0427 56.9859 118.5659 0.0000 0.0000 0.0000
# 4 0.0000 0.0000 0.0000 30.3617 0.0000 0.0000
# 5 0.0000 0.0000 0.0000 0.0000 38.1016 0.0000
# 6 0.0000 0.0000 0.0000 0.0000 0.0000 36.4800
#
#
#
# Elastic Compliance Matrix: (Units=1/GPa)
#
#
# Indices 1 2 3 4 5 6 
#
# 1 0.016882 -0.007568 -0.010038 0.000000 0.000000 0.000000
# 2 -0.007568 0.017353 -0.002210 0.000000 0.000000 0.000000
# 3 -0.010038 -0.002210 0.017627 0.000000 0.000000 0.000000
# 4 0.000000 0.000000 0.000000 0.032936 0.000000 0.000000
# 5 0.000000 0.000000 0.000000 0.000000 0.026246 0.000000
# 6 0.000000 0.000000 0.000000 0.000000 0.000000 0.027412
#
#
# Mechanical properties :
#
#
# Convention : Reuss Voigt Hill
#
# Bulk Modulus (GPa) = 81.75975 92.40123 87.08049
# Shear Modulus (GPa) = 27.44780 30.16958 28.80869
#
# Velocity S-wave (km/s) = 3.82487 4.01003 3.91854
# Velocity P-wave (km/s) = 7.94254 8.40774 8.17845
#
# Compressibility (1/GPa) = 0.01223096
#
# Stress axis : x y z
#
# Youngs Moduli (GPa) = 59.23540 57.62768 56.73013
#
# Poissons Ratio (x) = 0.43610 0.56944
# Poissons Ratio (y) = 0.44827 0.12538
# Poissons Ratio (z) = 0.59459 0.12737
#
# Static dielectric constant tensor:
#      x y z
#    x 3.637420 0.000000 0.000000 
#    y 0.000000 3.445920 0.000000 
#    z 0.000000 0.000000 3.443330 
# 
# 
# High freq. dielectric constant tensor:
#      x y z
#    x 1.743480 0.000000 0.000000 
#    y 0.000000 1.731260 0.000000 
#    z 0.000000 0.000000 1.729960 
# 
# From -- ./inp_files/5949.got.cif
#   From: 2010.03.12/outbox.cif.g09.slc.cpg/sg59_3_cif.got.tgz:5949.got - 2010.04.16 16:29:54.
