data_PCOD8245283
_publ_section_title
;
Structure prediction by ZEFSAII (Michael W. Deem and Ramdas Pophale) SiO2 
 PCOD8245283
Probable space group: P M M N
;
_chemical_formula_sum "Si O2"
_cell_formula_units_Z 64
_cell_length_a 8.899301
_cell_length_b 23.877622
_cell_length_c 15.459626
_cell_angle_alpha 90.000000
_cell_angle_beta 90.000000
_cell_angle_gamma 90.000000
_cell_volume 3285.080014
_symmetry_space_group_name_H-M "P M M N"
_symmetry_group_IT_number 59
_space_group.IT_coordinate_system_code '2'
_symmetry_cell_setting 'orthorhombic'
loop_
_space_group_symop_operation_xyz
x,y,z
1/2-x,1/2-y,z
1/2+x,-y,-z
-x,1/2+y,-z
-x,-y,-z
1/2+x,1/2+y,-z
1/2-x,y,z
x,1/2-y,z
loop_
_atom_site_type_symbol
_atom_site_label
_atom_site_fract_x
_atom_site_fract_y
_atom_site_fract_z
Si Si1 0.426961 0.685700 0.493287
Si Si2 0.076685 0.378995 0.352385
Si Si3 0.928981 0.687589 0.000436
Si Si4 0.423536 0.996076 0.408027
Si Si5 0.922626 0.886744 0.348008
Si Si6 0.427723 0.499848 0.093427
Si Si7 0.077472 0.108535 0.846565
Si Si8 0.928182 0.881955 0.839198
O O1 0.250000 0.680334 0.483444
O O2 0.478969 0.750000 0.500023
O O3 0.475530 0.653370 0.579317
O O4 0.500922 0.658790 0.409008
O O5 0.250000 0.362527 0.368582
O O6 0.055740 0.445646 0.358572
O O7 0.021188 0.361649 0.256217
O O8 0.750000 0.689201 0.998288
O O9 0.995740 0.750000 0.006610
O O10 0.993073 0.659392 0.912764
O O11 0.984577 0.653316 0.084219
O O12 0.250000 0.980626 0.420688
O O13 0.500887 0.947315 0.353337
O O14 0.500000 0.000000 0.500000
O O15 0.750000 0.892886 0.376843
O O16 0.937316 0.865430 0.249311
O O17 0.250000 0.500164 0.083312
O O18 0.478958 0.552832 0.148835
O O19 0.485756 0.444682 0.143000
O O20 0.500000 0.500000 0.000000
O O21 0.250000 0.093100 0.867766
O O22 0.750000 0.881878 0.843152
#
# Coordination Sequence:
#
# PCOD8245283 Si02
#       8
#     8   8   8   8   8   8   8   8
#     4  11  25  43  61  82 113 155 198 244 297 350
#     4  10  21  37  60  88 114 148 192 239 291 347
#     4   9  17  32  55  81 111 147 188 236 283 329
#     4  11  21  35  58  87 120 152 188 235 290 353
#     4  11  23  38  60  88 118 154 195 244 295 348
#     4  11  20  34  58  86 119 155 190 235 290 346
#     4  10  21  37  57  86 118 149 193 239 286 347
#     4   9  18  33  55  85 116 145 185 234 282 338
#
# _framework density 19.482023000000002
#
# number of rings (size 3 to 8) (size 9 to 14) (size 15 to 20)
#    0.000    1.750    2.500    2.250    0.000    4.500 
#    0.000    3.750    0.000    0.375    0.000    0.000 
#    0.000    0.000    0.000    0.000    0.000    0.000 
#
# Total GULP energy -793695.083765 kJ/mol
# GULP energy per Si atom -12401.485684 kJ/mol
# Density = 1.943768 g / cm^3
# Si number density = 19.482023 Si / 1000 Ang^3
#
#
#
# Elastic Constant Matrix: (Units=GPa)
#
#
# Indices 1 2 3 4 5 6 
#
# 1 71.0135 37.5181 33.9763 0.0000 0.0000 0.0000
# 2 37.5181 130.4683 53.4599 0.0000 0.0000 0.0000
# 3 33.9763 53.4599 144.5996 0.0000 0.0000 0.0000
# 4 0.0000 0.0000 0.0000 13.4980 0.0000 0.0000
# 5 0.0000 0.0000 0.0000 0.0000 20.4308 0.0000
# 6 0.0000 0.0000 0.0000 0.0000 0.0000 26.4710
#
#
#
# Elastic Compliance Matrix: (Units=1/GPa)
#
#
# Indices 1 2 3 4 5 6 
#
# 1 0.017420 -0.003927 -0.002641 0.000000 0.000000 0.000000
# 2 -0.003927 0.009918 -0.002744 0.000000 0.000000 0.000000
# 3 -0.002641 -0.002744 0.008551 0.000000 0.000000 0.000000
# 4 0.000000 0.000000 0.000000 0.074085 0.000000 0.000000
# 5 0.000000 0.000000 0.000000 0.000000 0.048946 0.000000
# 6 0.000000 0.000000 0.000000 0.000000 0.000000 0.037777
#
#
# Mechanical properties :
#
#
# Convention : Reuss Voigt Hill
#
# Bulk Modulus (GPa) = 57.92309 66.22113 62.07211
# Shear Modulus (GPa) = 22.61647 26.82176 24.71912
#
# Velocity S-wave (km/s) = 3.41088 3.71448 3.56591
# Velocity P-wave (km/s) = 6.73114 7.24300 6.99176
#
# Compressibility (1/GPa) = 0.01726427
#
# Stress axis : x y z
#
# Youngs Moduli (GPa) = 57.40399 100.82204 116.94781
#
# Poissons Ratio (x) = 0.39595 0.30889
# Poissons Ratio (y) = 0.22544 0.32093
# Poissons Ratio (z) = 0.15162 0.27667
#
# Static dielectric constant tensor:
#      x y z
#    x 3.467270 0.000000 0.000000 
#    y 0.000000 3.736670 0.000000 
#    z 0.000000 0.000000 3.745590 
# 
# 
# High freq. dielectric constant tensor:
#      x y z
#    x 1.735450 0.000000 0.000000 
#    y 0.000000 1.756420 0.000000 
#    z 0.000000 0.000000 1.776420 
# 
# From -- ./inp_files/21424.got.cif
#   From: 2010.03.12/outbox.cif.g09.slc.cpg/sg59_11_cif.got.tgz:21424.got - 2010.04.16 16:29:54.
