data_PCOD8245398
_publ_section_title
;
Structure prediction by ZEFSAII (Michael W. Deem and Ramdas Pophale) SiO2 
 PCOD8245398
Probable space group: P M M N
;
_chemical_formula_sum "Si O2"
_cell_formula_units_Z 56
_cell_length_a 21.853814
_cell_length_b 8.741301
_cell_length_c 14.702444
_cell_angle_alpha 90.000000
_cell_angle_beta 90.000000
_cell_angle_gamma 90.000000
_cell_volume 2808.619142
_symmetry_space_group_name_H-M "P M M N"
_symmetry_group_IT_number 59
_space_group.IT_coordinate_system_code '2'
_symmetry_cell_setting 'orthorhombic'
loop_
_space_group_symop_operation_xyz
x,y,z
1/2-x,1/2-y,z
1/2+x,-y,-z
-x,1/2+y,-z
-x,-y,-z
1/2+x,1/2+y,-z
1/2-x,y,z
x,1/2-y,z
loop_
_atom_site_type_symbol
_atom_site_label
_atom_site_fract_x
_atom_site_fract_y
_atom_site_fract_z
Si Si1 0.628400 0.070203 0.131825
Si Si2 0.581013 0.074715 0.778544
Si Si3 0.950248 0.572582 0.292851
Si Si4 0.436750 0.431067 0.030792
Si Si5 0.250000 0.072248 0.816750
Si Si6 0.367720 0.070674 0.541157
Si Si7 0.750000 0.071920 0.375941
Si Si8 0.321735 0.927801 0.369339
O O1 0.638185 0.250000 0.141229
O O2 0.583140 0.019756 0.212705
O O3 0.690988 0.979989 0.130759
O O4 0.608856 0.025273 0.031361
O O5 0.576639 0.250000 0.812200
O O6 0.522897 0.040065 0.712125
O O7 0.645824 0.046387 0.728250
O O8 0.577968 0.962084 0.864008
O O9 0.934911 0.750000 0.276253
O O10 0.925275 0.523698 0.393820
O O11 0.434513 0.250000 0.012410
O O12 0.500000 0.500000 0.000000
O O13 0.250000 0.250000 0.800926
O O14 0.250000 0.993222 0.721862
O O15 0.357087 0.250000 0.546602
O O16 0.308892 0.981257 0.572382
O O17 0.369130 0.017726 0.436179
O O18 0.750000 0.250000 0.369827
O O19 0.250000 0.985443 0.367749
O O20 0.322428 0.750000 0.396201
#
# Coordination Sequence:
#
# PCOD8245398 Si02
#       8
#     8   8   8   8   4   8   4   8
#     4  12  24  39  62  93 127 168 212 257 313 384
#     4  10  22  42  65  89 122 164 211 263 318 377
#     4  10  21  37  60  90 127 165 204 256 317 374
#     4  12  24  41  66  94 124 162 209 261 318 383
#     4  12  24  40  60  89 130 169 206 260 320 376
#     4  11  22  36  59  90 123 162 206 254 310 373
#     4  12  22  34  56  87 122 163 210 252 300 370
#     4  10  22  41  64  89 122 167 214 260 310 368
#
# _framework density 19.938623
#
# number of rings (size 3 to 8) (size 9 to 14) (size 15 to 20)
#    0.000    1.000    3.571    4.286    0.000    1.714 
#    1.286    0.000    0.000    0.000    0.000    0.000 
#    0.000    0.000    0.000    0.000    0.000    0.000 
#
# Total GULP energy -694038.350336 kJ/mol
# GULP energy per Si atom -12393.541970 kJ/mol
# Density = 1.989324 g / cm^3
# Si number density = 19.938623 Si / 1000 Ang^3
#
#
#
# Elastic Constant Matrix: (Units=GPa)
#
#
# Indices 1 2 3 4 5 6 
#
# 1 93.2897 28.3365 34.9357 0.0000 0.0000 0.0000
# 2 28.3365 114.2798 29.4388 0.0000 0.0000 0.0000
# 3 34.9357 29.4388 98.4860 0.0000 0.0000 0.0000
# 4 0.0000 0.0000 0.0000 37.2991 0.0000 0.0000
# 5 0.0000 0.0000 0.0000 0.0000 49.4566 0.0000
# 6 0.0000 0.0000 0.0000 0.0000 0.0000 22.7281
#
#
#
# Elastic Compliance Matrix: (Units=1/GPa)
#
#
# Indices 1 2 3 4 5 6 
#
# 1 0.012843 -0.002179 -0.003905 0.000000 0.000000 0.000000
# 2 -0.002179 0.009850 -0.002171 0.000000 0.000000 0.000000
# 3 -0.003905 -0.002171 0.012188 0.000000 0.000000 0.000000
# 4 0.000000 0.000000 0.000000 0.026810 0.000000 0.000000
# 5 0.000000 0.000000 0.000000 0.000000 0.020220 0.000000
# 6 0.000000 0.000000 0.000000 0.000000 0.000000 0.043998
#
#
# Mechanical properties :
#
#
# Convention : Reuss Voigt Hill
#
# Bulk Modulus (GPa) = 54.43183 54.60862 54.52023
# Shear Modulus (GPa) = 33.66021 36.11970 34.88995
#
# Velocity S-wave (km/s) = 4.11322 4.26084 4.18768
# Velocity P-wave (km/s) = 7.06520 7.18708 7.12640
#
# Compressibility (1/GPa) = 0.01837160
#
# Stress axis : x y z
#
# Youngs Moduli (GPa) = 77.86148 101.52216 82.04872
#
# Poissons Ratio (x) = 0.22119 0.32037
# Poissons Ratio (y) = 0.16964 0.17817
# Poissons Ratio (z) = 0.30402 0.22045
#
# Static dielectric constant tensor:
#      x y z
#    x 3.840380 0.000000 0.000000 
#    y 0.000000 3.876730 0.000000 
#    z 0.000000 0.000000 1.125540 
# 
# 
# High freq. dielectric constant tensor:
#      x y z
#    x 1.780180 0.000000 0.000000 
#    y 0.000000 1.781500 0.000000 
#    z 0.000000 0.000000 1.781330 
# 
# From -- ./inp_files/24404.got.cif
#   From: 2010.03.12/outbox.cif.g09.slc.cpg/sg59_13_cif.got.tgz:24404.got - 2010.04.16 16:29:54.
