data_PCOD8245797
_publ_section_title
;
Structure prediction by ZEFSAII (Michael W. Deem and Ramdas Pophale) SiO2 
 PCOD8245797
Probable space group: P M M N
;
_chemical_formula_sum "Si O2"
_cell_formula_units_Z 40
_cell_length_a 7.508991
_cell_length_b 16.169685
_cell_length_c 15.649044
_cell_angle_alpha 90.000000
_cell_angle_beta 90.000000
_cell_angle_gamma 90.000000
_cell_volume 1900.075924
_symmetry_space_group_name_H-M "P M M N"
_symmetry_group_IT_number 59
_space_group.IT_coordinate_system_code '2'
_symmetry_cell_setting 'orthorhombic'
loop_
_space_group_symop_operation_xyz
x,y,z
1/2-x,1/2-y,z
1/2+x,-y,-z
-x,1/2+y,-z
-x,-y,-z
1/2+x,1/2+y,-z
1/2-x,y,z
x,1/2-y,z
loop_
_atom_site_type_symbol
_atom_site_label
_atom_site_fract_x
_atom_site_fract_y
_atom_site_fract_z
Si Si1 0.453044 0.929295 0.754843
Si Si2 0.548003 0.096270 0.669998
Si Si3 0.250000 0.348564 0.544724
Si Si4 0.750000 0.846400 0.647077
Si Si5 0.952915 0.750000 0.228028
Si Si6 0.962397 0.250000 0.966016
Si Si7 0.957870 0.082085 0.053319
O O1 0.250000 0.896681 0.751952
O O2 0.571493 0.871665 0.695500
O O3 0.533274 0.927473 0.850825
O O4 0.459097 0.021946 0.720930
O O5 0.750000 0.074849 0.640783
O O6 0.429966 0.117402 0.587698
O O7 0.555294 0.170853 0.736782
O O8 0.250000 0.250000 0.549248
O O9 0.250000 0.383843 0.448433
O O10 0.750000 0.750000 0.638454
O O11 0.750000 0.750000 0.262689
O O12 0.952269 0.750000 0.126705
O O13 0.750000 0.250000 0.959747
O O14 0.035478 0.166772 0.012429
O O15 0.750000 0.092621 0.059109
O O16 0.000000 0.000000 0.000000
#
# Coordination Sequence:
#
# PCOD8245797 Si02
#       7
#     8   8   4   4   4   4   8
#     4  11  24  45  68  99 133 177 222 274 332 392
#     4  12  22  40  68  99 134 175 215 273 337 396
#     4  11  24  46  68 100 138 165 222 278 330 401
#     4  11  28  48  70  97 131 178 221 280 334 401
#     4  12  22  38  62  97 140 174 219 270 338 404
#     4  10  22  40  60  92 125 177 223 269 329 400
#     4  10  23  40  63  93 132 172 224 277 326 393
#
# _framework density 21.05179
#
# number of rings (size 3 to 8) (size 9 to 14) (size 15 to 20)
#    0.000    1.000    4.000    2.100    2.800    6.000 
#    0.000    2.000    0.000    0.000    0.000    0.000 
#    0.000    0.000    0.000    0.000    0.000    0.000 
#
# Total GULP energy -496087.039278 kJ/mol
# GULP energy per Si atom -12402.175982 kJ/mol
# Density = 2.100387 g / cm^3
# Si number density = 21.051790 Si / 1000 Ang^3
#
#
#
# Elastic Constant Matrix: (Units=GPa)
#
#
# Indices 1 2 3 4 5 6 
#
# 1 106.4201 11.4716 48.4332 0.0000 0.0000 0.0000
# 2 11.4716 107.7527 55.6187 0.0000 0.0000 0.0000
# 3 48.4332 55.6187 189.1603 0.0000 0.0000 0.0000
# 4 0.0000 0.0000 0.0000 47.0385 0.0000 0.0000
# 5 0.0000 0.0000 0.0000 0.0000 32.1195 0.0000
# 6 0.0000 0.0000 0.0000 0.0000 0.0000 25.7696
#
#
#
# Elastic Compliance Matrix: (Units=1/GPa)
#
#
# Indices 1 2 3 4 5 6 
#
# 1 0.010646 0.000323 -0.002821 0.000000 0.000000 0.000000
# 2 0.000323 0.010951 -0.003302 0.000000 0.000000 0.000000
# 3 -0.002821 -0.003302 0.006980 0.000000 0.000000 0.000000
# 4 0.000000 0.000000 0.000000 0.021259 0.000000 0.000000
# 5 0.000000 0.000000 0.000000 0.000000 0.031134 0.000000
# 6 0.000000 0.000000 0.000000 0.000000 0.000000 0.038805
#
#
# Mechanical properties :
#
#
# Convention : Reuss Voigt Hill
#
# Bulk Modulus (GPa) = 58.90949 70.48668 64.69809
# Shear Modulus (GPa) = 36.48736 40.17284 38.33010
#
# Velocity S-wave (km/s) = 4.16771 4.37313 4.27166
# Velocity P-wave (km/s) = 7.15567 7.68468 7.42489
#
# Compressibility (1/GPa) = 0.01697519
#
# Stress axis : x y z
#
# Youngs Moduli (GPa) = 93.93517 91.31762 143.27217
#
# Poissons Ratio (x) = -0.02945 0.40411
# Poissons Ratio (y) = -0.03030 0.47315
# Poissons Ratio (z) = 0.26495 0.30157
#
# Static dielectric constant tensor:
#      x y z
#    x 3.857030 0.000000 0.000000 
#    y 0.000000 3.688070 0.000000 
#    z 0.000000 0.000000 3.958250 
# 
# 
# High freq. dielectric constant tensor:
#      x y z
#    x 1.829950 0.000000 0.000000 
#    y 0.000000 1.832270 0.000000 
#    z 0.000000 0.000000 1.831780 
# 
# From -- ./inp_files/20053.got.cif
#   From: 2010.03.12/outbox.cif.g09.slc.cpg/sg59_11_cif.got.tgz:20053.got - 2010.04.16 16:29:54.
