data_PCOD8245901
_publ_section_title
;
Structure prediction by ZEFSAII (Michael W. Deem and Ramdas Pophale) SiO2 
 PCOD8245901
Probable space group: P M M N
;
_chemical_formula_sum "Si O2"
_cell_formula_units_Z 64
_cell_length_a 8.429293
_cell_length_b 23.878099
_cell_length_c 15.499788
_cell_angle_alpha 90.000000
_cell_angle_beta 90.000000
_cell_angle_gamma 90.000000
_cell_volume 3119.727467
_symmetry_space_group_name_H-M "P M M N"
_symmetry_group_IT_number 59
_space_group.IT_coordinate_system_code '2'
_symmetry_cell_setting 'orthorhombic'
loop_
_space_group_symop_operation_xyz
x,y,z
1/2-x,1/2-y,z
1/2+x,-y,-z
-x,1/2+y,-z
-x,-y,-z
1/2+x,1/2+y,-z
1/2-x,y,z
x,1/2-y,z
loop_
_atom_site_type_symbol
_atom_site_label
_atom_site_fract_x
_atom_site_fract_y
_atom_site_fract_z
Si Si1 0.567976 0.996661 0.358095
Si Si2 0.934266 0.498582 0.828031
Si Si3 0.435499 0.685211 0.246061
Si Si4 0.064499 0.386787 0.902103
Si Si5 0.933860 0.382297 0.587500
Si Si6 0.434934 0.112742 0.409478
Si Si7 0.560818 0.687132 0.749556
Si Si8 0.436449 0.114330 0.094063
O O1 0.750000 0.981054 0.375717
O O2 0.527693 0.054418 0.404901
O O3 0.539705 0.002180 0.256780
O O4 0.459573 0.948058 0.397459
O O5 0.750000 0.502623 0.801477
O O6 0.986497 0.550140 0.888491
O O7 0.964412 0.441115 0.877237
O O8 0.250000 0.674003 0.231383
O O9 0.474453 0.750000 0.259616
O O10 0.529365 0.664017 0.162344
O O11 0.497673 0.651986 0.329875
O O12 0.250000 0.401933 0.900872
O O13 0.008328 0.368452 0.998008
O O14 0.750000 0.369622 0.572726
O O15 0.028733 0.360905 0.503244
O O16 0.250000 0.101017 0.396825
O O17 0.497890 0.154795 0.335906
O O18 0.750000 0.688376 0.751642
O O19 0.491965 0.750000 0.747703
O O20 0.489550 0.655797 0.833999
O O21 0.250000 0.120227 0.101883
#
# Coordination Sequence:
#
# PCOD8245901 Si02
#       8
#     8   8   8   8   8   8   8   8
#     4  12  23  37  60  90 121 153 193 241 292 352
#     4  11  20  36  60  86 120 160 193 236 296 358
#     4  10  23  43  63  82 113 161 206 244 294 352
#     4  11  22  36  59  92 122 153 195 246 294 346
#     4  11  23  40  62  87 118 155 194 240 296 354
#     4  11  22  38  61  89 121 155 194 240 293 353
#     4   9  18  35  59  85 115 154 198 243 289 339
#     4   9  19  35  57  88 122 156 195 237 290 349
#
# _framework density 20.514612
#
# number of rings (size 3 to 8) (size 9 to 14) (size 15 to 20)
#    0.000    1.500    2.500    3.375    0.000    1.750 
#    0.000    3.125    0.000    1.125    0.000    0.000 
#    0.000    0.000    0.000    0.000    0.000    0.000 
#
# Total GULP energy -793831.393124 kJ/mol
# GULP energy per Si atom -12403.615518 kJ/mol
# Density = 2.046792 g / cm^3
# Si number density = 20.514612 Si / 1000 Ang^3
#
#
#
# Elastic Constant Matrix: (Units=GPa)
#
#
# Indices 1 2 3 4 5 6 
#
# 1 41.1959 11.4221 16.8822 0.0000 0.0000 0.0000
# 2 11.4221 124.6117 56.3338 0.0000 0.0000 0.0000
# 3 16.8822 56.3338 170.1012 0.0000 0.0000 0.0000
# 4 0.0000 0.0000 0.0000 36.5001 0.0000 0.0000
# 5 0.0000 0.0000 0.0000 0.0000 28.0319 0.0000
# 6 0.0000 0.0000 0.0000 0.0000 0.0000 11.4695
#
#
#
# Elastic Compliance Matrix: (Units=1/GPa)
#
#
# Indices 1 2 3 4 5 6 
#
# 1 0.025511 -0.001404 -0.002067 0.000000 0.000000 0.000000
# 2 -0.001404 0.009515 -0.003012 0.000000 0.000000 0.000000
# 3 -0.002067 -0.003012 0.007081 0.000000 0.000000 0.000000
# 4 0.000000 0.000000 0.000000 0.027397 0.000000 0.000000
# 5 0.000000 0.000000 0.000000 0.000000 0.035674 0.000000
# 6 0.000000 0.000000 0.000000 0.000000 0.000000 0.087188
#
#
# Mechanical properties :
#
#
# Convention : Reuss Voigt Hill
#
# Bulk Modulus (GPa) = 34.31505 56.13166 45.22336
# Shear Modulus (GPa) = 23.25090 31.95167 27.60128
#
# Velocity S-wave (km/s) = 3.37023 3.95081 3.67201
# Velocity P-wave (km/s) = 5.64872 6.94500 6.33013
#
# Compressibility (1/GPa) = 0.02914173
#
# Stress axis : x y z
#
# Youngs Moduli (GPa) = 39.19949 105.09487 141.21370
#
# Poissons Ratio (x) = 0.14755 0.29188
# Poissons Ratio (y) = 0.05503 0.42532
# Poissons Ratio (z) = 0.08102 0.31653
#
# Static dielectric constant tensor:
#      x y z
#    x 3.443690 0.000000 0.000000 
#    y 0.000000 3.733890 0.000000 
#    z 0.000000 0.000000 4.054280 
# 
# 
# High freq. dielectric constant tensor:
#      x y z
#    x 1.777400 0.000000 0.000000 
#    y 0.000000 1.795750 0.000000 
#    z 0.000000 0.000000 1.820010 
# 
# From -- ./inp_files/21437.got.cif
#   From: 2010.03.12/outbox.cif.g09.slc.cpg/sg59_11_cif.got.tgz:21437.got - 2010.04.16 16:29:54.
