data_PCOD8245160
_publ_section_title
;
Structure prediction by ZEFSAII (Michael W. Deem and Ramdas Pophale) SiO2 
 PCOD8245160
Probable space group: P M M N
;
_chemical_formula_sum "Si O2"
_cell_formula_units_Z 48
_cell_length_a 9.053763
_cell_length_b 14.120417
_cell_length_c 18.959518
_cell_angle_alpha 90.000000
_cell_angle_beta 90.000000
_cell_angle_gamma 90.000000
_cell_volume 2423.839934
_symmetry_space_group_name_H-M "P M M N"
_symmetry_group_IT_number 59
_space_group.IT_coordinate_system_code '2'
_symmetry_cell_setting 'orthorhombic'
loop_
_space_group_symop_operation_xyz
x,y,z
1/2-x,1/2-y,z
1/2+x,-y,-z
-x,1/2+y,-z
-x,-y,-z
1/2+x,1/2+y,-z
1/2-x,y,z
x,1/2-y,z
loop_
_atom_site_type_symbol
_atom_site_label
_atom_site_fract_x
_atom_site_fract_y
_atom_site_fract_z
Si Si1 0.416740 0.362734 0.518979
Si Si2 0.421847 0.011372 0.109579
Si Si3 0.920392 0.361361 0.658628
Si Si4 0.423962 0.507460 0.747051
Si Si5 0.078396 0.858555 0.619073
Si Si6 0.578881 0.640829 0.021938
O O1 0.250000 0.400889 0.524242
O O2 0.422481 0.250000 0.517218
O O3 0.505057 0.399849 0.586941
O O4 0.491607 0.402291 0.447795
O O5 0.250000 0.999392 0.126627
O O6 0.508567 0.041906 0.179422
O O7 0.482156 0.911239 0.081030
O O8 0.452365 0.094835 0.054033
O O9 0.750000 0.391011 0.657603
O O10 0.941092 0.250000 0.667056
O O11 0.002257 0.408213 0.725022
O O12 0.250000 0.493492 0.754873
O O13 0.466227 0.585838 0.689214
O O14 0.250000 0.868469 0.601318
O O15 0.033352 0.750000 0.632183
O O16 0.750000 0.629570 0.042672
O O17 0.530472 0.750000 0.018783
#
# Coordination Sequence:
#
# PCOD8245160 Si02
#       6
#     8   8   8   8   8   8
#     4   9  17  31  53  79 105 136 179 230 278 324
#     4  10  21  37  57  84 116 144 176 220 264 313
#     4  10  21  37  56  77 104 141 184 230 278 325
#     4  11  23  37  55  80 111 147 182 220 269 321
#     4   9  19  36  55  76 105 142 184 227 271 321
#     4   9  19  38  63  87 111 143 180 216 259 312
#
# _framework density 19.803287999999998
#
# number of rings (size 3 to 8) (size 9 to 14) (size 15 to 20)
#    0.000    2.333    0.000    2.000    0.000    7.333 
#    0.000    0.000    0.000    0.000    0.000    0.000 
#    0.000    0.000    0.000    0.000    0.000    0.000 
#
# Total GULP energy -595414.143422 kJ/mol
# GULP energy per Si atom -12404.461321 kJ/mol
# Density = 1.975822 g / cm^3
# Si number density = 19.803288 Si / 1000 Ang^3
#
#
#
# Elastic Constant Matrix: (Units=GPa)
#
#
# Indices 1 2 3 4 5 6 
#
# 1 90.0926 15.8056 33.5842 0.0000 0.0000 0.0000
# 2 15.8056 57.7037 8.2097 0.0000 0.0000 0.0000
# 3 33.5842 8.2097 88.4104 0.0000 0.0000 0.0000
# 4 0.0000 0.0000 0.0000 23.3103 0.0000 0.0000
# 5 0.0000 0.0000 0.0000 0.0000 43.4148 0.0000
# 6 0.0000 0.0000 0.0000 0.0000 0.0000 25.1605
#
#
#
# Elastic Compliance Matrix: (Units=1/GPa)
#
#
# Indices 1 2 3 4 5 6 
#
# 1 0.013421 -0.002990 -0.004821 0.000000 0.000000 0.000000
# 2 -0.002990 0.018228 -0.000557 0.000000 0.000000 0.000000
# 3 -0.004821 -0.000557 0.013194 0.000000 0.000000 0.000000
# 4 0.000000 0.000000 0.000000 0.042899 0.000000 0.000000
# 5 0.000000 0.000000 0.000000 0.000000 0.023034 0.000000
# 6 0.000000 0.000000 0.000000 0.000000 0.000000 0.039745
#
#
# Mechanical properties :
#
#
# Convention : Reuss Voigt Hill
#
# Bulk Modulus (GPa) = 35.57723 39.04507 37.31115
# Shear Modulus (GPa) = 28.30842 30.28428 29.29635
#
# Velocity S-wave (km/s) = 3.78495 3.91481 3.85043
# Velocity P-wave (km/s) = 6.09142 6.33984 6.21687
#
# Compressibility (1/GPa) = 0.02810786
#
# Stress axis : x y z
#
# Youngs Moduli (GPa) = 74.50829 54.86007 75.79326
#
# Poissons Ratio (x) = 0.16405 0.36537
# Poissons Ratio (y) = 0.22281 0.04220
# Poissons Ratio (z) = 0.35918 0.03054
#
# Static dielectric constant tensor:
#      x y z
#    x 3.673210 0.000000 0.000000 
#    y 0.000000 3.536470 0.000000 
#    z 0.000000 0.000000 3.602160 
# 
# 
# High freq. dielectric constant tensor:
#      x y z
#    x 1.778980 0.000000 0.000000 
#    y 0.000000 1.769290 0.000000 
#    z 0.000000 0.000000 1.771430 
# 
# From -- ./inp_files/25407.got.cif
#   From: 2010.03.12/outbox.cif.g09.slc.cpg/sg59_13_cif.got.tgz:25407.got - 2010.04.16 16:29:54.
