data_PCOD8245611
_publ_section_title
;
Structure prediction by ZEFSAII (Michael W. Deem and Ramdas Pophale) SiO2 
 PCOD8245611
Probable space group: P M M N
;
_chemical_formula_sum "Si O2"
_cell_formula_units_Z 48
_cell_length_a 17.854098
_cell_length_b 14.155119
_cell_length_c 9.467413
_cell_angle_alpha 90.000000
_cell_angle_beta 90.000000
_cell_angle_gamma 90.000000
_cell_volume 2392.669766
_symmetry_space_group_name_H-M "P M M N"
_symmetry_group_IT_number 59
_space_group.IT_coordinate_system_code '2'
_symmetry_cell_setting 'orthorhombic'
loop_
_space_group_symop_operation_xyz
x,y,z
1/2-x,1/2-y,z
1/2+x,-y,-z
-x,1/2+y,-z
-x,-y,-z
1/2+x,1/2+y,-z
1/2-x,y,z
x,1/2-y,z
loop_
_atom_site_type_symbol
_atom_site_label
_atom_site_fract_x
_atom_site_fract_y
_atom_site_fract_z
Si Si1 0.372354 0.354572 0.981632
Si Si2 0.552598 0.360567 0.725439
Si Si3 0.452274 0.645707 0.963860
Si Si4 0.338972 0.971464 0.459581
Si Si5 0.334222 0.146434 0.287403
Si Si6 0.091410 0.484535 0.750364
O O1 0.342879 0.250000 0.944232
O O2 0.460393 0.355889 0.004861
O O3 0.334228 0.389989 0.125844
O O4 0.353538 0.422101 0.849687
O O5 0.530976 0.250000 0.710106
O O6 0.617904 0.384819 0.614147
O O7 0.478852 0.423618 0.693790
O O8 0.584389 0.381077 0.884173
O O9 0.426116 0.750000 0.914782
O O10 0.435031 0.573820 0.840437
O O11 0.250000 0.957895 0.438462
O O12 0.371152 0.067725 0.387251
O O13 0.358951 0.975707 0.623606
O O14 0.250000 0.159007 0.339577
O O15 0.375101 0.250000 0.299310
#
# Coordination Sequence:
#
# PCOD8245611 Si02
#       6
#     8   8   8   8   8   8
#     4   9  17  31  54  81 106 134 174 229 284 330
#     4  10  21  39  61  82 107 145 191 231 272 331
#     4   9  18  33  56  83 107 136 179 231 282 329
#     4  11  24  38  53  79 116 155 189 225 274 329
#     4   9  18  33  52  74 105 148 190 223 267 334
#     4  11  20  34  57  85 112 140 180 235 288 333
#
# _framework density 20.061271999999999
#
# number of rings (size 3 to 8) (size 9 to 14) (size 15 to 20)
#    0.000    2.167    0.000    6.000    0.000    3.000 
#    0.000    2.500    0.000    1.000    0.000    0.000 
#    0.000    0.000    0.000    0.000    0.000    0.000 
#
# Total GULP energy -594947.760094 kJ/mol
# GULP energy per Si atom -12394.745002 kJ/mol
# Density = 2.001561 g / cm^3
# Si number density = 20.061272 Si / 1000 Ang^3
#
#
#
# Elastic Constant Matrix: (Units=GPa)
#
#
# Indices 1 2 3 4 5 6 
#
# 1 39.5922 18.9450 21.5447 0.0000 0.0000 0.0000
# 2 18.9450 94.3031 46.2918 0.0000 0.0000 0.0000
# 3 21.5447 46.2918 103.5410 0.0000 0.0000 0.0000
# 4 0.0000 0.0000 0.0000 15.5833 0.0000 0.0000
# 5 0.0000 0.0000 0.0000 0.0000 39.2445 0.0000
# 6 0.0000 0.0000 0.0000 0.0000 0.0000 11.5709
#
#
#
# Elastic Compliance Matrix: (Units=1/GPa)
#
#
# Indices 1 2 3 4 5 6 
#
# 1 0.029472 -0.003729 -0.004465 0.000000 0.000000 0.000000
# 2 -0.003729 0.014057 -0.005509 0.000000 0.000000 0.000000
# 3 -0.004465 -0.005509 0.013050 0.000000 0.000000 0.000000
# 4 0.000000 0.000000 0.000000 0.064171 0.000000 0.000000
# 5 0.000000 0.000000 0.000000 0.000000 0.025481 0.000000
# 6 0.000000 0.000000 0.000000 0.000000 0.000000 0.086424
#
#
# Mechanical properties :
#
#
# Convention : Reuss Voigt Hill
#
# Bulk Modulus (GPa) = 34.27829 45.66661 39.97245
# Shear Modulus (GPa) = 18.53318 23.32338 20.92828
#
# Velocity S-wave (km/s) = 3.04275 3.41340 3.23339
# Velocity P-wave (km/s) = 5.42848 6.19258 5.82308
#
# Compressibility (1/GPa) = 0.02917298
#
# Stress axis : x y z
#
# Youngs Moduli (GPa) = 33.93099 71.13655 76.62736
#
# Poissons Ratio (x) = 0.26525 0.34217
# Poissons Ratio (y) = 0.12652 0.42214
# Poissons Ratio (z) = 0.15151 0.39189
#
# Static dielectric constant tensor:
#      x y z
#    x 3.306520 0.000000 0.000000 
#    y 0.000000 3.996540 0.000000 
#    z 0.000000 0.000000 3.780750 
# 
# 
# High freq. dielectric constant tensor:
#      x y z
#    x 1.744120 0.000000 0.000000 
#    y 0.000000 1.791120 0.000000 
#    z 0.000000 0.000000 1.783260 
# 
# From -- ./inp_files/10240.got.cif
#   From: 2010.03.12/outbox.cif.g09.slc.cpg/sg59_6_cif.got.tgz:10240.got - 2010.04.16 16:29:54.
