data_PCOD8245237
_publ_section_title
;
Structure prediction by ZEFSAII (Michael W. Deem and Ramdas Pophale) SiO2 
 PCOD8245237
Probable space group: P M M N
;
_chemical_formula_sum "Si O2"
_cell_formula_units_Z 56
_cell_length_a 13.480688
_cell_length_b 9.606012
_cell_length_c 20.508383
_cell_angle_alpha 90.000000
_cell_angle_beta 90.000000
_cell_angle_gamma 90.000000
_cell_volume 2655.746401
_symmetry_space_group_name_H-M "P M M N"
_symmetry_group_IT_number 59
_space_group.IT_coordinate_system_code '2'
_symmetry_cell_setting 'orthorhombic'
loop_
_space_group_symop_operation_xyz
x,y,z
1/2-x,1/2-y,z
1/2+x,-y,-z
-x,1/2+y,-z
-x,-y,-z
1/2+x,1/2+y,-z
1/2-x,y,z
x,1/2-y,z
loop_
_atom_site_type_symbol
_atom_site_label
_atom_site_fract_x
_atom_site_fract_y
_atom_site_fract_z
Si Si1 0.501930 0.492244 0.225891
Si Si2 0.988193 0.918180 0.433280
Si Si3 0.363189 0.594541 0.659110
Si Si4 0.367780 0.593365 0.001210
Si Si5 0.142719 0.592005 0.329507
Si Si6 0.636550 0.594154 0.116336
Si Si7 0.637505 0.597067 0.881851
O O1 0.569379 0.406113 0.275991
O O2 0.423501 0.585821 0.264799
O O3 0.573490 0.587539 0.182410
O O4 0.435283 0.394309 0.180030
O O5 0.978167 0.750000 0.441668
O O6 0.084072 0.966569 0.391906
O O7 0.893391 0.978059 0.394078
O O8 0.000000 0.000000 0.500000
O O9 0.250000 0.563422 0.679323
O O10 0.373122 0.750000 0.628733
O O11 0.250000 0.593346 0.999740
O O12 0.410807 0.750000 0.000926
O O13 0.407298 0.511880 0.937686
O O14 0.403835 0.515392 0.066440
O O15 0.250000 0.514600 0.322032
O O16 0.164966 0.750000 0.344331
O O17 0.750000 0.554962 0.133224
O O18 0.630057 0.750000 0.087890
O O19 0.750000 0.557635 0.860051
O O20 0.637775 0.750000 0.914630
#
# Coordination Sequence:
#
# PCOD8245237 Si02
#       7
#     8   8   8   8   8   8   8
#     4  11  21  35  57  85 113 147 193 241 285 342
#     4  10  21  38  63  94 125 157 195 239 285 337
#     4  10  22  40  61  86 120 161 200 240 287 338
#     4   9  19  36  57  80 106 140 186 238 290 349
#     4   9  19  36  57  83 117 154 189 228 277 333
#     4  10  21  37  57  81 111 146 185 235 296 356
#     4  10  21  37  57  81 111 146 184 233 295 355
#
# _framework density 21.086351000000001
#
# number of rings (size 3 to 8) (size 9 to 14) (size 15 to 20)
#    0.000    2.143    0.000    2.571    0.000    6.000 
#    0.000    4.286    0.000    8.143    0.000    0.000 
#    0.000    0.000    0.000    0.000    0.000    0.000 
#
# Total GULP energy -694088.941027 kJ/mol
# GULP energy per Si atom -12394.445375 kJ/mol
# Density = 2.103836 g / cm^3
# Si number density = 21.086351 Si / 1000 Ang^3
#
#
#
# Elastic Constant Matrix: (Units=GPa)
#
#
# Indices 1 2 3 4 5 6 
#
# 1 131.2296 41.9793 62.1929 0.0000 0.0000 0.0000
# 2 41.9793 125.3379 59.7340 0.0000 0.0000 0.0000
# 3 62.1929 59.7340 145.5642 0.0000 0.0000 0.0000
# 4 0.0000 0.0000 0.0000 31.6221 0.0000 0.0000
# 5 0.0000 0.0000 0.0000 0.0000 23.8034 0.0000
# 6 0.0000 0.0000 0.0000 0.0000 0.0000 20.9204
#
#
#
# Elastic Compliance Matrix: (Units=1/GPa)
#
#
# Indices 1 2 3 4 5 6 
#
# 1 0.009807 -0.001601 -0.003533 0.000000 0.000000 0.000000
# 2 -0.001601 0.010179 -0.003493 0.000000 0.000000 0.000000
# 3 -0.003533 -0.003493 0.009813 0.000000 0.000000 0.000000
# 4 0.000000 0.000000 0.000000 0.031623 0.000000 0.000000
# 5 0.000000 0.000000 0.000000 0.000000 0.042011 0.000000
# 6 0.000000 0.000000 0.000000 0.000000 0.000000 0.047800
#
#
# Mechanical properties :
#
#
# Convention : Reuss Voigt Hill
#
# Bulk Modulus (GPa) = 79.71481 81.10490 80.40986
# Shear Modulus (GPa) = 28.95708 31.15088 30.05398
#
# Velocity S-wave (km/s) = 3.70977 3.84774 3.77939
# Velocity P-wave (km/s) = 7.49906 7.63458 7.56713
#
# Compressibility (1/GPa) = 0.01254472
#
# Stress axis : x y z
#
# Youngs Moduli (GPa) = 101.97111 98.23733 101.90710
#
# Poissons Ratio (x) = 0.15725 0.36004
# Poissons Ratio (y) = 0.16323 0.35599
# Poissons Ratio (z) = 0.36027 0.34317
#
# Static dielectric constant tensor:
#      x y z
#    x 4.354490 0.000000 0.000000 
#    y 0.000000 3.733600 0.000000 
#    z 0.000000 0.000000 3.671680 
# 
# 
# High freq. dielectric constant tensor:
#      x y z
#    x 1.844720 0.000000 0.000000 
#    y 0.000000 1.815130 0.000000 
#    z 0.000000 0.000000 1.815400 
# 
# From -- ./inp_files/30302.got.cif
#   From: 2010.03.12/outbox.cif.g09.slc.cpg/sg59_16_cif.got.tgz:30302.got - 2010.04.16 16:29:54.
