data_PCOD8245396
_publ_section_title
;
Structure prediction by ZEFSAII (Michael W. Deem and Ramdas Pophale) SiO2 
 PCOD8245396
Probable space group: P M M N
;
_chemical_formula_sum "Si O2"
_cell_formula_units_Z 64
_cell_length_a 14.735627
_cell_length_b 9.202145
_cell_length_c 23.989323
_cell_angle_alpha 90.000000
_cell_angle_beta 90.000000
_cell_angle_gamma 90.000000
_cell_volume 3252.937237
_symmetry_space_group_name_H-M "P M M N"
_symmetry_group_IT_number 59
_space_group.IT_coordinate_system_code '2'
_symmetry_cell_setting 'orthorhombic'
loop_
_space_group_symop_operation_xyz
x,y,z
1/2-x,1/2-y,z
1/2+x,-y,-z
-x,1/2+y,-z
-x,-y,-z
1/2+x,1/2+y,-z
1/2-x,y,z
x,1/2-y,z
loop_
_atom_site_type_symbol
_atom_site_label
_atom_site_fract_x
_atom_site_fract_y
_atom_site_fract_z
Si Si1 0.000943 0.423366 0.198886
Si Si2 0.406030 0.080615 0.492019
Si Si3 0.604740 0.084445 0.612183
Si Si4 0.147485 0.585301 0.265080
Si Si5 0.150436 0.585703 0.718119
Si Si6 0.143690 0.081912 0.009952
Si Si7 0.890460 0.587853 0.386938
Si Si8 0.997207 0.419376 0.916437
O O1 0.000653 0.250000 0.192175
O O2 0.922014 0.483833 0.239744
O O3 0.982815 0.495850 0.139885
O O4 0.095456 0.476480 0.224416
O O5 0.423951 0.250000 0.480744
O O6 0.351702 0.059125 0.550413
O O7 0.500000 0.000000 0.500000
O O8 0.354040 0.011695 0.438683
O O9 0.634283 0.250000 0.601405
O O10 0.643679 0.029171 0.671113
O O11 0.497609 0.064394 0.613892
O O12 0.250000 0.583261 0.243763
O O13 0.107587 0.750000 0.261786
O O14 0.250000 0.573481 0.745739
O O15 0.120790 0.750000 0.707867
O O16 0.155634 0.515585 0.657392
O O17 0.250000 0.036470 0.002621
O O18 0.137155 0.250000 0.028418
O O19 0.087901 0.056883 0.953001
O O20 0.094734 0.983720 0.056428
O O21 0.865708 0.750000 0.368278
O O22 0.979393 0.250000 0.904908
#
# Coordination Sequence:
#
# PCOD8245396 Si02
#       8
#     8   8   8   8   8   8   8   8
#     4  11  23  39  59  83 115 153 191 236 282 327
#     4   9  17  28  46  74 103 134 174 220 274 338
#     4   9  17  31  51  76 105 135 173 223 279 340
#     4  10  21  38  59  81 108 144 187 235 285 339
#     4  10  22  38  55  78 107 142 186 233 282 335
#     4   9  19  38  63  91 124 158 192 233 277 321
#     4   9  17  31  51  75 103 137 176 223 277 337
#     4  10  21  37  60  90 121 155 195 233 274 328
#
# _framework density 19.674526
#
# number of rings (size 3 to 8) (size 9 to 14) (size 15 to 20)
#    0.000    2.375    1.250    1.875    0.000    5.750 
#    0.000    0.625    0.000    2.250    0.000    0.000 
#    0.000    0.000    0.000    0.000    0.000    0.000 
#
# Total GULP energy -793315.186685 kJ/mol
# GULP energy per Si atom -12395.549792 kJ/mol
# Density = 1.962975 g / cm^3
# Si number density = 19.674526 Si / 1000 Ang^3
#
#
#
# Elastic Constant Matrix: (Units=GPa)
#
#
# Indices 1 2 3 4 5 6 
#
# 1 89.8791 32.3195 35.0087 0.0000 0.0000 0.0000
# 2 32.3195 93.5453 60.0816 0.0000 0.0000 0.0000
# 3 35.0087 60.0816 118.0566 0.0000 0.0000 0.0000
# 4 0.0000 0.0000 0.0000 37.7773 0.0000 0.0000
# 5 0.0000 0.0000 0.0000 0.0000 98.4142 0.0000
# 6 0.0000 0.0000 0.0000 0.0000 0.0000 20.8827
#
#
#
# Elastic Compliance Matrix: (Units=1/GPa)
#
#
# Indices 1 2 3 4 5 6 
#
# 1 0.013131 -0.003024 -0.002355 0.000000 0.000000 0.000000
# 2 -0.003024 0.016578 -0.007540 0.000000 0.000000 0.000000
# 3 -0.002355 -0.007540 0.013006 0.000000 0.000000 0.000000
# 4 0.000000 0.000000 0.000000 0.026471 0.000000 0.000000
# 5 0.000000 0.000000 0.000000 0.000000 0.010161 0.000000
# 6 0.000000 0.000000 0.000000 0.000000 0.000000 0.047886
#
#
# Mechanical properties :
#
#
# Convention : Reuss Voigt Hill
#
# Bulk Modulus (GPa) = 59.25357 61.81118 60.53238
# Shear Modulus (GPa) = 31.50682 43.01959 37.26321
#
# Velocity S-wave (km/s) = 4.00609 4.68114 4.35671
# Velocity P-wave (km/s) = 7.18197 7.79118 7.49277
#
# Compressibility (1/GPa) = 0.01687662
#
# Stress axis : x y z
#
# Youngs Moduli (GPa) = 76.15725 60.32269 76.88778
#
# Poissons Ratio (x) = 0.18243 0.18105
# Poissons Ratio (y) = 0.23032 0.57972
# Poissons Ratio (z) = 0.17933 0.45482
#
# Static dielectric constant tensor:
#      x y z
#    x 3.479820 0.000000 0.000000 
#    y 0.000000 3.648920 0.000000 
#    z 0.000000 0.000000 3.812900 
# 
# 
# High freq. dielectric constant tensor:
#      x y z
#    x 1.757650 0.000000 0.000000 
#    y 0.000000 1.763770 0.000000 
#    z 0.000000 0.000000 1.767660 
# 
# From -- ./inp_files/32218.got.cif
#   From: 2010.03.12/outbox.cif.g09.slc.cpg/sg59_17_cif.got.tgz:32218.got - 2010.04.16 16:29:54.
