data_PCOD8245085
_publ_section_title
;
Structure prediction by ZEFSAII (Michael W. Deem and Ramdas Pophale) SiO2 
 PCOD8245085
Probable space group: P M M N
;
_chemical_formula_sum "Si O2"
_cell_formula_units_Z 64
_cell_length_a 14.731715
_cell_length_b 8.990822
_cell_length_c 24.306636
_cell_angle_alpha 90.000000
_cell_angle_beta 90.000000
_cell_angle_gamma 90.000000
_cell_volume 3219.419464
_symmetry_space_group_name_H-M "P M M N"
_symmetry_group_IT_number 59
_space_group.IT_coordinate_system_code '2'
_symmetry_cell_setting 'orthorhombic'
loop_
_space_group_symop_operation_xyz
x,y,z
1/2-x,1/2-y,z
1/2+x,-y,-z
-x,1/2+y,-z
-x,-y,-z
1/2+x,1/2+y,-z
1/2-x,y,z
x,1/2-y,z
loop_
_atom_site_type_symbol
_atom_site_label
_atom_site_fract_x
_atom_site_fract_y
_atom_site_fract_z
Si Si1 0.854203 0.074312 0.006186
Si Si2 0.352459 0.087706 0.397144
Si Si3 0.145664 0.922829 0.291390
Si Si4 0.504285 0.923973 0.080047
Si Si5 0.494782 0.423599 0.794164
Si Si6 0.353794 0.413466 0.612638
Si Si7 0.643466 0.422528 0.280273
Si Si8 0.903589 0.426623 0.496363
O O1 0.750000 0.015086 0.001111
O O2 0.852976 0.250000 0.013587
O O3 0.913063 0.027023 0.952582
O O4 0.904758 0.005160 0.058925
O O5 0.250000 0.115918 0.380176
O O6 0.399304 0.250000 0.408308
O O7 0.397133 0.007020 0.344569
O O8 0.350371 0.983578 0.450539
O O9 0.250000 0.966519 0.278665
O O10 0.137982 0.750000 0.305239
O O11 0.085959 0.967364 0.238718
O O12 0.521469 0.750000 0.072705
O O13 0.488056 0.969002 0.143008
O O14 0.472564 0.250000 0.787895
O O15 0.408356 0.514439 0.772575
O O16 0.250000 0.387673 0.626537
O O17 0.399914 0.250000 0.603199
O O18 0.396681 0.494765 0.665533
O O19 0.358519 0.517471 0.559478
O O20 0.750000 0.450788 0.271388
O O21 0.622050 0.250000 0.287786
O O22 0.906340 0.250000 0.496317
O O23 0.000000 0.500000 0.500000
#
# Coordination Sequence:
#
# PCOD8245085 Si02
#       8
#     8   8   8   8   8   8   8   8
#     4   9  18  34  57  83 114 152 191 233 280 329
#     4  10  21  38  58  79 106 140 178 223 278 339
#     4   9  19  36  57  81 109 144 186 230 279 338
#     4   9  19  35  54  82 116 150 190 233 281 335
#     4  10  21  36  57  83 114 150 188 235 284 332
#     4  10  21  39  61  82 107 139 177 226 283 342
#     4  10  22  39  58  81 110 148 192 234 281 340
#     4  12  25  38  55  80 109 140 178 226 279 340
#
# _framework density 19.879359999999998
#
# number of rings (size 3 to 8) (size 9 to 14) (size 15 to 20)
#    0.000    2.125    0.000    2.625    1.750    6.000 
#    0.000    5.000    0.000    0.000    0.000    3.500 
#    0.000    0.000    0.000    0.000    0.000    0.000 
#
# Total GULP energy -793429.343293 kJ/mol
# GULP energy per Si atom -12397.333489 kJ/mol
# Density = 1.983411 g / cm^3
# Si number density = 19.879360 Si / 1000 Ang^3
#
#
#
# Elastic Constant Matrix: (Units=GPa)
#
#
# Indices 1 2 3 4 5 6 
#
# 1 92.9520 39.0522 45.2766 0.0000 0.0000 0.0000
# 2 39.0522 109.8952 54.0600 0.0000 0.0000 0.0000
# 3 45.2766 54.0600 142.7318 0.0000 0.0000 0.0000
# 4 0.0000 0.0000 0.0000 31.5519 0.0000 0.0000
# 5 0.0000 0.0000 0.0000 0.0000 28.3113 0.0000
# 6 0.0000 0.0000 0.0000 0.0000 0.0000 27.0311
#
#
#
# Elastic Compliance Matrix: (Units=1/GPa)
#
#
# Indices 1 2 3 4 5 6 
#
# 1 0.013657 -0.003345 -0.003065 0.000000 0.000000 0.000000
# 2 -0.003345 0.012003 -0.003485 0.000000 0.000000 0.000000
# 3 -0.003065 -0.003485 0.009298 0.000000 0.000000 0.000000
# 4 0.000000 0.000000 0.000000 0.031694 0.000000 0.000000
# 5 0.000000 0.000000 0.000000 0.000000 0.035322 0.000000
# 6 0.000000 0.000000 0.000000 0.000000 0.000000 0.036994
#
#
# Mechanical properties :
#
#
# Convention : Reuss Voigt Hill
#
# Bulk Modulus (GPa) = 65.93141 69.15072 67.54106
# Shear Modulus (GPa) = 30.52250 31.19154 30.85702
#
# Velocity S-wave (km/s) = 3.92265 3.96541 3.94409
# Velocity P-wave (km/s) = 7.33171 7.47172 7.40205
#
# Compressibility (1/GPa) = 0.01516728
#
# Stress axis : x y z
#
# Youngs Moduli (GPa) = 73.22430 83.31523 107.54620
#
# Poissons Ratio (x) = 0.27871 0.32964
# Poissons Ratio (y) = 0.24495 0.37478
# Poissons Ratio (z) = 0.22444 0.29034
#
# Static dielectric constant tensor:
#      x y z
#    x 3.626610 0.000000 0.000000 
#    y 0.000000 3.873270 0.000000 
#    z 0.000000 0.000000 3.507810 
# 
# 
# High freq. dielectric constant tensor:
#      x y z
#    x 1.773200 0.000000 0.000000 
#    y 0.000000 1.778330 0.000000 
#    z 0.000000 0.000000 1.772030 
# 
# From -- ./inp_files/32220.got.cif
#   From: 2010.03.12/outbox.cif.g09.slc.cpg/sg59_17_cif.got.tgz:32220.got - 2010.04.16 16:29:54.
