data_PCOD8245414
_publ_section_title
;
Structure prediction by ZEFSAII (Michael W. Deem and Ramdas Pophale) SiO2 
 PCOD8245414
Probable space group: P M M N
;
_chemical_formula_sum "Si O2"
_cell_formula_units_Z 40
_cell_length_a 25.011459
_cell_length_b 15.923016
_cell_length_c 5.091208
_cell_angle_alpha 90.000000
_cell_angle_beta 90.000000
_cell_angle_gamma 90.000000
_cell_volume 2027.613612
_symmetry_space_group_name_H-M "P M M N"
_symmetry_group_IT_number 59
_space_group.IT_coordinate_system_code '2'
_symmetry_cell_setting 'orthorhombic'
loop_
_space_group_symop_operation_xyz
x,y,z
1/2-x,1/2-y,z
1/2+x,-y,-z
-x,1/2+y,-z
-x,-y,-z
1/2+x,1/2+y,-z
1/2-x,y,z
x,1/2-y,z
loop_
_atom_site_type_symbol
_atom_site_label
_atom_site_fract_x
_atom_site_fract_y
_atom_site_fract_z
Si Si1 0.466397 0.927772 0.866958
Si Si2 0.605978 0.554431 0.356404
Si Si3 0.927327 0.652890 0.843276
Si Si4 0.365791 0.652964 0.109248
Si Si5 0.813023 0.421632 0.377550
O O1 0.509340 0.857988 0.774529
O O2 0.434220 0.973131 0.629201
O O3 0.424529 0.886549 0.068647
O O4 0.500000 0.000000 0.000000
O O5 0.607056 0.603752 0.628308
O O6 0.664720 0.515047 0.308243
O O7 0.588826 0.617385 0.126326
O O8 0.912357 0.750000 0.833463
O O9 0.372444 0.750000 0.180948
O O10 0.336319 0.606218 0.343874
O O11 0.330395 0.643980 0.846599
O O12 0.750000 0.426279 0.396663
#
# Coordination Sequence:
#
# PCOD8245414 Si02
#       5
#     8   8   8   8   8
#     4   9  19  36  56  81 114 153 186 218 265 330
#     4  10  21  38  56  81 112 146 190 232 270 330
#     4  11  21  35  58  85 115 147 182 228 282 333
#     4  11  23  37  56  86 118 144 182 233 277 322
#     4  11  23  40  61  80 106 150 191 228 278 333
#
# _framework density 19.727626000000001
#
# number of rings (size 3 to 8) (size 9 to 14) (size 15 to 20)
#    0.000    1.600    0.000    6.600    0.000    7.200 
#    0.000   10.000    0.000    3.600    0.000    0.000 
#    0.000    0.000    0.000    0.000    0.000    0.000 
#
# Total GULP energy -495908.041646 kJ/mol
# GULP energy per Si atom -12397.701041 kJ/mol
# Density = 1.968272 g / cm^3
# Si number density = 19.727626 Si / 1000 Ang^3
#
#
#
# Elastic Constant Matrix: (Units=GPa)
#
#
# Indices 1 2 3 4 5 6 
#
# 1 105.0862 53.2211 16.3230 0.0000 0.0000 0.0000
# 2 53.2211 99.9988 10.6441 0.0000 0.0000 0.0000
# 3 16.3230 10.6441 72.9924 0.0000 0.0000 0.0000
# 4 0.0000 0.0000 0.0000 29.1559 0.0000 0.0000
# 5 0.0000 0.0000 0.0000 0.0000 20.2001 0.0000
# 6 0.0000 0.0000 0.0000 0.0000 0.0000 12.4195
#
#
#
# Elastic Compliance Matrix: (Units=1/GPa)
#
#
# Indices 1 2 3 4 5 6 
#
# 1 0.013301 -0.006869 -0.001973 0.000000 0.000000 0.000000
# 2 -0.006869 0.013705 -0.000462 0.000000 0.000000 0.000000
# 3 -0.001973 -0.000462 0.014209 0.000000 0.000000 0.000000
# 4 0.000000 0.000000 0.000000 0.034298 0.000000 0.000000
# 5 0.000000 0.000000 0.000000 0.000000 0.049505 0.000000
# 6 0.000000 0.000000 0.000000 0.000000 0.000000 0.080519
#
#
# Mechanical properties :
#
#
# Convention : Reuss Voigt Hill
#
# Bulk Modulus (GPa) = 44.23538 48.71708 46.47623
# Shear Modulus (GPa) = 21.58136 25.54772 23.56454
#
# Velocity S-wave (km/s) = 3.31110 3.60255 3.45990
# Velocity P-wave (km/s) = 6.09013 6.48482 6.29057
#
# Compressibility (1/GPa) = 0.02260634
#
# Stress axis : x y z
#
# Youngs Moduli (GPa) = 75.18020 72.96464 70.37955
#
# Poissons Ratio (x) = 0.50121 0.13885
# Poissons Ratio (y) = 0.51643 0.03255
# Poissons Ratio (z) = 0.14832 0.03374
#
# Static dielectric constant tensor:
#      x y z
#    x 3.907940 0.000000 0.000000 
#    y 0.000000 3.697210 0.000000 
#    z 0.000000 0.000000 1.618630 
# 
# 
# High freq. dielectric constant tensor:
#      x y z
#    x 1.757330 0.000000 0.000000 
#    y 0.000000 1.767520 0.000000 
#    z 0.000000 0.000000 1.774310 
# 
# From -- ./inp_files/2018.got.cif
#   From: 2010.03.12/outbox.cif.g09.slc.cpg/sg59_2_cif.got.tgz:2018.got - 2010.04.16 16:29:54.
