data_PCOD8245505
_publ_section_title
;
Structure prediction by ZEFSAII (Michael W. Deem and Ramdas Pophale) SiO2 
 PCOD8245505
Probable space group: P M M N
;
_chemical_formula_sum "Si O2"
_cell_formula_units_Z 48
_cell_length_a 8.522464
_cell_length_b 9.698219
_cell_length_c 28.562432
_cell_angle_alpha 90.000000
_cell_angle_beta 90.000000
_cell_angle_gamma 90.000000
_cell_volume 2360.762760
_symmetry_space_group_name_H-M "P M M N"
_symmetry_group_IT_number 59
_space_group.IT_coordinate_system_code '2'
_symmetry_cell_setting 'orthorhombic'
loop_
_space_group_symop_operation_xyz
x,y,z
1/2-x,1/2-y,z
1/2+x,-y,-z
-x,1/2+y,-z
-x,-y,-z
1/2+x,1/2+y,-z
1/2-x,y,z
x,1/2-y,z
loop_
_atom_site_type_symbol
_atom_site_label
_atom_site_fract_x
_atom_site_fract_y
_atom_site_fract_z
Si Si1 0.567216 0.407321 0.120657
Si Si2 0.069966 0.250000 0.437319
Si Si3 0.934157 0.092620 0.958504
Si Si4 0.571231 0.405655 0.695872
Si Si5 0.430642 0.408029 0.219732
Si Si6 0.433581 0.750000 0.462429
Si Si7 0.932289 0.983990 0.400075
O O1 0.750000 0.422096 0.109884
O O2 0.511141 0.250000 0.109590
O O3 0.474907 0.518294 0.090018
O O4 0.534086 0.443281 0.174530
O O5 0.250000 0.250000 0.453810
O O6 0.956471 0.250000 0.482063
O O7 0.034840 0.379384 0.404535
O O8 0.750000 0.100184 0.964486
O O9 0.002133 0.250000 0.959708
O O10 0.000000 0.000000 0.000000
O O11 0.750000 0.446235 0.682918
O O12 0.562106 0.250000 0.714414
O O13 0.505562 0.502155 0.737117
O O14 0.463293 0.418428 0.650399
O O15 0.250000 0.443643 0.208285
O O16 0.450998 0.250000 0.234574
O O17 0.250000 0.750000 0.449859
O O18 0.516037 0.616473 0.441470
O O19 0.750000 0.017865 0.405826
#
# Coordination Sequence:
#
# PCOD8245505 Si02
#       7
#     8   4   8   8   8   4   8
#     4  10  21  38  60  88 122 160 202 250 303 360
#     4  12  26  44  66  92 122 160 202 250 303 364
#     4  11  24  40  60  88 121 159 204 253 304 362
#     4  10  21  38  60  86 119 160 203 247 300 361
#     4   9  19  36  59  87 119 160 205 250 301 360
#     4  12  24  44  68  92 124 162 202 246 301 364
#     4  12  25  42  63  93 126 160 202 251 304 363
#
# _framework density 20.332411
#
# number of rings (size 3 to 8) (size 9 to 14) (size 15 to 20)
#    0.000    1.333    0.833    5.000    1.167    5.667 
#    0.000    1.667    0.000    0.000    0.000    0.000 
#    0.000    0.000    0.000    0.000    0.000    0.000 
#
# Total GULP energy -595454.218930 kJ/mol
# GULP energy per Si atom -12405.296228 kJ/mol
# Density = 2.028613 g / cm^3
# Si number density = 20.332411 Si / 1000 Ang^3
#
#
#
# Elastic Constant Matrix: (Units=GPa)
#
#
# Indices 1 2 3 4 5 6 
#
# 1 75.2706 29.2109 20.7787 0.0000 0.0000 0.0000
# 2 29.2109 132.5948 54.4610 0.0000 0.0000 0.0000
# 3 20.7787 54.4610 102.2656 0.0000 0.0000 0.0000
# 4 0.0000 0.0000 0.0000 41.8570 0.0000 0.0000
# 5 0.0000 0.0000 0.0000 0.0000 35.1237 0.0000
# 6 0.0000 0.0000 0.0000 0.0000 0.0000 25.3203
#
#
#
# Elastic Compliance Matrix: (Units=1/GPa)
#
#
# Indices 1 2 3 4 5 6 
#
# 1 0.014734 -0.002581 -0.001619 0.000000 0.000000 0.000000
# 2 -0.002581 0.010105 -0.004857 0.000000 0.000000 0.000000
# 3 -0.001619 -0.004857 0.012694 0.000000 0.000000 0.000000
# 4 0.000000 0.000000 0.000000 0.023891 0.000000 0.000000
# 5 0.000000 0.000000 0.000000 0.000000 0.028471 0.000000
# 6 0.000000 0.000000 0.000000 0.000000 0.000000 0.039494
#
#
# Mechanical properties :
#
#
# Convention : Reuss Voigt Hill
#
# Bulk Modulus (GPa) = 51.49629 57.67024 54.58327
# Shear Modulus (GPa) = 32.47247 34.17224 33.32236
#
# Velocity S-wave (km/s) = 4.00068 4.10405 4.05270
# Velocity P-wave (km/s) = 6.83541 7.13323 6.98591
#
# Compressibility (1/GPa) = 0.01941887
#
# Stress axis : x y z
#
# Youngs Moduli (GPa) = 67.87031 98.95770 78.77658
#
# Poissons Ratio (x) = 0.25539 0.12756
# Poissons Ratio (y) = 0.17516 0.38263
# Poissons Ratio (z) = 0.10990 0.48065
#
# Static dielectric constant tensor:
#      x y z
#    x 3.668760 0.000000 0.000000 
#    y 0.000000 4.090010 0.000000 
#    z 0.000000 0.000000 3.631550 
# 
# 
# High freq. dielectric constant tensor:
#      x y z
#    x 1.792610 0.000000 0.000000 
#    y 0.000000 1.805130 0.000000 
#    z 0.000000 0.000000 1.796870 
# 
# From -- ./inp_files/33059.got.cif
#   From: 2010.03.12/outbox.cif.g09.slc.cpg/sg59_17_cif.got.tgz:33059.got - 2010.04.16 16:29:54.
