data_PCOD8245244
_publ_section_title
;
Structure prediction by ZEFSAII (Michael W. Deem and Ramdas Pophale) SiO2 
 PCOD8245244
Probable space group: P M M N
;
_chemical_formula_sum "Si O2"
_cell_formula_units_Z 48
_cell_length_a 30.141999
_cell_length_b 8.966949
_cell_length_c 9.358302
_cell_angle_alpha 90.000000
_cell_angle_beta 90.000000
_cell_angle_gamma 90.000000
_cell_volume 2529.378408
_symmetry_space_group_name_H-M "P M M N"
_symmetry_group_IT_number 59
_space_group.IT_coordinate_system_code '2'
_symmetry_cell_setting 'orthorhombic'
loop_
_space_group_symop_operation_xyz
x,y,z
1/2-x,1/2-y,z
1/2+x,-y,-z
-x,1/2+y,-z
-x,-y,-z
1/2+x,1/2+y,-z
1/2-x,y,z
x,1/2-y,z
loop_
_atom_site_type_symbol
_atom_site_label
_atom_site_fract_x
_atom_site_fract_y
_atom_site_fract_z
Si Si1 0.301646 0.577410 0.343391
Si Si2 0.800213 0.578356 0.366514
Si Si3 0.379611 0.422113 0.835289
Si Si4 0.456259 0.575868 0.665505
Si Si5 0.625860 0.924701 0.833553
Si Si6 0.952961 0.424809 0.663416
O O1 0.250000 0.548421 0.315443
O O2 0.314520 0.750000 0.333642
O O3 0.315591 0.521027 0.500040
O O4 0.327725 0.487540 0.223006
O O5 0.750000 0.538677 0.319715
O O6 0.803965 0.750000 0.414205
O O7 0.831759 0.542558 0.233205
O O8 0.392858 0.250000 0.811388
O O9 0.416066 0.526274 0.764220
O O10 0.376837 0.463751 0.000356
O O11 0.465142 0.750000 0.685247
O O12 0.444599 0.535883 0.502192
O O13 0.500187 0.489702 0.715512
O O14 0.623864 0.750000 0.804350
O O15 0.585415 0.001242 0.754047
O O16 0.952865 0.250000 0.691992
#
# Coordination Sequence:
#
# PCOD8245244 Si02
#       6
#     8   8   8   8   8   8
#     4  10  21  37  57  82 111 143 182 227 273 322
#     4   9  18  35  59  83 107 140 183 228 271 317
#     4  10  22  37  54  80 113 147 182 223 272 324
#     4  10  21  37  59  84 108 140 183 227 272 323
#     4  11  23  37  55  81 113 148 184 222 269 325
#     4  10  21  38  60  84 110 141 180 226 273 322
#
# _framework density 18.976994999999999
#
# number of rings (size 3 to 8) (size 9 to 14) (size 15 to 20)
#    0.000    2.000    0.000    3.000    0.000    9.000 
#    0.000    1.667    0.000    2.000    0.000    0.000 
#    0.000    0.000    0.000    0.000    0.000    0.000 
#
# Total GULP energy -595456.268013 kJ/mol
# GULP energy per Si atom -12405.338917 kJ/mol
# Density = 1.893380 g / cm^3
# Si number density = 18.976995 Si / 1000 Ang^3
#
#
#
# Elastic Constant Matrix: (Units=GPa)
#
#
# Indices 1 2 3 4 5 6 
#
# 1 118.1626 58.4162 72.2782 0.0000 0.0000 0.0000
# 2 58.4162 91.0504 58.7666 0.0000 0.0000 0.0000
# 3 72.2782 58.7666 109.1783 0.0000 0.0000 0.0000
# 4 0.0000 0.0000 0.0000 27.2970 0.0000 0.0000
# 5 0.0000 0.0000 0.0000 0.0000 1.8699 0.0000
# 6 0.0000 0.0000 0.0000 0.0000 0.0000 36.0251
#
#
#
# Elastic Compliance Matrix: (Units=1/GPa)
#
#
# Indices 1 2 3 4 5 6 
#
# 1 0.015648 -0.005138 -0.007593 0.000000 0.000000 0.000000
# 2 -0.005138 0.018517 -0.006565 0.000000 0.000000 0.000000
# 3 -0.007593 -0.006565 0.017720 0.000000 0.000000 0.000000
# 4 0.000000 0.000000 0.000000 0.036634 0.000000 0.000000
# 5 0.000000 0.000000 0.000000 0.000000 0.534793 0.000000
# 6 0.000000 0.000000 0.000000 0.000000 0.000000 0.027758
#
#
# Mechanical properties :
#
#
# Convention : Reuss Voigt Hill
#
# Bulk Modulus (GPa) = 75.23945 77.47925 76.35935
# Shear Modulus (GPa) = 7.20362 21.63376 14.41869
#
# Velocity S-wave (km/s) = 1.95044 3.38005 2.75943
# Velocity P-wave (km/s) = 6.69373 7.49330 7.10478
#
# Compressibility (1/GPa) = 0.01329090
#
# Stress axis : x y z
#
# Youngs Moduli (GPa) = 63.90593 54.00414 56.43270
#
# Poissons Ratio (x) = 0.27750 0.42852
# Poissons Ratio (y) = 0.32838 0.37050
# Poissons Ratio (z) = 0.48527 0.35456
#
# Static dielectric constant tensor:
#      x y z
#    x 3.609240 0.000000 0.000000 
#    y 0.000000 3.560540 0.000000 
#    z 0.000000 0.000000 3.420360 
# 
# 
# High freq. dielectric constant tensor:
#      x y z
#    x 1.750300 0.000000 0.000000 
#    y 0.000000 1.746770 0.000000 
#    z 0.000000 0.000000 1.730740 
# 
# From -- ./inp_files/6189.got.cif
#   From: 2010.03.12/outbox.cif.g09.slc.cpg/sg59_4_cif.got.tgz:6189.got - 2010.04.16 16:29:54.
