data_PCOD8245868
_publ_section_title
;
Structure prediction by ZEFSAII (Michael W. Deem and Ramdas Pophale) SiO2 
 PCOD8245868
Probable space group: P M M N
;
_chemical_formula_sum "Si O2"
_cell_formula_units_Z 64
_cell_length_a 13.576281
_cell_length_b 26.760097
_cell_length_c 8.954592
_cell_angle_alpha 90.000000
_cell_angle_beta 90.000000
_cell_angle_gamma 90.000000
_cell_volume 3253.226524
_symmetry_space_group_name_H-M "P M M N"
_symmetry_group_IT_number 59
_space_group.IT_coordinate_system_code '2'
_symmetry_cell_setting 'orthorhombic'
loop_
_space_group_symop_operation_xyz
x,y,z
1/2-x,1/2-y,z
1/2+x,-y,-z
-x,1/2+y,-z
-x,-y,-z
1/2+x,1/2+y,-z
1/2-x,y,z
x,1/2-y,z
loop_
_atom_site_type_symbol
_atom_site_label
_atom_site_fract_x
_atom_site_fract_y
_atom_site_fract_z
Si Si1 0.860625 0.508276 0.659055
Si Si2 0.364025 0.587439 0.500100
Si Si3 0.965910 0.807894 0.797945
Si Si4 0.863777 0.614932 0.593137
Si Si5 0.031376 0.381387 0.698793
Si Si6 0.636863 0.120520 0.164968
Si Si7 0.860441 0.692573 0.103448
Si Si8 0.555096 0.044641 0.922641
O O1 0.750000 0.521017 0.613349
O O2 0.901463 0.469320 0.534559
O O3 0.910952 0.563293 0.661235
O O4 0.862886 0.481295 0.819174
O O5 0.250000 0.594981 0.452834
O O6 0.429821 0.624770 0.397164
O O7 0.380545 0.596169 0.673786
O O8 0.978747 0.750000 0.752921
O O9 0.924851 0.838359 0.656632
O O10 0.071800 0.829490 0.848692
O O11 0.888662 0.814973 0.931142
O O12 0.750000 0.623639 0.631834
O O13 0.878662 0.609874 0.415327
O O14 0.057494 0.331966 0.791060
O O15 0.023000 0.426164 0.818385
O O16 0.750000 0.136222 0.142037
O O17 0.607259 0.080798 0.039582
O O18 0.750000 0.670243 0.125338
O O19 0.860973 0.750000 0.148246
O O20 0.500000 0.000000 0.000000
#
# Coordination Sequence:
#
# PCOD8245868 Si02
#       8
#     8   8   8   8   8   8   8   8
#     4   9  20  37  56  85 123 160 197 243 297 359
#     4   9  20  38  62  87 121 163 201 247 304 363
#     4  11  23  43  66  90 121 159 206 263 320 369
#     4  11  23  39  61  92 126 164 208 253 305 372
#     4  11  22  38  61  87 126 162 202 251 301 368
#     4  11  22  41  66  93 121 160 210 258 309 371
#     4  10  22  42  64  88 119 157 203 256 312 365
#     4  11  23  36  59  90 124 164 203 248 303 362
#
# _framework density 19.672777
#
# number of rings (size 3 to 8) (size 9 to 14) (size 15 to 20)
#    0.000    1.625    2.500    1.875    1.750    3.000 
#    0.000    1.250    0.000    0.375    0.000    0.000 
#    0.000    0.000    0.000    0.000    0.000    0.000 
#
# Total GULP energy -793303.961064 kJ/mol
# GULP energy per Si atom -12395.374392 kJ/mol
# Density = 1.962800 g / cm^3
# Si number density = 19.672777 Si / 1000 Ang^3
#
#
#
# Elastic Constant Matrix: (Units=GPa)
#
#
# Indices 1 2 3 4 5 6 
#
# 1 84.8320 58.3071 29.0143 0.0000 0.0000 0.0000
# 2 58.3071 126.2959 60.7464 0.0000 0.0000 0.0000
# 3 29.0143 60.7464 108.3023 0.0000 0.0000 0.0000
# 4 0.0000 0.0000 0.0000 28.4712 0.0000 0.0000
# 5 0.0000 0.0000 0.0000 0.0000 33.9462 0.0000
# 6 0.0000 0.0000 0.0000 0.0000 0.0000 26.6253
#
#
#
# Elastic Compliance Matrix: (Units=1/GPa)
#
#
# Indices 1 2 3 4 5 6 
#
# 1 0.017271 -0.007872 -0.000212 0.000000 0.000000 0.000000
# 2 -0.007872 0.014431 -0.005985 0.000000 0.000000 0.000000
# 3 -0.000212 -0.005985 0.012647 0.000000 0.000000 0.000000
# 4 0.000000 0.000000 0.000000 0.035123 0.000000 0.000000
# 5 0.000000 0.000000 0.000000 0.000000 0.029458 0.000000
# 6 0.000000 0.000000 0.000000 0.000000 0.000000 0.037558
#
#
# Mechanical properties :
#
#
# Convention : Reuss Voigt Hill
#
# Bulk Modulus (GPa) = 61.68444 68.39620 65.04032
# Shear Modulus (GPa) = 27.77314 29.23270 28.50292
#
# Velocity S-wave (km/s) = 3.76141 3.85898 3.81051
# Velocity P-wave (km/s) = 7.09137 7.39581 7.24519
#
# Compressibility (1/GPa) = 0.01621154
#
# Stress axis : x y z
#
# Youngs Moduli (GPa) = 57.90142 69.29579 79.06795
#
# Poissons Ratio (x) = 0.54547 0.01674
# Poissons Ratio (y) = 0.45577 0.47326
# Poissons Ratio (z) = 0.01226 0.41477
#
# Static dielectric constant tensor:
#      x y z
#    x 3.861450 0.000000 0.000000 
#    y 0.000000 3.599160 0.000000 
#    z 0.000000 0.000000 3.784320 
# 
# 
# High freq. dielectric constant tensor:
#      x y z
#    x 1.769990 0.000000 0.000000 
#    y 0.000000 1.757040 0.000000 
#    z 0.000000 0.000000 1.773600 
# 
# From -- ./inp_files/9577.got.cif
#   From: 2010.03.12/outbox.cif.g09.slc.cpg/sg59_5_cif.got.tgz:9577.got - 2010.04.16 16:29:54.
