data_PCOD8245529
_publ_section_title
;
Structure prediction by ZEFSAII (Michael W. Deem and Ramdas Pophale) SiO2 
 PCOD8245529
Probable space group: P M M N
;
_chemical_formula_sum "Si O2"
_cell_formula_units_Z 48
_cell_length_a 8.902411
_cell_length_b 18.651936
_cell_length_c 15.112160
_cell_angle_alpha 90.000000
_cell_angle_beta 90.000000
_cell_angle_gamma 90.000000
_cell_volume 2509.331857
_symmetry_space_group_name_H-M "P M M N"
_symmetry_group_IT_number 59
_space_group.IT_coordinate_system_code '2'
_symmetry_cell_setting 'orthorhombic'
loop_
_space_group_symop_operation_xyz
x,y,z
1/2-x,1/2-y,z
1/2+x,-y,-z
-x,1/2+y,-z
-x,-y,-z
1/2+x,1/2+y,-z
1/2-x,y,z
x,1/2-y,z
loop_
_atom_site_type_symbol
_atom_site_label
_atom_site_fract_x
_atom_site_fract_y
_atom_site_fract_z
Si Si1 0.075856 0.167359 0.665277
Si Si2 0.577580 0.332139 0.351338
Si Si3 0.926542 0.576865 0.502677
Si Si4 0.575631 0.333690 0.846661
Si Si5 0.073132 0.077375 0.000609
Si Si6 0.922358 0.167420 0.147158
O O1 0.250000 0.153037 0.686710
O O2 0.047144 0.250000 0.641377
O O3 0.018372 0.121613 0.582233
O O4 0.978820 0.143382 0.749457
O O5 0.750000 0.344502 0.378788
O O6 0.531097 0.250000 0.367727
O O7 0.471733 0.382686 0.408205
O O8 0.553886 0.352652 0.249262
O O9 0.750000 0.567517 0.501532
O O10 0.000000 0.500000 0.500000
O O11 0.750000 0.352603 0.856451
O O12 0.544420 0.250000 0.863065
O O13 0.482091 0.377504 0.917403
O O14 0.250000 0.068495 0.995019
O O15 0.030958 0.117520 0.090868
O O16 0.000000 0.000000 0.000000
O O17 0.750000 0.153927 0.118836
O O18 0.964641 0.250000 0.129874
#
# Coordination Sequence:
#
# PCOD8245529 Si02
#       6
#     8   8   8   8   8   8
#     4   9  19  37  59  82 109 144 187 232 278 328
#     4   9  19  37  61  86 112 145 184 227 277 332
#     4  11  23  37  55  81 115 153 189 230 279 330
#     4  10  21  38  61  87 113 143 182 229 279 332
#     4  12  25  39  57  82 114 151 188 229 278 331
#     4   9  19  38  62  86 114 148 185 227 276 330
#
# _framework density 19.128598
#
# number of rings (size 3 to 8) (size 9 to 14) (size 15 to 20)
#    0.000    2.000    0.000    4.500    0.000    7.667 
#    0.000    5.000    0.000    0.000    0.000    0.000 
#    0.000    0.000    0.000    0.000    0.000    0.000 
#
# Total GULP energy -595412.846907 kJ/mol
# GULP energy per Si atom -12404.434311 kJ/mol
# Density = 1.908506 g / cm^3
# Si number density = 19.128598 Si / 1000 Ang^3
#
#
#
# Elastic Constant Matrix: (Units=GPa)
#
#
# Indices 1 2 3 4 5 6 
#
# 1 111.4846 61.6875 64.6945 0.0000 0.0000 0.0000
# 2 61.6875 108.3236 75.1598 0.0000 0.0000 0.0000
# 3 64.6945 75.1598 123.3616 0.0000 0.0000 0.0000
# 4 0.0000 0.0000 0.0000 -2.6875 0.0000 0.0000
# 5 0.0000 0.0000 0.0000 0.0000 39.2164 0.0000
# 6 0.0000 0.0000 0.0000 0.0000 0.0000 35.6461
#
#
#
# Elastic Compliance Matrix: (Units=1/GPa)
#
#
# Indices 1 2 3 4 5 6 
#
# 1 0.014363 -0.005115 -0.004416 0.000000 0.000000 0.000000
# 2 -0.005115 0.017814 -0.008171 0.000000 0.000000 0.000000
# 3 -0.004416 -0.008171 0.015400 0.000000 0.000000 0.000000
# 4 0.000000 0.000000 0.000000 -0.372090 0.000000 0.000000
# 5 0.000000 0.000000 0.000000 0.000000 0.025500 0.000000
# 6 0.000000 0.000000 0.000000 0.000000 0.000000 0.028054
#
#
# Mechanical properties :
#
#
# Convention : Reuss Voigt Hill
#
# Bulk Modulus (GPa) = 82.14758 82.91704 82.53231
# Shear Modulus (GPa) = -21.59832 23.87688 1.13928
#
# Velocity S-wave (km/s) = -3.36387 3.53686 0.77258
# Velocity P-wave (km/s) = 5.28684 7.75374 6.63593
#
# Compressibility (1/GPa) = 0.01217321
#
# Stress axis : x y z
#
# Youngs Moduli (GPa) = 69.62459 56.13590 64.93509
#
# Poissons Ratio (x) = 0.28716 0.28672
# Poissons Ratio (y) = 0.35616 0.53056
# Poissons Ratio (z) = 0.30743 0.45867
#
# Static dielectric constant tensor:
#      x y z
#    x 3.544940 0.000000 0.000000 
#    y 0.000000 3.486790 0.000000 
#    z 0.000000 0.000000 3.635730 
# 
# 
# High freq. dielectric constant tensor:
#      x y z
#    x 1.745020 0.000000 0.000000 
#    y 0.000000 1.744090 0.000000 
#    z 0.000000 0.000000 1.756550 
# 
# From -- ./inp_files/20413.got.cif
#   From: 2010.03.12/outbox.cif.g09.slc.cpg/sg59_11_cif.got.tgz:20413.got - 2010.04.16 16:29:54.
