data_PCOD8245212
_publ_section_title
;
Structure prediction by ZEFSAII (Michael W. Deem and Ramdas Pophale) SiO2 
 PCOD8245212
Probable space group: P M M N
;
_chemical_formula_sum "Si O2"
_cell_formula_units_Z 64
_cell_length_a 8.877155
_cell_length_b 14.591424
_cell_length_c 26.195495
_cell_angle_alpha 90.000000
_cell_angle_beta 90.000000
_cell_angle_gamma 90.000000
_cell_volume 3393.111178
_symmetry_space_group_name_H-M "P M M N"
_symmetry_group_IT_number 59
_space_group.IT_coordinate_system_code '2'
_symmetry_cell_setting 'orthorhombic'
loop_
_space_group_symop_operation_xyz
x,y,z
1/2-x,1/2-y,z
1/2+x,-y,-z
-x,1/2+y,-z
-x,-y,-z
1/2+x,1/2+y,-z
1/2-x,y,z
x,1/2-y,z
loop_
_atom_site_type_symbol
_atom_site_label
_atom_site_fract_x
_atom_site_fract_y
_atom_site_fract_z
Si Si1 0.422606 0.857989 0.128651
Si Si2 0.922566 0.356579 0.244046
Si Si3 0.926954 0.010722 0.575452
Si Si4 0.074363 0.355934 0.767185
Si Si5 0.928922 0.508341 0.055088
Si Si6 0.428829 0.649263 0.870608
Si Si7 0.428045 0.354249 0.500916
Si Si8 0.073391 0.993287 0.307527
O O1 0.250000 0.889937 0.125835
O O2 0.439287 0.750000 0.123782
O O3 0.491797 0.892431 0.182058
O O4 0.515282 0.898837 0.081467
O O5 0.750000 0.389309 0.250720
O O6 0.937767 0.250000 0.256836
O O7 0.979492 0.377457 0.186576
O O8 0.029638 0.410360 0.282477
O O9 0.750000 0.024480 0.569617
O O10 0.978751 0.916926 0.547173
O O11 0.977249 0.002799 0.633851
O O12 0.005025 0.100617 0.551997
O O13 0.250000 0.374271 0.775020
O O14 0.038022 0.250000 0.757323
O O15 0.014684 0.410142 0.718552
O O16 0.750000 0.508535 0.050673
O O17 0.990836 0.423782 0.088983
O O18 0.000000 0.500000 0.000000
O O19 0.250000 0.652343 0.871681
O O20 0.492479 0.750000 0.885154
O O21 0.250000 0.352788 0.506441
O O22 0.489057 0.250000 0.493967
O O23 0.250000 0.976188 0.301683
#
# Coordination Sequence:
#
# PCOD8245212 Si02
#       8
#     8   8   8   8   8   8   8   8
#     4  10  21  38  59  81 107 140 179 225 276 328
#     4   9  18  34  56  80 105 136 177 222 266 315
#     4   9  20  36  52  76 108 140 175 216 264 316
#     4  10  21  37  57  80 107 142 182 222 268 323
#     4  11  22  35  54  80 109 142 180 223 272 323
#     4   8  16  33  55  75  97 131 173 213 257 310
#     4   9  18  35  58  78  99 134 179 224 268 314
#     4  11  22  34  52  79 113 148 177 214 264 318
#
# _framework density 18.861744000000002
#
# number of rings (size 3 to 8) (size 9 to 14) (size 15 to 20)
#    0.000    2.375    0.000    3.000    0.000    5.500 
#    0.000    5.625    0.000    2.625    0.000    0.000 
#    0.000    0.000    0.000    0.000    0.000    0.000 
#
# Total GULP energy -793695.292881 kJ/mol
# GULP energy per Si atom -12401.488951 kJ/mol
# Density = 1.881881 g / cm^3
# Si number density = 18.861744 Si / 1000 Ang^3
#
#
#
# Elastic Constant Matrix: (Units=GPa)
#
#
# Indices 1 2 3 4 5 6 
#
# 1 57.0085 36.5875 42.9172 0.0000 0.0000 0.0000
# 2 36.5875 108.7691 67.3838 0.0000 0.0000 0.0000
# 3 42.9172 67.3838 152.0045 0.0000 0.0000 0.0000
# 4 0.0000 0.0000 0.0000 17.5723 0.0000 0.0000
# 5 0.0000 0.0000 0.0000 0.0000 31.0867 0.0000
# 6 0.0000 0.0000 0.0000 0.0000 0.0000 28.8624
#
#
#
# Elastic Compliance Matrix: (Units=1/GPa)
#
#
# Indices 1 2 3 4 5 6 
#
# 1 0.024401 -0.005432 -0.004482 0.000000 0.000000 0.000000
# 2 -0.005432 0.013884 -0.004621 0.000000 0.000000 0.000000
# 3 -0.004482 -0.004621 0.009893 0.000000 0.000000 0.000000
# 4 0.000000 0.000000 0.000000 0.056908 0.000000 0.000000
# 5 0.000000 0.000000 0.000000 0.000000 0.032168 0.000000
# 6 0.000000 0.000000 0.000000 0.000000 0.000000 0.034647
#
#
# Mechanical properties :
#
#
# Convention : Reuss Voigt Hill
#
# Bulk Modulus (GPa) = 52.33188 67.95101 60.14145
# Shear Modulus (GPa) = 24.11514 26.89717 25.50616
#
# Velocity S-wave (km/s) = 3.57952 3.78036 3.68131
# Velocity P-wave (km/s) = 6.69994 7.42690 7.07277
#
# Compressibility (1/GPa) = 0.01910881
#
# Stress axis : x y z
#
# Youngs Moduli (GPa) = 40.98188 72.02716 101.08537
#
# Poissons Ratio (x) = 0.39122 0.45303
# Poissons Ratio (y) = 0.22260 0.46712
# Poissons Ratio (z) = 0.18367 0.33284
#
# Static dielectric constant tensor:
#      x y z
#    x 3.363740 0.000000 0.000000 
#    y 0.000000 3.726360 0.000000 
#    z 0.000000 0.000000 3.506330 
# 
# 
# High freq. dielectric constant tensor:
#      x y z
#    x 1.722920 0.000000 0.000000 
#    y 0.000000 1.742140 0.000000 
#    z 0.000000 0.000000 1.731670 
# 
# From -- ./inp_files/31691.got.cif
#   From: 2010.03.12/outbox.cif.g09.slc.cpg/sg59_16_cif.got.tgz:31691.got - 2010.04.16 16:29:54.
