data_PCOD8245812
_publ_section_title
;
Structure prediction by ZEFSAII (Michael W. Deem and Ramdas Pophale) SiO2 
 PCOD8245812
Probable space group: P M M N
;
_chemical_formula_sum "Si O2"
_cell_formula_units_Z 48
_cell_length_a 18.860029
_cell_length_b 8.761618
_cell_length_c 14.978444
_cell_angle_alpha 90.000000
_cell_angle_beta 90.000000
_cell_angle_gamma 90.000000
_cell_volume 2475.103536
_symmetry_space_group_name_H-M "P M M N"
_symmetry_group_IT_number 59
_space_group.IT_coordinate_system_code '2'
_symmetry_cell_setting 'orthorhombic'
loop_
_space_group_symop_operation_xyz
x,y,z
1/2-x,1/2-y,z
1/2+x,-y,-z
-x,1/2+y,-z
-x,-y,-z
1/2+x,1/2+y,-z
1/2-x,y,z
x,1/2-y,z
loop_
_atom_site_type_symbol
_atom_site_label
_atom_site_fract_x
_atom_site_fract_y
_atom_site_fract_z
Si Si1 0.060965 0.572904 0.741400
Si Si2 0.830764 0.570097 0.604137
Si Si3 0.071706 0.927913 0.535859
Si Si4 0.668284 0.073473 0.944040
Si Si5 0.086762 0.571121 0.232436
Si Si6 0.832934 0.925900 0.127408
O O1 0.041645 0.750000 0.753618
O O2 0.080643 0.535327 0.639760
O O3 0.128417 0.530080 0.800379
O O4 0.995452 0.470669 0.773291
O O5 0.750000 0.515604 0.617486
O O6 0.836392 0.750000 0.594881
O O7 0.860381 0.497335 0.513543
O O8 0.877306 0.519255 0.687504
O O9 0.068169 0.750000 0.515689
O O10 0.000000 0.000000 0.500000
O O11 0.750000 0.042194 0.920384
O O12 0.655051 0.250000 0.967086
O O13 0.622616 0.019772 0.859774
O O14 0.643145 0.974194 0.028212
O O15 0.096824 0.750000 0.249548
O O16 0.750000 0.956843 0.139657
O O17 0.852888 0.750000 0.142232
#
# Coordination Sequence:
#
# PCOD8245812 Si02
#       6
#     8   8   8   8   8   8
#     4  11  24  40  61  88 119 157 198 244 300 359
#     4  11  24  40  60  89 124 160 200 247 298 355
#     4  11  23  40  63  87 117 157 200 247 299 356
#     4   9  19  37  60  86 118 156 197 243 298 355
#     4  11  22  37  61  90 121 158 199 247 299 355
#     4  10  22  40  62  88 117 153 199 248 298 353
#
# _framework density 19.393128000000001
#
# number of rings (size 3 to 8) (size 9 to 14) (size 15 to 20)
#    0.000    1.500    1.667    3.000    0.000    7.667 
#    0.000    5.000    0.000    0.000    0.000    0.000 
#    0.000    0.000    0.000    0.000    0.000    0.000 
#
# Total GULP energy -595520.211986 kJ/mol
# GULP energy per Si atom -12406.671083 kJ/mol
# Density = 1.934899 g / cm^3
# Si number density = 19.393128 Si / 1000 Ang^3
#
#
#
# Elastic Constant Matrix: (Units=GPa)
#
#
# Indices 1 2 3 4 5 6 
#
# 1 84.6973 31.3657 56.5897 0.0000 0.0000 0.0000
# 2 31.3657 65.0533 43.9044 0.0000 0.0000 0.0000
# 3 56.5897 43.9044 134.0739 0.0000 0.0000 0.0000
# 4 0.0000 0.0000 0.0000 33.9058 0.0000 0.0000
# 5 0.0000 0.0000 0.0000 0.0000 41.3719 0.0000
# 6 0.0000 0.0000 0.0000 0.0000 0.0000 31.5116
#
#
#
# Elastic Compliance Matrix: (Units=1/GPa)
#
#
# Indices 1 2 3 4 5 6 
#
# 1 0.017373 -0.004400 -0.005892 0.000000 0.000000 0.000000
# 2 -0.004400 0.020847 -0.004970 0.000000 0.000000 0.000000
# 3 -0.005892 -0.004970 0.011573 0.000000 0.000000 0.000000
# 4 0.000000 0.000000 0.000000 0.029493 0.000000 0.000000
# 5 0.000000 0.000000 0.000000 0.000000 0.024171 0.000000
# 6 0.000000 0.000000 0.000000 0.000000 0.000000 0.031734
#
#
# Mechanical properties :
#
#
# Convention : Reuss Voigt Hill
#
# Bulk Modulus (GPa) = 51.89391 60.83824 56.36608
# Shear Modulus (GPa) = 29.04646 31.48887 30.26766
#
# Velocity S-wave (km/s) = 3.87430 4.03390 3.95491
# Velocity P-wave (km/s) = 6.84329 7.28942 7.06988
#
# Compressibility (1/GPa) = 0.01927008
#
# Stress axis : x y z
#
# Youngs Moduli (GPa) = 57.56141 47.96741 86.40966
#
# Poissons Ratio (x) = 0.21105 0.50911
# Poissons Ratio (y) = 0.25327 0.42943
# Poissons Ratio (z) = 0.33914 0.23838
#
# Static dielectric constant tensor:
#      x y z
#    x 3.592190 0.000000 0.000000 
#    y 0.000000 3.615300 0.000000 
#    z 0.000000 0.000000 3.701990 
# 
# 
# High freq. dielectric constant tensor:
#      x y z
#    x 1.756800 0.000000 0.000000 
#    y 0.000000 1.765570 0.000000 
#    z 0.000000 0.000000 1.765720 
# 
# From -- ./inp_files/20403.got.cif
#   From: 2010.03.12/outbox.cif.g09.slc.cpg/sg59_11_cif.got.tgz:20403.got - 2010.04.16 16:29:54.
