data_PCOD8245306
_publ_section_title
;
Structure prediction by ZEFSAII (Michael W. Deem and Ramdas Pophale) SiO2 
 PCOD8245306
Probable space group: P M M N
;
_chemical_formula_sum "Si O2"
_cell_formula_units_Z 64
_cell_length_a 8.960931
_cell_length_b 15.129428
_cell_length_c 23.994558
_cell_angle_alpha 90.000000
_cell_angle_beta 90.000000
_cell_angle_gamma 90.000000
_cell_volume 3253.032457
_symmetry_space_group_name_H-M "P M M N"
_symmetry_group_IT_number 59
_space_group.IT_coordinate_system_code '2'
_symmetry_cell_setting 'orthorhombic'
loop_
_space_group_symop_operation_xyz
x,y,z
1/2-x,1/2-y,z
1/2+x,-y,-z
-x,1/2+y,-z
-x,-y,-z
1/2+x,1/2+y,-z
1/2-x,y,z
x,1/2-y,z
loop_
_atom_site_type_symbol
_atom_site_label
_atom_site_fract_x
_atom_site_fract_y
_atom_site_fract_z
Si Si1 0.424056 0.647330 0.117966
Si Si2 0.920015 0.347983 0.394507
Si Si3 0.926553 0.851117 0.885075
Si Si4 0.425011 0.999380 0.812886
Si Si5 0.073488 0.405054 0.502495
Si Si6 0.920049 0.150304 0.612814
Si Si7 0.424026 0.006709 0.684391
Si Si8 0.085400 0.145353 0.991662
O O1 0.250000 0.630334 0.123930
O O2 0.466085 0.750000 0.127177
O O3 0.507643 0.590424 0.164183
O O4 0.472258 0.614298 0.056367
O O5 0.750000 0.367318 0.413508
O O6 0.933694 0.250000 0.368239
O O7 0.971290 0.418069 0.348275
O O8 0.026419 0.351242 0.447986
O O9 0.750000 0.859375 0.877263
O O10 0.978430 0.750000 0.875251
O O11 0.971161 0.885002 0.947280
O O12 0.008500 0.912709 0.841263
O O13 0.250000 0.001068 0.823233
O O14 0.466770 0.992773 0.748260
O O15 0.250000 0.413999 0.505300
O O16 0.000000 0.500000 0.500000
O O17 0.017554 0.355179 0.557155
O O18 0.750000 0.122855 0.599134
O O19 0.928299 0.250000 0.635632
O O20 0.982960 0.088460 0.661157
O O21 0.250000 0.027629 0.676609
O O22 0.250000 0.106098 0.978788
O O23 0.097094 0.250000 0.993537
#
# Coordination Sequence:
#
# PCOD8245306 Si02
#       8
#     8   8   8   8   8   8   8   8
#     4  10  21  37  58  84 114 150 192 239 295 354
#     4  10  21  39  63  89 118 153 192 237 291 346
#     4   9  19  37  60  86 117 153 191 236 292 349
#     4  11  24  39  58  85 115 153 201 245 289 345
#     4  12  23  37  61  92 125 158 193 235 286 343
#     4  11  24  41  63  91 121 155 193 237 293 350
#     4  10  23  42  61  83 114 155 200 245 289 336
#     4   8  15  31  56  84 114 147 185 233 290 349
#
# _framework density 19.673950999999999
#
# number of rings (size 3 to 8) (size 9 to 14) (size 15 to 20)
#    0.000    1.875    1.250    3.375    0.000    6.750 
#    0.000    5.000    0.000    0.000    0.000    0.000 
#    0.000    0.000    0.000    0.000    0.000    0.000 
#
# Total GULP energy -793710.656765 kJ/mol
# GULP energy per Si atom -12401.729012 kJ/mol
# Density = 1.962917 g / cm^3
# Si number density = 19.673951 Si / 1000 Ang^3
#
#
#
# Elastic Constant Matrix: (Units=GPa)
#
#
# Indices 1 2 3 4 5 6 
#
# 1 101.4123 49.3800 61.3779 0.0000 0.0000 0.0000
# 2 49.3800 112.2142 56.1711 0.0000 0.0000 0.0000
# 3 61.3779 56.1711 129.5893 0.0000 0.0000 0.0000
# 4 0.0000 0.0000 0.0000 13.9328 0.0000 0.0000
# 5 0.0000 0.0000 0.0000 0.0000 27.9730 0.0000
# 6 0.0000 0.0000 0.0000 0.0000 0.0000 29.9352
#
#
#
# Elastic Compliance Matrix: (Units=1/GPa)
#
#
# Indices 1 2 3 4 5 6 
#
# 1 0.015052 -0.003901 -0.005438 0.000000 0.000000 0.000000
# 2 -0.003901 0.012392 -0.003524 0.000000 0.000000 0.000000
# 3 -0.005438 -0.003524 0.011820 0.000000 0.000000 0.000000
# 4 0.000000 0.000000 0.000000 0.071773 0.000000 0.000000
# 5 0.000000 0.000000 0.000000 0.000000 0.035749 0.000000
# 6 0.000000 0.000000 0.000000 0.000000 0.000000 0.033406
#
#
# Mechanical properties :
#
#
# Convention : Reuss Voigt Hill
#
# Bulk Modulus (GPa) = 73.86861 75.23043 74.54952
# Shear Modulus (GPa) = 23.76101 26.12065 24.94083
#
# Velocity S-wave (km/s) = 3.47902 3.64768 3.56435
# Velocity P-wave (km/s) = 7.33253 7.48748 7.41041
#
# Compressibility (1/GPa) = 0.01353755
#
# Stress axis : x y z
#
# Youngs Moduli (GPa) = 66.43814 80.69608 84.60558
#
# Poissons Ratio (x) = 0.31483 0.46007
# Poissons Ratio (y) = 0.25921 0.29812
# Poissons Ratio (z) = 0.36128 0.28434
#
# Static dielectric constant tensor:
#      x y z
#    x 3.698850 0.000000 0.000000 
#    y 0.000000 3.574000 0.000000 
#    z 0.000000 0.000000 3.675200 
# 
# 
# High freq. dielectric constant tensor:
#      x y z
#    x 1.767750 0.000000 0.000000 
#    y 0.000000 1.772050 0.000000 
#    z 0.000000 0.000000 1.762980 
# 
# From -- ./inp_files/31463.got.cif
#   From: 2010.03.12/outbox.cif.g09.slc.cpg/sg59_16_cif.got.tgz:31463.got - 2010.04.16 16:29:54.
