data_PCOD8245578
_publ_section_title
;
Structure prediction by ZEFSAII (Michael W. Deem and Ramdas Pophale) SiO2 
 PCOD8245578
Probable space group: P M M N
;
_chemical_formula_sum "Si O2"
_cell_formula_units_Z 64
_cell_length_a 20.152796
_cell_length_b 16.455179
_cell_length_c 9.880225
_cell_angle_alpha 90.000000
_cell_angle_beta 90.000000
_cell_angle_gamma 90.000000
_cell_volume 3276.459125
_symmetry_space_group_name_H-M "P M M N"
_symmetry_group_IT_number 59
_space_group.IT_coordinate_system_code '2'
_symmetry_cell_setting 'orthorhombic'
loop_
_space_group_symop_operation_xyz
x,y,z
1/2-x,1/2-y,z
1/2+x,-y,-z
-x,1/2+y,-z
-x,-y,-z
1/2+x,1/2+y,-z
1/2-x,y,z
x,1/2-y,z
loop_
_atom_site_type_symbol
_atom_site_label
_atom_site_fract_x
_atom_site_fract_y
_atom_site_fract_z
Si Si1 0.436635 0.843325 0.966483
Si Si2 0.673826 0.534402 0.387538
Si Si3 0.826472 0.467308 0.101085
Si Si4 0.542862 0.415260 0.752322
Si Si5 0.678307 0.435587 0.644996
Si Si6 0.821794 0.580899 0.848868
Si Si7 0.043691 0.390298 0.247070
Si Si8 0.937562 0.656132 0.453109
O O1 0.419831 0.750000 0.993701
O O2 0.367759 0.887459 0.934131
O O3 0.486550 0.851242 0.842063
O O4 0.471340 0.882037 0.098293
O O5 0.750000 0.562734 0.380188
O O6 0.647985 0.504806 0.241834
O O7 0.664171 0.458656 0.489094
O O8 0.632507 0.611607 0.437114
O O9 0.750000 0.440376 0.109943
O O10 0.838208 0.535025 0.987883
O O11 0.616320 0.384488 0.703425
O O12 0.539015 0.512377 0.753027
O O13 0.489365 0.380437 0.651316
O O14 0.750000 0.388980 0.657049
O O15 0.684754 0.518747 0.726267
O O16 0.750000 0.627074 0.861711
O O17 0.884438 0.638575 0.813899
O O18 0.033933 0.356066 0.396920
O O19 0.926265 0.750000 0.420811
#
# Coordination Sequence:
#
# PCOD8245578 Si02
#       8
#     8   8   8   8   8   8   8   8
#     4  12  25  39  57  88 125 157 192 246 305 350
#     4  10  21  38  62  91 117 151 199 243 289 351
#     4  10  21  38  62  91 117 151 199 243 289 351
#     4  11  22  39  62  87 114 158 204 242 286 355
#     4   9  17  34  61  90 112 138 195 251 280 330
#     4   9  17  34  61  90 112 138 195 251 280 330
#     4  11  22  39  62  87 114 158 204 242 286 355
#     4  12  25  39  57  88 125 157 192 246 305 350
#
# _framework density 19.533282
#
# number of rings (size 3 to 8) (size 9 to 14) (size 15 to 20)
#    0.000    1.500    5.000    2.250    3.500    0.500 
#    0.000    0.000    0.000    2.250    0.000    0.000 
#    0.000    0.000    0.000    0.000    0.000    0.000 
#
# Total GULP energy -793483.841181 kJ/mol
# GULP energy per Si atom -12398.185018 kJ/mol
# Density = 1.948882 g / cm^3
# Si number density = 19.533282 Si / 1000 Ang^3
#
#
#
# Elastic Constant Matrix: (Units=GPa)
#
#
# Indices 1 2 3 4 5 6 
#
# 1 85.4448 16.8251 36.3139 0.0000 0.0000 0.0000
# 2 16.8251 50.7023 11.7446 0.0000 0.0000 0.0000
# 3 36.3139 11.7446 77.6126 0.0000 0.0000 0.0000
# 4 0.0000 0.0000 0.0000 16.4871 0.0000 0.0000
# 5 0.0000 0.0000 0.0000 0.0000 35.2185 0.0000
# 6 0.0000 0.0000 0.0000 0.0000 0.0000 1.6868
#
#
#
# Elastic Compliance Matrix: (Units=1/GPa)
#
#
# Indices 1 2 3 4 5 6 
#
# 1 0.015191 -0.003518 -0.006575 0.000000 0.000000 0.000000
# 2 -0.003518 0.021254 -0.001570 0.000000 0.000000 0.000000
# 3 -0.006575 -0.001570 0.016199 0.000000 0.000000 0.000000
# 4 0.000000 0.000000 0.000000 0.060654 0.000000 0.000000
# 5 0.000000 0.000000 0.000000 0.000000 0.028394 0.000000
# 6 0.000000 0.000000 0.000000 0.000000 0.000000 0.592854
#
#
# Mechanical properties :
#
#
# Convention : Reuss Voigt Hill
#
# Bulk Modulus (GPa) = 34.11027 38.16966 36.13996
# Shear Modulus (GPa) = 6.51344 20.60354 13.55849
#
# Velocity S-wave (km/s) = 1.82805 3.25128 2.63748
# Velocity P-wave (km/s) = 4.68575 5.80325 5.27418
#
# Compressibility (1/GPa) = 0.02931669
#
# Stress axis : x y z
#
# Youngs Moduli (GPa) = 65.83024 47.04986 61.73388
#
# Poissons Ratio (x) = 0.16551 0.40591
# Poissons Ratio (y) = 0.23158 0.09694
# Poissons Ratio (z) = 0.43284 0.07388
#
# Static dielectric constant tensor:
#      x y z
#    x 3.963610 0.000000 0.000000 
#    y 0.000000 3.096500 0.000000 
#    z 0.000000 0.000000 3.851700 
# 
# 
# High freq. dielectric constant tensor:
#      x y z
#    x 1.781240 0.000000 0.000000 
#    y 0.000000 1.705800 0.000000 
#    z 0.000000 0.000000 1.784280 
# 
# From -- ./inp_files/11617.got.cif
#   From: 2010.03.12/outbox.cif.g09.slc.cpg/sg59_6_cif.got.tgz:11617.got - 2010.04.16 16:29:54.
