data_PCOD8245495
_publ_section_title
;
Structure prediction by ZEFSAII (Michael W. Deem and Ramdas Pophale) SiO2 
 PCOD8245495
Probable space group: P M M N
;
_chemical_formula_sum "Si O2"
_cell_formula_units_Z 64
_cell_length_a 15.000396
_cell_length_b 8.831595
_cell_length_c 23.954239
_cell_angle_alpha 90.000000
_cell_angle_beta 90.000000
_cell_angle_gamma 90.000000
_cell_volume 3173.395836
_symmetry_space_group_name_H-M "P M M N"
_symmetry_group_IT_number 59
_space_group.IT_coordinate_system_code '2'
_symmetry_cell_setting 'orthorhombic'
loop_
_space_group_symop_operation_xyz
x,y,z
1/2-x,1/2-y,z
1/2+x,-y,-z
-x,1/2+y,-z
-x,-y,-z
1/2+x,1/2+y,-z
1/2-x,y,z
x,1/2-y,z
loop_
_atom_site_type_symbol
_atom_site_label
_atom_site_fract_x
_atom_site_fract_y
_atom_site_fract_z
Si Si1 0.497429 0.570821 0.311143
Si Si2 0.348385 0.922160 0.398322
Si Si3 0.144207 0.580207 0.989322
Si Si4 0.403966 0.428681 0.506837
Si Si5 0.853217 0.572046 0.123779
Si Si6 0.148212 0.427649 0.101816
Si Si7 0.504548 0.928861 0.807107
Si Si8 0.648721 0.077016 0.379648
O O1 0.503349 0.750000 0.304634
O O2 0.420107 0.520247 0.353754
O O3 0.472588 0.497711 0.252539
O O4 0.590928 0.508200 0.333284
O O5 0.250000 0.931538 0.371117
O O6 0.370850 0.750000 0.416638
O O7 0.347643 0.029028 0.452355
O O8 0.250000 0.578572 0.991111
O O9 0.106409 0.750000 0.984086
O O10 0.111027 0.485585 0.936056
O O11 0.108690 0.505922 0.046291
O O12 0.500000 0.500000 0.500000
O O13 0.410998 0.250000 0.513888
O O14 0.356657 0.495340 0.561004
O O15 0.750000 0.527005 0.133022
O O16 0.867135 0.750000 0.126821
O O17 0.910421 0.493687 0.171987
O O18 0.250000 0.479114 0.114646
O O19 0.144187 0.250000 0.091229
O O20 0.085812 0.477962 0.152830
O O21 0.496022 0.750000 0.802447
O O22 0.750000 0.070384 0.358372
O O23 0.615762 0.250000 0.385808
#
# Coordination Sequence:
#
# PCOD8245495 Si02
#       8
#     8   8   8   8   8   8   8   8
#     4  11  24  42  63  86 117 158 201 248 295 349
#     4  10  22  41  64  91 123 159 198 243 297 354
#     4   9  17  31  55  87 119 150 187 235 291 349
#     4  12  23  37  62  94 128 163 198 242 296 353
#     4  10  21  38  60  85 115 152 193 239 292 353
#     4   9  19  37  59  84 116 154 194 237 288 347
#     4  11  24  40  60  85 115 153 198 248 296 346
#     4  11  24  42  65  92 123 159 198 245 299 354
#
# _framework density 20.167670000000001
#
# number of rings (size 3 to 8) (size 9 to 14) (size 15 to 20)
#    0.000    1.625    1.250    3.375    0.000    8.000 
#    0.000    0.000    0.000    0.000    0.000    0.000 
#    0.000    0.000    0.000    0.000    0.000    0.000 
#
# Total GULP energy -793872.175151 kJ/mol
# GULP energy per Si atom -12404.252737 kJ/mol
# Density = 2.012177 g / cm^3
# Si number density = 20.167670 Si / 1000 Ang^3
#
#
#
# Elastic Constant Matrix: (Units=GPa)
#
#
# Indices 1 2 3 4 5 6 
#
# 1 79.7971 25.1882 23.0901 0.0000 0.0000 0.0000
# 2 25.1882 83.0364 32.2330 0.0000 0.0000 0.0000
# 3 23.0901 32.2330 103.7342 0.0000 0.0000 0.0000
# 4 0.0000 0.0000 0.0000 39.1508 0.0000 0.0000
# 5 0.0000 0.0000 0.0000 0.0000 18.6829 0.0000
# 6 0.0000 0.0000 0.0000 0.0000 0.0000 25.6905
#
#
#
# Elastic Compliance Matrix: (Units=1/GPa)
#
#
# Indices 1 2 3 4 5 6 
#
# 1 0.014242 -0.003513 -0.002078 0.000000 0.000000 0.000000
# 2 -0.003513 0.014561 -0.003743 0.000000 0.000000 0.000000
# 3 -0.002078 -0.003743 0.011266 0.000000 0.000000 0.000000
# 4 0.000000 0.000000 0.000000 0.025542 0.000000 0.000000
# 5 0.000000 0.000000 0.000000 0.000000 0.053525 0.000000
# 6 0.000000 0.000000 0.000000 0.000000 0.000000 0.038925
#
#
# Mechanical properties :
#
#
# Convention : Reuss Voigt Hill
#
# Bulk Modulus (GPa) = 46.72817 47.51002 47.11910
# Shear Modulus (GPa) = 27.19406 29.10860 28.15133
#
# Velocity S-wave (km/s) = 3.67604 3.80324 3.74018
# Velocity P-wave (km/s) = 6.42167 6.54941 6.48586
#
# Compressibility (1/GPa) = 0.02140037
#
# Stress axis : x y z
#
# Youngs Moduli (GPa) = 70.21372 68.67439 88.76588
#
# Poissons Ratio (x) = 0.24128 0.18450
# Poissons Ratio (y) = 0.24669 0.33221
# Poissons Ratio (z) = 0.14594 0.25702
#
# Static dielectric constant tensor:
#      x y z
#    x 3.708240 0.000000 0.000000 
#    y 0.000000 3.787910 0.000000 
#    z 0.000000 0.000000 3.693520 
# 
# 
# High freq. dielectric constant tensor:
#      x y z
#    x 1.791630 0.000000 0.000000 
#    y 0.000000 1.795380 0.000000 
#    z 0.000000 0.000000 1.783690 
# 
# From -- ./inp_files/32205.got.cif
#   From: 2010.03.12/outbox.cif.g09.slc.cpg/sg59_17_cif.got.tgz:32205.got - 2010.04.16 16:29:54.
