data_PCOD8245184
_publ_section_title
;
Structure prediction by ZEFSAII (Michael W. Deem and Ramdas Pophale) SiO2 
 PCOD8245184
Probable space group: P M M N
;
_chemical_formula_sum "Si O2"
_cell_formula_units_Z 48
_cell_length_a 15.399408
_cell_length_b 8.751078
_cell_length_c 18.719012
_cell_angle_alpha 90.000000
_cell_angle_beta 90.000000
_cell_angle_gamma 90.000000
_cell_volume 2522.600649
_symmetry_space_group_name_H-M "P M M N"
_symmetry_group_IT_number 59
_space_group.IT_coordinate_system_code '2'
_symmetry_cell_setting 'orthorhombic'
loop_
_space_group_symop_operation_xyz
x,y,z
1/2-x,1/2-y,z
1/2+x,-y,-z
-x,1/2+y,-z
-x,-y,-z
1/2+x,1/2+y,-z
1/2-x,y,z
x,1/2-y,z
loop_
_atom_site_type_symbol
_atom_site_label
_atom_site_fract_x
_atom_site_fract_y
_atom_site_fract_z
Si Si1 0.914909 0.570980 0.033772
Si Si2 0.650457 0.929320 0.591778
Si Si3 0.844066 0.425476 0.907632
Si Si4 0.349157 0.927610 0.560123
Si Si5 0.011971 0.431544 0.665281
Si Si6 0.507593 0.570322 0.175465
O O1 0.915516 0.750000 0.023441
O O2 0.914484 0.531259 0.119123
O O3 0.837189 0.501732 0.986830
O O4 0.000000 0.500000 0.000000
O O5 0.750000 0.970856 0.612514
O O6 0.632800 0.750000 0.599663
O O7 0.631216 0.976718 0.510718
O O8 0.585207 0.021676 0.642483
O O9 0.750000 0.446295 0.870843
O O10 0.867647 0.250000 0.920870
O O11 0.916976 0.498978 0.855855
O O12 0.250000 0.954348 0.585786
O O13 0.366589 0.750000 0.543924
O O14 0.414335 0.985244 0.620173
O O15 0.022790 0.250000 0.658078
O O16 0.027019 0.494197 0.745983
O O17 0.495199 0.750000 0.183912
#
# Coordination Sequence:
#
# PCOD8245184 Si02
#       6
#     8   8   8   8   8   8
#     4   9  16  30  50  69  92 123 162 202 239 285
#     4  10  21  37  56  79 108 140 175 216 260 309
#     4   9  17  31  51  74 100 130 166 208 252 299
#     4  10  21  38  58  78 102 135 177 222 265 312
#     4  11  21  34  55  80 107 140 177 216 261 314
#     4   8  17  32  49  71  99 134 170 203 246 302
#
# _framework density 19.027982999999999
#
# number of rings (size 3 to 8) (size 9 to 14) (size 15 to 20)
#    0.000    2.500    0.000    3.500    0.000    3.000 
#    0.000   10.833    0.000    5.000    0.000    0.000 
#    0.000    0.000    0.000    0.000    0.000    0.000 
#
# Total GULP energy -594769.834523 kJ/mol
# GULP energy per Si atom -12391.038219 kJ/mol
# Density = 1.898467 g / cm^3
# Si number density = 19.027983 Si / 1000 Ang^3
#
#
#
# Elastic Constant Matrix: (Units=GPa)
#
#
# Indices 1 2 3 4 5 6 
#
# 1 52.8619 8.9568 17.1742 0.0000 0.0000 0.0000
# 2 8.9568 44.5256 7.0839 0.0000 0.0000 0.0000
# 3 17.1742 7.0839 91.6213 0.0000 0.0000 0.0000
# 4 0.0000 0.0000 0.0000 24.5024 0.0000 0.0000
# 5 0.0000 0.0000 0.0000 0.0000 19.0445 0.0000
# 6 0.0000 0.0000 0.0000 0.0000 0.0000 26.3856
#
#
#
# Elastic Compliance Matrix: (Units=1/GPa)
#
#
# Indices 1 2 3 4 5 6 
#
# 1 0.020696 -0.003590 -0.003602 0.000000 0.000000 0.000000
# 2 -0.003590 0.023361 -0.001133 0.000000 0.000000 0.000000
# 3 -0.003602 -0.001133 0.011677 0.000000 0.000000 0.000000
# 4 0.000000 0.000000 0.000000 0.040812 0.000000 0.000000
# 5 0.000000 0.000000 0.000000 0.000000 0.052508 0.000000
# 6 0.000000 0.000000 0.000000 0.000000 0.000000 0.037899
#
#
# Mechanical properties :
#
#
# Convention : Reuss Voigt Hill
#
# Bulk Modulus (GPa) = 25.58588 28.38205 26.98397
# Shear Modulus (GPa) = 23.08051 24.37278 23.72664
#
# Velocity S-wave (km/s) = 3.48656 3.58284 3.53503
# Velocity P-wave (km/s) = 5.44828 5.66251 5.55643
#
# Compressibility (1/GPa) = 0.03908406
#
# Stress axis : x y z
#
# Youngs Moduli (GPa) = 48.31923 42.80551 85.63654
#
# Poissons Ratio (x) = 0.15368 0.30844
# Poissons Ratio (y) = 0.17347 0.09705
# Poissons Ratio (z) = 0.17403 0.04851
#
# Static dielectric constant tensor:
#      x y z
#    x 3.599410 0.000000 0.000000 
#    y 0.000000 3.571910 0.000000 
#    z 0.000000 0.000000 3.844380 
# 
# 
# High freq. dielectric constant tensor:
#      x y z
#    x 1.733060 0.000000 0.000000 
#    y 0.000000 1.731890 0.000000 
#    z 0.000000 0.000000 1.736040 
# 
# From -- ./inp_files/25761.got.cif
#   From: 2010.03.12/outbox.cif.g09.slc.cpg/sg59_13_cif.got.tgz:25761.got - 2010.04.16 16:29:54.
