data_PCOD8245314
_publ_section_title
;
Structure prediction by ZEFSAII (Michael W. Deem and Ramdas Pophale) SiO2 
 PCOD8245314
Probable space group: P M M N
;
_chemical_formula_sum "Si O2"
_cell_formula_units_Z 64
_cell_length_a 9.064019
_cell_length_b 20.049781
_cell_length_c 18.450226
_cell_angle_alpha 90.000000
_cell_angle_beta 90.000000
_cell_angle_gamma 90.000000
_cell_volume 3352.989016
_symmetry_space_group_name_H-M "P M M N"
_symmetry_group_IT_number 59
_space_group.IT_coordinate_system_code '2'
_symmetry_cell_setting 'orthorhombic'
loop_
_space_group_symop_operation_xyz
x,y,z
1/2-x,1/2-y,z
1/2+x,-y,-z
-x,1/2+y,-z
-x,-y,-z
1/2+x,1/2+y,-z
1/2-x,y,z
x,1/2-y,z
loop_
_atom_site_type_symbol
_atom_site_label
_atom_site_fract_x
_atom_site_fract_y
_atom_site_fract_z
Si Si1 0.421840 0.057706 0.456263
Si Si2 0.575207 0.939864 0.709210
Si Si3 0.919999 0.173219 0.038538
Si Si4 0.920787 0.559226 0.040819
Si Si5 0.579900 0.825723 0.439226
Si Si6 0.079866 0.672783 0.794934
Si Si7 0.078107 0.827434 0.292814
Si Si8 0.577887 0.560943 0.209677
O O1 0.250000 0.042429 0.459340
O O2 0.477701 0.059928 0.373930
O O3 0.460098 0.128780 0.492248
O O4 0.500000 0.000000 0.500000
O O5 0.750000 0.946499 0.716506
O O6 0.525140 0.870496 0.744316
O O7 0.499299 0.001472 0.748103
O O8 0.750000 0.155416 0.024298
O O9 0.951538 0.250000 0.020461
O O10 0.960130 0.157552 0.121731
O O11 0.019887 0.130318 0.985297
O O12 0.750000 0.555354 0.022000
O O13 0.951145 0.550433 0.125328
O O14 0.000000 0.500000 0.000000
O O15 0.750000 0.833948 0.415859
O O16 0.544218 0.750000 0.462110
O O17 0.480355 0.848425 0.371785
O O18 0.250000 0.653964 0.780456
O O19 0.051209 0.750000 0.776886
O O20 0.250000 0.844686 0.289325
O O21 0.046340 0.750000 0.277408
O O22 0.992686 0.868697 0.231927
O O23 0.750000 0.561369 0.228689
#
# Coordination Sequence:
#
# PCOD8245314 Si02
#       8
#     8   8   8   8   8   8   8   8
#     4  10  22  37  54  79 109 141 179 225 274 324
#     4  11  23  37  56  84 114 143 182 233 280 321
#     4   9  19  37  60  84 112 146 182 223 272 325
#     4  11  24  39  57  82 111 144 184 230 275 324
#     4   9  18  35  58  80 106 144 183 217 263 325
#     4   9  19  37  59  83 113 149 186 221 264 325
#     4  10  21  37  58  85 114 142 178 227 276 321
#     4  11  24  40  57  79 110 148 187 225 270 329
#
# _framework density 19.087447999999998
#
# number of rings (size 3 to 8) (size 9 to 14) (size 15 to 20)
#    0.000    2.000    0.000    3.750    0.000   11.250 
#    0.000    5.000    0.000    1.500    0.000    0.000 
#    0.000    0.000    0.000    0.000    0.000    0.000 
#
# Total GULP energy -793883.805604 kJ/mol
# GULP energy per Si atom -12404.434463 kJ/mol
# Density = 1.904400 g / cm^3
# Si number density = 19.087448 Si / 1000 Ang^3
#
#
#
# Elastic Constant Matrix: (Units=GPa)
#
#
# Indices 1 2 3 4 5 6 
#
# 1 103.0592 64.3908 78.5123 0.0000 0.0000 0.0000
# 2 64.3908 109.9217 64.8273 0.0000 0.0000 0.0000
# 3 78.5123 64.8273 97.8495 0.0000 0.0000 0.0000
# 4 0.0000 0.0000 0.0000 40.7308 0.0000 0.0000
# 5 0.0000 0.0000 0.0000 0.0000 30.8693 0.0000
# 6 0.0000 0.0000 0.0000 0.0000 0.0000 36.9764
#
#
#
# Elastic Compliance Matrix: (Units=1/GPa)
#
#
# Indices 1 2 3 4 5 6 
#
# 1 0.026472 -0.004891 -0.018000 0.000000 0.000000 0.000000
# 2 -0.004891 0.015835 -0.006567 0.000000 0.000000 0.000000
# 3 -0.018000 -0.006567 0.029013 0.000000 0.000000 0.000000
# 4 0.000000 0.000000 0.000000 0.024551 0.000000 0.000000
# 5 0.000000 0.000000 0.000000 0.000000 0.032395 0.000000
# 6 0.000000 0.000000 0.000000 0.000000 0.000000 0.027044
#
#
# Mechanical properties :
#
#
# Convention : Reuss Voigt Hill
#
# Bulk Modulus (GPa) = 80.61456 80.69900 80.65678
# Shear Modulus (GPa) = 22.89793 28.58864 25.74329
#
# Velocity S-wave (km/s) = 3.46733 3.87430 3.67645
# Velocity P-wave (km/s) = 7.63910 7.89835 7.76981
#
# Compressibility (1/GPa) = 0.01240471
#
# Stress axis : x y z
#
# Youngs Moduli (GPa) = 37.77610 63.14990 34.46754
#
# Poissons Ratio (x) = 0.30889 0.62041
# Poissons Ratio (y) = 0.18478 0.22633
# Poissons Ratio (z) = 0.67996 0.41468
#
# Static dielectric constant tensor:
#      x y z
#    x 3.539240 0.000000 0.000000 
#    y 0.000000 3.754180 0.000000 
#    z 0.000000 0.000000 3.571670 
# 
# 
# High freq. dielectric constant tensor:
#      x y z
#    x 1.745560 0.000000 0.000000 
#    y 0.000000 1.756200 0.000000 
#    z 0.000000 0.000000 1.743810 
# 
# From -- ./inp_files/26185.got.cif
#   From: 2010.03.12/outbox.cif.g09.slc.cpg/sg59_14_cif.got.tgz:26185.got - 2010.04.16 16:29:54.
