data_PCOD8245591
_publ_section_title
;
Structure prediction by ZEFSAII (Michael W. Deem and Ramdas Pophale) SiO2 
 PCOD8245591
Probable space group: P M M N
;
_chemical_formula_sum "Si O2"
_cell_formula_units_Z 56
_cell_length_a 8.994753
_cell_length_b 20.214739
_cell_length_c 15.720723
_cell_angle_alpha 90.000000
_cell_angle_beta 90.000000
_cell_angle_gamma 90.000000
_cell_volume 2858.445365
_symmetry_space_group_name_H-M "P M M N"
_symmetry_group_IT_number 59
_space_group.IT_coordinate_system_code '2'
_symmetry_cell_setting 'orthorhombic'
loop_
_space_group_symop_operation_xyz
x,y,z
1/2-x,1/2-y,z
1/2+x,-y,-z
-x,1/2+y,-z
-x,-y,-z
1/2+x,1/2+y,-z
1/2-x,y,z
x,1/2-y,z
loop_
_atom_site_type_symbol
_atom_site_label
_atom_site_fract_x
_atom_site_fract_y
_atom_site_fract_z
Si Si1 0.418109 0.327578 0.409551
Si Si2 0.586084 0.983529 0.416063
Si Si3 0.575576 0.531443 0.879517
Si Si4 0.426097 0.750000 0.292207
Si Si5 0.575176 0.104639 0.966809
Si Si6 0.084778 0.593711 0.720513
Si Si7 0.426449 0.750000 0.102004
Si Si8 0.074633 0.637597 0.415799
O O1 0.250000 0.355121 0.408760
O O2 0.421292 0.250000 0.418864
O O3 0.493818 0.344581 0.318177
O O4 0.503702 0.356407 0.490901
O O5 0.750000 0.955480 0.437380
O O6 0.483425 0.928801 0.370784
O O7 0.500000 0.000000 0.500000
O O8 0.601499 0.046776 0.359174
O O9 0.750000 0.543546 0.873679
O O10 0.541881 0.453024 0.896347
O O11 0.500382 0.553704 0.792722
O O12 0.512909 0.581380 0.950425
O O13 0.250000 0.750000 0.283646
O O14 0.494326 0.750000 0.197359
O O15 0.483654 0.810768 0.347168
O O16 0.750000 0.105932 0.987143
O O17 0.521660 0.179813 0.941296
O O18 0.250000 0.615596 0.752164
O O19 0.250000 0.750000 0.104350
O O20 0.250000 0.639854 0.428250
#
# Coordination Sequence:
#
# PCOD8245591 Si02
#       8
#     8   8   8   4   8   8   4   8
#     4  11  23  39  59  82 114 154 198 248 300 350
#     4  11  23  37  55  82 115 154 198 248 294 341
#     4  10  21  38  63  91 119 153 193 242 299 358
#     4   9  20  34  55  86 117 150 193 239 282 343
#     4   9  19  38  65  90 118 154 192 238 296 359
#     4  11  24  40  60  86 116 152 200 247 291 348
#     4   9  18  36  61  92 121 150 193 239 286 349
#     4  11  21  35  56  82 116 158 199 240 289 346
#
# _framework density 19.591069999999998
#
# number of rings (size 3 to 8) (size 9 to 14) (size 15 to 20)
#    0.000    1.714    2.143    2.143    2.000    3.143 
#    1.286    0.357    0.000    1.714    0.000    0.000 
#    0.000    0.000    0.000    0.000    0.000    0.000 
#
# Total GULP energy -693815.524656 kJ/mol
# GULP energy per Si atom -12389.562940 kJ/mol
# Density = 1.954648 g / cm^3
# Si number density = 19.591070 Si / 1000 Ang^3
#
#
#
# Elastic Constant Matrix: (Units=GPa)
#
#
# Indices 1 2 3 4 5 6 
#
# 1 93.4898 28.4504 37.4454 0.0000 0.0000 0.0000
# 2 28.4504 94.9674 27.8022 0.0000 0.0000 0.0000
# 3 37.4454 27.8022 88.0864 0.0000 0.0000 0.0000
# 4 0.0000 0.0000 0.0000 31.6502 0.0000 0.0000
# 5 0.0000 0.0000 0.0000 0.0000 28.8681 0.0000
# 6 0.0000 0.0000 0.0000 0.0000 0.0000 28.6682
#
#
#
# Elastic Compliance Matrix: (Units=1/GPa)
#
#
# Indices 1 2 3 4 5 6 
#
# 1 0.013448 -0.002595 -0.004898 0.000000 0.000000 0.000000
# 2 -0.002595 0.012103 -0.002717 0.000000 0.000000 0.000000
# 3 -0.004898 -0.002717 0.014292 0.000000 0.000000 0.000000
# 4 0.000000 0.000000 0.000000 0.031595 0.000000 0.000000
# 5 0.000000 0.000000 0.000000 0.000000 0.034640 0.000000
# 6 0.000000 0.000000 0.000000 0.000000 0.000000 0.034882
#
#
# Mechanical properties :
#
#
# Convention : Reuss Voigt Hill
#
# Bulk Modulus (GPa) = 51.48343 51.54885 51.51614
# Shear Modulus (GPa) = 29.78799 30.02700 29.90750
#
# Velocity S-wave (km/s) = 3.90357 3.91920 3.91140
# Velocity P-wave (km/s) = 6.83032 6.84469 6.83751
#
# Compressibility (1/GPa) = 0.01942373
#
# Stress axis : x y z
#
# Youngs Moduli (GPa) = 74.36257 82.62642 69.96956
#
# Poissons Ratio (x) = 0.21440 0.34268
# Poissons Ratio (y) = 0.19296 0.19009
# Poissons Ratio (z) = 0.36420 0.22448
#
# Static dielectric constant tensor:
#      x y z
#    x 2.788370 0.000000 0.000000 
#    y 0.000000 4.551040 0.000000 
#    z 0.000000 0.000000 7.405740 
# 
# 
# High freq. dielectric constant tensor:
#      x y z
#    x 1.761340 0.000000 0.000000 
#    y 0.000000 1.774420 0.000000 
#    z 0.000000 0.000000 1.753650 
# 
# From -- ./inp_files/21172.got.cif
#   From: 2010.03.12/outbox.cif.g09.slc.cpg/sg59_11_cif.got.tgz:21172.got - 2010.04.16 16:29:54.
