data_PCOD8245681
_publ_section_title
;
Structure prediction by ZEFSAII (Michael W. Deem and Ramdas Pophale) SiO2 
 PCOD8245681
Probable space group: P M M N
;
_chemical_formula_sum "Si O2"
_cell_formula_units_Z 48
_cell_length_a 22.332507
_cell_length_b 17.100503
_cell_length_c 5.508759
_cell_angle_alpha 90.000000
_cell_angle_beta 90.000000
_cell_angle_gamma 90.000000
_cell_volume 2103.779103
_symmetry_space_group_name_H-M "P M M N"
_symmetry_group_IT_number 59
_space_group.IT_coordinate_system_code '2'
_symmetry_cell_setting 'orthorhombic'
loop_
_space_group_symop_operation_xyz
x,y,z
1/2-x,1/2-y,z
1/2+x,-y,-z
-x,1/2+y,-z
-x,-y,-z
1/2+x,1/2+y,-z
1/2-x,y,z
x,1/2-y,z
loop_
_atom_site_type_symbol
_atom_site_label
_atom_site_fract_x
_atom_site_fract_y
_atom_site_fract_z
Si Si1 0.085617 0.342028 0.388931
Si Si2 0.683093 0.956357 0.557097
Si Si3 0.426738 0.839154 0.350684
Si Si4 0.530765 0.907160 0.106014
Si Si5 0.183372 0.604328 0.135775
Si Si6 0.595307 0.055021 0.237910
O O1 0.088869 0.250000 0.386158
O O2 0.153801 0.373997 0.368238
O O3 0.054628 0.368391 0.641728
O O4 0.053316 0.370230 0.143103
O O5 0.750000 0.943404 0.450009
O O6 0.687002 0.013692 0.788140
O O7 0.638342 0.992569 0.364266
O O8 0.448529 0.750000 0.376282
O O9 0.459301 0.883932 0.122395
O O10 0.354104 0.844023 0.329845
O O11 0.443921 0.888756 0.589279
O O12 0.545610 0.000796 0.100162
O O13 0.250000 0.639487 0.098145
O O14 0.142417 0.610356 0.899757
#
# Coordination Sequence:
#
# PCOD8245681 Si02
#       6
#     8   8   8   8   8   8
#     4  11  22  39  63  96 135 175 215 271 335 393
#     4   9  19  37  60  89 125 167 216 267 321 389
#     4  11  25  41  61  93 131 170 214 277 340 396
#     4  11  24  43  67  95 132 175 221 270 327 403
#     4  10  21  40  64  89 121 165 221 273 324 388
#     4  10  21  40  66  94 122 171 224 271 329 395
#
# _framework density 22.816085000000001
#
# number of rings (size 3 to 8) (size 9 to 14) (size 15 to 20)
#    0.000    1.667    1.667    2.500    2.333    2.667 
#    0.000    0.000    0.000    2.000    0.000    0.000 
#    0.000    0.000    0.000    0.000    0.000    0.000 
#
# Total GULP energy -594757.948969 kJ/mol
# GULP energy per Si atom -12390.790604 kJ/mol
# Density = 2.276415 g / cm^3
# Si number density = 22.816085 Si / 1000 Ang^3
#
#
#
# Elastic Constant Matrix: (Units=GPa)
#
#
# Indices 1 2 3 4 5 6 
#
# 1 148.2385 34.4950 29.1236 0.0000 0.0000 0.0000
# 2 34.4950 121.7208 23.2990 0.0000 0.0000 0.0000
# 3 29.1236 23.2990 95.8016 0.0000 0.0000 0.0000
# 4 0.0000 0.0000 0.0000 21.7814 0.0000 0.0000
# 5 0.0000 0.0000 0.0000 0.0000 26.1835 0.0000
# 6 0.0000 0.0000 0.0000 0.0000 0.0000 17.9973
#
#
#
# Elastic Compliance Matrix: (Units=1/GPa)
#
#
# Indices 1 2 3 4 5 6 
#
# 1 0.007524 -0.001777 -0.001855 0.000000 0.000000 0.000000
# 2 -0.001777 0.009036 -0.001657 0.000000 0.000000 0.000000
# 3 -0.001855 -0.001657 0.011405 0.000000 0.000000 0.000000
# 4 0.000000 0.000000 0.000000 0.045911 0.000000 0.000000
# 5 0.000000 0.000000 0.000000 0.000000 0.038192 0.000000
# 6 0.000000 0.000000 0.000000 0.000000 0.000000 0.055564
#
#
# Mechanical properties :
#
#
# Convention : Reuss Voigt Hill
#
# Bulk Modulus (GPa) = 57.51643 59.95512 58.73578
# Shear Modulus (GPa) = 27.17290 31.78199 29.47744
#
# Velocity S-wave (km/s) = 3.45476 3.73629 3.59828
# Velocity P-wave (km/s) = 6.41695 6.70431 6.56221
#
# Compressibility (1/GPa) = 0.01738634
#
# Stress axis : x y z
#
# Youngs Moduli (GPa) = 132.91014 110.66346 87.67885
#
# Poissons Ratio (x) = 0.19666 0.16265
# Poissons Ratio (y) = 0.23620 0.14532
# Poissons Ratio (z) = 0.24656 0.18341
#
# Static dielectric constant tensor:
#      x y z
#    x 4.539550 0.000000 0.000000 
#    y 0.000000 3.932550 0.000000 
#    z 0.000000 0.000000 4.221190 
# 
# 
# High freq. dielectric constant tensor:
#      x y z
#    x 1.920790 0.000000 0.000000 
#    y 0.000000 1.886000 0.000000 
#    z 0.000000 0.000000 1.906870 
# 
# From -- ./inp_files/2873.got.cif
#   From: 2010.03.12/outbox.cif.g09.slc.cpg/sg59_2_cif.got.tgz:2873.got - 2010.04.16 16:29:54.
