data_PCOD8245171
_publ_section_title
;
Structure prediction by ZEFSAII (Michael W. Deem and Ramdas Pophale) SiO2 
 PCOD8245171
Probable space group: P M M N
;
_chemical_formula_sum "Si O2"
_cell_formula_units_Z 64
_cell_length_a 8.986396
_cell_length_b 14.240668
_cell_length_c 26.185209
_cell_angle_alpha 90.000000
_cell_angle_beta 90.000000
_cell_angle_gamma 90.000000
_cell_volume 3350.980949
_symmetry_space_group_name_H-M "P M M N"
_symmetry_group_IT_number 59
_space_group.IT_coordinate_system_code '2'
_symmetry_cell_setting 'orthorhombic'
loop_
_space_group_symop_operation_xyz
x,y,z
1/2-x,1/2-y,z
1/2+x,-y,-z
-x,1/2+y,-z
-x,-y,-z
1/2+x,1/2+y,-z
1/2-x,y,z
x,1/2-y,z
loop_
_atom_site_type_symbol
_atom_site_label
_atom_site_fract_x
_atom_site_fract_y
_atom_site_fract_z
Si Si1 0.080098 0.361147 0.107509
Si Si2 0.579483 0.496844 0.446503
Si Si3 0.424392 0.995850 0.819757
Si Si4 0.917330 0.138292 0.006632
Si Si5 0.077742 0.142177 0.638091
Si Si6 0.422002 0.143036 0.906160
Si Si7 0.926531 0.498456 0.711846
Si Si8 0.074102 0.641760 0.640280
O O1 0.250000 0.395399 0.111244
O O2 0.068069 0.250000 0.111077
O O3 0.984949 0.401351 0.154314
O O4 0.012075 0.399297 0.054441
O O5 0.500000 0.500000 0.500000
O O6 0.750000 0.481180 0.459179
O O7 0.550974 0.594284 0.416830
O O8 0.522136 0.410085 0.411686
O O9 0.250000 0.984582 0.808425
O O10 0.459388 0.083893 0.856065
O O11 0.512733 0.014585 0.768338
O O12 0.750000 0.099909 0.012125
O O13 0.921427 0.250000 0.005927
O O14 0.987559 0.100533 0.954021
O O15 0.250000 0.131009 0.654414
O O16 0.029492 0.250000 0.633593
O O17 0.976557 0.092703 0.680258
O O18 0.250000 0.136539 0.921205
O O19 0.469152 0.250000 0.894403
O O20 0.750000 0.505300 0.712398
O O21 0.992274 0.594214 0.688094
O O22 0.250000 0.628912 0.648388
O O23 0.026674 0.750000 0.636914
#
# Coordination Sequence:
#
# PCOD8245171 Si02
#       8
#     8   8   8   8   8   8   8   8
#     4  10  21  37  56  78 106 139 175 219 269 319
#     4   9  18  32  52  83 120 153 185 225 272 319
#     4  11  23  38  57  80 106 140 180 220 268 327
#     4   9  17  31  53  79 106 137 172 211 259 318
#     4   9  19  38  61  81 107 149 195 231 268 321
#     4   9  19  36  56  78 104 135 173 215 259 312
#     4  11  23  38  56  81 112 140 175 230 285 330
#     4   9  19  38  61  81 106 147 194 231 268 321
#
# _framework density 19.098884999999999
#
# number of rings (size 3 to 8) (size 9 to 14) (size 15 to 20)
#    0.000    2.375    0.000    3.000    0.000    7.750 
#    0.000    1.250    0.000    0.000    0.000    0.000 
#    0.000    0.000    0.000    0.000    0.000    0.000 
#
# Total GULP energy -793738.303648 kJ/mol
# GULP energy per Si atom -12402.160995 kJ/mol
# Density = 1.905541 g / cm^3
# Si number density = 19.098885 Si / 1000 Ang^3
#
#
#
# Elastic Constant Matrix: (Units=GPa)
#
#
# Indices 1 2 3 4 5 6 
#
# 1 91.3014 38.1808 52.1670 0.0000 0.0000 0.0000
# 2 38.1808 98.1033 34.8856 0.0000 0.0000 0.0000
# 3 52.1670 34.8856 122.7565 0.0000 0.0000 0.0000
# 4 0.0000 0.0000 0.0000 19.2592 0.0000 0.0000
# 5 0.0000 0.0000 0.0000 0.0000 41.1458 0.0000
# 6 0.0000 0.0000 0.0000 0.0000 0.0000 23.0576
#
#
#
# Elastic Compliance Matrix: (Units=1/GPa)
#
#
# Indices 1 2 3 4 5 6 
#
# 1 0.015886 -0.004207 -0.005555 0.000000 0.000000 0.000000
# 2 -0.004207 0.012453 -0.001751 0.000000 0.000000 0.000000
# 3 -0.005555 -0.001751 0.011005 0.000000 0.000000 0.000000
# 4 0.000000 0.000000 0.000000 0.051923 0.000000 0.000000
# 5 0.000000 0.000000 0.000000 0.000000 0.024304 0.000000
# 6 0.000000 0.000000 0.000000 0.000000 0.000000 0.043370
#
#
# Mechanical properties :
#
#
# Convention : Reuss Voigt Hill
#
# Bulk Modulus (GPa) = 61.28666 62.51422 61.90044
# Shear Modulus (GPa) = 26.67974 29.15437 27.91705
#
# Velocity S-wave (km/s) = 3.74160 3.91128 3.82738
# Velocity P-wave (km/s) = 7.12916 7.29386 7.21198
#
# Compressibility (1/GPa) = 0.01631676
#
# Stress axis : x y z
#
# Youngs Moduli (GPa) = 62.94691 80.29880 90.86995
#
# Poissons Ratio (x) = 0.33784 0.50483
# Poissons Ratio (y) = 0.26484 0.15913
# Poissons Ratio (z) = 0.34970 0.14062
#
# Static dielectric constant tensor:
#      x y z
#    x 3.591420 0.000000 0.000000 
#    y 0.000000 3.603030 0.000000 
#    z 0.000000 0.000000 3.473790 
# 
# 
# High freq. dielectric constant tensor:
#      x y z
#    x 1.742870 0.000000 0.000000 
#    y 0.000000 1.744910 0.000000 
#    z 0.000000 0.000000 1.740940 
# 
# From -- ./inp_files/31615.got.cif
#   From: 2010.03.12/outbox.cif.g09.slc.cpg/sg59_16_cif.got.tgz:31615.got - 2010.04.16 16:29:54.
