data_PCOD8245164
_publ_section_title
;
Structure prediction by ZEFSAII (Michael W. Deem and Ramdas Pophale) SiO2 
 PCOD8245164
Probable space group: P M M N
;
_chemical_formula_sum "Si O2"
_cell_formula_units_Z 64
_cell_length_a 20.982767
_cell_length_b 8.918435
_cell_length_c 17.113326
_cell_angle_alpha 90.000000
_cell_angle_beta 90.000000
_cell_angle_gamma 90.000000
_cell_volume 3202.475626
_symmetry_space_group_name_H-M "P M M N"
_symmetry_group_IT_number 59
_space_group.IT_coordinate_system_code '2'
_symmetry_cell_setting 'orthorhombic'
loop_
_space_group_symop_operation_xyz
x,y,z
1/2-x,1/2-y,z
1/2+x,-y,-z
-x,1/2+y,-z
-x,-y,-z
1/2+x,1/2+y,-z
1/2-x,y,z
x,1/2-y,z
loop_
_atom_site_type_symbol
_atom_site_label
_atom_site_fract_x
_atom_site_fract_y
_atom_site_fract_z
Si Si1 0.107164 0.423921 0.354722
Si Si2 0.433530 0.427001 0.088848
Si Si3 0.990101 0.926236 0.415270
Si Si4 0.679165 0.414632 0.520353
Si Si5 0.133673 0.921632 0.645468
Si Si6 0.178115 0.076141 0.798431
Si Si7 0.563995 0.926179 0.089866
Si Si8 0.678447 0.927784 0.799928
O O1 0.089679 0.250000 0.347412
O O2 0.139936 0.454191 0.438260
O O3 0.153622 0.477106 0.285345
O O4 0.043247 0.521222 0.353216
O O5 0.439177 0.250000 0.099340
O O6 0.499431 0.496572 0.121976
O O7 0.372106 0.489077 0.136207
O O8 0.423474 0.475642 0.999297
O O9 0.991722 0.750000 0.427429
O O10 0.925839 0.974442 0.373575
O O11 0.000000 0.000000 0.500000
O O12 0.750000 0.422366 0.553267
O O13 0.649041 0.250000 0.539884
O O14 0.681262 0.436989 0.427488
O O15 0.111984 0.750000 0.658652
O O16 0.170648 0.979561 0.720774
O O17 0.250000 0.050863 0.831459
O O18 0.167064 0.250000 0.778300
O O19 0.125883 0.021201 0.861538
O O20 0.553662 0.750000 0.096292
O O21 0.750000 0.994009 0.813775
O O22 0.682114 0.750000 0.805496
#
# Coordination Sequence:
#
# PCOD8245164 Si02
#       8
#     8   8   8   8   8   8   8   8
#     4  11  22  36  56  83 114 150 191 238 292 347
#     4   9  18  35  60  87 115 152 194 237 289 346
#     4  12  24  40  60  85 113 148 193 242 295 349
#     4  10  21  37  56  77 106 147 192 238 289 344
#     4  11  23  39  59  83 113 151 194 242 292 345
#     4  10  22  39  58  85 120 156 196 243 295 353
#     4   9  19  36  58  86 118 152 192 238 290 348
#     4   9  19  35  56  86 119 149 190 240 286 338
#
# _framework density 19.984539000000002
#
# number of rings (size 3 to 8) (size 9 to 14) (size 15 to 20)
#    0.000    1.875    1.250    2.625    1.750    3.000 
#    0.000    3.125    0.000    1.875    0.000    3.500 
#    0.000    0.000    0.000    0.000    0.000    0.000 
#
# Total GULP energy -793503.943949 kJ/mol
# GULP energy per Si atom -12398.499124 kJ/mol
# Density = 1.993905 g / cm^3
# Si number density = 19.984539 Si / 1000 Ang^3
#
#
#
# Elastic Constant Matrix: (Units=GPa)
#
#
# Indices 1 2 3 4 5 6 
#
# 1 153.7831 39.4442 55.1364 0.0000 0.0000 0.0000
# 2 39.4442 72.8099 27.6150 0.0000 0.0000 0.0000
# 3 55.1364 27.6150 91.2957 0.0000 0.0000 0.0000
# 4 0.0000 0.0000 0.0000 22.6658 0.0000 0.0000
# 5 0.0000 0.0000 0.0000 0.0000 36.7493 0.0000
# 6 0.0000 0.0000 0.0000 0.0000 0.0000 30.0754
#
#
#
# Elastic Compliance Matrix: (Units=1/GPa)
#
#
# Indices 1 2 3 4 5 6 
#
# 1 0.008893 -0.003141 -0.004421 0.000000 0.000000 0.000000
# 2 -0.003141 0.016624 -0.003131 0.000000 0.000000 0.000000
# 3 -0.004421 -0.003131 0.014570 0.000000 0.000000 0.000000
# 4 0.000000 0.000000 0.000000 0.044119 0.000000 0.000000
# 5 0.000000 0.000000 0.000000 0.000000 0.027211 0.000000
# 6 0.000000 0.000000 0.000000 0.000000 0.000000 0.033250
#
#
# Mechanical properties :
#
#
# Convention : Reuss Voigt Hill
#
# Bulk Modulus (GPa) = 53.47324 62.47555 57.97439
# Shear Modulus (GPa) = 29.02112 30.94431 29.98272
#
# Velocity S-wave (km/s) = 3.81488 3.93926 3.87757
# Velocity P-wave (km/s) = 6.79852 7.21250 7.00856
#
# Compressibility (1/GPa) = 0.01870094
#
# Stress axis : x y z
#
# Youngs Moduli (GPa) = 112.44323 60.15502 68.63210
#
# Poissons Ratio (x) = 0.18896 0.30341
# Poissons Ratio (y) = 0.35321 0.21490
# Poissons Ratio (z) = 0.49709 0.18836
#
# Static dielectric constant tensor:
#      x y z
#    x 3.993660 0.000000 0.000000 
#    y 0.000000 3.467000 0.000000 
#    z 0.000000 0.000000 3.658160 
# 
# 
# High freq. dielectric constant tensor:
#      x y z
#    x 1.794630 0.000000 0.000000 
#    y 0.000000 1.761930 0.000000 
#    z 0.000000 0.000000 1.772130 
# 
# From -- ./inp_files/28204.got.cif
#   From: 2010.03.12/outbox.cif.g09.slc.cpg/sg59_15_cif.got.tgz:28204.got - 2010.04.16 16:29:54.
