data_PCOD8245965
_publ_section_title
;
Structure prediction by ZEFSAII (Michael W. Deem and Ramdas Pophale) SiO2 
 PCOD8245965
Probable space group: P M M N
;
_chemical_formula_sum "Si O2"
_cell_formula_units_Z 48
_cell_length_a 9.197102
_cell_length_b 15.518409
_cell_length_c 18.297357
_cell_angle_alpha 90.000000
_cell_angle_beta 90.000000
_cell_angle_gamma 90.000000
_cell_volume 2611.479125
_symmetry_space_group_name_H-M "P M M N"
_symmetry_group_IT_number 59
_space_group.IT_coordinate_system_code '2'
_symmetry_cell_setting 'orthorhombic'
loop_
_space_group_symop_operation_xyz
x,y,z
1/2-x,1/2-y,z
1/2+x,-y,-z
-x,1/2+y,-z
-x,-y,-z
1/2+x,1/2+y,-z
1/2-x,y,z
x,1/2-y,z
loop_
_atom_site_type_symbol
_atom_site_label
_atom_site_fract_x
_atom_site_fract_y
_atom_site_fract_z
Si Si1 0.581999 0.349341 0.573223
Si Si2 0.577008 0.515012 0.327361
Si Si3 0.582426 0.081931 0.969812
Si Si4 0.077666 0.655262 0.593094
Si Si5 0.417225 0.992825 0.179316
Si Si6 0.915118 0.844176 0.911301
O O1 0.750000 0.376529 0.583026
O O2 0.560740 0.250000 0.596576
O O3 0.481154 0.408707 0.622461
O O4 0.529641 0.362946 0.490010
O O5 0.750000 0.518358 0.327675
O O6 0.518572 0.421833 0.355792
O O7 0.519609 0.531049 0.246153
O O8 0.750000 0.078110 0.991997
O O9 0.565417 0.082910 0.881674
O O10 0.507728 0.160644 0.013052
O O11 0.500000 0.000000 0.000000
O O12 0.250000 0.658020 0.596057
O O13 0.017800 0.750000 0.618282
O O14 0.250000 0.998956 0.205511
O O15 0.471003 0.084435 0.146016
O O16 0.750000 0.867806 0.932705
O O17 0.926443 0.750000 0.874206
#
# Coordination Sequence:
#
# PCOD8245965 Si02
#       6
#     8   8   8   8   8   8
#     4   9  18  35  57  74  94 132 175 212 256 312
#     4  11  21  31  50  79 107 135 168 213 261 299
#     4   9  17  31  51  71  92 123 162 201 239 283
#     4   8  16  32  52  75 103 134 169 208 253 307
#     4   9  19  34  49  68 100 138 168 195 237 301
#     4   9  18  33  53  76 101 129 162 204 252 298
#
# _framework density 18.380386999999999
#
# number of rings (size 3 to 8) (size 9 to 14) (size 15 to 20)
#    0.000    2.833    0.000    3.500    0.000    4.667 
#    0.000    1.667    0.000    4.500    0.000    0.000 
#    0.000    0.000    0.000    0.000    0.000    0.000 
#
# Total GULP energy -594837.341857 kJ/mol
# GULP energy per Si atom -12392.444622 kJ/mol
# Density = 1.833855 g / cm^3
# Si number density = 18.380387 Si / 1000 Ang^3
#
#
#
# Elastic Constant Matrix: (Units=GPa)
#
#
# Indices 1 2 3 4 5 6 
#
# 1 66.3597 17.3711 34.1839 0.0000 0.0000 0.0000
# 2 17.3711 50.0639 18.2907 0.0000 0.0000 0.0000
# 3 34.1839 18.2907 79.4877 0.0000 0.0000 0.0000
# 4 0.0000 0.0000 0.0000 17.8381 0.0000 0.0000
# 5 0.0000 0.0000 0.0000 0.0000 23.9561 0.0000
# 6 0.0000 0.0000 0.0000 0.0000 0.0000 24.0538
#
#
#
# Elastic Compliance Matrix: (Units=1/GPa)
#
#
# Indices 1 2 3 4 5 6 
#
# 1 0.020125 -0.004172 -0.007695 0.000000 0.000000 0.000000
# 2 -0.004172 0.022673 -0.003423 0.000000 0.000000 0.000000
# 3 -0.007695 -0.003423 0.016677 0.000000 0.000000 0.000000
# 4 0.000000 0.000000 0.000000 0.056060 0.000000 0.000000
# 5 0.000000 0.000000 0.000000 0.000000 0.041743 0.000000
# 6 0.000000 0.000000 0.000000 0.000000 0.000000 0.041573
#
#
# Mechanical properties :
#
#
# Convention : Reuss Voigt Hill
#
# Bulk Modulus (GPa) = 34.60706 37.28918 35.94812
# Shear Modulus (GPa) = 20.91496 21.57396 21.24446
#
# Velocity S-wave (km/s) = 3.37693 3.42972 3.40343
# Velocity P-wave (km/s) = 5.83729 6.00129 5.91986
#
# Compressibility (1/GPa) = 0.02889584
#
# Stress axis : x y z
#
# Youngs Moduli (GPa) = 49.68859 44.10610 59.96110
#
# Poissons Ratio (x) = 0.18400 0.46140
# Poissons Ratio (y) = 0.20729 0.20525
# Poissons Ratio (z) = 0.38235 0.15098
#
# Static dielectric constant tensor:
#      x y z
#    x 3.382930 0.000000 0.000000 
#    y 0.000000 3.196540 0.000000 
#    z 0.000000 0.000000 4.427830 
# 
# 
# High freq. dielectric constant tensor:
#      x y z
#    x 1.699030 0.000000 0.000000 
#    y 0.000000 1.708620 0.000000 
#    z 0.000000 0.000000 1.702660 
# 
# From -- ./inp_files/25484.got.cif
#   From: 2010.03.12/outbox.cif.g09.slc.cpg/sg59_13_cif.got.tgz:25484.got - 2010.04.16 16:29:54.
