data_PCOD8245148
_publ_section_title
;
Structure prediction by ZEFSAII (Michael W. Deem and Ramdas Pophale) SiO2 
 PCOD8245148
Probable space group: P M M N
;
_chemical_formula_sum "Si O2"
_cell_formula_units_Z 48
_cell_length_a 9.042754
_cell_length_b 30.382060
_cell_length_c 9.114689
_cell_angle_alpha 90.000000
_cell_angle_beta 90.000000
_cell_angle_gamma 90.000000
_cell_volume 2504.146820
_symmetry_space_group_name_H-M "P M M N"
_symmetry_group_IT_number 59
_space_group.IT_coordinate_system_code '2'
_symmetry_cell_setting 'orthorhombic'
loop_
_space_group_symop_operation_xyz
x,y,z
1/2-x,1/2-y,z
1/2+x,-y,-z
-x,1/2+y,-z
-x,-y,-z
1/2+x,1/2+y,-z
1/2-x,y,z
x,1/2-y,z
loop_
_atom_site_type_symbol
_atom_site_label
_atom_site_fract_x
_atom_site_fract_y
_atom_site_fract_z
Si Si1 0.421811 0.700721 0.398567
Si Si2 0.423420 0.880927 0.589541
Si Si3 0.074029 0.040986 0.578729
Si Si4 0.922761 0.700264 0.102906
Si Si5 0.421324 0.461375 0.914686
Si Si6 0.422048 0.122983 0.104937
O O1 0.250000 0.700465 0.362253
O O2 0.475605 0.750000 0.442072
O O3 0.459126 0.668194 0.532254
O O4 0.501254 0.683967 0.251838
O O5 0.250000 0.892159 0.580713
O O6 0.514310 0.914403 0.490606
O O7 0.475743 0.884792 0.755743
O O8 0.250000 0.038845 0.560005
O O9 0.023790 0.040214 0.747599
O O10 0.000000 0.000000 0.500000
O O11 0.750000 0.696457 0.132542
O O12 0.971117 0.750000 0.062783
O O13 0.968907 0.669186 0.968262
O O14 0.250000 0.472289 0.920806
O O15 0.500000 0.500000 0.000000
O O16 0.457627 0.414870 0.988326
O O17 0.250000 0.122727 0.151664
#
# Coordination Sequence:
#
# PCOD8245148 Si02
#       6
#     8   8   8   8   8   8
#     4   9  19  36  56  79 110 147 186 229 277 328
#     4  11  23  37  55  82 113 147 188 230 274 327
#     4  11  23  40  61  85 113 145 182 225 275 329
#     4   9  18  34  57  83 109 140 183 232 280 332
#     4  10  22  38  57  80 107 140 177 218 265 319
#     4  10  21  37  55  78 110 145 180 223 275 326
#
# _framework density 19.168205
#
# number of rings (size 3 to 8) (size 9 to 14) (size 15 to 20)
#    0.000    2.000    0.000    3.000    0.000    8.667 
#    0.000    0.000    0.000    0.000    0.000    0.000 
#    0.000    0.000    0.000    0.000    0.000    0.000 
#
# Total GULP energy -595355.693292 kJ/mol
# GULP energy per Si atom -12403.243610 kJ/mol
# Density = 1.912458 g / cm^3
# Si number density = 19.168205 Si / 1000 Ang^3
#
#
#
# Elastic Constant Matrix: (Units=GPa)
#
#
# Indices 1 2 3 4 5 6 
#
# 1 60.6777 45.3459 55.9327 0.0000 0.0000 0.0000
# 2 45.3459 113.3530 69.1619 0.0000 0.0000 0.0000
# 3 55.9327 69.1619 157.0169 0.0000 0.0000 0.0000
# 4 0.0000 0.0000 0.0000 36.5930 0.0000 0.0000
# 5 0.0000 0.0000 0.0000 0.0000 34.9624 0.0000
# 6 0.0000 0.0000 0.0000 0.0000 0.0000 30.9712
#
#
#
# Elastic Compliance Matrix: (Units=1/GPa)
#
#
# Indices 1 2 3 4 5 6 
#
# 1 0.028106 -0.007022 -0.006919 0.000000 0.000000 0.000000
# 2 -0.007022 0.013819 -0.003585 0.000000 0.000000 0.000000
# 3 -0.006919 -0.003585 0.010413 0.000000 0.000000 0.000000
# 4 0.000000 0.000000 0.000000 0.027328 0.000000 0.000000
# 5 0.000000 0.000000 0.000000 0.000000 0.028602 0.000000
# 6 0.000000 0.000000 0.000000 0.000000 0.000000 0.032288
#
#
# Mechanical properties :
#
#
# Convention : Reuss Voigt Hill
#
# Bulk Modulus (GPa) = 57.85441 74.65873 66.25657
# Shear Modulus (GPa) = 27.56799 31.21247 29.39023
#
# Velocity S-wave (km/s) = 3.79649 4.03965 3.91996
# Velocity P-wave (km/s) = 7.03320 7.79694 7.42489
#
# Compressibility (1/GPa) = 0.01728477
#
# Stress axis : x y z
#
# Youngs Moduli (GPa) = 35.57939 72.36561 96.03662
#
# Poissons Ratio (x) = 0.50815 0.66447
# Poissons Ratio (y) = 0.24984 0.34433
# Poissons Ratio (z) = 0.24617 0.25946
#
# Static dielectric constant tensor:
#      x y z
#    x 3.508600 0.000000 0.000000 
#    y 0.000000 3.876520 0.000000 
#    z 0.000000 0.000000 3.628220 
# 
# 
# High freq. dielectric constant tensor:
#      x y z
#    x 1.743980 0.000000 0.000000 
#    y 0.000000 1.761680 0.000000 
#    z 0.000000 0.000000 1.749090 
# 
# From -- ./inp_files/6237.got.cif
#   From: 2010.03.12/outbox.cif.g09.slc.cpg/sg59_4_cif.got.tgz:6237.got - 2010.04.16 16:29:54.
