data_PCOD8245207
_publ_section_title
;
Structure prediction by ZEFSAII (Michael W. Deem and Ramdas Pophale) SiO2 
 PCOD8245207
Probable space group: P M M N
;
_chemical_formula_sum "Si O2"
_cell_formula_units_Z 40
_cell_length_a 8.958999
_cell_length_b 29.463587
_cell_length_c 7.600746
_cell_angle_alpha 90.000000
_cell_angle_beta 90.000000
_cell_angle_gamma 90.000000
_cell_volume 2006.325190
_symmetry_space_group_name_H-M "P M M N"
_symmetry_group_IT_number 59
_space_group.IT_coordinate_system_code '2'
_symmetry_cell_setting 'orthorhombic'
loop_
_space_group_symop_operation_xyz
x,y,z
1/2-x,1/2-y,z
1/2+x,-y,-z
-x,1/2+y,-z
-x,-y,-z
1/2+x,1/2+y,-z
1/2-x,y,z
x,1/2-y,z
loop_
_atom_site_type_symbol
_atom_site_label
_atom_site_fract_x
_atom_site_fract_y
_atom_site_fract_z
Si Si1 0.427168 0.137469 0.446416
Si Si2 0.426932 0.858603 0.927060
Si Si3 0.085609 0.954264 0.542303
Si Si4 0.089675 0.543981 0.952818
Si Si5 0.922404 0.303184 0.734858
O O1 0.250000 0.133651 0.436222
O O2 0.488380 0.151896 0.254650
O O3 0.491934 0.089608 0.517998
O O4 0.474264 0.175767 0.584577
O O5 0.250000 0.860115 0.886654
O O6 0.480213 0.907464 0.010008
O O7 0.468266 0.821013 0.071459
O O8 0.250000 0.954012 0.451104
O O9 0.108599 0.951667 0.747263
O O10 0.000000 0.000000 0.500000
O O11 0.250000 0.537626 0.044806
O O12 0.000000 0.500000 0.000000
O O13 0.750000 0.315322 0.695086
O O14 0.951008 0.250000 0.735077
#
# Coordination Sequence:
#
# PCOD8245207 Si02
#       5
#     8   8   8   8   8
#     4  11  23  39  60  89 125 163 200 246 305 365
#     4   9  20  40  61  85 118 158 203 252 301 354
#     4  10  21  37  56  83 117 157 202 244 293 353
#     4   9  19  33  51  79 113 149 192 236 286 346
#     4  10  22  41  66  92 117 155 206 255 307 363
#
# _framework density 19.936948000000001
#
# number of rings (size 3 to 8) (size 9 to 14) (size 15 to 20)
#    0.000    2.200    0.000    3.600    2.800    6.000 
#    0.000    2.000    0.000    0.000    0.000    0.000 
#    0.000    0.000    0.000    0.000    0.000    0.000 
#
# Total GULP energy -495791.018619 kJ/mol
# GULP energy per Si atom -12394.775465 kJ/mol
# Density = 1.989157 g / cm^3
# Si number density = 19.936948 Si / 1000 Ang^3
#
#
#
# Elastic Constant Matrix: (Units=GPa)
#
#
# Indices 1 2 3 4 5 6 
#
# 1 128.2339 66.1668 52.4626 0.0000 0.0000 0.0000
# 2 66.1668 147.4897 60.2389 0.0000 0.0000 0.0000
# 3 52.4626 60.2389 84.3182 0.0000 0.0000 0.0000
# 4 0.0000 0.0000 0.0000 37.2497 0.0000 0.0000
# 5 0.0000 0.0000 0.0000 0.0000 25.5469 0.0000
# 6 0.0000 0.0000 0.0000 0.0000 0.0000 31.6331
#
#
#
# Elastic Compliance Matrix: (Units=1/GPa)
#
#
# Indices 1 2 3 4 5 6 
#
# 1 0.011401 -0.003131 -0.004857 0.000000 0.000000 0.000000
# 2 -0.003131 0.010433 -0.005506 0.000000 0.000000 0.000000
# 3 -0.004857 -0.005506 0.018815 0.000000 0.000000 0.000000
# 4 0.000000 0.000000 0.000000 0.026846 0.000000 0.000000
# 5 0.000000 0.000000 0.000000 0.000000 0.039144 0.000000
# 6 0.000000 0.000000 0.000000 0.000000 0.000000 0.031612
#
#
# Mechanical properties :
#
#
# Convention : Reuss Voigt Hill
#
# Bulk Modulus (GPa) = 73.19363 79.75314 76.47339
# Shear Modulus (GPa) = 29.44772 30.96417 30.20594
#
# Velocity S-wave (km/s) = 3.84740 3.94522 3.89662
# Velocity P-wave (km/s) = 7.51857 7.80016 7.66066
#
# Compressibility (1/GPa) = 0.01366239
#
# Stress axis : x y z
#
# Youngs Moduli (GPa) = 87.71370 95.84516 53.14876
#
# Poissons Ratio (x) = 0.30009 0.25812
# Poissons Ratio (y) = 0.27463 0.29263
# Poissons Ratio (z) = 0.42599 0.52771
#
# Static dielectric constant tensor:
#      x y z
#    x 3.621650 0.000000 0.000000 
#    y 0.000000 3.291790 0.000000 
#    z 0.000000 0.000000 3.182070 
# 
# 
# High freq. dielectric constant tensor:
#      x y z
#    x 1.769850 0.000000 0.000000 
#    y 0.000000 1.785480 0.000000 
#    z 0.000000 0.000000 1.775560 
# 
# From -- ./inp_files/5707.got.cif
#   From: 2010.03.12/outbox.cif.g09.slc.cpg/sg59_3_cif.got.tgz:5707.got - 2010.04.16 16:29:54.
