data_PCOD8245663
_publ_section_title
;
Structure prediction by ZEFSAII (Michael W. Deem and Ramdas Pophale) SiO2 
 PCOD8245663
Probable space group: P M M N
;
_chemical_formula_sum "Si O2"
_cell_formula_units_Z 56
_cell_length_a 22.211485
_cell_length_b 9.086998
_cell_length_c 14.175455
_cell_angle_alpha 90.000000
_cell_angle_beta 90.000000
_cell_angle_gamma 90.000000
_cell_volume 2861.113163
_symmetry_space_group_name_H-M "P M M N"
_symmetry_group_IT_number 59
_space_group.IT_coordinate_system_code '2'
_symmetry_cell_setting 'orthorhombic'
loop_
_space_group_symop_operation_xyz
x,y,z
1/2-x,1/2-y,z
1/2+x,-y,-z
-x,1/2+y,-z
-x,-y,-z
1/2+x,1/2+y,-z
1/2-x,y,z
x,1/2-y,z
loop_
_atom_site_type_symbol
_atom_site_label
_atom_site_fract_x
_atom_site_fract_y
_atom_site_fract_z
Si Si1 0.440131 0.586342 0.982978
Si Si2 0.750000 0.584268 0.197037
Si Si3 0.873277 0.076241 0.202618
Si Si4 0.750000 0.585079 0.974853
Si Si5 0.966845 0.419296 0.364292
Si Si6 0.153336 0.915529 0.136080
Si Si7 0.419048 0.579757 0.428851
Si Si8 0.180081 0.076198 0.324618
O O1 0.457111 0.750000 0.949427
O O2 0.397640 0.520431 0.899597
O O3 0.500000 0.500000 0.000000
O O4 0.411016 0.588821 0.086510
O O5 0.750000 0.750000 0.238780
O O6 0.689434 0.501873 0.230537
O O7 0.750000 0.590151 0.085562
O O8 0.860503 0.250000 0.202616
O O9 0.923176 0.031180 0.279958
O O10 0.750000 0.750000 0.931274
O O11 0.806923 0.495864 0.940987
O O12 0.986390 0.250000 0.353134
O O13 0.931890 0.444978 0.461639
O O14 0.027416 0.516080 0.363423
O O15 0.176702 0.750000 0.157377
O O16 0.151187 0.009112 0.230669
O O17 0.411115 0.750000 0.402244
O O18 0.356612 0.494061 0.410924
O O19 0.250000 0.032005 0.332931
O O20 0.171557 0.250000 0.323856
#
# Coordination Sequence:
#
# PCOD8245663 Si02
#       8
#     8   4   8   4   8   8   8   8
#     4  10  23  38  55  84 118 154 193 235 289 340
#     4  11  23  37  57  86 117 156 199 243 292 342
#     4  10  21  40  62  85 116 157 198 239 291 353
#     4  11  21  35  55  80 111 152 193 231 278 336
#     4   9  20  40  65  91 117 152 197 243 298 358
#     4  11  22  37  58  84 113 150 194 238 284 337
#     4  10  21  39  64  91 118 151 194 247 302 356
#     4  11  24  40  59  86 120 160 201 243 297 356
#
# _framework density 19.572803
#
# number of rings (size 3 to 8) (size 9 to 14) (size 15 to 20)
#    0.000    1.714    2.143    1.714    2.000    4.286 
#    1.286    0.000    0.000    0.000    0.000    0.000 
#    0.000    0.000    0.000    0.000    0.000    0.000 
#
# Total GULP energy -694394.702490 kJ/mol
# GULP energy per Si atom -12399.905402 kJ/mol
# Density = 1.952825 g / cm^3
# Si number density = 19.572803 Si / 1000 Ang^3
#
#
#
# Elastic Constant Matrix: (Units=GPa)
#
#
# Indices 1 2 3 4 5 6 
#
# 1 116.6843 62.8126 40.8002 0.0000 0.0000 0.0000
# 2 62.8126 107.0009 32.0045 0.0000 0.0000 0.0000
# 3 40.8002 32.0045 66.6413 0.0000 0.0000 0.0000
# 4 0.0000 0.0000 0.0000 28.1621 0.0000 0.0000
# 5 0.0000 0.0000 0.0000 0.0000 -63.4289 0.0000
# 6 0.0000 0.0000 0.0000 0.0000 0.0000 32.6792
#
#
#
# Elastic Compliance Matrix: (Units=1/GPa)
#
#
# Indices 1 2 3 4 5 6 
#
# 1 0.014021 -0.006613 -0.005408 0.000000 0.000000 0.000000
# 2 -0.006613 0.014033 -0.002690 0.000000 0.000000 0.000000
# 3 -0.005408 -0.002690 0.019609 0.000000 0.000000 0.000000
# 4 0.000000 0.000000 0.000000 0.035509 0.000000 0.000000
# 5 0.000000 0.000000 0.000000 0.000000 -0.015766 0.000000
# 6 0.000000 0.000000 0.000000 0.000000 0.000000 0.030600
#
#
# Mechanical properties :
#
#
# Convention : Reuss Voigt Hill
#
# Bulk Modulus (GPa) = 54.82744 62.39568 58.61156
# Shear Modulus (GPa) = 37.45056 9.79642 23.62349
#
# Velocity S-wave (km/s) = 4.37899 2.23964 3.47789
# Velocity P-wave (km/s) = 7.32395 6.21578 6.79250
#
# Compressibility (1/GPa) = 0.01823904
#
# Stress axis : x y z
#
# Youngs Moduli (GPa) = 71.32068 71.26299 50.99730
#
# Poissons Ratio (x) = 0.47128 0.27581
# Poissons Ratio (y) = 0.47166 0.13720
# Poissons Ratio (z) = 0.38572 0.19172
#
# Static dielectric constant tensor:
#      x y z
#    x 3.483470 0.000000 0.000000 
#    y 0.000000 3.749850 0.000000 
#    z 0.000000 0.000000 3.588740 
# 
# 
# High freq. dielectric constant tensor:
#      x y z
#    x 1.766370 0.000000 0.000000 
#    y 0.000000 1.767950 0.000000 
#    z 0.000000 0.000000 1.755880 
# 
# From -- ./inp_files/24394.got.cif
#   From: 2010.03.12/outbox.cif.g09.slc.cpg/sg59_13_cif.got.tgz:24394.got - 2010.04.16 16:29:54.
