data_PCOD8245399
_publ_section_title
;
Structure prediction by ZEFSAII (Michael W. Deem and Ramdas Pophale) SiO2 
 PCOD8245399
Probable space group: P M M N
;
_chemical_formula_sum "Si O2"
_cell_formula_units_Z 64
_cell_length_a 15.065502
_cell_length_b 8.576715
_cell_length_c 23.739260
_cell_angle_alpha 90.000000
_cell_angle_beta 90.000000
_cell_angle_gamma 90.000000
_cell_volume 3067.409536
_symmetry_space_group_name_H-M "P M M N"
_symmetry_group_IT_number 59
_space_group.IT_coordinate_system_code '2'
_symmetry_cell_setting 'orthorhombic'
loop_
_space_group_symop_operation_xyz
x,y,z
1/2-x,1/2-y,z
1/2+x,-y,-z
-x,1/2+y,-z
-x,-y,-z
1/2+x,1/2+y,-z
1/2-x,y,z
x,1/2-y,z
loop_
_atom_site_type_symbol
_atom_site_label
_atom_site_fract_x
_atom_site_fract_y
_atom_site_fract_z
Si Si1 0.150252 0.073561 0.781706
Si Si2 0.515527 0.932075 0.419902
Si Si3 0.648984 0.925460 0.996388
Si Si4 0.989865 0.068603 0.298823
Si Si5 0.851905 0.065797 0.506024
Si Si6 0.153194 0.072169 0.225309
Si Si7 0.089275 0.569572 0.890922
Si Si8 0.593551 0.429895 0.882629
O O1 0.250000 0.066740 0.758187
O O2 0.113152 0.250000 0.779356
O O3 0.091017 0.961299 0.743561
O O4 0.152826 0.015752 0.846427
O O5 0.524867 0.750000 0.431342
O O6 0.419734 0.991484 0.444362
O O7 0.521167 0.966538 0.354201
O O8 0.601226 0.013294 0.448106
O O9 0.750000 0.924983 0.016657
O O10 0.614952 0.750000 0.983944
O O11 0.641124 0.029301 0.940918
O O12 0.592457 0.997547 0.046777
O O13 0.992384 0.250000 0.314929
O O14 0.080831 0.012427 0.269710
O O15 0.750000 0.997881 0.512266
O O16 0.844278 0.250000 0.506181
O O17 0.250000 0.059313 0.254224
O O18 0.132287 0.250000 0.207442
O O19 0.157575 0.964625 0.169690
O O20 0.114767 0.750000 0.893163
O O21 0.989502 0.542088 0.870432
O O22 0.564706 0.250000 0.883738
#
# Coordination Sequence:
#
# PCOD8245399 Si02
#       8
#     8   8   8   8   8   8   8   8
#     4  11  24  42  64  90 121 158 202 255 312 367
#     4  10  21  37  60  91 127 164 205 256 307 355
#     4  11  24  41  60  84 116 152 193 246 306 369
#     4  11  23  40  63  90 124 167 210 252 300 361
#     4   9  19  38  63  91 125 166 209 252 301 359
#     4  10  22  41  63  88 120 159 203 253 309 367
#     4  12  24  40  62  87 117 153 196 247 306 372
#     4  12  24  39  61  87 117 153 198 249 305 369
#
# _framework density 20.864511
#
# number of rings (size 3 to 8) (size 9 to 14) (size 15 to 20)
#    0.000    1.250    1.250    4.875    0.000    7.500 
#    0.000    0.000    0.000    0.000    0.000    0.000 
#    0.000    0.000    0.000    0.000    0.000    0.000 
#
# Total GULP energy -793721.250103 kJ/mol
# GULP energy per Si atom -12401.894533 kJ/mol
# Density = 2.081702 g / cm^3
# Si number density = 20.864511 Si / 1000 Ang^3
#
#
#
# Elastic Constant Matrix: (Units=GPa)
#
#
# Indices 1 2 3 4 5 6 
#
# 1 113.8662 19.9594 23.8066 0.0000 0.0000 0.0000
# 2 19.9594 63.4983 13.3741 0.0000 0.0000 0.0000
# 3 23.8066 13.3741 100.3138 0.0000 0.0000 0.0000
# 4 0.0000 0.0000 0.0000 26.2624 0.0000 0.0000
# 5 0.0000 0.0000 0.0000 0.0000 14.8917 0.0000
# 6 0.0000 0.0000 0.0000 0.0000 0.0000 26.4564
#
#
#
# Elastic Compliance Matrix: (Units=1/GPa)
#
#
# Indices 1 2 3 4 5 6 
#
# 1 0.009648 -0.002624 -0.001940 0.000000 0.000000 0.000000
# 2 -0.002624 0.016917 -0.001633 0.000000 0.000000 0.000000
# 3 -0.001940 -0.001633 0.010647 0.000000 0.000000 0.000000
# 4 0.000000 0.000000 0.000000 0.038077 0.000000 0.000000
# 5 0.000000 0.000000 0.000000 0.000000 0.067152 0.000000
# 6 0.000000 0.000000 0.000000 0.000000 0.000000 0.037798
#
#
# Mechanical properties :
#
#
# Convention : Reuss Voigt Hill
#
# Bulk Modulus (GPa) = 40.29227 43.55093 41.92160
# Shear Modulus (GPa) = 24.88747 28.22465 26.55606
#
# Velocity S-wave (km/s) = 3.45746 3.68198 3.57148
# Velocity P-wave (km/s) = 5.94071 6.24455 6.09453
#
# Compressibility (1/GPa) = 0.02481865
#
# Stress axis : x y z
#
# Youngs Moduli (GPa) = 103.65101 59.11159 93.92545
#
# Poissons Ratio (x) = 0.15511 0.18219
# Poissons Ratio (y) = 0.27198 0.15335
# Poissons Ratio (z) = 0.20106 0.09651
#
# Static dielectric constant tensor:
#      x y z
#    x 3.900910 0.000000 0.000000 
#    y 0.000000 3.701630 0.000000 
#    z 0.000000 0.000000 3.592620 
# 
# 
# High freq. dielectric constant tensor:
#      x y z
#    x 1.826010 0.000000 0.000000 
#    y 0.000000 1.817400 0.000000 
#    z 0.000000 0.000000 1.807600 
# 
# From -- ./inp_files/31476.got.cif
#   From: 2010.03.12/outbox.cif.g09.slc.cpg/sg59_16_cif.got.tgz:31476.got - 2010.04.16 16:29:54.
