data_PCOD8245127
_publ_section_title
;
Structure prediction by ZEFSAII (Michael W. Deem and Ramdas Pophale) SiO2 
 PCOD8245127
Probable space group: P M M N
;
_chemical_formula_sum "Si O2"
_cell_formula_units_Z 64
_cell_length_a 19.468734
_cell_length_b 9.440541
_cell_length_c 19.947299
_cell_angle_alpha 90.000000
_cell_angle_beta 90.000000
_cell_angle_gamma 90.000000
_cell_volume 3666.221430
_symmetry_space_group_name_H-M "P M M N"
_symmetry_group_IT_number 59
_space_group.IT_coordinate_system_code '2'
_symmetry_cell_setting 'orthorhombic'
loop_
_space_group_symop_operation_xyz
x,y,z
1/2-x,1/2-y,z
1/2+x,-y,-z
-x,1/2+y,-z
-x,-y,-z
1/2+x,1/2+y,-z
1/2-x,y,z
x,1/2-y,z
loop_
_atom_site_type_symbol
_atom_site_label
_atom_site_fract_x
_atom_site_fract_y
_atom_site_fract_z
Si Si1 0.548526 0.588910 0.324977
Si Si2 0.671097 0.085090 0.084332
Si Si3 0.329301 0.910954 0.439317
Si Si4 0.392028 0.588125 0.301525
Si Si5 0.829043 0.914433 0.953461
Si Si6 0.587774 0.915589 0.824287
Si Si7 0.566605 0.916545 0.476334
Si Si8 0.931607 0.084385 0.199383
O O1 0.561391 0.750000 0.303194
O O2 0.467830 0.554913 0.329221
O O3 0.580124 0.557270 0.397650
O O4 0.585094 0.491515 0.269590
O O5 0.750000 0.052556 0.103110
O O6 0.659126 0.250000 0.069750
O O7 0.623840 0.032109 0.145275
O O8 0.648072 0.001258 0.018471
O O9 0.250000 0.923084 0.457411
O O10 0.356511 0.750000 0.451768
O O11 0.339946 0.949952 0.361262
O O12 0.367644 0.022888 0.485765
O O13 0.384428 0.750000 0.278557
O O14 0.374700 0.492407 0.237438
O O15 0.750000 0.945145 0.934700
O O16 0.841166 0.750000 0.969145
O O17 0.876616 0.966884 0.892601
O O18 0.598847 0.750000 0.813456
O O19 0.507394 0.956610 0.827197
O O20 0.557126 0.750000 0.491750
O O21 0.500000 0.000000 0.500000
O O22 0.925013 0.250000 0.212686
#
# Coordination Sequence:
#
# PCOD8245127 Si02
#       8
#     8   8   8   8   8   8   8   8
#     4   9  18  33  52  75 101 129 165 209 252 301
#     4   9  18  33  51  70  94 125 163 206 249 296
#     4  10  21  37  54  76 109 143 176 218 266 315
#     4   9  17  32  50  71 100 133 168 205 250 303
#     4   9  18  32  48  67  95 130 164 199 242 296
#     4   9  18  31  47  71 100 129 162 202 247 295
#     4  11  21  35  57  81 106 138 179 221 263 314
#     4   9  18  32  50  73  99 126 160 205 250 297
#
# _framework density 17.456665999999998
#
# number of rings (size 3 to 8) (size 9 to 14) (size 15 to 20)
#    0.000    2.625    1.250    0.375    0.000    3.750 
#    0.000    0.625    0.000    2.250    0.000    0.000 
#    0.000    0.000    0.000    0.000    0.000    0.000 
#
# Total GULP energy -793715.804706 kJ/mol
# GULP energy per Si atom -12401.809449 kJ/mol
# Density = 1.741693 g / cm^3
# Si number density = 17.456666 Si / 1000 Ang^3
#
#
#
# Elastic Constant Matrix: (Units=GPa)
#
#
# Indices 1 2 3 4 5 6 
#
# 1 68.6453 42.1097 61.4278 0.0000 0.0000 0.0000
# 2 42.1097 73.4852 72.4778 0.0000 0.0000 0.0000
# 3 61.4278 72.4778 141.5598 0.0000 0.0000 0.0000
# 4 0.0000 0.0000 0.0000 38.7245 0.0000 0.0000
# 5 0.0000 0.0000 0.0000 0.0000 30.5675 0.0000
# 6 0.0000 0.0000 0.0000 0.0000 0.0000 21.9945
#
#
#
# Elastic Compliance Matrix: (Units=1/GPa)
#
#
# Indices 1 2 3 4 5 6 
#
# 1 0.025729 -0.007539 -0.007305 0.000000 0.000000 0.000000
# 2 -0.007539 0.029699 -0.011934 0.000000 0.000000 0.000000
# 3 -0.007305 -0.011934 0.016344 0.000000 0.000000 0.000000
# 4 0.000000 0.000000 0.000000 0.025823 0.000000 0.000000
# 5 0.000000 0.000000 0.000000 0.000000 0.032714 0.000000
# 6 0.000000 0.000000 0.000000 0.000000 0.000000 0.045466
#
#
# Mechanical properties :
#
#
# Convention : Reuss Voigt Hill
#
# Bulk Modulus (GPa) = 54.89646 70.63566 62.76606
# Shear Modulus (GPa) = 21.24001 25.43562 23.33782
#
# Velocity S-wave (km/s) = 3.49195 3.82130 3.66033
# Velocity P-wave (km/s) = 6.91186 7.74733 7.34149
#
# Compressibility (1/GPa) = 0.01821611
#
# Stress axis : x y z
#
# Youngs Moduli (GPa) = 38.86636 33.67110 61.18356
#
# Poissons Ratio (x) = 0.25385 0.44693
# Poissons Ratio (y) = 0.29302 0.73018
# Poissons Ratio (z) = 0.28391 0.40184
#
# Static dielectric constant tensor:
#      x y z
#    x 3.160740 0.000000 0.000000 
#    y 0.000000 3.276610 0.000000 
#    z 0.000000 0.000000 3.326280 
# 
# 
# High freq. dielectric constant tensor:
#      x y z
#    x 1.659430 0.000000 0.000000 
#    y 0.000000 1.673560 0.000000 
#    z 0.000000 0.000000 1.677770 
# 
# From -- ./inp_files/31004.got.cif
#   From: 2010.03.12/outbox.cif.g09.slc.cpg/sg59_16_cif.got.tgz:31004.got - 2010.04.16 16:29:54.
