data_PCOD8245273
_publ_section_title
;
Structure prediction by ZEFSAII (Michael W. Deem and Ramdas Pophale) SiO2 
 PCOD8245273
Probable space group: P M M N
;
_chemical_formula_sum "Si O2"
_cell_formula_units_Z 56
_cell_length_a 8.751996
_cell_length_b 18.931555
_cell_length_c 16.835405
_cell_angle_alpha 90.000000
_cell_angle_beta 90.000000
_cell_angle_gamma 90.000000
_cell_volume 2789.439628
_symmetry_space_group_name_H-M "P M M N"
_symmetry_group_IT_number 59
_space_group.IT_coordinate_system_code '2'
_symmetry_cell_setting 'orthorhombic'
loop_
_space_group_symop_operation_xyz
x,y,z
1/2-x,1/2-y,z
1/2+x,-y,-z
-x,1/2+y,-z
-x,-y,-z
1/2+x,1/2+y,-z
1/2-x,y,z
x,1/2-y,z
loop_
_atom_site_type_symbol
_atom_site_label
_atom_site_fract_x
_atom_site_fract_y
_atom_site_fract_z
Si Si1 0.930435 0.577251 0.007613
Si Si2 0.429618 0.588811 0.170998
Si Si3 0.931794 0.670132 0.859921
Si Si4 0.421000 0.166777 0.691211
Si Si5 0.569328 0.553186 0.564084
Si Si6 0.568893 0.552126 0.742654
Si Si7 0.574062 0.167027 0.530964
O O1 0.750000 0.570020 0.002336
O O2 0.981747 0.609822 0.091234
O O3 0.990614 0.629826 0.938853
O O4 0.000000 0.500000 0.000000
O O5 0.250000 0.589748 0.154618
O O6 0.473436 0.647457 0.234919
O O7 0.486050 0.512485 0.202232
O O8 0.750000 0.673671 0.861347
O O9 0.999341 0.750000 0.856339
O O10 0.988468 0.625395 0.782892
O O11 0.250000 0.134811 0.698824
O O12 0.412382 0.250000 0.685481
O O13 0.501549 0.137053 0.612241
O O14 0.500000 0.500000 0.500000
O O15 0.750000 0.546212 0.561960
O O16 0.504813 0.541054 0.653421
O O17 0.516956 0.632078 0.541520
O O18 0.750000 0.552573 0.738668
O O19 0.750000 0.143729 0.529982
O O20 0.554066 0.250000 0.521900
#
# Coordination Sequence:
#
# PCOD8245273 Si02
#       7
#     8   8   8   8   8   8   8
#     4  11  21  36  59  86 115 153 195 238 293 351
#     4  11  21  36  59  86 117 151 191 238 292 353
#     4   9  18  35  59  85 113 146 190 243 293 342
#     4  10  21  37  57  84 116 150 195 245 291 347
#     4  11  22  36  58  86 117 151 196 250 300 354
#     4   9  19  35  55  83 112 145 190 240 291 344
#     4  10  21  38  58  80 113 156 196 239 297 358
#
# _framework density 20.075716
#
# number of rings (size 3 to 8) (size 9 to 14) (size 15 to 20)
#    0.000    1.857    1.429    3.000    0.000    4.000 
#    0.000    5.000    0.000    1.286    0.000    0.000 
#    0.000    0.000    0.000    0.000    0.000    0.000 
#
# Total GULP energy -694390.838247 kJ/mol
# GULP energy per Si atom -12399.836397 kJ/mol
# Density = 2.003002 g / cm^3
# Si number density = 20.075716 Si / 1000 Ang^3
#
#
#
# Elastic Constant Matrix: (Units=GPa)
#
#
# Indices 1 2 3 4 5 6 
#
# 1 58.7616 28.7156 29.9704 0.0000 0.0000 0.0000
# 2 28.7156 72.3443 54.2484 0.0000 0.0000 0.0000
# 3 29.9704 54.2484 155.1868 0.0000 0.0000 0.0000
# 4 0.0000 0.0000 0.0000 32.3755 0.0000 0.0000
# 5 0.0000 0.0000 0.0000 0.0000 30.5288 0.0000
# 6 0.0000 0.0000 0.0000 0.0000 0.0000 28.8891
#
#
#
# Elastic Compliance Matrix: (Units=1/GPa)
#
#
# Indices 1 2 3 4 5 6 
#
# 1 0.021394 -0.007310 -0.001576 0.000000 0.000000 0.000000
# 2 -0.007310 0.021231 -0.006010 0.000000 0.000000 0.000000
# 3 -0.001576 -0.006010 0.008849 0.000000 0.000000 0.000000
# 4 0.000000 0.000000 0.000000 0.030888 0.000000 0.000000
# 5 0.000000 0.000000 0.000000 0.000000 0.032756 0.000000
# 6 0.000000 0.000000 0.000000 0.000000 0.000000 0.034615
#
#
# Mechanical properties :
#
#
# Convention : Reuss Voigt Hill
#
# Bulk Modulus (GPa) = 46.12169 56.90682 51.51425
# Shear Modulus (GPa) = 26.77339 29.91590 28.34464
#
# Velocity S-wave (km/s) = 3.65584 3.86444 3.76158
# Velocity P-wave (km/s) = 6.39093 6.95122 6.67695
#
# Compressibility (1/GPa) = 0.02168177
#
# Stress axis : x y z
#
# Youngs Moduli (GPa) = 46.74183 47.10112 113.00470
#
# Poissons Ratio (x) = 0.34430 0.17815
# Poissons Ratio (y) = 0.34167 0.67915
# Poissons Ratio (z) = 0.07369 0.28308
#
# Static dielectric constant tensor:
#      x y z
#    x 3.589790 0.000000 0.000000 
#    y 0.000000 3.748830 0.000000 
#    z 0.000000 0.000000 4.149570 
# 
# 
# High freq. dielectric constant tensor:
#      x y z
#    x 1.762970 0.000000 0.000000 
#    y 0.000000 1.783890 0.000000 
#    z 0.000000 0.000000 1.794900 
# 
# From -- ./inp_files/20945.got.cif
#   From: 2010.03.12/outbox.cif.g09.slc.cpg/sg59_11_cif.got.tgz:20945.got - 2010.04.16 16:29:54.
