data_PCOD8245294
_publ_section_title
;
Structure prediction by ZEFSAII (Michael W. Deem and Ramdas Pophale) SiO2 
 PCOD8245294
Probable space group: P M M N
;
_chemical_formula_sum "Si O2"
_cell_formula_units_Z 40
_cell_length_a 9.023729
_cell_length_b 9.319359
_cell_length_c 25.457146
_cell_angle_alpha 90.000000
_cell_angle_beta 90.000000
_cell_angle_gamma 90.000000
_cell_volume 2140.828114
_symmetry_space_group_name_H-M "P M M N"
_symmetry_group_IT_number 59
_space_group.IT_coordinate_system_code '2'
_symmetry_cell_setting 'orthorhombic'
loop_
_space_group_symop_operation_xyz
x,y,z
1/2-x,1/2-y,z
1/2+x,-y,-z
-x,1/2+y,-z
-x,-y,-z
1/2+x,1/2+y,-z
1/2-x,y,z
x,1/2-y,z
loop_
_atom_site_type_symbol
_atom_site_label
_atom_site_fract_x
_atom_site_fract_y
_atom_site_fract_z
Si Si1 0.076375 0.915771 0.153958
Si Si2 0.578005 0.418941 0.246917
Si Si3 0.923351 0.415779 0.662517
Si Si4 0.921200 0.582176 0.046524
Si Si5 0.582725 0.084482 0.544427
O O1 0.250000 0.942525 0.147003
O O2 0.041718 0.750000 0.166940
O O3 0.996037 0.964893 0.100872
O O4 0.016467 0.012661 0.200513
O O5 0.750000 0.456977 0.239041
O O6 0.550384 0.250000 0.247280
O O7 0.522566 0.482577 0.301752
O O8 0.750000 0.453675 0.669007
O O9 0.948719 0.250000 0.678175
O O10 0.979178 0.443586 0.603017
O O11 0.750000 0.537756 0.048705
O O12 0.942424 0.750000 0.036495
O O13 0.000000 0.500000 0.000000
O O14 0.750000 0.030907 0.543411
O O15 0.569987 0.250000 0.530091
O O16 0.500000 0.000000 0.500000
#
# Coordination Sequence:
#
# PCOD8245294 Si02
#       5
#     8   8   8   8   8
#     4  10  21  38  60  83 107 140 182 224 267 318
#     4  11  24  38  53  79 112 142 175 219 270 320
#     4   9  19  37  58  78 103 139 181 221 264 317
#     4  10  21  37  58  84 113 146 183 222 267 318
#     4   9  19  35  54  78 108 140 176 219 265 315
#
# _framework density 18.684358
#
# number of rings (size 3 to 8) (size 9 to 14) (size 15 to 20)
#    0.000    2.200    0.000    3.600    0.000    9.600 
#    0.000    6.000    0.000    0.000    0.000    0.000 
#    0.000    0.000    0.000    0.000    0.000    0.000 
#
# Total GULP energy -496079.670373 kJ/mol
# GULP energy per Si atom -12401.991759 kJ/mol
# Density = 1.864183 g / cm^3
# Si number density = 18.684358 Si / 1000 Ang^3
#
#
#
# Elastic Constant Matrix: (Units=GPa)
#
#
# Indices 1 2 3 4 5 6 
#
# 1 102.5199 50.2033 64.5599 0.0000 0.0000 0.0000
# 2 50.2033 66.6989 58.8565 0.0000 0.0000 0.0000
# 3 64.5599 58.8565 136.3712 0.0000 0.0000 0.0000
# 4 0.0000 0.0000 0.0000 41.6508 0.0000 0.0000
# 5 0.0000 0.0000 0.0000 0.0000 42.3524 0.0000
# 6 0.0000 0.0000 0.0000 0.0000 0.0000 34.6486
#
#
#
# Elastic Compliance Matrix: (Units=1/GPa)
#
#
# Indices 1 2 3 4 5 6 
#
# 1 0.016702 -0.009035 -0.004008 0.000000 0.000000 0.000000
# 2 -0.009035 0.029103 -0.008283 0.000000 0.000000 0.000000
# 3 -0.004008 -0.008283 0.012805 0.000000 0.000000 0.000000
# 4 0.000000 0.000000 0.000000 0.024009 0.000000 0.000000
# 5 0.000000 0.000000 0.000000 0.000000 0.023611 0.000000
# 6 0.000000 0.000000 0.000000 0.000000 0.000000 0.028861
#
#
# Mechanical properties :
#
#
# Convention : Reuss Voigt Hill
#
# Bulk Modulus (GPa) = 62.66330 72.53658 67.59994
# Shear Modulus (GPa) = 27.31302 32.52838 29.92070
#
# Velocity S-wave (km/s) = 3.82751 4.17699 4.00606
# Velocity P-wave (km/s) = 7.28998 7.88475 7.59319
#
# Compressibility (1/GPa) = 0.01595830
#
# Stress axis : x y z
#
# Youngs Moduli (GPa) = 59.87150 34.36126 78.09442
#
# Poissons Ratio (x) = 0.31046 0.31297
# Poissons Ratio (y) = 0.54096 0.64685
# Poissons Ratio (z) = 0.23994 0.28461
#
# Static dielectric constant tensor:
#      x y z
#    x 3.416020 0.000000 0.000000 
#    y 0.000000 3.347400 0.000000 
#    z 0.000000 0.000000 3.656220 
# 
# 
# High freq. dielectric constant tensor:
#      x y z
#    x 1.731850 0.000000 0.000000 
#    y 0.000000 1.719750 0.000000 
#    z 0.000000 0.000000 1.740900 
# 
# From -- ./inp_files/31114.got.cif
#   From: 2010.03.12/outbox.cif.g09.slc.cpg/sg59_16_cif.got.tgz:31114.got - 2010.04.16 16:29:54.
