data_PCOD8245070
_publ_section_title
;
Structure prediction by ZEFSAII (Michael W. Deem and Ramdas Pophale) SiO2 
 PCOD8245070
Probable space group: P M M N
;
_chemical_formula_sum "Si O2"
_cell_formula_units_Z 48
_cell_length_a 9.674708
_cell_length_b 8.889078
_cell_length_c 28.739372
_cell_angle_alpha 90.000000
_cell_angle_beta 90.000000
_cell_angle_gamma 90.000000
_cell_volume 2471.563979
_symmetry_space_group_name_H-M "P M M N"
_symmetry_group_IT_number 59
_space_group.IT_coordinate_system_code '2'
_symmetry_cell_setting 'orthorhombic'
loop_
_space_group_symop_operation_xyz
x,y,z
1/2-x,1/2-y,z
1/2+x,-y,-z
-x,1/2+y,-z
-x,-y,-z
1/2+x,1/2+y,-z
1/2-x,y,z
x,1/2-y,z
loop_
_atom_site_type_symbol
_atom_site_label
_atom_site_fract_x
_atom_site_fract_y
_atom_site_fract_z
Si Si1 0.591342 0.426322 0.539382
Si Si2 0.250000 0.929544 0.036522
Si Si3 0.404331 0.923671 0.200679
Si Si4 0.091699 0.074594 0.364818
Si Si5 0.589236 0.073274 0.277258
Si Si6 0.539278 0.928023 0.895981
Si Si7 0.750000 0.426307 0.067973
O O1 0.500000 0.500000 0.500000
O O2 0.750000 0.471043 0.530207
O O3 0.568115 0.250000 0.538130
O O4 0.543771 0.485862 0.589544
O O5 0.250000 0.750000 0.039439
O O6 0.115343 0.993938 0.061331
O O7 0.250000 0.994467 0.983977
O O8 0.250000 0.943089 0.222327
O O9 0.437457 0.750000 0.191042
O O10 0.520975 0.988167 0.234346
O O11 0.405116 0.012631 0.152628
O O12 0.250000 0.035361 0.351159
O O13 0.074804 0.250000 0.375418
O O14 0.990185 0.022392 0.323784
O O15 0.750000 0.028177 0.281455
O O16 0.571403 0.250000 0.268656
O O17 0.562933 0.750000 0.898291
O O18 0.380464 0.976418 0.901580
O O19 0.750000 0.250000 0.060464
#
# Coordination Sequence:
#
# PCOD8245070 Si02
#       7
#     8   4   8   8   8   8   4
#     4  10  21  36  56  84 118 157 200 246 295 346
#     4  11  21  39  61  87 121 151 187 237 284 337
#     4  11  24  41  60  84 115 150 191 241 291 340
#     4   9  18  35  58  83 115 156 200 242 287 344
#     4  10  22  39  61  89 119 151 189 236 289 349
#     4  11  22  39  62  87 114 152 195 234 282 344
#     4   9  22  39  59  87 119 151 189 237 286 335
#
# _framework density 19.420902000000002
#
# number of rings (size 3 to 8) (size 9 to 14) (size 15 to 20)
#    0.000    1.833    0.833    2.750    1.167    4.333 
#    0.000    7.083    0.000    0.000    0.000    0.000 
#    0.000    0.000    0.000    0.000    0.000    0.000 
#
# Total GULP energy -595320.910221 kJ/mol
# GULP energy per Si atom -12402.518963 kJ/mol
# Density = 1.937670 g / cm^3
# Si number density = 19.420902 Si / 1000 Ang^3
#
#
#
# Elastic Constant Matrix: (Units=GPa)
#
#
# Indices 1 2 3 4 5 6 
#
# 1 125.0406 38.3191 53.8265 0.0000 0.0000 0.0000
# 2 38.3191 71.7971 42.0078 0.0000 0.0000 0.0000
# 3 53.8265 42.0078 112.4918 0.0000 0.0000 0.0000
# 4 0.0000 0.0000 0.0000 35.0712 0.0000 0.0000
# 5 0.0000 0.0000 0.0000 0.0000 48.8893 0.0000
# 6 0.0000 0.0000 0.0000 0.0000 0.0000 29.4127
#
#
#
# Elastic Compliance Matrix: (Units=1/GPa)
#
#
# Indices 1 2 3 4 5 6 
#
# 1 0.010710 -0.003478 -0.003826 0.000000 0.000000 0.000000
# 2 -0.003478 0.018951 -0.005413 0.000000 0.000000 0.000000
# 3 -0.003826 -0.005413 0.012742 0.000000 0.000000 0.000000
# 4 0.000000 0.000000 0.000000 0.028513 0.000000 0.000000
# 5 0.000000 0.000000 0.000000 0.000000 0.020454 0.000000
# 6 0.000000 0.000000 0.000000 0.000000 0.000000 0.033999
#
#
# Mechanical properties :
#
#
# Convention : Reuss Voigt Hill
#
# Bulk Modulus (GPa) = 58.92823 64.18183 61.55503
# Shear Modulus (GPa) = 31.95713 34.35305 33.15509
#
# Velocity S-wave (km/s) = 4.06088 4.21036 4.13629
# Velocity P-wave (km/s) = 7.23852 7.53364 7.38755
#
# Compressibility (1/GPa) = 0.01696980
#
# Stress axis : x y z
#
# Youngs Moduli (GPa) = 93.36955 52.76700 78.48262
#
# Poissons Ratio (x) = 0.18350 0.30028
# Poissons Ratio (y) = 0.32469 0.42483
# Poissons Ratio (z) = 0.35724 0.28563
#
# Static dielectric constant tensor:
#      x y z
#    x 3.707060 0.000000 0.000000 
#    y 0.000000 4.555620 0.000000 
#    z 0.000000 0.000000 3.562650 
# 
# 
# High freq. dielectric constant tensor:
#      x y z
#    x 1.766310 0.000000 0.000000 
#    y 0.000000 1.753530 0.000000 
#    z 0.000000 0.000000 1.761570 
# 
# From -- ./inp_files/33023.got.cif
#   From: 2010.03.12/outbox.cif.g09.slc.cpg/sg59_17_cif.got.tgz:33023.got - 2010.04.16 16:29:54.
