data_PCOD8245955
_publ_section_title
;
Structure prediction by ZEFSAII (Michael W. Deem and Ramdas Pophale) SiO2 
 PCOD8245955
Probable space group: P M M N
;
_chemical_formula_sum "Si O2"
_cell_formula_units_Z 40
_cell_length_a 9.976001
_cell_length_b 19.164120
_cell_length_c 11.068050
_cell_angle_alpha 90.000000
_cell_angle_beta 90.000000
_cell_angle_gamma 90.000000
_cell_volume 2116.003969
_symmetry_space_group_name_H-M "P M M N"
_symmetry_group_IT_number 59
_space_group.IT_coordinate_system_code '2'
_symmetry_cell_setting 'orthorhombic'
loop_
_space_group_symop_operation_xyz
x,y,z
1/2-x,1/2-y,z
1/2+x,-y,-z
-x,1/2+y,-z
-x,-y,-z
1/2+x,1/2+y,-z
1/2-x,y,z
x,1/2-y,z
loop_
_atom_site_type_symbol
_atom_site_label
_atom_site_fract_x
_atom_site_fract_y
_atom_site_fract_z
Si Si1 0.250000 0.580172 0.570589
Si Si2 0.025983 0.671502 0.690449
Si Si3 0.515229 0.554168 0.164500
Si Si4 0.750000 0.024778 0.687155
Si Si5 0.095019 0.904762 0.923141
Si Si6 0.750000 0.923575 0.330446
Si Si7 0.250000 0.369716 0.410588
O O1 0.117884 0.620099 0.612572
O O2 0.250000 0.577462 0.425821
O O3 0.250000 0.504050 0.629028
O O4 0.083152 0.750000 0.685267
O O5 0.021862 0.646127 0.828986
O O6 0.878479 0.671784 0.635287
O O7 0.379910 0.536064 0.233246
O O8 0.587831 0.484639 0.118637
O O9 0.617507 0.593918 0.252810
O O10 0.479731 0.604079 0.051505
O O11 0.750000 0.946734 0.641453
O O12 0.250000 0.882889 0.933844
O O13 0.750000 0.872094 0.444240
#
# Coordination Sequence:
#
# PCOD8245955 Si02
#       7
#     4   8   8   4   8   4   4
#     4  11  21  37  57  89 115 152 204 230 299 341
#     4  12  23  39  59  82 118 156 198 238 281 355
#     4  11  20  34  57  88 121 149 184 239 301 349
#     4  11  20  34  60  86 121 146 187 257 290 348
#     4  11  21  35  56  87 120 150 194 234 290 342
#     4  11  20  38  60  86 125 150 181 253 298 352
#     4  11  23  37  57  91 119 150 192 238 305 345
#
# _framework density 18.903556999999999
#
# number of rings (size 3 to 8) (size 9 to 14) (size 15 to 20)
#    0.000    0.800    7.000    1.800    0.000    4.000 
#    0.000    0.000    0.000    7.200    0.000    0.000 
#    0.000    0.000    0.000    0.000    0.000    0.000 
#
# Total GULP energy -496171.446809 kJ/mol
# GULP energy per Si atom -12404.286170 kJ/mol
# Density = 1.886053 g / cm^3
# Si number density = 18.903557 Si / 1000 Ang^3
#
#
#
# Elastic Constant Matrix: (Units=GPa)
#
#
# Indices 1 2 3 4 5 6 
#
# 1 116.7105 4.5213 42.0243 0.0000 0.0000 0.0000
# 2 4.5213 56.1569 28.2643 0.0000 0.0000 0.0000
# 3 42.0243 28.2643 132.2694 0.0000 0.0000 0.0000
# 4 0.0000 0.0000 0.0000 9.8927 0.0000 0.0000
# 5 0.0000 0.0000 0.0000 0.0000 39.8114 0.0000
# 6 0.0000 0.0000 0.0000 0.0000 0.0000 17.5588
#
#
#
# Elastic Compliance Matrix: (Units=1/GPa)
#
#
# Indices 1 2 3 4 5 6 
#
# 1 0.009712 0.000864 -0.003270 0.000000 0.000000 0.000000
# 2 0.000864 0.020030 -0.004555 0.000000 0.000000 0.000000
# 3 -0.003270 -0.004555 0.009573 0.000000 0.000000 0.000000
# 4 0.000000 0.000000 0.000000 0.101084 0.000000 0.000000
# 5 0.000000 0.000000 0.000000 0.000000 0.025118 0.000000
# 6 0.000000 0.000000 0.000000 0.000000 0.000000 0.056952
#
#
# Mechanical properties :
#
#
# Convention : Reuss Voigt Hill
#
# Bulk Modulus (GPa) = 39.38092 50.52850 44.95471
# Shear Modulus (GPa) = 20.42018 28.80772 24.61395
#
# Velocity S-wave (km/s) = 3.29025 3.90799 3.61235
# Velocity P-wave (km/s) = 5.94240 6.86665 6.42117
#
# Compressibility (1/GPa) = 0.02539301
#
# Stress axis : x y z
#
# Youngs Moduli (GPa) = 102.96195 49.92483 104.46393
#
# Poissons Ratio (x) = -0.04314 0.34164
# Poissons Ratio (y) = -0.08897 0.47580
# Poissons Ratio (z) = 0.33673 0.22739
#
# Static dielectric constant tensor:
#      x y z
#    x 3.625240 0.000000 0.000000 
#    y 0.000000 3.073010 0.000000 
#    z 0.000000 0.000000 3.866510 
# 
# 
# High freq. dielectric constant tensor:
#      x y z
#    x 1.751740 0.000000 0.000000 
#    y 0.000000 1.690160 0.000000 
#    z 0.000000 0.000000 1.751460 
# 
# From -- ./inp_files/14142.got.cif
#   From: 2010.03.12/outbox.cif.g09.slc.cpg/sg59_8_cif.got.tgz:14142.got - 2010.04.16 16:29:54.
