data_PCOD8245500
_publ_section_title
;
Structure prediction by ZEFSAII (Michael W. Deem and Ramdas Pophale) SiO2 
 PCOD8245500
Probable space group: P M M N
;
_chemical_formula_sum "Si O2"
_cell_formula_units_Z 48
_cell_length_a 15.010090
_cell_length_b 8.718071
_cell_length_c 18.772350
_cell_angle_alpha 90.000000
_cell_angle_beta 90.000000
_cell_angle_gamma 90.000000
_cell_volume 2456.531518
_symmetry_space_group_name_H-M "P M M N"
_symmetry_group_IT_number 59
_space_group.IT_coordinate_system_code '2'
_symmetry_cell_setting 'orthorhombic'
loop_
_space_group_symop_operation_xyz
x,y,z
1/2-x,1/2-y,z
1/2+x,-y,-z
-x,1/2+y,-z
-x,-y,-z
1/2+x,1/2+y,-z
1/2-x,y,z
x,1/2-y,z
loop_
_atom_site_type_symbol
_atom_site_label
_atom_site_fract_x
_atom_site_fract_y
_atom_site_fract_z
Si Si1 0.898214 0.571187 0.827525
Si Si2 0.412444 0.927057 0.670715
Si Si3 0.750000 0.929786 0.582488
Si Si4 0.750000 0.572718 0.075044
Si Si5 0.401250 0.569950 0.324277
Si Si6 0.750000 0.070085 0.922981
Si Si7 0.750000 0.071596 0.430908
Si Si8 0.396578 0.574508 0.832134
O O1 0.877806 0.750000 0.821241
O O2 0.873824 0.497553 0.751981
O O3 0.838704 0.499043 0.888843
O O4 0.000302 0.539711 0.848317
O O5 0.442498 0.750000 0.665769
O O6 0.336827 0.969542 0.614746
O O7 0.375160 0.959847 0.749644
O O8 0.497799 0.030783 0.654253
O O9 0.750000 0.750000 0.595852
O O10 0.661702 0.001645 0.615574
O O11 0.750000 0.964217 0.498969
O O12 0.750000 0.750000 0.052685
O O13 0.838077 0.538305 0.120515
O O14 0.750000 0.467515 0.005878
O O15 0.387810 0.750000 0.321427
O O16 0.750000 0.250000 0.911073
O O17 0.750000 0.250000 0.452823
O O18 0.372296 0.750000 0.850837
#
# Coordination Sequence:
#
# PCOD8245500 Si02
#       8
#     8   8   4   4   8   4   4   8
#     4  10  21  40  64  88 115 148 189 236 286 339
#     4   9  19  38  63  88 115 150 190 234 286 339
#     4  12  25  40  57  80 115 156 195 236 287 344
#     4  12  25  38  56  84 119 156 192 234 283 336
#     4  11  22  38  61  88 116 148 191 238 283 336
#     4  12  25  40  59  84 117 154 191 234 285 342
#     4  10  21  38  60  86 117 152 192 238 287 340
#     4   9  19  38  63  87 113 149 190 233 282 337
#
# _framework density 19.539746000000001
#
# number of rings (size 3 to 8) (size 9 to 14) (size 15 to 20)
#    0.000    1.667    0.000    6.250    0.000    6.667 
#    0.000    0.833    0.000    0.000    0.000    0.000 
#    0.000    0.000    0.000    0.000    0.000    0.000 
#
# Total GULP energy -595474.783626 kJ/mol
# GULP energy per Si atom -12405.724659 kJ/mol
# Density = 1.949527 g / cm^3
# Si number density = 19.539746 Si / 1000 Ang^3
#
#
#
# Elastic Constant Matrix: (Units=GPa)
#
#
# Indices 1 2 3 4 5 6 
#
# 1 103.8488 52.7032 65.8436 0.0000 0.0000 0.0000
# 2 52.7032 131.5592 49.9015 0.0000 0.0000 0.0000
# 3 65.8436 49.9015 117.0288 0.0000 0.0000 0.0000
# 4 0.0000 0.0000 0.0000 35.1245 0.0000 0.0000
# 5 0.0000 0.0000 0.0000 0.0000 8.6353 0.0000
# 6 0.0000 0.0000 0.0000 0.0000 0.0000 26.3765
#
#
#
# Elastic Compliance Matrix: (Units=1/GPa)
#
#
# Indices 1 2 3 4 5 6 
#
# 1 0.016312 -0.003643 -0.007624 0.000000 0.000000 0.000000
# 2 -0.003643 0.009881 -0.002164 0.000000 0.000000 0.000000
# 3 -0.007624 -0.002164 0.013757 0.000000 0.000000 0.000000
# 4 0.000000 0.000000 0.000000 0.028470 0.000000 0.000000
# 5 0.000000 0.000000 0.000000 0.000000 0.115804 0.000000
# 6 0.000000 0.000000 0.000000 0.000000 0.000000 0.037913
#
#
# Mechanical properties :
#
#
# Convention : Reuss Voigt Hill
#
# Bulk Modulus (GPa) = 76.40209 76.59260 76.49734
# Shear Modulus (GPa) = 19.73458 26.29316 23.01387
#
# Velocity S-wave (km/s) = 3.18145 3.67225 3.43563
# Velocity P-wave (km/s) = 7.25819 7.56730 7.41436
#
# Compressibility (1/GPa) = 0.01308865
#
# Stress axis : x y z
#
# Youngs Moduli (GPa) = 61.30378 101.20210 72.68864
#
# Poissons Ratio (x) = 0.36865 0.55421
# Poissons Ratio (y) = 0.22331 0.15729
# Poissons Ratio (z) = 0.46741 0.21899
#
# Static dielectric constant tensor:
#      x y z
#    x 3.660650 0.000000 0.000000 
#    y 0.000000 3.551230 0.000000 
#    z 0.000000 0.000000 3.502530 
# 
# 
# High freq. dielectric constant tensor:
#      x y z
#    x 1.773950 0.000000 0.000000 
#    y 0.000000 1.764420 0.000000 
#    z 0.000000 0.000000 1.759900 
# 
# From -- ./inp_files/27511.got.cif
#   From: 2010.03.12/outbox.cif.g09.slc.cpg/sg59_14_cif.got.tgz:27511.got - 2010.04.16 16:29:54.
