data_PCOD8245553
_publ_section_title
;
Structure prediction by ZEFSAII (Michael W. Deem and Ramdas Pophale) SiO2 
 PCOD8245553
Probable space group: P M M N
;
_chemical_formula_sum "Si O2"
_cell_formula_units_Z 48
_cell_length_a 8.633897
_cell_length_b 8.680327
_cell_length_c 31.741521
_cell_angle_alpha 90.000000
_cell_angle_beta 90.000000
_cell_angle_gamma 90.000000
_cell_volume 2378.869854
_symmetry_space_group_name_H-M "P M M N"
_symmetry_group_IT_number 59
_space_group.IT_coordinate_system_code '2'
_symmetry_cell_setting 'orthorhombic'
loop_
_space_group_symop_operation_xyz
x,y,z
1/2-x,1/2-y,z
1/2+x,-y,-z
-x,1/2+y,-z
-x,-y,-z
1/2+x,1/2+y,-z
1/2-x,y,z
x,1/2-y,z
loop_
_atom_site_type_symbol
_atom_site_label
_atom_site_fract_x
_atom_site_fract_y
_atom_site_fract_z
Si Si1 0.571875 0.976645 0.908601
Si Si2 0.576857 0.569966 0.540859
Si Si3 0.575215 0.750000 0.834400
Si Si4 0.067570 0.750000 0.971823
Si Si5 0.926098 0.575611 0.380462
Si Si6 0.922528 0.750000 0.060244
Si Si7 0.931457 0.071198 0.708712
Si Si8 0.930064 0.250000 0.253326
O O1 0.750000 0.023787 0.914478
O O2 0.546906 0.894660 0.864333
O O3 0.519272 0.892601 0.951106
O O4 0.454351 0.115681 0.906857
O O5 0.500000 0.500000 0.500000
O O6 0.750000 0.502315 0.546205
O O7 0.582644 0.750000 0.534147
O O8 0.477703 0.535043 0.582203
O O9 0.750000 0.750000 0.816097
O O10 0.453878 0.750000 0.796777
O O11 0.250000 0.750000 0.961641
O O12 0.043150 0.750000 0.021786
O O13 0.750000 0.536148 0.367426
O O14 0.939860 0.750000 0.396983
O O15 0.035187 0.548722 0.340460
O O16 0.750000 0.750000 0.042007
O O17 0.750000 0.063728 0.717519
O O18 0.988889 0.250000 0.721885
O O19 0.002808 0.916906 0.730820
O O20 0.750000 0.250000 0.264668
#
# Coordination Sequence:
#
# PCOD8245553 Si02
#       8
#     8   8   4   4   8   4   8   4
#     4  10  21  39  60  83 114 154 199 248 301 360
#     4  11  24  39  56  81 114 155 203 251 299 358
#     4   9  21  43  66  86 114 156 200 244 299 367
#     4  11  21  35  56  82 116 156 198 248 301 357
#     4  10  21  38  61  89 122 156 194 246 305 364
#     4  12  23  35  54  85 120 156 200 249 299 356
#     4  10  22  42  68  97 129 167 211 259 312 376
#     4  12  25  41  68  99 132 168 206 261 321 382
#
# _framework density 20.177648000000001
#
# number of rings (size 3 to 8) (size 9 to 14) (size 15 to 20)
#    0.000    1.500    0.000    5.750    1.167    7.333 
#    1.500    0.000    0.000    0.000    0.000    0.000 
#    0.000    0.000    0.000    0.000    0.000    0.000 
#
# Total GULP energy -594656.465096 kJ/mol
# GULP energy per Si atom -12388.676356 kJ/mol
# Density = 2.013172 g / cm^3
# Si number density = 20.177648 Si / 1000 Ang^3
#
#
#
# Elastic Constant Matrix: (Units=GPa)
#
#
# Indices 1 2 3 4 5 6 
#
# 1 100.1491 43.6500 31.9302 0.0000 0.0000 0.0000
# 2 43.6500 131.6344 44.5049 0.0000 0.0000 0.0000
# 3 31.9302 44.5049 95.6537 0.0000 0.0000 0.0000
# 4 0.0000 0.0000 0.0000 -90.3588 0.0000 0.0000
# 5 0.0000 0.0000 0.0000 0.0000 35.9947 0.0000
# 6 0.0000 0.0000 0.0000 0.0000 0.0000 34.5917
#
#
#
# Elastic Compliance Matrix: (Units=1/GPa)
#
#
# Indices 1 2 3 4 5 6 
#
# 1 0.012193 -0.003165 -0.002598 0.000000 0.000000 0.000000
# 2 -0.003165 0.009836 -0.003520 0.000000 0.000000 0.000000
# 3 -0.002598 -0.003520 0.012959 0.000000 0.000000 0.000000
# 4 0.000000 0.000000 0.000000 -0.011067 0.000000 0.000000
# 5 0.000000 0.000000 0.000000 0.000000 0.027782 0.000000
# 6 0.000000 0.000000 0.000000 0.000000 0.000000 0.028909
#
#
# Mechanical properties :
#
#
# Convention : Reuss Voigt Hill
#
# Bulk Modulus (GPa) = 60.88908 63.06749 61.97829
# Shear Modulus (GPa) = 47.77765 9.86899 28.82332
#
# Velocity S-wave (km/s) = 4.87134 2.21397 3.78362
# Velocity P-wave (km/s) = 7.86650 6.15301 7.06192
#
# Compressibility (1/GPa) = 0.01642331
#
# Stress axis : x y z
#
# Youngs Moduli (GPa) = 82.01632 101.66307 77.16482
#
# Poissons Ratio (x) = 0.32175 0.20044
# Poissons Ratio (y) = 0.25957 0.27163
# Poissons Ratio (z) = 0.21304 0.35787
#
# Static dielectric constant tensor:
#      x y z
#    x 3.841650 0.000000 0.000000 
#    y 0.000000 3.916450 0.000000 
#    z 0.000000 0.000000 3.473140 
# 
# 
# High freq. dielectric constant tensor:
#      x y z
#    x 1.797740 0.000000 0.000000 
#    y 0.000000 1.802420 0.000000 
#    z 0.000000 0.000000 1.776000 
# 
# From -- ./inp_files/33113.got.cif
#   From: 2010.03.12/outbox.cif.g09.slc.cpg/sg59_17_cif.got.tgz:33113.got - 2010.04.16 16:29:54.
