data_PCOD8245810
_publ_section_title
;
Structure prediction by ZEFSAII (Michael W. Deem and Ramdas Pophale) SiO2 
 PCOD8245810
Probable space group: P M M N
;
_chemical_formula_sum "Si O2"
_cell_formula_units_Z 56
_cell_length_a 15.066894
_cell_length_b 14.558763
_cell_length_c 12.309542
_cell_angle_alpha 90.000000
_cell_angle_beta 90.000000
_cell_angle_gamma 90.000000
_cell_volume 2700.163757
_symmetry_space_group_name_H-M "P M M N"
_symmetry_group_IT_number 59
_space_group.IT_coordinate_system_code '2'
_symmetry_cell_setting 'orthorhombic'
loop_
_space_group_symop_operation_xyz
x,y,z
1/2-x,1/2-y,z
1/2+x,-y,-z
-x,1/2+y,-z
-x,-y,-z
1/2+x,1/2+y,-z
1/2-x,y,z
x,1/2-y,z
loop_
_atom_site_type_symbol
_atom_site_label
_atom_site_fract_x
_atom_site_fract_y
_atom_site_fract_z
Si Si1 0.646637 0.141515 0.741859
Si Si2 0.149964 0.146601 0.802858
Si Si3 0.653531 0.032712 0.316676
Si Si4 0.981957 0.142945 0.173766
Si Si5 0.020267 0.642337 0.066485
Si Si6 0.597240 0.485086 0.546615
Si Si7 0.650639 0.646174 0.693489
O O1 0.750000 0.114210 0.753421
O O2 0.634475 0.250000 0.726062
O O3 0.594178 0.105601 0.848816
O O4 0.601910 0.092492 0.639077
O O5 0.250000 0.139820 0.851024
O O6 0.131032 0.250000 0.759311
O O7 0.079724 0.119664 0.895828
O O8 0.136223 0.075677 0.704232
O O9 0.750000 0.061721 0.270403
O O10 0.579852 0.093725 0.260256
O O11 0.655881 0.048725 0.445627
O O12 0.958415 0.250000 0.176088
O O13 0.083685 0.124603 0.207857
O O14 0.966804 0.099138 0.053892
O O15 0.033114 0.750000 0.053806
O O16 0.500000 0.500000 0.500000
O O17 0.633794 0.581021 0.591267
O O18 0.750000 0.630813 0.738906
O O19 0.637188 0.750000 0.651230
#
# Coordination Sequence:
#
# PCOD8245810 Si02
#       7
#     8   8   8   8   8   8   8
#     4  10  22  40  62  91 124 160 205 251 300 359
#     4   9  19  37  59  86 120 155 197 251 306 358
#     4  11  23  38  58  88 122 157 200 245 298 361
#     4  10  22  40  61  89 123 159 200 247 301 360
#     4   9  19  37  62  87 116 157 202 248 299 357
#     4  12  23  40  64  87 122 161 198 253 302 353
#     4  10  22  41  63  89 123 162 203 247 300 361
#
# _framework density 20.739483
#
# number of rings (size 3 to 8) (size 9 to 14) (size 15 to 20)
#    0.000    1.857    1.429    2.143    0.000    3.714 
#    0.000    5.714    0.000    0.000    0.000    0.000 
#    0.000    0.000    0.000    0.000    0.000    0.000 
#
# Total GULP energy -694273.285081 kJ/mol
# GULP energy per Si atom -12397.737234 kJ/mol
# Density = 2.069228 g / cm^3
# Si number density = 20.739483 Si / 1000 Ang^3
#
#
#
# Elastic Constant Matrix: (Units=GPa)
#
#
# Indices 1 2 3 4 5 6 
#
# 1 155.1576 48.6318 69.8170 0.0000 0.0000 0.0000
# 2 48.6318 71.6080 54.5179 0.0000 0.0000 0.0000
# 3 69.8170 54.5179 168.4032 0.0000 0.0000 0.0000
# 4 0.0000 0.0000 0.0000 31.6502 0.0000 0.0000
# 5 0.0000 0.0000 0.0000 0.0000 23.4362 0.0000
# 6 0.0000 0.0000 0.0000 0.0000 0.0000 24.7600
#
#
#
# Elastic Compliance Matrix: (Units=1/GPa)
#
#
# Indices 1 2 3 4 5 6 
#
# 1 0.008798 -0.004244 -0.002274 0.000000 0.000000 0.000000
# 2 -0.004244 0.020580 -0.004903 0.000000 0.000000 0.000000
# 3 -0.002274 -0.004903 0.008468 0.000000 0.000000 0.000000
# 4 0.000000 0.000000 0.000000 0.031595 0.000000 0.000000
# 5 0.000000 0.000000 0.000000 0.000000 0.042669 0.000000
# 6 0.000000 0.000000 0.000000 0.000000 0.000000 0.040388
#
#
# Mechanical properties :
#
#
# Convention : Reuss Voigt Hill
#
# Bulk Modulus (GPa) = 66.64510 82.34469 74.49489
# Shear Modulus (GPa) = 27.72509 30.78277 29.25393
#
# Velocity S-wave (km/s) = 3.66023 3.85679 3.75979
# Velocity P-wave (km/s) = 7.07582 7.72163 7.40577
#
# Compressibility (1/GPa) = 0.01500485
#
# Stress axis : x y z
#
# Youngs Moduli (GPa) = 113.65606 48.59047 118.09212
#
# Poissons Ratio (x) = 0.20624 0.26850
# Poissons Ratio (y) = 0.48240 0.57899
# Poissons Ratio (z) = 0.25841 0.23823
#
# Static dielectric constant tensor:
#      x y z
#    x 4.032520 0.000000 0.000000 
#    y 0.000000 3.792850 0.000000 
#    z 0.000000 0.000000 3.895570 
# 
# 
# High freq. dielectric constant tensor:
#      x y z
#    x 1.827320 0.000000 0.000000 
#    y 0.000000 1.812430 0.000000 
#    z 0.000000 0.000000 1.799180 
# 
# From -- ./inp_files/16994.got.cif
#   From: 2010.03.12/outbox.cif.g09.slc.cpg/sg59_9_cif.got.tgz:16994.got - 2010.04.16 16:29:54.
