data_PCOD8245136
_publ_section_title
;
Structure prediction by ZEFSAII (Michael W. Deem and Ramdas Pophale) SiO2 
 PCOD8245136
Probable space group: P M M N
;
_chemical_formula_sum "Si O2"
_cell_formula_units_Z 56
_cell_length_a 9.093245
_cell_length_b 13.958294
_cell_length_c 21.534167
_cell_angle_alpha 90.000000
_cell_angle_beta 90.000000
_cell_angle_gamma 90.000000
_cell_volume 2733.249710
_symmetry_space_group_name_H-M "P M M N"
_symmetry_group_IT_number 59
_space_group.IT_coordinate_system_code '2'
_symmetry_cell_setting 'orthorhombic'
loop_
_space_group_symop_operation_xyz
x,y,z
1/2-x,1/2-y,z
1/2+x,-y,-z
-x,1/2+y,-z
-x,-y,-z
1/2+x,1/2+y,-z
1/2-x,y,z
x,1/2-y,z
loop_
_atom_site_type_symbol
_atom_site_label
_atom_site_fract_x
_atom_site_fract_y
_atom_site_fract_z
Si Si1 0.921062 0.036360 0.594545
Si Si2 0.915118 0.864625 0.030705
Si Si3 0.575601 0.643629 0.166798
Si Si4 0.585541 0.135990 0.087416
Si Si5 0.581301 0.637527 0.790463
Si Si6 0.418667 0.140877 0.488156
Si Si7 0.924677 0.986751 0.279583
O O1 0.750000 0.053519 0.607968
O O2 0.975053 0.114108 0.544743
O O3 0.013152 0.054783 0.656579
O O4 0.951446 0.928539 0.570012
O O5 0.750000 0.899738 0.016215
O O6 0.918833 0.750000 0.031416
O O7 0.967956 0.900859 0.099067
O O8 0.020977 0.906351 0.976898
O O9 0.750000 0.650824 0.169792
O O10 0.507557 0.750000 0.174529
O O11 0.516970 0.579310 0.223135
O O12 0.750000 0.095454 0.096594
O O13 0.585686 0.250000 0.084124
O O14 0.488243 0.101046 0.145019
O O15 0.750000 0.605187 0.788707
O O16 0.564098 0.750000 0.782646
O O17 0.493340 0.591283 0.733001
O O18 0.250000 0.127646 0.509997
O O19 0.450238 0.250000 0.467373
O O20 0.750000 0.992770 0.283392
#
# Coordination Sequence:
#
# PCOD8245136 Si02
#       7
#     8   8   8   8   8   8   8
#     4  10  21  37  57  85 119 150 182 222 269 320
#     4   8  13  25  47  71  95 128 172 219 268 324
#     4   8  16  32  53  76 103 139 182 224 268 323
#     4   9  16  27  46  73 102 130 167 221 281 335
#     4  10  21  37  55  74 101 141 186 230 278 331
#     4   9  19  38  63  87 112 146 186 225 266 314
#     4  11  22  36  56  82 113 148 185 225 268 317
#
# _framework density 20.488430999999999
#
# number of rings (size 3 to 8) (size 9 to 14) (size 15 to 20)
#    0.000    2.714    0.000    2.571    0.000    4.571 
#    0.000    5.000    0.000    3.000    0.000    0.000 
#    0.000    0.000    0.000    0.000    0.000    0.000 
#
# Total GULP energy -694379.262207 kJ/mol
# GULP energy per Si atom -12399.629682 kJ/mol
# Density = 2.044180 g / cm^3
# Si number density = 20.488431 Si / 1000 Ang^3
#
#
#
# Elastic Constant Matrix: (Units=GPa)
#
#
# Indices 1 2 3 4 5 6 
#
# 1 99.1472 12.6242 38.9635 0.0000 0.0000 0.0000
# 2 12.6242 32.0353 3.1499 0.0000 0.0000 0.0000
# 3 38.9635 3.1499 95.0741 0.0000 0.0000 0.0000
# 4 0.0000 0.0000 0.0000 14.4064 0.0000 0.0000
# 5 0.0000 0.0000 0.0000 0.0000 38.5178 0.0000
# 6 0.0000 0.0000 0.0000 0.0000 0.0000 19.5471
#
#
#
# Elastic Compliance Matrix: (Units=1/GPa)
#
#
# Indices 1 2 3 4 5 6 
#
# 1 0.012633 -0.004484 -0.005029 0.000000 0.000000 0.000000
# 2 -0.004484 0.032909 0.000747 0.000000 0.000000 0.000000
# 3 -0.005029 0.000747 0.012554 0.000000 0.000000 0.000000
# 4 0.000000 0.000000 0.000000 0.069413 0.000000 0.000000
# 5 0.000000 0.000000 0.000000 0.000000 0.025962 0.000000
# 6 0.000000 0.000000 0.000000 0.000000 0.000000 0.051158
#
#
# Mechanical properties :
#
#
# Convention : Reuss Voigt Hill
#
# Bulk Modulus (GPa) = 24.65136 37.30353 30.97745
# Shear Modulus (GPa) = 21.21491 25.92887 23.57189
#
# Velocity S-wave (km/s) = 3.22134 3.56130 3.39558
# Velocity P-wave (km/s) = 5.08862 5.92934 5.52500
#
# Compressibility (1/GPa) = 0.04056571
#
# Stress axis : x y z
#
# Youngs Moduli (GPa) = 79.15650 30.38673 79.65409
#
# Poissons Ratio (x) = 0.13625 0.40057
# Poissons Ratio (y) = 0.35493 -0.05953
# Poissons Ratio (z) = 0.39806 -0.02271
#
# Static dielectric constant tensor:
#      x y z
#    x 3.642440 0.000000 0.000000 
#    y 0.000000 3.688180 0.000000 
#    z 0.000000 0.000000 3.746200 
# 
# 
# High freq. dielectric constant tensor:
#      x y z
#    x 1.788450 0.000000 0.000000 
#    y 0.000000 1.797120 0.000000 
#    z 0.000000 0.000000 1.798160 
# 
# From -- ./inp_files/29132.got.cif
#   From: 2010.03.12/outbox.cif.g09.slc.cpg/sg59_15_cif.got.tgz:29132.got - 2010.04.16 16:29:54.
