data_PCOD8245645
_publ_section_title
;
Structure prediction by ZEFSAII (Michael W. Deem and Ramdas Pophale) SiO2 
 PCOD8245645
Probable space group: P M M N
;
_chemical_formula_sum "Si O2"
_cell_formula_units_Z 56
_cell_length_a 9.292691
_cell_length_b 15.355690
_cell_length_c 19.811701
_cell_angle_alpha 90.000000
_cell_angle_beta 90.000000
_cell_angle_gamma 90.000000
_cell_volume 2827.044191
_symmetry_space_group_name_H-M "P M M N"
_symmetry_group_IT_number 59
_space_group.IT_coordinate_system_code '2'
_symmetry_cell_setting 'orthorhombic'
loop_
_space_group_symop_operation_xyz
x,y,z
1/2-x,1/2-y,z
1/2+x,-y,-z
-x,1/2+y,-z
-x,-y,-z
1/2+x,1/2+y,-z
1/2-x,y,z
x,1/2-y,z
loop_
_atom_site_type_symbol
_atom_site_label
_atom_site_fract_x
_atom_site_fract_y
_atom_site_fract_z
Si Si1 0.422115 0.505067 0.429064
Si Si2 0.915832 0.651637 0.350266
Si Si3 0.914702 0.602428 0.203050
Si Si4 0.085461 0.581929 0.933294
Si Si5 0.084363 0.153544 0.336890
Si Si6 0.412267 0.601489 0.788316
Si Si7 0.585015 0.407248 0.921774
O O1 0.500000 0.500000 0.500000
O O2 0.250000 0.508172 0.438109
O O3 0.476069 0.591415 0.391714
O O4 0.474537 0.419840 0.387710
O O5 0.750000 0.619429 0.358651
O O6 0.932174 0.750000 0.377405
O O7 0.961013 0.650271 0.271679
O O8 0.750000 0.620807 0.186807
O O9 0.948795 0.500743 0.211987
O O10 0.001155 0.641460 0.138728
O O11 0.250000 0.543876 0.931585
O O12 0.063611 0.638741 0.864770
O O13 0.970318 0.505124 0.930627
O O14 0.064676 0.636770 0.003288
O O15 0.250000 0.134884 0.323623
O O16 0.059150 0.250000 0.368360
O O17 0.011732 0.151267 0.263875
O O18 0.250000 0.617571 0.764003
O O19 0.750000 0.408129 0.899853
#
# Coordination Sequence:
#
# PCOD8245645 Si02
#       7
#     8   8   8   8   8   8   8
#     4  11  24  42  65  91 121 152 186 229 280 337
#     4  10  21  39  63  88 117 155 194 234 285 341
#     4   9  17  30  49  75 109 145 184 231 283 336
#     4   8  15  26  39  64 102 140 181 232 284 333
#     4  10  22  39  58  83 115 149 185 227 277 331
#     4   9  16  29  51  76 105 143 188 234 279 330
#     4   9  15  23  40  67 100 140 186 231 279 333
#
# _framework density 19.808675000000001
#
# number of rings (size 3 to 8) (size 9 to 14) (size 15 to 20)
#    0.000    2.571    1.429    1.714    0.000    5.143 
#    0.000    1.429    0.000    0.857    0.000    4.000 
#    0.000    0.000    0.000    0.000    0.000    0.000 
#
# Total GULP energy -693915.952084 kJ/mol
# GULP energy per Si atom -12391.356287 kJ/mol
# Density = 1.976359 g / cm^3
# Si number density = 19.808675 Si / 1000 Ang^3
#
#
#
# Elastic Constant Matrix: (Units=GPa)
#
#
# Indices 1 2 3 4 5 6 
#
# 1 79.4929 32.5897 64.0861 0.0000 0.0000 0.0000
# 2 32.5897 71.6999 48.5511 0.0000 0.0000 0.0000
# 3 64.0861 48.5511 146.2662 0.0000 0.0000 0.0000
# 4 0.0000 0.0000 0.0000 0.2626 0.0000 0.0000
# 5 0.0000 0.0000 0.0000 0.0000 39.1478 0.0000
# 6 0.0000 0.0000 0.0000 0.0000 0.0000 18.6810
#
#
#
# Elastic Compliance Matrix: (Units=1/GPa)
#
#
# Indices 1 2 3 4 5 6 
#
# 1 0.020363 -0.004146 -0.007546 0.000000 0.000000 0.000000
# 2 -0.004146 0.018835 -0.004435 0.000000 0.000000 0.000000
# 3 -0.007546 -0.004435 0.011615 0.000000 0.000000 0.000000
# 4 0.000000 0.000000 0.000000 3.807943 0.000000 0.000000
# 5 0.000000 0.000000 0.000000 0.000000 0.025544 0.000000
# 6 0.000000 0.000000 0.000000 0.000000 0.000000 0.053530
#
#
# Mechanical properties :
#
#
# Convention : Reuss Voigt Hill
#
# Bulk Modulus (GPa) = 53.88304 65.32365 59.60335
# Shear Modulus (GPa) = 1.25746 21.76709 11.51227
#
# Velocity S-wave (km/s) = 0.79761 3.31851 2.41337
# Velocity P-wave (km/s) = 5.30180 6.90885 6.15797
#
# Compressibility (1/GPa) = 0.01855871
#
# Stress axis : x y z
#
# Youngs Moduli (GPa) = 49.10954 53.09284 86.09373
#
# Poissons Ratio (x) = 0.22012 0.64963
# Poissons Ratio (y) = 0.20360 0.38187
# Poissons Ratio (z) = 0.37056 0.23549
#
# Static dielectric constant tensor:
#      x y z
#    x 3.573620 0.000000 0.000000 
#    y 0.000000 3.341920 0.000000 
#    z 0.000000 0.000000 4.013020 
# 
# 
# High freq. dielectric constant tensor:
#      x y z
#    x 1.767360 0.000000 0.000000 
#    y 0.000000 1.733830 0.000000 
#    z 0.000000 0.000000 1.787000 
# 
# From -- ./inp_files/29017.got.cif
#   From: 2010.03.12/outbox.cif.g09.slc.cpg/sg59_15_cif.got.tgz:29017.got - 2010.04.16 16:29:54.
