data_PCOD8245661
_publ_section_title
;
Structure prediction by ZEFSAII (Michael W. Deem and Ramdas Pophale) SiO2 
 PCOD8245661
Probable space group: P M M N
;
_chemical_formula_sum "Si O2"
_cell_formula_units_Z 56
_cell_length_a 14.882980
_cell_length_b 18.857796
_cell_length_c 10.114717
_cell_angle_alpha 90.000000
_cell_angle_beta 90.000000
_cell_angle_gamma 90.000000
_cell_volume 2838.798503
_symmetry_space_group_name_H-M "P M M N"
_symmetry_group_IT_number 59
_space_group.IT_coordinate_system_code '2'
_symmetry_cell_setting 'orthorhombic'
loop_
_space_group_symop_operation_xyz
x,y,z
1/2-x,1/2-y,z
1/2+x,-y,-z
-x,1/2+y,-z
-x,-y,-z
1/2+x,1/2+y,-z
1/2-x,y,z
x,1/2-y,z
loop_
_atom_site_type_symbol
_atom_site_label
_atom_site_fract_x
_atom_site_fract_y
_atom_site_fract_z
Si Si1 0.997041 0.829335 0.908568
Si Si2 0.855968 0.667848 0.687238
Si Si3 0.404916 0.031750 0.456990
Si Si4 0.149116 0.570567 0.225798
Si Si5 0.848249 0.938488 0.272957
Si Si6 0.645814 0.441953 0.075104
Si Si7 0.509824 0.830067 0.214371
O O1 0.030878 0.750000 0.878289
O O2 0.082241 0.878536 0.875410
O O3 0.908067 0.847089 0.824530
O O4 0.968142 0.836793 0.060110
O O5 0.750000 0.650216 0.706201
O O6 0.868212 0.750000 0.642350
O O7 0.902074 0.615739 0.579517
O O8 0.343140 0.020759 0.586429
O O9 0.500000 0.000000 0.500000
O O10 0.366643 0.991228 0.330537
O O11 0.250000 0.599329 0.236918
O O12 0.086699 0.638034 0.252331
O O13 0.130648 0.539733 0.079021
O O14 0.750000 0.910562 0.233869
O O15 0.913922 0.872408 0.292265
O O16 0.885169 0.989841 0.158357
O O17 0.750000 0.422350 0.104923
O O18 0.510905 0.750000 0.265054
#
# Coordination Sequence:
#
# PCOD8245661 Si02
#       7
#     8   8   8   8   8   8   8
#     4   9  19  35  58  87 119 154 195 244 294 345
#     4  10  22  39  60  88 123 163 205 245 291 356
#     4  12  23  40  61  88 118 155 196 250 298 350
#     4  10  21  39  64  89 115 155 200 247 297 351
#     4  11  23  38  57  86 120 155 192 240 298 350
#     4   9  20  37  60  89 119 154 199 245 294 354
#     4  10  22  38  57  86 119 155 197 241 295 354
#
# _framework density 19.726655000000001
#
# number of rings (size 3 to 8) (size 9 to 14) (size 15 to 20)
#    0.000    1.857    1.429    2.143    2.000    3.143 
#    0.000    4.286    0.000    0.000    0.000    2.000 
#    0.000    0.000    0.000    0.000    0.000    0.000 
#
# Total GULP energy -694277.170434 kJ/mol
# GULP energy per Si atom -12397.806615 kJ/mol
# Density = 1.968176 g / cm^3
# Si number density = 19.726655 Si / 1000 Ang^3
#
#
#
# Elastic Constant Matrix: (Units=GPa)
#
#
# Indices 1 2 3 4 5 6 
#
# 1 117.4372 74.7997 48.0807 0.0000 0.0000 0.0000
# 2 74.7997 128.4437 58.4572 0.0000 0.0000 0.0000
# 3 48.0807 58.4572 89.2213 0.0000 0.0000 0.0000
# 4 0.0000 0.0000 0.0000 27.2914 0.0000 0.0000
# 5 0.0000 0.0000 0.0000 0.0000 30.6553 0.0000
# 6 0.0000 0.0000 0.0000 0.0000 0.0000 23.2098
#
#
#
# Elastic Compliance Matrix: (Units=1/GPa)
#
#
# Indices 1 2 3 4 5 6 
#
# 1 0.014138 -0.006791 -0.003170 0.000000 0.000000 0.000000
# 2 -0.006791 0.014355 -0.005746 0.000000 0.000000 0.000000
# 3 -0.003170 -0.005746 0.016681 0.000000 0.000000 0.000000
# 4 0.000000 0.000000 0.000000 0.036642 0.000000 0.000000
# 5 0.000000 0.000000 0.000000 0.000000 0.032621 0.000000
# 6 0.000000 0.000000 0.000000 0.000000 0.000000 0.043085
#
#
# Mechanical properties :
#
#
# Convention : Reuss Voigt Hill
#
# Bulk Modulus (GPa) = 72.66661 77.53081 75.09871
# Shear Modulus (GPa) = 25.83685 26.48228 26.15957
#
# Velocity S-wave (km/s) = 3.62296 3.66794 3.64552
# Velocity P-wave (km/s) = 7.37685 7.57141 7.47476
#
# Compressibility (1/GPa) = 0.01376148
#
# Stress axis : x y z
#
# Youngs Moduli (GPa) = 70.73021 69.66075 59.94891
#
# Poissons Ratio (x) = 0.47306 0.19002
# Poissons Ratio (y) = 0.48032 0.34446
# Poissons Ratio (z) = 0.22419 0.40027
#
# Static dielectric constant tensor:
#      x y z
#    x 3.646620 0.000000 0.000000 
#    y 0.000000 3.611640 0.000000 
#    z 0.000000 0.000000 3.699900 
# 
# 
# High freq. dielectric constant tensor:
#      x y z
#    x 1.775660 0.000000 0.000000 
#    y 0.000000 1.761640 0.000000 
#    z 0.000000 0.000000 1.770920 
# 
# From -- ./inp_files/9385.got.cif
#   From: 2010.03.12/outbox.cif.g09.slc.cpg/sg59_5_cif.got.tgz:9385.got - 2010.04.16 16:29:54.
