data_PCOD8245188
_publ_section_title
;
Structure prediction by ZEFSAII (Michael W. Deem and Ramdas Pophale) SiO2 
 PCOD8245188
Probable space group: P M M N
;
_chemical_formula_sum "Si O2"
_cell_formula_units_Z 48
_cell_length_a 9.289045
_cell_length_b 8.845921
_cell_length_c 30.834254
_cell_angle_alpha 90.000000
_cell_angle_beta 90.000000
_cell_angle_gamma 90.000000
_cell_volume 2533.655530
_symmetry_space_group_name_H-M "P M M N"
_symmetry_group_IT_number 59
_space_group.IT_coordinate_system_code '2'
_symmetry_cell_setting 'orthorhombic'
loop_
_space_group_symop_operation_xyz
x,y,z
1/2-x,1/2-y,z
1/2+x,-y,-z
-x,1/2+y,-z
-x,-y,-z
1/2+x,1/2+y,-z
1/2-x,y,z
x,1/2-y,z
loop_
_atom_site_type_symbol
_atom_site_label
_atom_site_fract_x
_atom_site_fract_y
_atom_site_fract_z
Si Si1 0.081136 0.425559 0.615992
Si Si2 0.909028 0.570425 0.287461
Si Si3 0.914461 0.571983 0.539325
Si Si4 0.915669 0.928460 0.039659
Si Si5 0.917037 0.573373 0.882732
Si Si6 0.417818 0.922702 0.206075
O O1 0.250000 0.454580 0.607853
O O2 0.045011 0.250000 0.608153
O O3 0.037241 0.477537 0.664697
O O4 0.986700 0.526433 0.584398
O O5 0.750000 0.504701 0.279200
O O6 0.905131 0.750000 0.286165
O O7 0.010191 0.507828 0.249267
O O8 0.750000 0.514282 0.538491
O O9 0.921327 0.750000 0.533954
O O10 0.000000 0.500000 0.500000
O O11 0.750000 0.981114 0.037959
O O12 0.928501 0.750000 0.036061
O O13 0.985085 0.981685 0.084314
O O14 0.000000 0.000000 0.000000
O O15 0.750000 0.532768 0.891149
O O16 0.945363 0.750000 0.888784
O O17 0.964323 0.523935 0.834685
O O18 0.250000 0.932168 0.214424
O O19 0.466726 0.750000 0.197333
#
# Coordination Sequence:
#
# PCOD8245188 Si02
#       6
#     8   8   8   8   8   8
#     4   9  18  34  56  81 108 139 176 217 262 313
#     4   8  15  29  50  76 105 136 172 216 262 308
#     4  11  24  39  55  78 106 136 173 216 262 314
#     4  11  24  40  59  84 111 140 176 218 265 317
#     4  10  21  37  56  79 109 145 183 222 266 315
#     4   9  17  30  50  76 105 139 179 220 262 309
#
# _framework density 18.944959999999998
#
# number of rings (size 3 to 8) (size 9 to 14) (size 15 to 20)
#    0.000    2.333    0.000    3.500    0.000    9.333 
#    0.000    4.167    0.000    3.000    0.000    0.000 
#    0.000    0.000    0.000    0.000    0.000    0.000 
#
# Total GULP energy -595212.171384 kJ/mol
# GULP energy per Si atom -12400.253570 kJ/mol
# Density = 1.890184 g / cm^3
# Si number density = 18.944960 Si / 1000 Ang^3
#
#
#
# Elastic Constant Matrix: (Units=GPa)
#
#
# Indices 1 2 3 4 5 6 
#
# 1 106.5715 41.5944 83.7406 0.0000 0.0000 0.0000
# 2 41.5944 49.0564 36.0580 0.0000 0.0000 0.0000
# 3 83.7406 36.0580 157.8883 0.0000 0.0000 0.0000
# 4 0.0000 0.0000 0.0000 32.9703 0.0000 0.0000
# 5 0.0000 0.0000 0.0000 0.0000 42.1321 0.0000
# 6 0.0000 0.0000 0.0000 0.0000 0.0000 25.6108
#
#
#
# Elastic Compliance Matrix: (Units=1/GPa)
#
#
# Indices 1 2 3 4 5 6 
#
# 1 0.020085 -0.011056 -0.008128 0.000000 0.000000 0.000000
# 2 -0.011056 0.030582 -0.001121 0.000000 0.000000 0.000000
# 3 -0.008128 -0.001121 0.010900 0.000000 0.000000 0.000000
# 4 0.000000 0.000000 0.000000 0.030330 0.000000 0.000000
# 5 0.000000 0.000000 0.000000 0.000000 0.023735 0.000000
# 6 0.000000 0.000000 0.000000 0.000000 0.000000 0.039046
#
#
# Mechanical properties :
#
#
# Convention : Reuss Voigt Hill
#
# Bulk Modulus (GPa) = 47.71098 70.70025 59.20562
# Shear Modulus (GPa) = 24.71907 30.28420 27.50163
#
# Velocity S-wave (km/s) = 3.61610 4.00251 3.81420
# Velocity P-wave (km/s) = 6.53250 7.66550 7.12157
#
# Compressibility (1/GPa) = 0.02095954
#
# Stress axis : x y z
#
# Youngs Moduli (GPa) = 49.78875 32.69865 91.74049
#
# Poissons Ratio (x) = 0.36150 0.74564
# Poissons Ratio (y) = 0.55044 0.10281
# Poissons Ratio (z) = 0.40467 0.03664
#
# Static dielectric constant tensor:
#      x y z
#    x 3.659280 0.000000 0.000000 
#    y 0.000000 3.296650 0.000000 
#    z 0.000000 0.000000 3.772050 
# 
# 
# High freq. dielectric constant tensor:
#      x y z
#    x 1.735830 0.000000 0.000000 
#    y 0.000000 1.718100 0.000000 
#    z 0.000000 0.000000 1.754220 
# 
# From -- ./inp_files/32877.got.cif
#   From: 2010.03.12/outbox.cif.g09.slc.cpg/sg59_17_cif.got.tgz:32877.got - 2010.04.16 16:29:54.
