data_PCOD8245434
_publ_section_title
;
Structure prediction by ZEFSAII (Michael W. Deem and Ramdas Pophale) SiO2 
 PCOD8245434
Probable space group: P M M N
;
_chemical_formula_sum "Si O2"
_cell_formula_units_Z 48
_cell_length_a 15.752653
_cell_length_b 9.192132
_cell_length_c 17.324275
_cell_angle_alpha 90.000000
_cell_angle_beta 90.000000
_cell_angle_gamma 90.000000
_cell_volume 2508.563088
_symmetry_space_group_name_H-M "P M M N"
_symmetry_group_IT_number 59
_space_group.IT_coordinate_system_code '2'
_symmetry_cell_setting 'orthorhombic'
loop_
_space_group_symop_operation_xyz
x,y,z
1/2-x,1/2-y,z
1/2+x,-y,-z
-x,1/2+y,-z
-x,-y,-z
1/2+x,1/2+y,-z
1/2-x,y,z
x,1/2-y,z
loop_
_atom_site_type_symbol
_atom_site_label
_atom_site_fract_x
_atom_site_fract_y
_atom_site_fract_z
Si Si1 0.750000 0.076786 0.272338
Si Si2 0.417142 0.078247 0.468171
Si Si3 0.575493 0.418873 0.830662
Si Si4 0.913403 0.082521 0.996525
Si Si5 0.250000 0.419933 0.565231
Si Si6 0.398267 0.579067 0.837414
Si Si7 0.652695 0.418100 0.671625
O O1 0.750000 0.250000 0.279497
O O2 0.668094 0.020110 0.225355
O O3 0.750000 0.008973 0.356333
O O4 0.432586 0.250000 0.466577
O O5 0.334323 0.036431 0.518126
O O6 0.500000 0.000000 0.500000
O O7 0.404467 0.020897 0.381507
O O8 0.551118 0.250000 0.826841
O O9 0.626473 0.453667 0.911734
O O10 0.488308 0.505682 0.822889
O O11 0.636726 0.461557 0.760497
O O12 0.937031 0.250000 0.999755
O O13 0.861634 0.043763 0.075151
O O14 0.000000 0.000000 0.000000
O O15 0.250000 0.250000 0.584547
O O16 0.410510 0.750000 0.826649
O O17 0.750000 0.448905 0.652353
O O18 0.629023 0.250000 0.656012
#
# Coordination Sequence:
#
# PCOD8245434 Si02
#       7
#     4   8   8   8   4   8   8
#     4  10  22  36  52  79 112 144 182 225 272 322
#     4  11  24  43  65  89 114 147 188 231 285 345
#     4   9  18  32  53  80 107 142 185 226 269 324
#     4   8  14  28  49  72 102 139 179 223 269 315
#     4  10  24  44  62  83 114 146 184 231 278 338
#     4   9  18  33  51  76 108 144 184 227 271 320
#     4  10  21  38  58  84 117 147 182 229 279 332
#
# _framework density 19.134459
#
# number of rings (size 3 to 8) (size 9 to 14) (size 15 to 20)
#    0.000    2.500    0.833    0.500    2.333    2.667 
#    1.500    0.000    0.000    0.000    0.000    0.000 
#    0.000    0.000    0.000    0.000    0.000    0.000 
#
# Total GULP energy -594708.002231 kJ/mol
# GULP energy per Si atom -12389.750046 kJ/mol
# Density = 1.909091 g / cm^3
# Si number density = 19.134459 Si / 1000 Ang^3
#
#
#
# Elastic Constant Matrix: (Units=GPa)
#
#
# Indices 1 2 3 4 5 6 
#
# 1 79.6358 34.5817 42.1910 0.0000 0.0000 0.0000
# 2 34.5817 47.8840 46.8479 0.0000 0.0000 0.0000
# 3 42.1910 46.8479 150.4300 0.0000 0.0000 0.0000
# 4 0.0000 0.0000 0.0000 30.0121 0.0000 0.0000
# 5 0.0000 0.0000 0.0000 0.0000 28.3025 0.0000
# 6 0.0000 0.0000 0.0000 0.0000 0.0000 25.4222
#
#
#
# Elastic Compliance Matrix: (Units=1/GPa)
#
#
# Indices 1 2 3 4 5 6 
#
# 1 0.018521 -0.011928 -0.001480 0.000000 0.000000 0.000000
# 2 -0.011928 0.037717 -0.008401 0.000000 0.000000 0.000000
# 3 -0.001480 -0.008401 0.009679 0.000000 0.000000 0.000000
# 4 0.000000 0.000000 0.000000 0.033320 0.000000 0.000000
# 5 0.000000 0.000000 0.000000 0.000000 0.035333 0.000000
# 6 0.000000 0.000000 0.000000 0.000000 0.000000 0.039336
#
#
# Mechanical properties :
#
#
# Convention : Reuss Voigt Hill
#
# Bulk Modulus (GPa) = 44.84334 58.35458 51.59896
# Shear Modulus (GPa) = 22.22668 27.03596 24.63132
#
# Velocity S-wave (km/s) = 3.41193 3.76300 3.59175
# Velocity P-wave (km/s) = 6.24568 7.03161 6.65026
#
# Compressibility (1/GPa) = 0.02229985
#
# Stress axis : x y z
#
# Youngs Moduli (GPa) = 53.99319 26.51331 103.31807
#
# Poissons Ratio (x) = 0.31625 0.15290
# Poissons Ratio (y) = 0.64402 0.86794
# Poissons Ratio (z) = 0.07990 0.22273
#
# Static dielectric constant tensor:
#      x y z
#    x 3.279460 0.000000 0.000000 
#    y 0.000000 3.415640 0.000000 
#    z 0.000000 0.000000 4.094800 
# 
# 
# High freq. dielectric constant tensor:
#      x y z
#    x 1.721210 0.000000 0.000000 
#    y 0.000000 1.736340 0.000000 
#    z 0.000000 0.000000 1.770670 
# 
# From -- ./inp_files/25556.got.cif
#   From: 2010.03.12/outbox.cif.g09.slc.cpg/sg59_13_cif.got.tgz:25556.got - 2010.04.16 16:29:54.
