data_PCOD8245029
_publ_section_title
;
Structure prediction by ZEFSAII (Michael W. Deem and Ramdas Pophale) SiO2 
 PCOD8245029
Probable space group: P M M N
;
_chemical_formula_sum "Si O2"
_cell_formula_units_Z 56
_cell_length_a 23.452368
_cell_length_b 14.743566
_cell_length_c 7.736906
_cell_angle_alpha 90.000000
_cell_angle_beta 90.000000
_cell_angle_gamma 90.000000
_cell_volume 2675.201867
_symmetry_space_group_name_H-M "P M M N"
_symmetry_group_IT_number 59
_space_group.IT_coordinate_system_code '2'
_symmetry_cell_setting 'orthorhombic'
loop_
_space_group_symop_operation_xyz
x,y,z
1/2-x,1/2-y,z
1/2+x,-y,-z
-x,1/2+y,-z
-x,-y,-z
1/2+x,1/2+y,-z
1/2-x,y,z
x,1/2-y,z
loop_
_atom_site_type_symbol
_atom_site_label
_atom_site_fract_x
_atom_site_fract_y
_atom_site_fract_z
Si Si1 0.312041 0.473342 0.187854
Si Si2 0.419172 0.356317 0.572542
Si Si3 0.188110 0.035596 0.581273
Si Si4 0.185258 0.651596 0.733310
Si Si5 0.871945 0.146864 0.908731
Si Si6 0.083776 0.357126 0.172846
Si Si7 0.999833 0.142855 0.875704
O O1 0.250000 0.461654 0.095694
O O2 0.305961 0.440723 0.382319
O O3 0.328940 0.579386 0.187135
O O4 0.359646 0.408651 0.102406
O O5 0.409233 0.250000 0.588274
O O6 0.362623 0.402613 0.654261
O O7 0.431187 0.383876 0.372327
O O8 0.471083 0.388448 0.695364
O O9 0.250000 0.056467 0.670396
O O10 0.172321 0.929263 0.600972
O O11 0.250000 0.645097 0.805173
O O12 0.176075 0.750000 0.641582
O O13 0.140842 0.643229 0.888542
O O14 0.864658 0.250000 0.837996
O O15 0.935333 0.106712 0.878567
O O16 0.094642 0.250000 0.155950
O O17 0.033108 0.391339 0.047366
O O18 0.997825 0.250000 0.885824
#
# Coordination Sequence:
#
# PCOD8245029 Si02
#       7
#     8   8   8   8   8   8   8
#     4  10  21  36  55  82 110 141 183 226 274 327
#     4   9  18  35  57  81 111 145 179 221 272 324
#     4   9  19  35  53  79 111 140 178 225 271 323
#     4   9  18  34  54  74 101 140 181 222 271 322
#     4  10  21  37  55  79 108 142 183 227 276 325
#     4   9  19  37  58  82 114 148 181 223 273 325
#     4   9  19  37  57  80 110 144 186 227 269 326
#
# _framework density 20.933
#
# number of rings (size 3 to 8) (size 9 to 14) (size 15 to 20)
#    0.000    2.714    0.000    0.429    2.000    2.571 
#    2.571    5.714    0.000    2.571    0.000    0.000 
#    0.000    0.000    0.000    0.000    0.000    0.000 
#
# Total GULP energy -693955.246097 kJ/mol
# GULP energy per Si atom -12392.057966 kJ/mol
# Density = 2.088536 g / cm^3
# Si number density = 20.933000 Si / 1000 Ang^3
#
#
#
# Elastic Constant Matrix: (Units=GPa)
#
#
# Indices 1 2 3 4 5 6 
#
# 1 99.9886 18.0801 21.4548 0.0000 0.0000 0.0000
# 2 18.0801 45.2756 7.3451 0.0000 0.0000 0.0000
# 3 21.4548 7.3451 57.2657 0.0000 0.0000 0.0000
# 4 0.0000 0.0000 0.0000 23.7781 0.0000 0.0000
# 5 0.0000 0.0000 0.0000 0.0000 24.0243 0.0000
# 6 0.0000 0.0000 0.0000 0.0000 0.0000 30.3385
#
#
#
# Elastic Compliance Matrix: (Units=1/GPa)
#
#
# Indices 1 2 3 4 5 6 
#
# 1 0.011541 -0.003990 -0.003812 0.000000 0.000000 0.000000
# 2 -0.003990 0.023936 -0.001575 0.000000 0.000000 0.000000
# 3 -0.003812 -0.001575 0.019093 0.000000 0.000000 0.000000
# 4 0.000000 0.000000 0.000000 0.042056 0.000000 0.000000
# 5 0.000000 0.000000 0.000000 0.000000 0.041625 0.000000
# 6 0.000000 0.000000 0.000000 0.000000 0.000000 0.032961
#
#
# Mechanical properties :
#
#
# Convention : Reuss Voigt Hill
#
# Bulk Modulus (GPa) = 27.92157 32.92110 30.42134
# Shear Modulus (GPa) = 24.76433 26.00484 25.38458
#
# Velocity S-wave (km/s) = 3.44325 3.52844 3.48610
# Velocity P-wave (km/s) = 5.40143 5.68866 5.54690
#
# Compressibility (1/GPa) = 0.03581460
#
# Stress axis : x y z
#
# Youngs Moduli (GPa) = 86.65078 41.77824 52.37621
#
# Poissons Ratio (x) = 0.16670 0.19965
# Poissons Ratio (y) = 0.34575 0.08250
# Poissons Ratio (z) = 0.33031 0.06581
#
# Static dielectric constant tensor:
#      x y z
#    x 4.287860 0.000000 0.000000 
#    y 0.000000 3.763010 0.000000 
#    z 0.000000 0.000000 3.557980 
# 
# 
# High freq. dielectric constant tensor:
#      x y z
#    x 1.824100 0.000000 0.000000 
#    y 0.000000 1.815990 0.000000 
#    z 0.000000 0.000000 1.797030 
# 
# From -- ./inp_files/9354.got.cif
#   From: 2010.03.12/outbox.cif.g09.slc.cpg/sg59_5_cif.got.tgz:9354.got - 2010.04.16 16:29:54.
