data_PCOD8245479
_publ_section_title
;
Structure prediction by ZEFSAII (Michael W. Deem and Ramdas Pophale) SiO2 
 PCOD8245479
Probable space group: P M M N
;
_chemical_formula_sum "Si O2"
_cell_formula_units_Z 48
_cell_length_a 8.856641
_cell_length_b 17.067266
_cell_length_c 16.726786
_cell_angle_alpha 90.000000
_cell_angle_beta 90.000000
_cell_angle_gamma 90.000000
_cell_volume 2528.398354
_symmetry_space_group_name_H-M "P M M N"
_symmetry_group_IT_number 59
_space_group.IT_coordinate_system_code '2'
_symmetry_cell_setting 'orthorhombic'
loop_
_space_group_symop_operation_xyz
x,y,z
1/2-x,1/2-y,z
1/2+x,-y,-z
-x,1/2+y,-z
-x,-y,-z
1/2+x,1/2+y,-z
1/2-x,y,z
x,1/2-y,z
loop_
_atom_site_type_symbol
_atom_site_label
_atom_site_fract_x
_atom_site_fract_y
_atom_site_fract_z
Si Si1 0.574299 0.943292 0.395521
Si Si2 0.429519 0.162818 0.749576
Si Si3 0.074811 0.396949 0.426016
Si Si4 0.071958 0.403866 0.075905
Si Si5 0.928421 0.250000 0.342734
Si Si6 0.429300 0.250000 0.168589
Si Si7 0.571765 0.936631 0.102347
O O1 0.750000 0.964833 0.385455
O O2 0.514956 0.884952 0.327450
O O3 0.544631 0.900281 0.479338
O O4 0.478624 0.022270 0.386239
O O5 0.250000 0.166865 0.750577
O O6 0.498402 0.250000 0.745493
O O7 0.489940 0.121751 0.829949
O O8 0.250000 0.383564 0.406134
O O9 0.979880 0.326207 0.390599
O O10 0.250000 0.411962 0.082892
O O11 0.014338 0.325734 0.119536
O O12 0.998382 0.478332 0.118989
O O13 0.020996 0.401624 0.983124
O O14 0.750000 0.250000 0.335423
O O15 0.997755 0.250000 0.255006
O O16 0.250000 0.250000 0.177988
O O17 0.750000 0.945916 0.107478
#
# Coordination Sequence:
#
# PCOD8245479 Si02
#       7
#     8   8   8   8   4   4   8
#     4   9  19  36  59  85 114 149 188 227 272 330
#     4   9  18  31  54  85 112 141 181 225 267 318
#     4  10  21  38  60  83 113 150 187 229 283 335
#     4   9  19  35  55  78 109 145 182 225 274 329
#     4  12  26  40  58  83 112 144 190 241 286 338
#     4  10  22  38  56  81 110 146 188 231 284 336
#     4   9  18  33  55  82 110 144 184 223 269 324
#
# _framework density 18.984349999999999
#
# number of rings (size 3 to 8) (size 9 to 14) (size 15 to 20)
#    0.000    2.500    0.000    1.250    4.667    1.333 
#    0.000    0.000    0.000    1.500    0.000    0.000 
#    0.000    0.000    0.000    0.000    0.000    0.000 
#
# Total GULP energy -595293.146641 kJ/mol
# GULP energy per Si atom -12401.940555 kJ/mol
# Density = 1.894114 g / cm^3
# Si number density = 18.984350 Si / 1000 Ang^3
#
#
#
# Elastic Constant Matrix: (Units=GPa)
#
#
# Indices 1 2 3 4 5 6 
#
# 1 22.3309 24.4883 20.9475 0.0000 0.0000 0.0000
# 2 24.4883 157.4418 88.8501 0.0000 0.0000 0.0000
# 3 20.9475 88.8501 120.9774 0.0000 0.0000 0.0000
# 4 0.0000 0.0000 0.0000 35.0391 0.0000 0.0000
# 5 0.0000 0.0000 0.0000 0.0000 21.0388 0.0000
# 6 0.0000 0.0000 0.0000 0.0000 0.0000 572.6836
#
#
#
# Elastic Compliance Matrix: (Units=1/GPa)
#
#
# Indices 1 2 3 4 5 6 
#
# 1 0.056165 -0.005546 -0.005652 0.000000 0.000000 0.000000
# 2 -0.005546 0.011395 -0.007409 0.000000 0.000000 0.000000
# 3 -0.005652 -0.007409 0.014686 0.000000 0.000000 0.000000
# 4 0.000000 0.000000 0.000000 0.028540 0.000000 0.000000
# 5 0.000000 0.000000 0.000000 0.000000 0.047531 0.000000
# 6 0.000000 0.000000 0.000000 0.000000 0.000000 0.001746
#
#
# Mechanical properties :
#
#
# Convention : Reuss Voigt Hill
#
# Bulk Modulus (GPa) = 22.20618 63.25798 42.73208
# Shear Modulus (GPa) = 23.55302 136.84990 80.20146
#
# Velocity S-wave (km/s) = 3.52611 8.49954 6.50675
# Velocity P-wave (km/s) = 5.31982 11.38931 8.88867
#
# Compressibility (1/GPa) = 0.04503250
#
# Stress axis : x y z
#
# Youngs Moduli (GPa) = 17.80474 87.75603 68.09302
#
# Poissons Ratio (x) = 0.48673 0.38483
# Poissons Ratio (y) = 0.09875 0.50448
# Poissons Ratio (z) = 0.10062 0.65016
#
# Static dielectric constant tensor:
#      x y z
#    x 3.246100 0.000000 0.000000 
#    y 0.000000 3.689290 0.000000 
#    z 0.000000 0.000000 3.654660 
# 
# 
# High freq. dielectric constant tensor:
#      x y z
#    x 1.713740 0.000000 0.000000 
#    y 0.000000 1.747910 0.000000 
#    z 0.000000 0.000000 1.747680 
# 
# From -- ./inp_files/25635.got.cif
#   From: 2010.03.12/outbox.cif.g09.slc.cpg/sg59_13_cif.got.tgz:25635.got - 2010.04.16 16:29:54.
