data_PCOD8245195
_publ_section_title
;
Structure prediction by ZEFSAII (Michael W. Deem and Ramdas Pophale) SiO2 
 PCOD8245195
Probable space group: P M M N
;
_chemical_formula_sum "Si O2"
_cell_formula_units_Z 56
_cell_length_a 8.930577
_cell_length_b 14.117438
_cell_length_c 22.915817
_cell_angle_alpha 90.000000
_cell_angle_beta 90.000000
_cell_angle_gamma 90.000000
_cell_volume 2889.154414
_symmetry_space_group_name_H-M "P M M N"
_symmetry_group_IT_number 59
_space_group.IT_coordinate_system_code '2'
_symmetry_cell_setting 'orthorhombic'
loop_
_space_group_symop_operation_xyz
x,y,z
1/2-x,1/2-y,z
1/2+x,-y,-z
-x,1/2+y,-z
-x,-y,-z
1/2+x,1/2+y,-z
1/2-x,y,z
x,1/2-y,z
loop_
_atom_site_type_symbol
_atom_site_label
_atom_site_fract_x
_atom_site_fract_y
_atom_site_fract_z
Si Si1 0.573803 0.143623 0.025540
Si Si2 0.078505 0.857438 0.641255
Si Si3 0.073651 0.096737 0.479715
Si Si4 0.426422 0.524091 0.305658
Si Si5 0.073914 0.360025 0.796894
Si Si6 0.917212 0.149071 0.587134
Si Si7 0.574209 0.951851 0.082290
O O1 0.750000 0.142709 0.016596
O O2 0.521190 0.250000 0.044972
O O3 0.502164 0.117452 0.963880
O O4 0.527149 0.062687 0.072870
O O5 0.250000 0.888389 0.631842
O O6 0.067405 0.750000 0.663814
O O7 0.991569 0.865689 0.580567
O O8 0.004629 0.921334 0.692471
O O9 0.250000 0.088374 0.472023
O O10 0.029756 0.164756 0.533054
O O11 0.000000 0.000000 0.500000
O O12 0.250000 0.513290 0.297044
O O13 0.488760 0.591617 0.256033
O O14 0.469568 0.568646 0.368313
O O15 0.250000 0.369516 0.786222
O O16 0.026893 0.250000 0.802393
O O17 0.022813 0.417410 0.854227
O O18 0.750000 0.124247 0.564011
O O19 0.914996 0.250000 0.620753
O O20 0.750000 0.938958 0.074083
#
# Coordination Sequence:
#
# PCOD8245195 Si02
#       7
#     8   8   8   8   8   8   8
#     4   9  17  30  51  81 115 149 187 235 287 336
#     4  11  24  42  63  85 111 145 184 228 280 339
#     4  12  23  36  57  84 113 146 182 223 276 333
#     4  11  23  39  60  83 110 145 185 232 280 329
#     4  10  21  37  57  81 112 150 190 232 279 335
#     4  10  21  37  56  80 110 142 176 220 277 335
#     4   9  18  33  53  79 113 153 194 234 279 333
#
# _framework density 19.382833999999999
#
# number of rings (size 3 to 8) (size 9 to 14) (size 15 to 20)
#    0.000    1.714    1.429    3.429    0.000    6.000 
#    0.000    0.714    0.000    2.571    0.000    0.000 
#    0.000    0.000    0.000    0.000    0.000    0.000 
#
# Total GULP energy -694166.561775 kJ/mol
# GULP energy per Si atom -12395.831460 kJ/mol
# Density = 1.933872 g / cm^3
# Si number density = 19.382834 Si / 1000 Ang^3
#
#
#
# Elastic Constant Matrix: (Units=GPa)
#
#
# Indices 1 2 3 4 5 6 
#
# 1 92.0809 52.2996 50.0207 0.0000 0.0000 0.0000
# 2 52.2996 148.7907 56.1580 0.0000 0.0000 0.0000
# 3 50.0207 56.1580 87.1646 0.0000 0.0000 0.0000
# 4 0.0000 0.0000 0.0000 29.9173 0.0000 0.0000
# 5 0.0000 0.0000 0.0000 0.0000 30.9609 0.0000
# 6 0.0000 0.0000 0.0000 0.0000 0.0000 25.6834
#
#
#
# Elastic Compliance Matrix: (Units=1/GPa)
#
#
# Indices 1 2 3 4 5 6 
#
# 1 0.016723 -0.002981 -0.007676 0.000000 0.000000 0.000000
# 2 -0.002981 0.009412 -0.004353 0.000000 0.000000 0.000000
# 3 -0.007676 -0.004353 0.018682 0.000000 0.000000 0.000000
# 4 0.000000 0.000000 0.000000 0.033425 0.000000 0.000000
# 5 0.000000 0.000000 0.000000 0.000000 0.032299 0.000000
# 6 0.000000 0.000000 0.000000 0.000000 0.000000 0.038936
#
#
# Mechanical properties :
#
#
# Convention : Reuss Voigt Hill
#
# Bulk Modulus (GPa) = 67.58347 71.66588 69.62467
# Shear Modulus (GPa) = 27.11067 28.61619 27.86343
#
# Velocity S-wave (km/s) = 3.74397 3.84652 3.79559
# Velocity P-wave (km/s) = 7.32346 7.53537 7.43017
#
# Compressibility (1/GPa) = 0.01479652
#
# Stress axis : x y z
#
# Youngs Moduli (GPa) = 59.79786 106.25213 53.52679
#
# Poissons Ratio (x) = 0.31672 0.41089
# Poissons Ratio (y) = 0.17825 0.23300
# Poissons Ratio (z) = 0.45902 0.46252
#
# Static dielectric constant tensor:
#      x y z
#    x 3.769700 0.000000 0.000000 
#    y 0.000000 3.899900 0.000000 
#    z 0.000000 0.000000 3.729880 
# 
# 
# High freq. dielectric constant tensor:
#      x y z
#    x 1.754290 0.000000 0.000000 
#    y 0.000000 1.777080 0.000000 
#    z 0.000000 0.000000 1.728910 
# 
# From -- ./inp_files/29173.got.cif
#   From: 2010.03.12/outbox.cif.g09.slc.cpg/sg59_15_cif.got.tgz:29173.got - 2010.04.16 16:29:54.
