data_PCOD8245945
_publ_section_title
;
Structure prediction by ZEFSAII (Michael W. Deem and Ramdas Pophale) SiO2 
 PCOD8245945
Probable space group: P M M N
;
_chemical_formula_sum "Si O2"
_cell_formula_units_Z 48
_cell_length_a 18.156581
_cell_length_b 8.898863
_cell_length_c 16.277558
_cell_angle_alpha 90.000000
_cell_angle_beta 90.000000
_cell_angle_gamma 90.000000
_cell_volume 2630.012688
_symmetry_space_group_name_H-M "P M M N"
_symmetry_group_IT_number 59
_space_group.IT_coordinate_system_code '2'
_symmetry_cell_setting 'orthorhombic'
loop_
_space_group_symop_operation_xyz
x,y,z
1/2-x,1/2-y,z
1/2+x,-y,-z
-x,1/2+y,-z
-x,-y,-z
1/2+x,1/2+y,-z
1/2-x,y,z
x,1/2-y,z
loop_
_atom_site_type_symbol
_atom_site_label
_atom_site_fract_x
_atom_site_fract_y
_atom_site_fract_z
Si Si1 0.920692 0.072759 0.508472
Si Si2 0.898079 0.580035 0.671689
Si Si3 0.332042 0.928622 0.648134
Si Si4 0.529344 0.427108 0.917757
Si Si5 0.833740 0.925735 0.841889
Si Si6 0.955425 0.421462 0.231745
O O1 0.930210 0.250000 0.504081
O O2 0.868539 0.011447 0.435772
O O3 0.882879 0.027072 0.594488
O O4 0.000000 0.000000 0.500000
O O5 0.878318 0.750000 0.646253
O O6 0.846997 0.526205 0.747368
O O7 0.983307 0.568428 0.697423
O O8 0.250000 0.996286 0.656793
O O9 0.329734 0.750000 0.644818
O O10 0.379483 0.978976 0.727530
O O11 0.529966 0.250000 0.927455
O O12 0.612545 0.482977 0.901625
O O13 0.474820 0.472273 0.844149
O O14 0.500000 0.500000 0.000000
O O15 0.750000 0.961722 0.867033
O O16 0.852889 0.750000 0.851154
O O17 0.949396 0.250000 0.199657
#
# Coordination Sequence:
#
# PCOD8245945 Si02
#       6
#     8   8   8   8   8   8
#     4  11  20  31  49  74 104 143 186 228 269 315
#     4   9  17  31  51  77 104 138 179 216 263 323
#     4   9  18  33  52  74 102 139 182 227 273 318
#     4  11  22  37  59  86 112 142 181 222 265 324
#     4   9  19  37  59  82 113 148 178 219 277 330
#     4   9  17  34  56  76 102 137 176 221 271 327
#
# _framework density 18.250862000000001
#
# number of rings (size 3 to 8) (size 9 to 14) (size 15 to 20)
#    0.000    2.333    1.667    3.000    0.000    3.667 
#    0.000    0.833    0.000    7.000    0.000    0.000 
#    0.000    0.000    0.000    0.000    0.000    0.000 
#
# Total GULP energy -595203.982094 kJ/mol
# GULP energy per Si atom -12400.082960 kJ/mol
# Density = 1.820932 g / cm^3
# Si number density = 18.250862 Si / 1000 Ang^3
#
#
#
# Elastic Constant Matrix: (Units=GPa)
#
#
# Indices 1 2 3 4 5 6 
#
# 1 135.4869 44.5786 67.4507 0.0000 0.0000 0.0000
# 2 44.5786 84.4102 51.6779 0.0000 0.0000 0.0000
# 3 67.4507 51.6779 117.3497 0.0000 0.0000 0.0000
# 4 0.0000 0.0000 0.0000 33.5628 0.0000 0.0000
# 5 0.0000 0.0000 0.0000 0.0000 22.4632 0.0000
# 6 0.0000 0.0000 0.0000 0.0000 0.0000 21.3229
#
#
#
# Elastic Compliance Matrix: (Units=1/GPa)
#
#
# Indices 1 2 3 4 5 6 
#
# 1 0.010738 -0.002591 -0.005031 0.000000 0.000000 0.000000
# 2 -0.002591 0.016845 -0.005929 0.000000 0.000000 0.000000
# 3 -0.005031 -0.005929 0.014024 0.000000 0.000000 0.000000
# 4 0.000000 0.000000 0.000000 0.029795 0.000000 0.000000
# 5 0.000000 0.000000 0.000000 0.000000 0.044517 0.000000
# 6 0.000000 0.000000 0.000000 0.000000 0.000000 0.046898
#
#
# Mechanical properties :
#
#
# Convention : Reuss Voigt Hill
#
# Bulk Modulus (GPa) = 68.93907 73.85126 71.39516
# Shear Modulus (GPa) = 25.67339 27.03907 26.35623
#
# Velocity S-wave (km/s) = 3.75466 3.85323 3.80427
# Velocity P-wave (km/s) = 7.52673 7.76846 7.64855
#
# Compressibility (1/GPa) = 0.01450556
#
# Stress axis : x y z
#
# Youngs Moduli (GPa) = 93.12844 59.36474 71.30479
#
# Poissons Ratio (x) = 0.15380 0.35874
# Poissons Ratio (y) = 0.24127 0.42277
# Poissons Ratio (z) = 0.46853 0.35197
#
# Static dielectric constant tensor:
#      x y z
#    x 3.517750 0.000000 0.000000 
#    y 0.000000 3.397230 0.000000 
#    z 0.000000 0.000000 3.380000 
# 
# 
# High freq. dielectric constant tensor:
#      x y z
#    x 1.702890 0.000000 0.000000 
#    y 0.000000 1.687200 0.000000 
#    z 0.000000 0.000000 1.703700 
# 
# From -- ./inp_files/23639.got.cif
#   From: 2010.03.12/outbox.cif.g09.slc.cpg/sg59_12_cif.got.tgz:23639.got - 2010.04.16 16:29:54.
