data_PCOD8245031
_publ_section_title
;
Structure prediction by ZEFSAII (Michael W. Deem and Ramdas Pophale) SiO2 
 PCOD8245031
Probable space group: P M M N
;
_chemical_formula_sum "Si O2"
_cell_formula_units_Z 64
_cell_length_a 8.916008
_cell_length_b 14.568271
_cell_length_c 25.878836
_cell_angle_alpha 90.000000
_cell_angle_beta 90.000000
_cell_angle_gamma 90.000000
_cell_volume 3361.423249
_symmetry_space_group_name_H-M "P M M N"
_symmetry_group_IT_number 59
_space_group.IT_coordinate_system_code '2'
_symmetry_cell_setting 'orthorhombic'
loop_
_space_group_symop_operation_xyz
x,y,z
1/2-x,1/2-y,z
1/2+x,-y,-z
-x,1/2+y,-z
-x,-y,-z
1/2+x,1/2+y,-z
1/2-x,y,z
x,1/2-y,z
loop_
_atom_site_type_symbol
_atom_site_label
_atom_site_fract_x
_atom_site_fract_y
_atom_site_fract_z
Si Si1 0.577072 0.857455 0.129505
Si Si2 0.076212 0.493042 0.314036
Si Si3 0.926410 0.495817 0.944475
Si Si4 0.423147 0.645395 0.233872
Si Si5 0.926187 0.504127 0.422736
Si Si6 0.573092 0.354979 0.505709
Si Si7 0.080255 0.856560 0.758627
Si Si8 0.078171 0.855785 0.877380
O O1 0.750000 0.885151 0.124505
O O2 0.549591 0.750000 0.122766
O O3 0.520618 0.890322 0.185668
O O4 0.484427 0.905864 0.084693
O O5 0.250000 0.488181 0.329416
O O6 0.036806 0.587022 0.284367
O O7 0.976518 0.487131 0.364708
O O8 0.037410 0.408379 0.277183
O O9 0.750000 0.489159 0.951114
O O10 0.967343 0.586652 0.912794
O O11 0.000000 0.500000 0.000000
O O12 0.250000 0.633689 0.218189
O O13 0.463093 0.750000 0.247610
O O14 0.750000 0.518577 0.425039
O O15 0.974601 0.414040 0.455471
O O16 0.001450 0.596985 0.444189
O O17 0.750000 0.355390 0.513551
O O18 0.514399 0.250000 0.499952
O O19 0.250000 0.890334 0.747705
O O20 0.066695 0.750000 0.745457
O O21 0.037329 0.875016 0.817962
O O22 0.250000 0.884500 0.888121
O O23 0.053466 0.750000 0.891311
#
# Coordination Sequence:
#
# PCOD8245031 Si02
#       8
#     8   8   8   8   8   8   8   8
#     4  10  21  38  60  84 110 141 180 227 276 328
#     4  11  22  34  52  81 116 151 184 224 271 315
#     4  12  25  39  57  81 110 144 182 226 275 328
#     4   9  19  36  56  79 109 146 185 221 265 324
#     4  10  21  36  55  82 112 143 182 225 271 325
#     4   9  19  38  61  80 103 140 183 227 276 327
#     4   9  19  36  57  80 108 145 184 221 268 325
#     4   9  19  38  62  85 111 144 181 223 273 328
#
# _framework density 19.039553000000002
#
# number of rings (size 3 to 8) (size 9 to 14) (size 15 to 20)
#    0.000    2.125    0.000    3.750    0.000    7.000 
#    0.000    3.750    0.000    0.000    0.000    0.000 
#    0.000    0.000    0.000    0.000    0.000    0.000 
#
# Total GULP energy -793821.427822 kJ/mol
# GULP energy per Si atom -12403.459810 kJ/mol
# Density = 1.899622 g / cm^3
# Si number density = 19.039553 Si / 1000 Ang^3
#
#
#
# Elastic Constant Matrix: (Units=GPa)
#
#
# Indices 1 2 3 4 5 6 
#
# 1 72.1693 36.1685 37.1333 0.0000 0.0000 0.0000
# 2 36.1685 104.5142 48.0104 0.0000 0.0000 0.0000
# 3 37.1333 48.0104 101.7725 0.0000 0.0000 0.0000
# 4 0.0000 0.0000 0.0000 -12.6837 0.0000 0.0000
# 5 0.0000 0.0000 0.0000 0.0000 37.5492 0.0000
# 6 0.0000 0.0000 0.0000 0.0000 0.0000 33.0559
#
#
#
# Elastic Compliance Matrix: (Units=1/GPa)
#
#
# Indices 1 2 3 4 5 6 
#
# 1 0.018392 -0.004190 -0.004734 0.000000 0.000000 0.000000
# 2 -0.004190 0.013170 -0.004684 0.000000 0.000000 0.000000
# 3 -0.004734 -0.004684 0.013763 0.000000 0.000000 0.000000
# 4 0.000000 0.000000 0.000000 -0.078841 0.000000 0.000000
# 5 0.000000 0.000000 0.000000 0.000000 0.026632 0.000000
# 6 0.000000 0.000000 0.000000 0.000000 0.000000 0.030252
#
#
# Mechanical properties :
#
#
# Convention : Reuss Voigt Hill
#
# Bulk Modulus (GPa) = 55.22281 57.89784 56.56032
# Shear Modulus (GPa) = 88.30984 22.06052 55.18518
#
# Velocity S-wave (km/s) = 6.81784 3.40761 5.38957
# Velocity P-wave (km/s) = 9.54173 6.77921 8.27654
#
# Compressibility (1/GPa) = 0.01810846
#
# Stress axis : x y z
#
# Youngs Moduli (GPa) = 54.37134 75.93145 72.66027
#
# Poissons Ratio (x) = 0.31817 0.34397
# Poissons Ratio (y) = 0.22783 0.34033
# Poissons Ratio (z) = 0.25739 0.35565
#
# Static dielectric constant tensor:
#      x y z
#    x 3.537640 0.000000 0.000000 
#    y 0.000000 3.594040 0.000000 
#    z 0.000000 0.000000 3.446780 
# 
# 
# High freq. dielectric constant tensor:
#      x y z
#    x 1.741460 0.000000 0.000000 
#    y 0.000000 1.749370 0.000000 
#    z 0.000000 0.000000 1.738050 
# 
# From -- ./inp_files/31452.got.cif
#   From: 2010.03.12/outbox.cif.g09.slc.cpg/sg59_16_cif.got.tgz:31452.got - 2010.04.16 16:29:54.
