data_PCOD8245950
_publ_section_title
;
Structure prediction by ZEFSAII (Michael W. Deem and Ramdas Pophale) SiO2 
 PCOD8245950
Probable space group: P M M N
;
_chemical_formula_sum "Si O2"
_cell_formula_units_Z 40
_cell_length_a 24.660039
_cell_length_b 8.628878
_cell_length_c 10.268186
_cell_angle_alpha 90.000000
_cell_angle_beta 90.000000
_cell_angle_gamma 90.000000
_cell_volume 2184.951568
_symmetry_space_group_name_H-M "P M M N"
_symmetry_group_IT_number 59
_space_group.IT_coordinate_system_code '2'
_symmetry_cell_setting 'orthorhombic'
loop_
_space_group_symop_operation_xyz
x,y,z
1/2-x,1/2-y,z
1/2+x,-y,-z
-x,1/2+y,-z
-x,-y,-z
1/2+x,1/2+y,-z
1/2-x,y,z
x,1/2-y,z
loop_
_atom_site_type_symbol
_atom_site_label
_atom_site_fract_x
_atom_site_fract_y
_atom_site_fract_z
Si Si1 0.974727 0.930133 0.371418
Si Si2 0.750000 0.921384 0.778006
Si Si3 0.750000 0.580829 0.469009
Si Si4 0.635887 0.931426 0.492584
Si Si5 0.969794 0.932512 0.876408
Si Si6 0.636717 0.067331 0.772996
O O1 0.990692 0.750000 0.356552
O O2 0.909909 0.952536 0.383758
O O3 0.000000 0.000000 0.500000
O O4 0.994809 0.025743 0.249140
O O5 0.750000 0.750000 0.840897
O O6 0.750000 0.909234 0.624123
O O7 0.695395 0.009313 0.822447
O O8 0.750000 0.750000 0.403216
O O9 0.807298 0.498713 0.432271
O O10 0.644275 0.750000 0.527991
O O11 0.620901 0.016667 0.626494
O O12 0.965070 0.750000 0.889544
O O13 0.909327 0.001513 0.868657
O O14 0.000000 0.000000 0.000000
O O15 0.636242 0.250000 0.779968
#
# Coordination Sequence:
#
# PCOD8245950 Si02
#       6
#     8   4   4   8   8   8
#     4  11  21  34  55  83 112 147 187 229 278 335
#     4   9  17  31  51  76 109 146 183 224 276 328
#     4   7  12  25  45  72 103 138 175 218 266 318
#     4   9  17  30  51  77 109 145 183 225 276 331
#     4  12  25  41  58  79 111 150 192 239 292 345
#     4  11  20  32  53  82 113 143 183 231 282 335
#
# _framework density 18.307041999999999
#
# number of rings (size 3 to 8) (size 9 to 14) (size 15 to 20)
#    0.000    1.800    2.000    5.700    0.000    0.800 
#    0.000    0.000    0.000    1.200    0.000    5.600 
#    0.000    0.000    0.000    0.000    0.000    0.000 
#
# Total GULP energy -495776.640043 kJ/mol
# GULP energy per Si atom -12394.416001 kJ/mol
# Density = 1.826537 g / cm^3
# Si number density = 18.307042 Si / 1000 Ang^3
#
#
#
# Elastic Constant Matrix: (Units=GPa)
#
#
# Indices 1 2 3 4 5 6 
#
# 1 169.4982 59.9424 48.5549 0.0000 0.0000 0.0000
# 2 59.9424 139.3205 31.8256 0.0000 0.0000 0.0000
# 3 48.5549 31.8256 72.7394 0.0000 0.0000 0.0000
# 4 0.0000 0.0000 0.0000 25.0825 0.0000 0.0000
# 5 0.0000 0.0000 0.0000 0.0000 21.6867 0.0000
# 6 0.0000 0.0000 0.0000 0.0000 0.0000 30.5851
#
#
#
# Elastic Compliance Matrix: (Units=1/GPa)
#
#
# Indices 1 2 3 4 5 6 
#
# 1 0.007991 -0.002466 -0.004255 0.000000 0.000000 0.000000
# 2 -0.002466 0.008736 -0.002176 0.000000 0.000000 0.000000
# 3 -0.004255 -0.002176 0.017540 0.000000 0.000000 0.000000
# 4 0.000000 0.000000 0.000000 0.039868 0.000000 0.000000
# 5 0.000000 0.000000 0.000000 0.000000 0.046111 0.000000
# 6 0.000000 0.000000 0.000000 0.000000 0.000000 0.032696
#
#
# Mechanical properties :
#
#
# Convention : Reuss Voigt Hill
#
# Bulk Modulus (GPa) = 60.70737 73.57821 67.14279
# Shear Modulus (GPa) = 28.37252 31.55322 29.96287
#
# Velocity S-wave (km/s) = 3.94104 4.15608 4.04999
# Velocity P-wave (km/s) = 7.34450 7.95670 7.65672
#
# Compressibility (1/GPa) = 0.01647246
#
# Stress axis : x y z
#
# Youngs Moduli (GPa) = 125.14438 114.47170 57.01219
#
# Poissons Ratio (x) = 0.28229 0.24259
# Poissons Ratio (y) = 0.30861 0.12406
# Poissons Ratio (z) = 0.53249 0.24910
#
# Static dielectric constant tensor:
#      x y z
#    x 4.311570 0.000000 0.000000 
#    y 0.000000 3.427480 0.000000 
#    z 0.000000 0.000000 2.780580 
# 
# 
# High freq. dielectric constant tensor:
#      x y z
#    x 1.742750 0.000000 0.000000 
#    y 0.000000 1.711980 0.000000 
#    z 0.000000 0.000000 1.650950 
# 
# From -- ./inp_files/12392.got.cif
#   From: 2010.03.12/outbox.cif.g09.slc.cpg/sg59_7_cif.got.tgz:12392.got - 2010.04.16 16:29:54.
