data_PCOD8245551
_publ_section_title
;
Structure prediction by ZEFSAII (Michael W. Deem and Ramdas Pophale) SiO2 
 PCOD8245551
Probable space group: P M M N
;
_chemical_formula_sum "Si O2"
_cell_formula_units_Z 40
_cell_length_a 15.993796
_cell_length_b 8.707586
_cell_length_c 14.433036
_cell_angle_alpha 90.000000
_cell_angle_beta 90.000000
_cell_angle_gamma 90.000000
_cell_volume 2010.050736
_symmetry_space_group_name_H-M "P M M N"
_symmetry_group_IT_number 59
_space_group.IT_coordinate_system_code '2'
_symmetry_cell_setting 'orthorhombic'
loop_
_space_group_symop_operation_xyz
x,y,z
1/2-x,1/2-y,z
1/2+x,-y,-z
-x,1/2+y,-z
-x,-y,-z
1/2+x,1/2+y,-z
1/2-x,y,z
x,1/2-y,z
loop_
_atom_site_type_symbol
_atom_site_label
_atom_site_fract_x
_atom_site_fract_y
_atom_site_fract_z
Si Si1 0.750000 0.432992 0.783122
Si Si2 0.845774 0.426263 0.297014
Si Si3 0.588227 0.930258 0.470751
Si Si4 0.098410 0.931294 0.096585
Si Si5 0.575386 0.429192 0.108465
Si Si6 0.250000 0.932810 0.428549
O O1 0.750000 0.250000 0.785754
O O2 0.830398 0.500784 0.836982
O O3 0.750000 0.490336 0.677586
O O4 0.750000 0.454856 0.322560
O O5 0.871314 0.250000 0.315762
O O6 0.901416 0.535551 0.361526
O O7 0.858899 0.467861 0.189166
O O8 0.587810 0.750000 0.489485
O O9 0.500000 0.000000 0.500000
O O10 0.665543 0.005515 0.525024
O O11 0.102847 0.750000 0.100913
O O12 0.111559 0.988056 0.990127
O O13 0.009897 0.986112 0.135015
O O14 0.555486 0.250000 0.101714
O O15 0.250000 0.750000 0.437364
#
# Coordination Sequence:
#
# PCOD8245551 Si02
#       6
#     4   8   8   8   8   4
#     4   9  20  35  58  85 112 152 195 233 282 345
#     4  10  21  38  61  89 120 155 195 246 302 360
#     4  12  26  44  66  91 120 160 204 254 311 369
#     4   9  18  35  56  82 116 154 195 237 283 345
#     4   9  19  34  56  85 117 152 194 239 290 346
#     4  11  23  43  64  91 126 160 203 255 304 363
#
# _framework density 19.899996000000002
#
# number of rings (size 3 to 8) (size 9 to 14) (size 15 to 20)
#    0.000    2.000    1.000    2.100    4.200    0.800 
#    0.000    1.500    0.000    0.000    0.000    0.000 
#    0.000    0.000    0.000    0.000    0.000    0.000 
#
# Total GULP energy -495981.727666 kJ/mol
# GULP energy per Si atom -12399.543192 kJ/mol
# Density = 1.985470 g / cm^3
# Si number density = 19.899996 Si / 1000 Ang^3
#
#
#
# Elastic Constant Matrix: (Units=GPa)
#
#
# Indices 1 2 3 4 5 6 
#
# 1 120.3295 40.4846 57.5757 0.0000 0.0000 0.0000
# 2 40.4846 63.7773 34.6898 0.0000 0.0000 0.0000
# 3 57.5757 34.6898 121.8301 0.0000 0.0000 0.0000
# 4 0.0000 0.0000 0.0000 24.7952 0.0000 0.0000
# 5 0.0000 0.0000 0.0000 0.0000 38.4306 0.0000
# 6 0.0000 0.0000 0.0000 0.0000 0.0000 31.2203
#
#
#
# Elastic Compliance Matrix: (Units=1/GPa)
#
#
# Indices 1 2 3 4 5 6 
#
# 1 0.012143 -0.005427 -0.004193 0.000000 0.000000 0.000000
# 2 -0.005427 0.020979 -0.003409 0.000000 0.000000 0.000000
# 3 -0.004193 -0.003409 0.011160 0.000000 0.000000 0.000000
# 4 0.000000 0.000000 0.000000 0.040330 0.000000 0.000000
# 5 0.000000 0.000000 0.000000 0.000000 0.026021 0.000000
# 6 0.000000 0.000000 0.000000 0.000000 0.000000 0.032030
#
#
# Mechanical properties :
#
#
# Convention : Reuss Voigt Hill
#
# Bulk Modulus (GPa) = 54.87338 63.49300 59.18319
# Shear Modulus (GPa) = 28.60467 30.43501 29.51984
#
# Velocity S-wave (km/s) = 3.79545 3.91499 3.85568
# Velocity P-wave (km/s) = 6.84410 7.23958 7.04461
#
# Compressibility (1/GPa) = 0.01822377
#
# Stress axis : x y z
#
# Youngs Moduli (GPa) = 82.35258 47.66739 89.60254
#
# Poissons Ratio (x) = 0.25870 0.37573
# Poissons Ratio (y) = 0.44695 0.30542
# Poissons Ratio (z) = 0.34533 0.16248
#
# Static dielectric constant tensor:
#      x y z
#    x 3.740930 0.000000 0.000000 
#    y 0.000000 3.445590 0.000000 
#    z 0.000000 0.000000 3.954940 
# 
# 
# High freq. dielectric constant tensor:
#      x y z
#    x 1.778840 0.000000 0.000000 
#    y 0.000000 1.755320 0.000000 
#    z 0.000000 0.000000 1.792160 
# 
# From -- ./inp_files/20021.got.cif
#   From: 2010.03.12/outbox.cif.g09.slc.cpg/sg59_11_cif.got.tgz:20021.got - 2010.04.16 16:29:54.
