data_PCOD8245825
_publ_section_title
;
Structure prediction by ZEFSAII (Michael W. Deem and Ramdas Pophale) SiO2 
 PCOD8245825
Probable space group: P M M N
;
_chemical_formula_sum "Si O2"
_cell_formula_units_Z 32
_cell_length_a 12.800534
_cell_length_b 9.976088
_cell_length_c 9.959442
_cell_angle_alpha 90.000000
_cell_angle_beta 90.000000
_cell_angle_gamma 90.000000
_cell_volume 1271.813310
_symmetry_space_group_name_H-M "P M M N"
_symmetry_group_IT_number 59
_space_group.IT_coordinate_system_code '2'
_symmetry_cell_setting 'orthorhombic'
loop_
_space_group_symop_operation_xyz
x,y,z
1/2-x,1/2-y,z
1/2+x,-y,-z
-x,1/2+y,-z
-x,-y,-z
1/2+x,1/2+y,-z
1/2-x,y,z
x,1/2-y,z
loop_
_atom_site_type_symbol
_atom_site_label
_atom_site_fract_x
_atom_site_fract_y
_atom_site_fract_z
Si Si1 0.630936 0.496966 0.341335
Si Si2 0.130906 0.101355 0.173225
Si Si3 0.920231 0.108359 0.613334
Si Si4 0.125672 0.900049 0.951660
O O1 0.750000 0.552155 0.327528
O O2 0.622678 0.389147 0.460994
O O3 0.547294 0.611181 0.381262
O O4 0.590907 0.431514 0.201351
O O5 0.250000 0.122457 0.134974
O O6 0.078528 0.250000 0.182609
O O7 0.125063 0.021491 0.312933
O O8 0.077761 0.012049 0.054638
O O9 0.882395 0.250000 0.677753
O O10 0.250000 0.904298 0.960285
O O11 0.086651 0.750000 0.990777
#
# Coordination Sequence:
#
# PCOD8245825 Si02
#       4
#     8   8   8   8
#     4  10  23  42  64  92 126 161 203 259 316 369
#     4  10  22  40  62  92 131 170 208 254 307 364
#     4  11  24  41  65  96 126 163 210 255 307 372
#     4   9  18  36  64  93 121 160 209 258 309 365
#
# _framework density 25.160924999999999
#
# number of rings (size 3 to 8) (size 9 to 14) (size 15 to 20)
#    0.000    2.000    0.000    2.250    0.000   11.500 
#    0.000    2.500    0.000    0.000    0.000    0.000 
#    0.000    0.000    0.000    0.000    0.000    0.000 
#
# Total GULP energy -396511.338387 kJ/mol
# GULP energy per Si atom -12390.979325 kJ/mol
# Density = 2.510366 g / cm^3
# Si number density = 25.160925 Si / 1000 Ang^3
#
#
#
# Elastic Constant Matrix: (Units=GPa)
#
#
# Indices 1 2 3 4 5 6 
#
# 1 56.0167 6.6178 16.6335 0.0000 0.0000 0.0000
# 2 6.6178 220.7955 96.0542 0.0000 0.0000 0.0000
# 3 16.6335 96.0542 186.4333 0.0000 0.0000 0.0000
# 4 0.0000 0.0000 0.0000 -3.9208 0.0000 0.0000
# 5 0.0000 0.0000 0.0000 0.0000 27.4466 0.0000
# 6 0.0000 0.0000 0.0000 0.0000 0.0000 0.3136
#
#
#
# Elastic Compliance Matrix: (Units=1/GPa)
#
#
# Indices 1 2 3 4 5 6 
#
# 1 0.018345 0.000209 -0.001744 0.000000 0.000000 0.000000
# 2 0.000209 0.005840 -0.003027 0.000000 0.000000 0.000000
# 3 -0.001744 -0.003027 0.007079 0.000000 0.000000 0.000000
# 4 0.000000 0.000000 0.000000 -0.255052 0.000000 0.000000
# 5 0.000000 0.000000 0.000000 0.000000 0.036434 0.000000
# 6 0.000000 0.000000 0.000000 0.000000 0.000000 3.188341
#
#
# Mechanical properties :
#
#
# Convention : Reuss Voigt Hill
#
# Bulk Modulus (GPa) = 45.17010 77.98406 61.57708
# Shear Modulus (GPa) = 1.65700 27.69723 14.67712
#
# Velocity S-wave (km/s) = 0.81240 3.32144 2.41784
# Velocity P-wave (km/s) = 4.34413 6.76540 5.68516
#
# Compressibility (1/GPa) = 0.02213854
#
# Stress axis : x y z
#
# Youngs Moduli (GPa) = 54.51046 171.23651 141.25680
#
# Poissons Ratio (x) = -0.03580 0.24641
# Poissons Ratio (y) = -0.01140 0.42765
# Poissons Ratio (z) = 0.09509 0.51841
#
# Static dielectric constant tensor:
#      x y z
#    x 4.701270 0.000000 0.000000 
#    y 0.000000 4.626520 0.000000 
#    z 0.000000 0.000000 4.481160 
# 
# 
# High freq. dielectric constant tensor:
#      x y z
#    x 2.029500 0.000000 0.000000 
#    y 0.000000 1.987340 0.000000 
#    z 0.000000 0.000000 2.002890 
# 
# From -- ./inp_files/13612.got.cif
#   From: 2010.03.12/outbox.cif.g09.slc.cpg/sg59_7_cif.got.tgz:13612.got - 2010.04.16 16:29:54.
