data_PCOD8245843
_publ_section_title
;
Structure prediction by ZEFSAII (Michael W. Deem and Ramdas Pophale) SiO2 
 PCOD8245843
Probable space group: P M M N
;
_chemical_formula_sum "Si O2"
_cell_formula_units_Z 40
_cell_length_a 29.208525
_cell_length_b 9.142134
_cell_length_c 7.141611
_cell_angle_alpha 90.000000
_cell_angle_beta 90.000000
_cell_angle_gamma 90.000000
_cell_volume 1907.011884
_symmetry_space_group_name_H-M "P M M N"
_symmetry_group_IT_number 59
_space_group.IT_coordinate_system_code '2'
_symmetry_cell_setting 'orthorhombic'
loop_
_space_group_symop_operation_xyz
x,y,z
1/2-x,1/2-y,z
1/2+x,-y,-z
-x,1/2+y,-z
-x,-y,-z
1/2+x,1/2+y,-z
1/2-x,y,z
x,1/2-y,z
loop_
_atom_site_type_symbol
_atom_site_label
_atom_site_fract_x
_atom_site_fract_y
_atom_site_fract_z
Si Si1 0.697804 0.081836 0.124710
Si Si2 0.029997 0.911543 0.241407
Si Si3 0.553099 0.086728 0.321574
Si Si4 0.869616 0.079412 0.792445
Si Si5 0.641274 0.923280 0.407394
O O1 0.750000 0.054935 0.063340
O O2 0.689525 0.250000 0.182473
O O3 0.686548 0.978978 0.300960
O O4 0.665441 0.036572 0.953585
O O5 0.014280 0.750000 0.178610
O O6 0.039245 0.911744 0.462770
O O7 0.077988 0.955421 0.141062
O O8 0.988949 0.024305 0.195450
O O9 0.564023 0.250000 0.248407
O O10 0.597686 0.987117 0.295079
O O11 0.866148 0.250000 0.734021
O O12 0.856159 0.980190 0.617862
O O13 0.638538 0.750000 0.407841
#
# Coordination Sequence:
#
# PCOD8245843 Si02
#       5
#     8   8   8   8   8
#     4  10  22  41  63  84 108 142 187 237 284 333
#     4   8  14  26  47  77 111 143 179 227 278 326
#     4   9  16  28  49  77 110 148 189 227 266 322
#     4   9  19  37  60  85 113 148 190 233 279 333
#     4  11  22  36  57  85 118 152 185 226 279 335
#
# _framework density 20.975224000000001
#
# number of rings (size 3 to 8) (size 9 to 14) (size 15 to 20)
#    0.000    2.600    0.000    3.600    0.000    6.800 
#    0.000    3.000    0.000    0.000    0.000    0.000 
#    0.000    0.000    0.000    0.000    0.000    0.000 
#
# Total GULP energy -496022.256235 kJ/mol
# GULP energy per Si atom -12400.556406 kJ/mol
# Density = 2.092748 g / cm^3
# Si number density = 20.975224 Si / 1000 Ang^3
#
#
#
# Elastic Constant Matrix: (Units=GPa)
#
#
# Indices 1 2 3 4 5 6 
#
# 1 113.7507 54.2185 29.5238 0.0000 0.0000 0.0000
# 2 54.2185 136.0635 38.8812 0.0000 0.0000 0.0000
# 3 29.5238 38.8812 25.7698 0.0000 0.0000 0.0000
# 4 0.0000 0.0000 0.0000 18.8427 0.0000 0.0000
# 5 0.0000 0.0000 0.0000 0.0000 34.6341 0.0000
# 6 0.0000 0.0000 0.0000 0.0000 0.0000 31.5710
#
#
#
# Elastic Compliance Matrix: (Units=1/GPa)
#
#
# Indices 1 2 3 4 5 6 
#
# 1 0.012704 -0.001588 -0.012159 0.000000 0.000000 0.000000
# 2 -0.001588 0.013118 -0.017974 0.000000 0.000000 0.000000
# 3 -0.012159 -0.017974 0.079854 0.000000 0.000000 0.000000
# 4 0.000000 0.000000 0.000000 0.053071 0.000000 0.000000
# 5 0.000000 0.000000 0.000000 0.000000 0.028873 0.000000
# 6 0.000000 0.000000 0.000000 0.000000 0.000000 0.031675
#
#
# Mechanical properties :
#
#
# Convention : Reuss Voigt Hill
#
# Bulk Modulus (GPa) = 23.67689 57.87010 40.77349
# Shear Modulus (GPa) = 16.84556 27.20692 22.02624
#
# Velocity S-wave (km/s) = 2.83701 3.60543 3.24405
# Velocity P-wave (km/s) = 4.69510 6.70685 5.78903
#
# Compressibility (1/GPa) = 0.04223528
#
# Stress axis : x y z
#
# Youngs Moduli (GPa) = 78.71700 76.22926 12.52286
#
# Poissons Ratio (x) = 0.12103 0.15226
# Poissons Ratio (y) = 0.12498 0.22508
# Poissons Ratio (z) = 0.95711 1.37013
#
# Static dielectric constant tensor:
#      x y z
#    x 3.979000 0.000000 0.000000 
#    y 0.000000 3.763350 0.000000 
#    z 0.000000 0.000000 3.550780 
# 
# 
# High freq. dielectric constant tensor:
#      x y z
#    x 1.822570 0.000000 0.000000 
#    y 0.000000 1.810770 0.000000 
#    z 0.000000 0.000000 1.811540 
# 
# From -- ./inp_files/6038.got.cif
#   From: 2010.03.12/outbox.cif.g09.slc.cpg/sg59_4_cif.got.tgz:6038.got - 2010.04.16 16:29:54.
