data_PCOD8245009
_publ_section_title
;
Structure prediction by ZEFSAII (Michael W. Deem and Ramdas Pophale) SiO2 
 PCOD8245009
Probable space group: P M M N
;
_chemical_formula_sum "Si O2"
_cell_formula_units_Z 40
_cell_length_a 9.097544
_cell_length_b 8.804723
_cell_length_c 25.549498
_cell_angle_alpha 90.000000
_cell_angle_beta 90.000000
_cell_angle_gamma 90.000000
_cell_volume 2046.549407
_symmetry_space_group_name_H-M "P M M N"
_symmetry_group_IT_number 59
_space_group.IT_coordinate_system_code '2'
_symmetry_cell_setting 'orthorhombic'
loop_
_space_group_symop_operation_xyz
x,y,z
1/2-x,1/2-y,z
1/2+x,-y,-z
-x,1/2+y,-z
-x,-y,-z
1/2+x,1/2+y,-z
1/2-x,y,z
x,1/2-y,z
loop_
_atom_site_type_symbol
_atom_site_label
_atom_site_fract_x
_atom_site_fract_y
_atom_site_fract_z
Si Si1 0.582820 0.429386 0.451532
Si Si2 0.578752 0.426979 0.145373
Si Si3 0.420680 0.926440 0.240090
Si Si4 0.917728 0.429167 0.951230
Si Si5 0.920077 0.924535 0.651760
O O1 0.500000 0.500000 0.500000
O O2 0.750000 0.485200 0.452628
O O3 0.568834 0.250000 0.455637
O O4 0.511658 0.486465 0.397412
O O5 0.750000 0.466412 0.141682
O O6 0.549739 0.250000 0.135761
O O7 0.519736 0.473524 0.201973
O O8 0.493395 0.522592 0.102288
O O9 0.250000 0.962433 0.228901
O O10 0.455741 0.750000 0.231590
O O11 0.463204 0.972787 0.298853
O O12 0.750000 0.486608 0.951041
O O13 0.925346 0.250000 0.956514
O O14 0.000000 0.500000 0.000000
O O15 0.750000 0.942779 0.637225
O O16 0.958816 0.750000 0.664905
#
# Coordination Sequence:
#
# PCOD8245009 Si02
#       5
#     8   8   8   8   8
#     4  10  21  36  55  80 110 144 183 228 277 330
#     4  11  24  40  59  85 116 151 192 235 279 330
#     4  10  21  37  58  85 115 147 185 229 278 333
#     4  11  24  41  62  89 119 151 190 234 280 333
#     4   9  18  34  55  78 108 147 187 227 274 329
#
# _framework density 19.545093999999999
#
# number of rings (size 3 to 8) (size 9 to 14) (size 15 to 20)
#    0.000    1.800    0.000    3.600    0.000   12.000 
#    0.000    4.000    0.000    0.000    0.000    0.000 
#    0.000    0.000    0.000    0.000    0.000    0.000 
#
# Total GULP energy -496221.047214 kJ/mol
# GULP energy per Si atom -12405.526180 kJ/mol
# Density = 1.950061 g / cm^3
# Si number density = 19.545094 Si / 1000 Ang^3
#
#
#
# Elastic Constant Matrix: (Units=GPa)
#
#
# Indices 1 2 3 4 5 6 
#
# 1 133.1221 44.2144 77.0807 0.0000 0.0000 0.0000
# 2 44.2144 47.4391 30.3918 0.0000 0.0000 0.0000
# 3 77.0807 30.3918 131.1193 0.0000 0.0000 0.0000
# 4 0.0000 0.0000 0.0000 42.0555 0.0000 0.0000
# 5 0.0000 0.0000 0.0000 0.0000 44.4690 0.0000
# 6 0.0000 0.0000 0.0000 0.0000 0.0000 29.4754
#
#
#
# Elastic Compliance Matrix: (Units=1/GPa)
#
#
# Indices 1 2 3 4 5 6 
#
# 1 0.014160 -0.009236 -0.006183 0.000000 0.000000 0.000000
# 2 -0.009236 0.030780 -0.001705 0.000000 0.000000 0.000000
# 3 -0.006183 -0.001705 0.011657 0.000000 0.000000 0.000000
# 4 0.000000 0.000000 0.000000 0.023778 0.000000 0.000000
# 5 0.000000 0.000000 0.000000 0.000000 0.022488 0.000000
# 6 0.000000 0.000000 0.000000 0.000000 0.000000 0.033927
#
#
# Mechanical properties :
#
#
# Convention : Reuss Voigt Hill
#
# Bulk Modulus (GPa) = 44.74617 68.33935 56.54276
# Shear Modulus (GPa) = 28.01336 33.86622 30.93979
#
# Velocity S-wave (km/s) = 3.78996 4.16711 3.98300
# Velocity P-wave (km/s) = 6.48808 7.62850 7.08129
#
# Compressibility (1/GPa) = 0.02234828
#
# Stress axis : x y z
#
# Youngs Moduli (GPa) = 70.62299 32.48865 85.78724
#
# Poissons Ratio (x) = 0.30006 0.53044
# Poissons Ratio (y) = 0.65227 0.14626
# Poissons Ratio (z) = 0.43668 0.05539
#
# Static dielectric constant tensor:
#      x y z
#    x 3.741700 0.000000 0.000000 
#    y 0.000000 3.530910 0.000000 
#    z 0.000000 0.000000 3.728650 
# 
# 
# High freq. dielectric constant tensor:
#      x y z
#    x 1.768040 0.000000 0.000000 
#    y 0.000000 1.761870 0.000000 
#    z 0.000000 0.000000 1.776860 
# 
# From -- ./inp_files/31116.got.cif
#   From: 2010.03.12/outbox.cif.g09.slc.cpg/sg59_16_cif.got.tgz:31116.got - 2010.04.16 16:29:54.
