data_PCOD8245062
_publ_section_title
;
Structure prediction by ZEFSAII (Michael W. Deem and Ramdas Pophale) SiO2 
 PCOD8245062
Probable space group: P M M N
;
_chemical_formula_sum "Si O2"
_cell_formula_units_Z 64
_cell_length_a 14.427752
_cell_length_b 9.076928
_cell_length_c 24.748454
_cell_angle_alpha 90.000000
_cell_angle_beta 90.000000
_cell_angle_gamma 90.000000
_cell_volume 3241.049272
_symmetry_space_group_name_H-M "P M M N"
_symmetry_group_IT_number 59
_space_group.IT_coordinate_system_code '2'
_symmetry_cell_setting 'orthorhombic'
loop_
_space_group_symop_operation_xyz
x,y,z
1/2-x,1/2-y,z
1/2+x,-y,-z
-x,1/2+y,-z
-x,-y,-z
1/2+x,1/2+y,-z
1/2-x,y,z
x,1/2-y,z
loop_
_atom_site_type_symbol
_atom_site_label
_atom_site_fract_x
_atom_site_fract_y
_atom_site_fract_z
Si Si1 0.649986 0.918751 0.915579
Si Si2 0.351335 0.584729 0.594646
Si Si3 0.477469 0.423529 0.672240
Si Si4 0.144405 0.424637 0.773156
Si Si5 0.589811 0.418239 0.520828
Si Si6 0.954640 0.419141 0.129535
Si Si7 0.855109 0.920838 0.628498
Si Si8 0.093595 0.918998 0.987855
O O1 0.750000 0.933956 0.884541
O O2 0.628115 0.750000 0.930148
O O3 0.561136 0.976038 0.881165
O O4 0.666791 0.004081 0.972383
O O5 0.250000 0.546797 0.618815
O O6 0.381987 0.750000 0.612002
O O7 0.426247 0.468488 0.616671
O O8 0.341130 0.576949 0.529995
O O9 0.493080 0.250000 0.674155
O O10 0.413966 0.480144 0.721538
O O11 0.577442 0.503345 0.672775
O O12 0.250000 0.485833 0.770142
O O13 0.146120 0.250000 0.775138
O O14 0.092056 0.481098 0.825736
O O15 0.500000 0.500000 0.500000
O O16 0.567976 0.250000 0.538419
O O17 0.635795 0.502058 0.570623
O O18 0.956993 0.250000 0.149124
O O19 0.889029 0.434986 0.076401
O O20 0.750000 0.939669 0.649460
O O21 0.881806 0.750000 0.622239
O O22 0.087505 0.750000 0.004633
O O23 0.000000 0.000000 0.000000
#
# Coordination Sequence:
#
# PCOD8245062 Si02
#       8
#     8   8   8   8   8   8   8   8
#     4   9  18  33  53  80 116 155 191 228 276 333
#     4  10  21  36  56  83 115 149 185 226 273 329
#     4  11  23  40  62  84 110 144 184 236 289 338
#     4  10  23  42  61  83 110 141 181 231 288 345
#     4  11  21  35  57  86 120 156 191 228 275 329
#     4   9  19  35  55  81 112 148 189 233 280 332
#     4  11  24  41  61  86 117 153 192 232 278 337
#     4   9  17  30  49  76 111 148 189 233 275 325
#
# _framework density 19.746691999999999
#
# number of rings (size 3 to 8) (size 9 to 14) (size 15 to 20)
#    0.000    2.000    1.250    3.000    0.000    7.250 
#    0.000    3.125    0.000    2.250    0.000    0.000 
#    0.000    0.000    0.000    0.000    0.000    0.000 
#
# Total GULP energy -793162.639831 kJ/mol
# GULP energy per Si atom -12393.166247 kJ/mol
# Density = 1.970175 g / cm^3
# Si number density = 19.746692 Si / 1000 Ang^3
#
#
#
# Elastic Constant Matrix: (Units=GPa)
#
#
# Indices 1 2 3 4 5 6 
#
# 1 138.3908 45.9258 48.1165 0.0000 0.0000 0.0000
# 2 45.9258 89.1244 35.6826 0.0000 0.0000 0.0000
# 3 48.1165 35.6826 89.8790 0.0000 0.0000 0.0000
# 4 0.0000 0.0000 0.0000 32.4228 0.0000 0.0000
# 5 0.0000 0.0000 0.0000 0.0000 26.1994 0.0000
# 6 0.0000 0.0000 0.0000 0.0000 0.0000 27.7984
#
#
#
# Elastic Compliance Matrix: (Units=1/GPa)
#
#
# Indices 1 2 3 4 5 6 
#
# 1 0.009706 -0.003473 -0.003817 0.000000 0.000000 0.000000
# 2 -0.003473 0.014584 -0.003930 0.000000 0.000000 0.000000
# 3 -0.003817 -0.003930 0.014730 0.000000 0.000000 0.000000
# 4 0.000000 0.000000 0.000000 0.030842 0.000000 0.000000
# 5 0.000000 0.000000 0.000000 0.000000 0.038169 0.000000
# 6 0.000000 0.000000 0.000000 0.000000 0.000000 0.035973
#
#
# Mechanical properties :
#
#
# Convention : Reuss Voigt Hill
#
# Bulk Modulus (GPa) = 60.32113 64.09379 62.20746
# Shear Modulus (GPa) = 29.07468 29.79540 29.43504
#
# Velocity S-wave (km/s) = 3.84133 3.88865 3.86506
# Velocity P-wave (km/s) = 7.09141 7.25882 7.17561
#
# Compressibility (1/GPa) = 0.01657794
#
# Stress axis : x y z
#
# Youngs Moduli (GPa) = 103.03319 68.57022 67.88892
#
# Poissons Ratio (x) = 0.23815 0.25913
# Poissons Ratio (y) = 0.35784 0.26684
# Poissons Ratio (z) = 0.39328 0.26951
#
# Static dielectric constant tensor:
#      x y z
#    x 2.933040 0.000000 0.000000 
#    y 0.000000 3.827670 0.000000 
#    z 0.000000 0.000000 3.658630 
# 
# 
# High freq. dielectric constant tensor:
#      x y z
#    x 1.779990 0.000000 0.000000 
#    y 0.000000 1.771300 0.000000 
#    z 0.000000 0.000000 1.744950 
# 
# From -- ./inp_files/32268.got.cif
#   From: 2010.03.12/outbox.cif.g09.slc.cpg/sg59_17_cif.got.tgz:32268.got - 2010.04.16 16:29:54.
