data_PCOD8245503
_publ_section_title
;
Structure prediction by ZEFSAII (Michael W. Deem and Ramdas Pophale) SiO2 
 PCOD8245503
Probable space group: P M M N
;
_chemical_formula_sum "Si O2"
_cell_formula_units_Z 56
_cell_length_a 22.080594
_cell_length_b 8.857209
_cell_length_c 14.630156
_cell_angle_alpha 90.000000
_cell_angle_beta 90.000000
_cell_angle_gamma 90.000000
_cell_volume 2861.255247
_symmetry_space_group_name_H-M "P M M N"
_symmetry_group_IT_number 59
_space_group.IT_coordinate_system_code '2'
_symmetry_cell_setting 'orthorhombic'
loop_
_space_group_symop_operation_xyz
x,y,z
1/2-x,1/2-y,z
1/2+x,-y,-z
-x,1/2+y,-z
-x,-y,-z
1/2+x,1/2+y,-z
1/2-x,y,z
x,1/2-y,z
loop_
_atom_site_type_symbol
_atom_site_label
_atom_site_fract_x
_atom_site_fract_y
_atom_site_fract_z
Si Si1 0.645423 0.427682 0.314170
Si Si2 0.014584 0.418618 0.092181
Si Si3 0.750000 0.072867 0.971865
Si Si4 0.398552 0.428504 0.335088
Si Si5 0.750000 0.429221 0.178785
Si Si6 0.349395 0.417406 0.145344
Si Si7 0.318005 0.421988 0.505334
Si Si8 0.519165 0.571483 0.275255
O O1 0.633354 0.250000 0.307080
O O2 0.689502 0.484188 0.232137
O O3 0.677295 0.465744 0.409697
O O4 0.582503 0.516140 0.315186
O O5 0.986590 0.250000 0.094640
O O6 0.086121 0.410266 0.098075
O O7 0.984824 0.515091 0.172028
O O8 0.000000 0.500000 0.000000
O O9 0.750000 0.250000 0.981854
O O10 0.691239 0.025890 0.915441
O O11 0.750000 0.003980 0.075243
O O12 0.409509 0.250000 0.325986
O O13 0.357930 0.481704 0.248334
O O14 0.363893 0.475475 0.426560
O O15 0.464063 0.507071 0.335965
O O16 0.750000 0.250000 0.178217
O O17 0.320026 0.250000 0.148104
O O18 0.250000 0.431657 0.465785
O O19 0.332997 0.250000 0.535169
O O20 0.516175 0.750000 0.278576
#
# Coordination Sequence:
#
# PCOD8245503 Si02
#       8
#     8   8   4   8   4   8   8   8
#     4  11  22  41  64  86 118 159 201 247 301 361
#     4  10  21  38  60  86 117 156 199 244 296 354
#     4  11  23  37  56  85 116 154 199 243 292 345
#     4   9  20  40  64  88 120 159 197 239 299 364
#     4   9  22  41  58  81 114 156 199 243 296 353
#     4   9  20  38  58  84 117 153 194 236 285 350
#     4  10  21  38  63  93 120 153 197 247 301 359
#     4  11  23  39  60  89 121 155 200 251 300 351
#
# _framework density 19.571829000000001
#
# number of rings (size 3 to 8) (size 9 to 14) (size 15 to 20)
#    0.000    2.000    0.714    3.214    3.000    4.000 
#    0.000    2.143    0.000    0.000    0.000    0.000 
#    0.000    0.000    0.000    0.000    0.000    0.000 
#
# Total GULP energy -694440.416470 kJ/mol
# GULP energy per Si atom -12400.721723 kJ/mol
# Density = 1.952728 g / cm^3
# Si number density = 19.571829 Si / 1000 Ang^3
#
#
#
# Elastic Constant Matrix: (Units=GPa)
#
#
# Indices 1 2 3 4 5 6 
#
# 1 102.0069 40.5089 57.4238 0.0000 0.0000 0.0000
# 2 40.5089 83.2231 33.1743 0.0000 0.0000 0.0000
# 3 57.4238 33.1743 102.9637 0.0000 0.0000 0.0000
# 4 0.0000 0.0000 0.0000 32.9462 0.0000 0.0000
# 5 0.0000 0.0000 0.0000 0.0000 23.6341 0.0000
# 6 0.0000 0.0000 0.0000 0.0000 0.0000 30.3336
#
#
#
# Elastic Compliance Matrix: (Units=1/GPa)
#
#
# Indices 1 2 3 4 5 6 
#
# 1 0.015797 -0.004793 -0.007266 0.000000 0.000000 0.000000
# 2 -0.004793 0.015241 -0.002237 0.000000 0.000000 0.000000
# 3 -0.007266 -0.002237 0.014485 0.000000 0.000000 0.000000
# 4 0.000000 0.000000 0.000000 0.030353 0.000000 0.000000
# 5 0.000000 0.000000 0.000000 0.000000 0.042312 0.000000
# 6 0.000000 0.000000 0.000000 0.000000 0.000000 0.032967
#
#
# Mechanical properties :
#
#
# Convention : Reuss Voigt Hill
#
# Bulk Modulus (GPa) = 59.06470 61.15642 60.11056
# Shear Modulus (GPa) = 26.97024 27.85521 27.41272
#
# Velocity S-wave (km/s) = 3.71619 3.77666 3.74655
# Velocity P-wave (km/s) = 6.97548 7.09455 7.03527
#
# Compressibility (1/GPa) = 0.01693059
#
# Stress axis : x y z
#
# Youngs Moduli (GPa) = 63.30400 65.61376 69.03565
#
# Poissons Ratio (x) = 0.31447 0.50160
# Poissons Ratio (y) = 0.30340 0.15447
# Poissons Ratio (z) = 0.45995 0.14681
#
# Static dielectric constant tensor:
#      x y z
#    x 3.987170 0.000000 0.000000 
#    y 0.000000 1.477440 0.000000 
#    z 0.000000 0.000000 3.619970 
# 
# 
# High freq. dielectric constant tensor:
#      x y z
#    x 1.769620 0.000000 0.000000 
#    y 0.000000 1.754360 0.000000 
#    z 0.000000 0.000000 1.766440 
# 
# From -- ./inp_files/24343.got.cif
#   From: 2010.03.12/outbox.cif.g09.slc.cpg/sg59_13_cif.got.tgz:24343.got - 2010.04.16 16:29:54.
