data_PCOD8245055
_publ_section_title
;
Structure prediction by ZEFSAII (Michael W. Deem and Ramdas Pophale) SiO2 
 PCOD8245055
Probable space group: P M M N
;
_chemical_formula_sum "Si O2"
_cell_formula_units_Z 56
_cell_length_a 8.790323
_cell_length_b 18.809574
_cell_length_c 17.776027
_cell_angle_alpha 90.000000
_cell_angle_beta 90.000000
_cell_angle_gamma 90.000000
_cell_volume 2939.127962
_symmetry_space_group_name_H-M "P M M N"
_symmetry_group_IT_number 59
_space_group.IT_coordinate_system_code '2'
_symmetry_cell_setting 'orthorhombic'
loop_
_space_group_symop_operation_xyz
x,y,z
1/2-x,1/2-y,z
1/2+x,-y,-z
-x,1/2+y,-z
-x,-y,-z
1/2+x,1/2+y,-z
1/2-x,y,z
x,1/2-y,z
loop_
_atom_site_type_symbol
_atom_site_label
_atom_site_fract_x
_atom_site_fract_y
_atom_site_fract_z
Si Si1 0.574715 0.417677 0.081492
Si Si2 0.429473 0.077415 0.497998
Si Si3 0.574418 0.668417 0.787709
Si Si4 0.072302 0.832058 0.632234
Si Si5 0.075964 0.833554 0.204623
Si Si6 0.072741 0.168210 0.640348
Si Si7 0.074601 0.417391 0.927208
O O1 0.750000 0.397153 0.093498
O O2 0.471693 0.378193 0.141551
O O3 0.544068 0.500844 0.092432
O O4 0.525287 0.393175 0.998341
O O5 0.250000 0.070383 0.496772
O O6 0.481052 0.118919 0.424435
O O7 0.484422 0.120758 0.571086
O O8 0.500000 0.000000 0.500000
O O9 0.750000 0.655180 0.767991
O O10 0.542890 0.750000 0.808762
O O11 0.474557 0.645368 0.716182
O O12 0.250000 0.845655 0.621540
O O13 0.028304 0.750000 0.617454
O O14 0.250000 0.857279 0.194033
O O15 0.054689 0.750000 0.193948
O O16 0.021470 0.856844 0.287208
O O17 0.971018 0.871371 0.144095
O O18 0.250000 0.156737 0.657575
O O19 0.037994 0.250000 0.620022
O O20 0.250000 0.404081 0.947065
#
# Coordination Sequence:
#
# PCOD8245055 Si02
#       7
#     8   8   8   8   8   8   8
#     4  10  21  37  57  81 110 144 183 227 274 324
#     4  11  23  38  57  83 115 148 185 229 276 328
#     4  10  21  37  58  84 112 144 184 227 273 327
#     4  10  21  38  60  84 111 145 185 229 278 331
#     4  10  21  36  56  83 111 140 178 224 272 321
#     4   9  19  37  59  80 105 141 182 223 270 324
#     4  10  21  37  57  80 108 145 185 223 269 326
#
# _framework density 19.053270999999999
#
# number of rings (size 3 to 8) (size 9 to 14) (size 15 to 20)
#    0.000    2.000    0.000    3.000    0.000    7.714 
#    0.000    2.857    0.000    0.000    0.000    0.000 
#    0.000    0.000    0.000    0.000    0.000    0.000 
#
# Total GULP energy -694709.279362 kJ/mol
# GULP energy per Si atom -12405.522846 kJ/mol
# Density = 1.900990 g / cm^3
# Si number density = 19.053271 Si / 1000 Ang^3
#
#
#
# Elastic Constant Matrix: (Units=GPa)
#
#
# Indices 1 2 3 4 5 6 
#
# 1 59.3079 31.8950 30.3956 0.0000 0.0000 0.0000
# 2 31.8950 73.4733 61.4804 0.0000 0.0000 0.0000
# 3 30.3956 61.4804 115.9950 0.0000 0.0000 0.0000
# 4 0.0000 0.0000 0.0000 65.4186 0.0000 0.0000
# 5 0.0000 0.0000 0.0000 0.0000 39.4299 0.0000
# 6 0.0000 0.0000 0.0000 0.0000 0.0000 32.5262
#
#
#
# Elastic Compliance Matrix: (Units=1/GPa)
#
#
# Indices 1 2 3 4 5 6 
#
# 1 0.022100 -0.008532 -0.001269 0.000000 0.000000 0.000000
# 2 -0.008532 0.027751 -0.012473 0.000000 0.000000 0.000000
# 3 -0.001269 -0.012473 0.015565 0.000000 0.000000 0.000000
# 4 0.000000 0.000000 0.000000 0.015286 0.000000 0.000000
# 5 0.000000 0.000000 0.000000 0.000000 0.025361 0.000000
# 6 0.000000 0.000000 0.000000 0.000000 0.000000 0.030744
#
#
# Mechanical properties :
#
#
# Convention : Reuss Voigt Hill
#
# Bulk Modulus (GPa) = 47.92060 55.14645 51.53352
# Shear Modulus (GPa) = 26.55172 35.80863 31.18018
#
# Velocity S-wave (km/s) = 3.73708 4.33990 4.04972
# Velocity P-wave (km/s) = 6.62016 7.35657 6.99806
#
# Compressibility (1/GPa) = 0.02086785
#
# Stress axis : x y z
#
# Youngs Moduli (GPa) = 45.24931 36.03443 64.24777
#
# Poissons Ratio (x) = 0.30743 0.08153
# Poissons Ratio (y) = 0.38605 0.80138
# Poissons Ratio (z) = 0.05742 0.44947
#
# Static dielectric constant tensor:
#      x y z
#    x 3.578790 0.000000 0.000000 
#    y 0.000000 3.403730 0.000000 
#    z 0.000000 0.000000 3.514120 
# 
# 
# High freq. dielectric constant tensor:
#      x y z
#    x 1.753260 0.000000 0.000000 
#    y 0.000000 1.735090 0.000000 
#    z 0.000000 0.000000 1.750990 
# 
# From -- ./inp_files/21073.got.cif
#   From: 2010.03.12/outbox.cif.g09.slc.cpg/sg59_11_cif.got.tgz:21073.got - 2010.04.16 16:29:54.
