data_PCOD8245750
_publ_section_title
;
Structure prediction by ZEFSAII (Michael W. Deem and Ramdas Pophale) SiO2 
 PCOD8245750
Probable space group: P M M N
;
_chemical_formula_sum "Si O2"
_cell_formula_units_Z 40
_cell_length_a 10.867794
_cell_length_b 23.405170
_cell_length_c 7.758455
_cell_angle_alpha 90.000000
_cell_angle_beta 90.000000
_cell_angle_gamma 90.000000
_cell_volume 1973.460523
_symmetry_space_group_name_H-M "P M M N"
_symmetry_group_IT_number 59
_space_group.IT_coordinate_system_code '2'
_symmetry_cell_setting 'orthorhombic'
loop_
_space_group_symop_operation_xyz
x,y,z
1/2-x,1/2-y,z
1/2+x,-y,-z
-x,1/2+y,-z
-x,-y,-z
1/2+x,1/2+y,-z
1/2-x,y,z
x,1/2-y,z
loop_
_atom_site_type_symbol
_atom_site_label
_atom_site_fract_x
_atom_site_fract_y
_atom_site_fract_z
Si Si1 0.039483 0.582581 0.360887
Si Si2 0.887062 0.682994 0.890380
Si Si3 0.113788 0.969910 0.701135
Si Si4 0.111617 0.612324 0.000449
Si Si5 0.608130 0.814156 0.492700
O O1 0.958617 0.527073 0.332042
O O2 0.961356 0.640610 0.374377
O O3 0.114595 0.572685 0.536487
O O4 0.126028 0.588691 0.194389
O O5 0.750000 0.659552 0.945922
O O6 0.887149 0.750000 0.920425
O O7 0.908636 0.667868 0.690945
O O8 0.002262 0.658907 0.998684
O O9 0.250000 0.990560 0.739810
O O10 0.064955 0.936677 0.869500
O O11 0.250000 0.634649 0.947043
O O12 0.750000 0.815377 0.439438
O O13 0.555473 0.750000 0.461554
#
# Coordination Sequence:
#
# PCOD8245750 Si02
#       5
#     8   8   8   8   8
#     4  11  21  37  61  86 115 157 201 243 294 356
#     4   9  19  38  62  88 119 157 201 249 300 356
#     4  10  22  39  57  83 120 158 198 245 298 351
#     4  11  23  39  59  88 124 159 199 246 297 358
#     4   9  18  35  60  88 117 150 195 249 301 353
#
# _framework density 20.268964
#
# number of rings (size 3 to 8) (size 9 to 14) (size 15 to 20)
#    0.000    2.000    2.000    3.000    0.000    2.800 
#    0.000    3.000    0.000    1.800    0.000    0.000 
#    0.000    0.000    0.000    0.000    0.000    0.000 
#
# Total GULP energy -495711.438268 kJ/mol
# GULP energy per Si atom -12392.785957 kJ/mol
# Density = 2.022283 g / cm^3
# Si number density = 20.268964 Si / 1000 Ang^3
#
#
#
# Elastic Constant Matrix: (Units=GPa)
#
#
# Indices 1 2 3 4 5 6 
#
# 1 89.0575 49.2178 25.4379 0.0000 0.0000 0.0000
# 2 49.2178 74.4293 33.3696 0.0000 0.0000 0.0000
# 3 25.4379 33.3696 106.3155 0.0000 0.0000 0.0000
# 4 0.0000 0.0000 0.0000 18.6178 0.0000 0.0000
# 5 0.0000 0.0000 0.0000 0.0000 116.0077 0.0000
# 6 0.0000 0.0000 0.0000 0.0000 0.0000 34.4845
#
#
#
# Elastic Compliance Matrix: (Units=1/GPa)
#
#
# Indices 1 2 3 4 5 6 
#
# 1 0.017735 -0.011434 -0.000655 0.000000 0.000000 0.000000
# 2 -0.011434 0.023008 -0.004486 0.000000 0.000000 0.000000
# 3 -0.000655 -0.004486 0.010971 0.000000 0.000000 0.000000
# 4 0.000000 0.000000 0.000000 0.053712 0.000000 0.000000
# 5 0.000000 0.000000 0.000000 0.000000 0.008620 0.000000
# 6 0.000000 0.000000 0.000000 0.000000 0.000000 0.028999
#
#
# Mechanical properties :
#
#
# Convention : Reuss Voigt Hill
#
# Bulk Modulus (GPa) = 53.86642 53.98367 53.92505
# Shear Modulus (GPa) = 27.41530 44.60712 36.01121
#
# Velocity S-wave (km/s) = 3.68173 4.69631 4.21963
# Velocity P-wave (km/s) = 6.68633 7.48990 7.09949
#
# Compressibility (1/GPa) = 0.01856444
#
# Stress axis : x y z
#
# Youngs Moduli (GPa) = 56.38684 43.46396 91.15342
#
# Poissons Ratio (x) = 0.49696 0.05966
# Poissons Ratio (y) = 0.64472 0.40889
# Poissons Ratio (z) = 0.03691 0.19497
#
# Static dielectric constant tensor:
#      x y z
#    x 3.587770 0.000000 0.000000 
#    y 0.000000 3.526660 0.000000 
#    z 0.000000 0.000000 3.867660 
# 
# 
# High freq. dielectric constant tensor:
#      x y z
#    x 1.785370 0.000000 0.000000 
#    y 0.000000 1.779980 0.000000 
#    z 0.000000 0.000000 1.799820 
# 
# From -- ./inp_files/7385.got.cif
#   From: 2010.03.12/outbox.cif.g09.slc.cpg/sg59_4_cif.got.tgz:7385.got - 2010.04.16 16:29:54.
