data_PCOD8245263
_publ_section_title
;
Structure prediction by ZEFSAII (Michael W. Deem and Ramdas Pophale) SiO2 
 PCOD8245263
Probable space group: P M M N
;
_chemical_formula_sum "Si O2"
_cell_formula_units_Z 64
_cell_length_a 8.783137
_cell_length_b 14.553082
_cell_length_c 26.041222
_cell_angle_alpha 90.000000
_cell_angle_beta 90.000000
_cell_angle_gamma 90.000000
_cell_volume 3328.633604
_symmetry_space_group_name_H-M "P M M N"
_symmetry_group_IT_number 59
_space_group.IT_coordinate_system_code '2'
_symmetry_cell_setting 'orthorhombic'
loop_
_space_group_symop_operation_xyz
x,y,z
1/2-x,1/2-y,z
1/2+x,-y,-z
-x,1/2+y,-z
-x,-y,-z
1/2+x,1/2+y,-z
1/2-x,y,z
x,1/2-y,z
loop_
_atom_site_type_symbol
_atom_site_label
_atom_site_fract_x
_atom_site_fract_y
_atom_site_fract_z
Si Si1 0.424403 0.358134 0.629957
Si Si2 0.924230 0.856960 0.746184
Si Si3 0.930104 0.492656 0.555705
Si Si4 0.572663 0.506897 0.188836
Si Si5 0.427886 0.855470 0.264998
Si Si6 0.930947 0.648902 0.630983
Si Si7 0.073967 0.991938 0.079773
Si Si8 0.926325 0.643462 0.003161
O O1 0.250000 0.388813 0.625639
O O2 0.445193 0.250000 0.626067
O O3 0.518297 0.398832 0.582474
O O4 0.489904 0.394105 0.684087
O O5 0.750000 0.890278 0.752962
O O6 0.937851 0.750000 0.758844
O O7 0.982420 0.878102 0.688477
O O8 0.031223 0.910035 0.785553
O O9 0.750000 0.495814 0.551247
O O10 0.995224 0.576493 0.590077
O O11 0.000000 0.500000 0.500000
O O12 0.750000 0.526488 0.194643
O O13 0.481498 0.589016 0.215643
O O14 0.529656 0.503287 0.129588
O O15 0.250000 0.869111 0.273761
O O16 0.471542 0.750000 0.255117
O O17 0.750000 0.651143 0.630007
O O18 0.994544 0.750000 0.616526
O O19 0.250000 0.982793 0.095295
O O20 0.043913 0.086367 0.048857
O O21 0.027763 0.901562 0.047711
O O22 0.750000 0.635933 0.019272
O O23 0.974020 0.750000 0.994919
#
# Coordination Sequence:
#
# PCOD8245263 Si02
#       8
#     8   8   8   8   8   8   8   8
#     4  10  21  38  59  82 110 144 182 227 281 338
#     4   9  18  35  59  83 107 140 184 230 277 332
#     4  11  22  35  54  80 110 144 184 230 279 331
#     4  12  24  36  54  82 119 155 185 227 277 325
#     4  10  21  38  60  84 110 144 187 231 278 336
#     4   8  16  33  56  78 100 133 177 221 268 324
#     4  10  21  37  57  83 113 146 187 229 273 327
#     4   9  19  38  62  84 108 142 184 230 280 331
#
# _framework density 19.227108999999999
#
# number of rings (size 3 to 8) (size 9 to 14) (size 15 to 20)
#    0.000    2.125    0.000    4.125    0.000    5.000 
#    0.000    3.125    0.000    2.625    0.000    0.000 
#    0.000    0.000    0.000    0.000    0.000    0.000 
#
# Total GULP energy -793762.768637 kJ/mol
# GULP energy per Si atom -12402.543260 kJ/mol
# Density = 1.918335 g / cm^3
# Si number density = 19.227109 Si / 1000 Ang^3
#
#
#
# Elastic Constant Matrix: (Units=GPa)
#
#
# Indices 1 2 3 4 5 6 
#
# 1 60.6026 31.1511 30.2080 0.0000 0.0000 0.0000
# 2 31.1511 100.3034 48.6648 0.0000 0.0000 0.0000
# 3 30.2080 48.6648 116.0878 0.0000 0.0000 0.0000
# 4 0.0000 0.0000 0.0000 15.8586 0.0000 0.0000
# 5 0.0000 0.0000 0.0000 0.0000 36.5014 0.0000
# 6 0.0000 0.0000 0.0000 0.0000 0.0000 25.8789
#
#
#
# Elastic Compliance Matrix: (Units=1/GPa)
#
#
# Indices 1 2 3 4 5 6 
#
# 1 0.020634 -0.004774 -0.003368 0.000000 0.000000 0.000000
# 2 -0.004774 0.013620 -0.004467 0.000000 0.000000 0.000000
# 3 -0.003368 -0.004467 0.011363 0.000000 0.000000 0.000000
# 4 0.000000 0.000000 0.000000 0.063057 0.000000 0.000000
# 5 0.000000 0.000000 0.000000 0.000000 0.027396 0.000000
# 6 0.000000 0.000000 0.000000 0.000000 0.000000 0.038642
#
#
# Mechanical properties :
#
#
# Convention : Reuss Voigt Hill
#
# Bulk Modulus (GPa) = 49.02374 55.22686 52.12530
# Shear Modulus (GPa) = 24.18617 26.77911 25.48264
#
# Velocity S-wave (km/s) = 3.55056 3.73604 3.64448
# Velocity P-wave (km/s) = 6.50855 6.88451 6.69917
#
# Compressibility (1/GPa) = 0.02039828
#
# Stress axis : x y z
#
# Youngs Moduli (GPa) = 48.46432 73.42230 88.00311
#
# Poissons Ratio (x) = 0.35053 0.29638
# Poissons Ratio (y) = 0.23138 0.39313
# Poissons Ratio (z) = 0.16322 0.32799
#
# Static dielectric constant tensor:
#      x y z
#    x 3.457240 0.000000 0.000000 
#    y 0.000000 3.853460 0.000000 
#    z 0.000000 0.000000 3.491610 
# 
# 
# High freq. dielectric constant tensor:
#      x y z
#    x 1.741060 0.000000 0.000000 
#    y 0.000000 1.756570 0.000000 
#    z 0.000000 0.000000 1.746880 
# 
# From -- ./inp_files/31483.got.cif
#   From: 2010.03.12/outbox.cif.g09.slc.cpg/sg59_16_cif.got.tgz:31483.got - 2010.04.16 16:29:54.
