data_PCOD8245837
_publ_section_title
;
Structure prediction by ZEFSAII (Michael W. Deem and Ramdas Pophale) SiO2 
 PCOD8245837
Probable space group: P M M N
;
_chemical_formula_sum "Si O2"
_cell_formula_units_Z 48
_cell_length_a 14.595311
_cell_length_b 8.669536
_cell_length_c 19.596547
_cell_angle_alpha 90.000000
_cell_angle_beta 90.000000
_cell_angle_gamma 90.000000
_cell_volume 2479.640729
_symmetry_space_group_name_H-M "P M M N"
_symmetry_group_IT_number 59
_space_group.IT_coordinate_system_code '2'
_symmetry_cell_setting 'orthorhombic'
loop_
_space_group_symop_operation_xyz
x,y,z
1/2-x,1/2-y,z
1/2+x,-y,-z
-x,1/2+y,-z
-x,-y,-z
1/2+x,1/2+y,-z
1/2-x,y,z
x,1/2-y,z
loop_
_atom_site_type_symbol
_atom_site_label
_atom_site_fract_x
_atom_site_fract_y
_atom_site_fract_z
Si Si1 0.649354 0.566860 0.414512
Si Si2 0.750000 0.926996 0.014050
Si Si3 0.357636 0.424589 0.433755
Si Si4 0.948287 0.929720 0.064156
Si Si5 0.062381 0.069319 0.182515
Si Si6 0.018108 0.569722 0.325556
Si Si7 0.250000 0.930415 0.131527
O O1 0.750000 0.500670 0.395449
O O2 0.653749 0.750000 0.417077
O O3 0.619563 0.511930 0.490262
O O4 0.577383 0.510850 0.358131
O O5 0.750000 0.750000 0.988372
O O6 0.839580 0.961556 0.059311
O O7 0.750000 0.035824 0.948626
O O8 0.250000 0.427057 0.421173
O O9 0.394920 0.250000 0.423469
O O10 0.402144 0.540272 0.379872
O O11 0.970895 0.750000 0.066320
O O12 0.983759 0.005747 0.133147
O O13 0.000000 0.000000 0.000000
O O14 0.070100 0.250000 0.171692
O O15 0.034003 0.030932 0.258961
O O16 0.160681 0.998065 0.166954
O O17 0.015686 0.750000 0.306607
O O18 0.250000 0.750000 0.143593
#
# Coordination Sequence:
#
# PCOD8245837 Si02
#       7
#     8   4   8   8   8   8   4
#     4   8  16  34  59  84 111 149 195 244 297 354
#     4  10  22  40  66  94 124 157 194 241 300 356
#     4   9  18  34  57  84 115 151 192 237 295 358
#     4  11  22  40  65  94 124 158 201 247 294 350
#     4  12  26  43  61  85 124 164 198 241 300 361
#     4  11  22  36  57  85 117 152 197 247 296 349
#     4  12  24  40  66  94 120 151 196 247 296 354
#
# _framework density 19.357644000000001
#
# number of rings (size 3 to 8) (size 9 to 14) (size 15 to 20)
#    0.000    1.667    1.667    4.750    1.167    1.000 
#    1.500    0.833    0.000    3.500    0.000    0.000 
#    0.000    0.000    0.000    0.000    0.000    0.000 
#
# Total GULP energy -595307.240747 kJ/mol
# GULP energy per Si atom -12402.234182 kJ/mol
# Density = 1.931359 g / cm^3
# Si number density = 19.357644 Si / 1000 Ang^3
#
#
#
# Elastic Constant Matrix: (Units=GPa)
#
#
# Indices 1 2 3 4 5 6 
#
# 1 134.7841 52.1974 79.3765 0.0000 0.0000 0.0000
# 2 52.1974 103.0099 43.9249 0.0000 0.0000 0.0000
# 3 79.3765 43.9249 127.4109 0.0000 0.0000 0.0000
# 4 0.0000 0.0000 0.0000 26.9119 0.0000 0.0000
# 5 0.0000 0.0000 0.0000 0.0000 1.3458 0.0000
# 6 0.0000 0.0000 0.0000 0.0000 0.0000 26.1395
#
#
#
# Elastic Compliance Matrix: (Units=1/GPa)
#
#
# Indices 1 2 3 4 5 6 
#
# 1 0.012769 -0.003609 -0.006711 0.000000 0.000000 0.000000
# 2 -0.003609 0.012401 -0.002027 0.000000 0.000000 0.000000
# 3 -0.006711 -0.002027 0.012728 0.000000 0.000000 0.000000
# 4 0.000000 0.000000 0.000000 0.037158 0.000000 0.000000
# 5 0.000000 0.000000 0.000000 0.000000 0.743033 0.000000
# 6 0.000000 0.000000 0.000000 0.000000 0.000000 0.038256
#
#
# Mechanical properties :
#
#
# Convention : Reuss Voigt Hill
#
# Bulk Modulus (GPa) = 75.72966 79.57806 77.65386
# Shear Modulus (GPa) = 5.64691 23.52652 14.58671
#
# Velocity S-wave (km/s) = 1.70982 3.48998 2.74804
# Velocity P-wave (km/s) = 6.56538 7.57883 7.09023
#
# Compressibility (1/GPa) = 0.01320487
#
# Stress axis : x y z
#
# Youngs Moduli (GPa) = 78.31482 80.64044 78.56507
#
# Poissons Ratio (x) = 0.29101 0.52724
# Poissons Ratio (y) = 0.28261 0.15925
# Poissons Ratio (z) = 0.52557 0.16345
#
# Static dielectric constant tensor:
#      x y z
#    x 4.020000 0.000000 0.000000 
#    y 0.000000 3.514430 0.000000 
#    z 0.000000 0.000000 3.541340 
# 
# 
# High freq. dielectric constant tensor:
#      x y z
#    x 1.766240 0.000000 0.000000 
#    y 0.000000 1.746460 0.000000 
#    z 0.000000 0.000000 1.751530 
# 
# From -- ./inp_files/27415.got.cif
#   From: 2010.03.12/outbox.cif.g09.slc.cpg/sg59_14_cif.got.tgz:27415.got - 2010.04.16 16:29:54.
