data_PCOD8245535
_publ_section_title
;
Structure prediction by ZEFSAII (Michael W. Deem and Ramdas Pophale) SiO2 
 PCOD8245535
Probable space group: P M M N
;
_chemical_formula_sum "Si O2"
_cell_formula_units_Z 48
_cell_length_a 8.799577
_cell_length_b 19.022556
_cell_length_c 14.946786
_cell_angle_alpha 90.000000
_cell_angle_beta 90.000000
_cell_angle_gamma 90.000000
_cell_volume 2501.949179
_symmetry_space_group_name_H-M "P M M N"
_symmetry_group_IT_number 59
_space_group.IT_coordinate_system_code '2'
_symmetry_cell_setting 'orthorhombic'
loop_
_space_group_symop_operation_xyz
x,y,z
1/2-x,1/2-y,z
1/2+x,-y,-z
-x,1/2+y,-z
-x,-y,-z
1/2+x,1/2+y,-z
1/2-x,y,z
x,1/2-y,z
loop_
_atom_site_type_symbol
_atom_site_label
_atom_site_fract_x
_atom_site_fract_y
_atom_site_fract_z
Si Si1 0.575611 0.830917 0.615566
Si Si2 0.574014 0.668356 0.928969
Si Si3 0.072347 0.915060 0.771556
Si Si4 0.425372 0.432509 0.543976
Si Si5 0.071119 0.563044 0.268055
Si Si6 0.574449 0.169541 0.885548
O O1 0.750000 0.840182 0.647139
O O2 0.530100 0.750000 0.606661
O O3 0.467412 0.866126 0.687968
O O4 0.549594 0.865547 0.519183
O O5 0.750000 0.649948 0.914788
O O6 0.541279 0.750000 0.909088
O O7 0.472895 0.622716 0.862892
O O8 0.527097 0.648874 0.029524
O O9 0.250000 0.930581 0.771467
O O10 0.984261 0.987820 0.764960
O O11 0.500000 0.500000 0.500000
O O12 0.250000 0.450044 0.558878
O O13 0.498954 0.414270 0.638443
O O14 0.250000 0.559876 0.281111
O O15 0.021514 0.621224 0.196201
O O16 0.750000 0.156537 0.910470
O O17 0.546104 0.250000 0.857139
#
# Coordination Sequence:
#
# PCOD8245535 Si02
#       6
#     8   8   8   8   8   8
#     4  10  22  40  61  86 118 155 195 242 295 350
#     4  10  21  38  61  87 118 156 194 239 297 354
#     4  12  24  37  58  87 119 156 198 243 292 351
#     4  11  22  38  61  86 117 156 196 239 291 349
#     4  11  23  39  61  87 119 157 195 242 297 351
#     4   9  20  40  63  87 116 152 197 246 293 345
#
# _framework density 19.185043
#
# number of rings (size 3 to 8) (size 9 to 14) (size 15 to 20)
#    0.000    1.500    1.667    3.500    0.000    6.667 
#    0.000    0.000    0.000    0.000    0.000    0.000 
#    0.000    0.000    0.000    0.000    0.000    0.000 
#
# Total GULP energy -595484.989587 kJ/mol
# GULP energy per Si atom -12405.937283 kJ/mol
# Density = 1.914138 g / cm^3
# Si number density = 19.185043 Si / 1000 Ang^3
#
#
#
# Elastic Constant Matrix: (Units=GPa)
#
#
# Indices 1 2 3 4 5 6 
#
# 1 75.9394 35.1834 47.8520 0.0000 0.0000 0.0000
# 2 35.1834 108.4904 64.1020 0.0000 0.0000 0.0000
# 3 47.8520 64.1020 133.7881 0.0000 0.0000 0.0000
# 4 0.0000 0.0000 0.0000 40.2538 0.0000 0.0000
# 5 0.0000 0.0000 0.0000 0.0000 39.1892 0.0000
# 6 0.0000 0.0000 0.0000 0.0000 0.0000 21.3339
#
#
#
# Elastic Compliance Matrix: (Units=1/GPa)
#
#
# Indices 1 2 3 4 5 6 
#
# 1 0.017577 -0.002770 -0.004960 0.000000 0.000000 0.000000
# 2 -0.002770 0.013294 -0.005379 0.000000 0.000000 0.000000
# 3 -0.004960 -0.005379 0.011826 0.000000 0.000000 0.000000
# 4 0.000000 0.000000 0.000000 0.024842 0.000000 0.000000
# 5 0.000000 0.000000 0.000000 0.000000 0.025517 0.000000
# 6 0.000000 0.000000 0.000000 0.000000 0.000000 0.046874
#
#
# Mechanical properties :
#
#
# Convention : Reuss Voigt Hill
#
# Bulk Modulus (GPa) = 60.68030 68.05476 64.36753
# Shear Modulus (GPa) = 29.13091 31.56077 30.34584
#
# Velocity S-wave (km/s) = 3.90092 4.06035 3.98143
# Velocity P-wave (km/s) = 7.21021 7.58497 7.39996
#
# Compressibility (1/GPa) = 0.01647981
#
# Stress axis : x y z
#
# Youngs Moduli (GPa) = 56.89291 75.22358 84.56256
#
# Poissons Ratio (x) = 0.20835 0.41940
# Poissons Ratio (y) = 0.15758 0.45484
# Poissons Ratio (z) = 0.28217 0.40461
#
# Static dielectric constant tensor:
#      x y z
#    x 3.601660 0.000000 0.000000 
#    y 0.000000 3.587520 0.000000 
#    z 0.000000 0.000000 3.616670 
# 
# 
# High freq. dielectric constant tensor:
#      x y z
#    x 1.754280 0.000000 0.000000 
#    y 0.000000 1.750250 0.000000 
#    z 0.000000 0.000000 1.756720 
# 
# From -- ./inp_files/20316.got.cif
#   From: 2010.03.12/outbox.cif.g09.slc.cpg/sg59_11_cif.got.tgz:20316.got - 2010.04.16 16:29:54.
