data_PCOD8245573
_publ_section_title
;
Structure prediction by ZEFSAII (Michael W. Deem and Ramdas Pophale) SiO2 
 PCOD8245573
Probable space group: P M M N
;
_chemical_formula_sum "Si O2"
_cell_formula_units_Z 64
_cell_length_a 8.706253
_cell_length_b 31.355305
_cell_length_c 11.509376
_cell_angle_alpha 90.000000
_cell_angle_beta 90.000000
_cell_angle_gamma 90.000000
_cell_volume 3141.912538
_symmetry_space_group_name_H-M "P M M N"
_symmetry_group_IT_number 59
_space_group.IT_coordinate_system_code '2'
_symmetry_cell_setting 'orthorhombic'
loop_
_space_group_symop_operation_xyz
x,y,z
1/2-x,1/2-y,z
1/2+x,-y,-z
-x,1/2+y,-z
-x,-y,-z
1/2+x,1/2+y,-z
1/2-x,y,z
x,1/2-y,z
loop_
_atom_site_type_symbol
_atom_site_label
_atom_site_fract_x
_atom_site_fract_y
_atom_site_fract_z
Si Si1 0.072383 0.940196 0.541344
Si Si2 0.428827 0.025389 0.675083
Si Si3 0.416903 0.699728 0.336961
Si Si4 0.566203 0.298598 0.914520
Si Si5 0.067804 0.701201 0.587834
Si Si6 0.073472 0.373426 0.298374
Si Si7 0.069328 0.962150 0.076441
Si Si8 0.428828 0.378732 0.032341
O O1 0.250000 0.941796 0.507310
O O2 0.975426 0.939746 0.421840
O O3 0.035746 0.898307 0.613577
O O4 0.026149 0.979635 0.623029
O O5 0.250000 0.029514 0.705830
O O6 0.527595 0.031560 0.789898
O O7 0.250000 0.677374 0.334229
O O8 0.391922 0.750000 0.341748
O O9 0.500817 0.688783 0.214726
O O10 0.496577 0.686560 0.459078
O O11 0.750000 0.301767 0.914304
O O12 0.516916 0.250000 0.947464
O O13 0.495942 0.332055 0.004231
O O14 0.250000 0.693154 0.595911
O O15 0.028380 0.750000 0.612561
O O16 0.974760 0.675724 0.685893
O O17 0.250000 0.381019 0.330933
O O18 0.041056 0.387876 0.167427
O O19 0.250000 0.963849 0.060081
O O20 0.010919 0.915832 0.038669
O O21 0.000000 0.000000 0.000000
O O22 0.250000 0.379094 0.001748
#
# Coordination Sequence:
#
# PCOD8245573 Si02
#       8
#     8   8   8   8   8   8   8   8
#     4  10  21  38  62  90 119 152 190 234 284 340
#     4  10  21  39  64  93 123 154 190 233 283 342
#     4   7  12  27  52  80 107 136 174 223 281 342
#     4   9  18  35  60  87 116 152 194 243 299 357
#     4   9  18  34  57  82 108 142 186 236 290 351
#     4  11  24  39  55  77 111 154 194 240 295 347
#     4  12  25  42  65  91 121 157 198 245 298 352
#     4  11  25  42  58  81 116 158 204 249 297 356
#
# _framework density 20.369758999999998
#
# number of rings (size 3 to 8) (size 9 to 14) (size 15 to 20)
#    0.000    2.125    0.000    4.875    0.000    7.500 
#    0.000    6.875    0.000    2.250    0.000    0.000 
#    0.000    0.000    0.000    0.000    0.000    0.000 
#
# Total GULP energy -793333.490124 kJ/mol
# GULP energy per Si atom -12395.835783 kJ/mol
# Density = 2.032340 g / cm^3
# Si number density = 20.369759 Si / 1000 Ang^3
#
#
#
# Elastic Constant Matrix: (Units=GPa)
#
#
# Indices 1 2 3 4 5 6 
#
# 1 76.2792 39.7139 42.0153 0.0000 0.0000 0.0000
# 2 39.7139 93.6817 46.0739 0.0000 0.0000 0.0000
# 3 42.0153 46.0739 98.6302 0.0000 0.0000 0.0000
# 4 0.0000 0.0000 0.0000 32.4115 0.0000 0.0000
# 5 0.0000 0.0000 0.0000 0.0000 32.6991 0.0000
# 6 0.0000 0.0000 0.0000 0.0000 0.0000 30.2327
#
#
#
# Elastic Compliance Matrix: (Units=1/GPa)
#
#
# Indices 1 2 3 4 5 6 
#
# 1 0.018943 -0.005273 -0.005606 0.000000 0.000000 0.000000
# 2 -0.005273 0.015326 -0.004913 0.000000 0.000000 0.000000
# 3 -0.005606 -0.004913 0.014822 0.000000 0.000000 0.000000
# 4 0.000000 0.000000 0.000000 0.030853 0.000000 0.000000
# 5 0.000000 0.000000 0.000000 0.000000 0.030582 0.000000
# 6 0.000000 0.000000 0.000000 0.000000 0.000000 0.033077
#
#
# Mechanical properties :
#
#
# Convention : Reuss Voigt Hill
#
# Bulk Modulus (GPa) = 57.12204 58.24414 57.68309
# Shear Modulus (GPa) = 27.62064 28.45454 28.03759
#
# Velocity S-wave (km/s) = 3.68634 3.74157 3.71405
# Velocity P-wave (km/s) = 6.79869 6.87905 6.83899
#
# Compressibility (1/GPa) = 0.01750638
#
# Stress axis : x y z
#
# Youngs Moduli (GPa) = 52.78953 65.24758 67.46648
#
# Poissons Ratio (x) = 0.34407 0.37823
# Poissons Ratio (y) = 0.27837 0.33147
# Poissons Ratio (z) = 0.29595 0.32057
#
# Static dielectric constant tensor:
#      x y z
#    x 3.486490 0.000000 0.000000 
#    y 0.000000 3.649590 0.000000 
#    z 0.000000 0.000000 3.965720 
# 
# 
# High freq. dielectric constant tensor:
#      x y z
#    x 1.779920 0.000000 0.000000 
#    y 0.000000 1.791510 0.000000 
#    z 0.000000 0.000000 1.807310 
# 
# From -- ./inp_files/14998.got.cif
#   From: 2010.03.12/outbox.cif.g09.slc.cpg/sg59_8_cif.got.tgz:14998.got - 2010.04.16 16:29:54.
