data_PCOD8245331
_publ_section_title
;
Structure prediction by ZEFSAII (Michael W. Deem and Ramdas Pophale) SiO2 
 PCOD8245331
Probable space group: P M M N
;
_chemical_formula_sum "Si O2"
_cell_formula_units_Z 40
_cell_length_a 14.347237
_cell_length_b 14.143950
_cell_length_c 9.144377
_cell_angle_alpha 90.000000
_cell_angle_beta 90.000000
_cell_angle_gamma 90.000000
_cell_volume 1855.637359
_symmetry_space_group_name_H-M "P M M N"
_symmetry_group_IT_number 59
_space_group.IT_coordinate_system_code '2'
_symmetry_cell_setting 'orthorhombic'
loop_
_space_group_symop_operation_xyz
x,y,z
1/2-x,1/2-y,z
1/2+x,-y,-z
-x,1/2+y,-z
-x,-y,-z
1/2+x,1/2+y,-z
1/2-x,y,z
x,1/2-y,z
loop_
_atom_site_type_symbol
_atom_site_label
_atom_site_fract_x
_atom_site_fract_y
_atom_site_fract_z
Si Si1 0.750000 0.139754 0.512275
Si Si2 0.588791 0.643195 0.231576
Si Si3 0.645434 0.854321 0.549836
Si Si4 0.111556 0.994277 0.987809
Si Si5 0.598618 0.033926 0.694831
Si Si6 0.750000 0.138697 0.168561
O O1 0.750000 0.250000 0.545594
O O2 0.659086 0.095399 0.584490
O O3 0.750000 0.117525 0.340787
O O4 0.567815 0.750000 0.180124
O O5 0.652258 0.640623 0.374728
O O6 0.641864 0.589187 0.099409
O O7 0.493920 0.590888 0.273160
O O8 0.750000 0.873447 0.608358
O O9 0.609711 0.750000 0.597593
O O10 0.576596 0.932695 0.618161
O O11 0.155230 0.905324 0.900257
O O12 0.151776 0.988708 0.152248
O O13 0.000000 0.000000 0.000000
O O14 0.750000 0.250000 0.134943
#
# Coordination Sequence:
#
# PCOD8245331 Si02
#       6
#     4   8   8   8   8   4
#     4  11  23  39  66  99 130 171 223 274 334 397
#     4  10  22  40  62  90 128 172 216 261 325 394
#     4  10  21  37  58  87 122 165 211 262 319 380
#     4  10  24  41  64  98 136 175 223 274 341 400
#     4  11  21  39  62  93 127 167 212 275 321 390
#     4  11  25  45  70  97 136 185 229 280 340 409
#
# _framework density 21.555935000000002
#
# number of rings (size 3 to 8) (size 9 to 14) (size 15 to 20)
#    0.000    1.600    1.000    3.000    1.400    7.200 
#    0.000    7.000    0.000    0.000    0.000    0.000 
#    0.000    0.000    0.000    0.000    0.000    0.000 
#
# Total GULP energy -495738.119693 kJ/mol
# GULP energy per Si atom -12393.452992 kJ/mol
# Density = 2.150687 g / cm^3
# Si number density = 21.555935 Si / 1000 Ang^3
#
#
#
# Elastic Constant Matrix: (Units=GPa)
#
#
# Indices 1 2 3 4 5 6 
#
# 1 79.9008 42.2789 24.4379 0.0000 0.0000 0.0000
# 2 42.2789 196.1565 81.6936 0.0000 0.0000 0.0000
# 3 24.4379 81.6936 137.9695 0.0000 0.0000 0.0000
# 4 0.0000 0.0000 0.0000 27.2598 0.0000 0.0000
# 5 0.0000 0.0000 0.0000 0.0000 25.2351 0.0000
# 6 0.0000 0.0000 0.0000 0.0000 0.0000 32.1016
#
#
#
# Elastic Compliance Matrix: (Units=1/GPa)
#
#
# Indices 1 2 3 4 5 6 
#
# 1 0.014217 -0.002675 -0.000934 0.000000 0.000000 0.000000
# 2 -0.002675 0.007270 -0.003831 0.000000 0.000000 0.000000
# 3 -0.000934 -0.003831 0.009682 0.000000 0.000000 0.000000
# 4 0.000000 0.000000 0.000000 0.036684 0.000000 0.000000
# 5 0.000000 0.000000 0.000000 0.000000 0.039627 0.000000
# 6 0.000000 0.000000 0.000000 0.000000 0.000000 0.031151
#
#
# Mechanical properties :
#
#
# Convention : Reuss Voigt Hill
#
# Bulk Modulus (GPa) = 61.39412 78.98306 70.18859
# Shear Modulus (GPa) = 31.45827 34.62706 33.04267
#
# Velocity S-wave (km/s) = 3.82433 4.01232 3.91945
# Velocity P-wave (km/s) = 6.93136 7.62794 7.28798
#
# Compressibility (1/GPa) = 0.01628821
#
# Stress axis : x y z
#
# Youngs Moduli (GPa) = 70.33933 137.55156 103.28743
#
# Poissons Ratio (x) = 0.36798 0.09648
# Poissons Ratio (y) = 0.18817 0.39568
# Poissons Ratio (z) = 0.06571 0.52694
#
# Static dielectric constant tensor:
#      x y z
#    x 3.695920 0.000000 0.000000 
#    y 0.000000 4.201660 0.000000 
#    z 0.000000 0.000000 4.564080 
# 
# 
# High freq. dielectric constant tensor:
#      x y z
#    x 1.833560 0.000000 0.000000 
#    y 0.000000 1.857730 0.000000 
#    z 0.000000 0.000000 1.858540 
# 
# From -- ./inp_files/8655.got.cif
#   From: 2010.03.12/outbox.cif.g09.slc.cpg/sg59_5_cif.got.tgz:8655.got - 2010.04.16 16:29:54.
