data_PCOD8245905
_publ_section_title
;
Structure prediction by ZEFSAII (Michael W. Deem and Ramdas Pophale) SiO2 
 PCOD8245905
Probable space group: P M M N
;
_chemical_formula_sum "Si O2"
_cell_formula_units_Z 34
_cell_length_a 21.814658
_cell_length_b 7.813761
_cell_length_c 9.513210
_cell_angle_alpha 90.000000
_cell_angle_beta 90.000000
_cell_angle_gamma 90.000000
_cell_volume 1621.569681
_symmetry_space_group_name_H-M "P M M N"
_symmetry_group_IT_number 59
_space_group.IT_coordinate_system_code '2'
_symmetry_cell_setting 'orthorhombic'
loop_
_space_group_symop_operation_xyz
x,y,z
1/2-x,1/2-y,z
1/2+x,-y,-z
-x,1/2+y,-z
-x,-y,-z
1/2+x,1/2+y,-z
1/2-x,y,z
x,1/2-y,z
loop_
_atom_site_type_symbol
_atom_site_label
_atom_site_fract_x
_atom_site_fract_y
_atom_site_fract_z
Si Si1 0.817164 0.750000 0.249539
Si Si2 0.009658 0.441994 0.158139
Si Si3 0.750000 0.050563 0.764698
Si Si4 0.098117 0.953968 0.650102
Si Si5 0.617352 0.053472 0.665937
Si Si6 0.750000 0.750000 0.981963
O O1 0.750000 0.750000 0.321067
O O2 0.847676 0.571124 0.292177
O O3 0.810920 0.750000 0.079397
O O4 0.988907 0.250000 0.158454
O O5 0.079489 0.460212 0.210658
O O6 0.962453 0.525307 0.269973
O O7 0.000000 0.500000 0.000000
O O8 0.750000 0.250000 0.813519
O O9 0.689539 0.008030 0.672934
O O10 0.750000 0.925932 0.896610
O O11 0.112671 0.750000 0.669491
O O12 0.090744 0.998482 0.485453
O O13 0.606435 0.250000 0.697111
#
# Coordination Sequence:
#
# PCOD8245905 Si02
#       6
#     4   8   4   8   8   2
#     4  10  26  41  66  99 128 174 215 266 320 387
#     4  11  25  40  65  97 129 174 218 270 329 389
#     4  10  24  41  65  95 129 173 215 264 331 390
#     4  10  24  44  66  95 134 169 218 268 330 386
#     4  10  23  43  67  94 129 171 217 272 327 388
#     4  10  26  42  62  98 140 162 220 266 320 384
#
# _framework density 20.967337000000001
#
# number of rings (size 3 to 8) (size 9 to 14) (size 15 to 20)
#    0.353    1.412    0.000    1.412   11.529    1.412 
#    0.000    0.000    0.000    0.000    0.000    0.000 
#    0.000    0.000    0.000    0.000    0.000    0.000 
#
# Total GULP energy -421345.379537 kJ/mol
# GULP energy per Si atom -12392.511163 kJ/mol
# Density = 2.091961 g / cm^3
# Si number density = 20.967337 Si / 1000 Ang^3
#
#
#
# Elastic Constant Matrix: (Units=GPa)
#
#
# Indices 1 2 3 4 5 6 
#
# 1 150.6454 36.4949 77.1954 0.0000 0.0000 0.0000
# 2 36.4949 73.7788 41.9585 0.0000 0.0000 0.0000
# 3 77.1954 41.9585 169.9544 0.0000 0.0000 0.0000
# 4 0.0000 0.0000 0.0000 37.4197 0.0000 0.0000
# 5 0.0000 0.0000 0.0000 0.0000 45.7847 0.0000
# 6 0.0000 0.0000 0.0000 0.0000 0.0000 35.6458
#
#
#
# Elastic Compliance Matrix: (Units=1/GPa)
#
#
# Indices 1 2 3 4 5 6 
#
# 1 0.009026 -0.002482 -0.003487 0.000000 0.000000 0.000000
# 2 -0.002482 0.016450 -0.002934 0.000000 0.000000 0.000000
# 3 -0.003487 -0.002934 0.008192 0.000000 0.000000 0.000000
# 4 0.000000 0.000000 0.000000 0.026724 0.000000 0.000000
# 5 0.000000 0.000000 0.000000 0.000000 0.021841 0.000000
# 6 0.000000 0.000000 0.000000 0.000000 0.000000 0.028054
#
#
# Mechanical properties :
#
#
# Convention : Reuss Voigt Hill
#
# Bulk Modulus (GPa) = 63.04018 78.40847 70.72432
# Shear Modulus (GPa) = 37.48659 39.68536 38.58598
#
# Velocity S-wave (km/s) = 4.23289 4.35526 4.29451
# Velocity P-wave (km/s) = 7.34990 7.92261 7.64162
#
# Compressibility (1/GPa) = 0.01586290
#
# Stress axis : x y z
#
# Youngs Moduli (GPa) = 110.78816 60.78956 122.06750
#
# Poissons Ratio (x) = 0.15086 0.42567
# Poissons Ratio (y) = 0.27494 0.35815
# Poissons Ratio (z) = 0.38633 0.17836
#
# Static dielectric constant tensor:
#      x y z
#    x 3.794180 0.000000 0.000000 
#    y 0.000000 3.788830 0.000000 
#    z 0.000000 0.000000 3.755700 
# 
# 
# High freq. dielectric constant tensor:
#      x y z
#    x 1.825700 0.000000 0.000000 
#    y 0.000000 1.826250 0.000000 
#    z 0.000000 0.000000 1.823620 
# 
# From -- ./inp_files/10984.got.cif
#   From: 2010.03.12/outbox.cif.g09.slc.cpg/sg59_6_cif.got.tgz:10984.got - 2010.04.16 16:29:54.
