data_PCOD8245001
_publ_section_title
;
Structure prediction by ZEFSAII (Michael W. Deem and Ramdas Pophale) SiO2 
 PCOD8245001
Probable space group: P M M N
;
_chemical_formula_sum "Si O2"
_cell_formula_units_Z 40
_cell_length_a 9.051663
_cell_length_b 9.242710
_cell_length_c 25.563870
_cell_angle_alpha 90.000000
_cell_angle_beta 90.000000
_cell_angle_gamma 90.000000
_cell_volume 2138.721837
_symmetry_space_group_name_H-M "P M M N"
_symmetry_group_IT_number 59
_space_group.IT_coordinate_system_code '2'
_symmetry_cell_setting 'orthorhombic'
loop_
_space_group_symop_operation_xyz
x,y,z
1/2-x,1/2-y,z
1/2+x,-y,-z
-x,1/2+y,-z
-x,-y,-z
1/2+x,1/2+y,-z
1/2-x,y,z
x,1/2-y,z
loop_
_atom_site_type_symbol
_atom_site_label
_atom_site_fract_x
_atom_site_fract_y
_atom_site_fract_z
Si Si1 0.922899 0.583407 0.847093
Si Si2 0.578730 0.416524 0.348572
Si Si3 0.079608 0.919556 0.953352
Si Si4 0.920765 0.919280 0.546585
Si Si5 0.079709 0.079925 0.755420
O O1 0.750000 0.559968 0.855799
O O2 0.960758 0.750000 0.834275
O O3 0.005623 0.531611 0.899225
O O4 0.977142 0.484676 0.800053
O O5 0.750000 0.439069 0.361817
O O6 0.542917 0.250000 0.335335
O O7 0.487159 0.471723 0.398327
O O8 0.529099 0.512010 0.299442
O O9 0.250000 0.965641 0.951729
O O10 0.059393 0.750000 0.962450
O O11 0.000000 0.000000 0.000000
O O12 0.750000 0.960469 0.545827
O O13 0.948648 0.750000 0.539102
O O14 0.000000 0.000000 0.500000
O O15 0.250000 0.040209 0.767252
O O16 0.054509 0.250000 0.752497
#
# Coordination Sequence:
#
# PCOD8245001 Si02
#       5
#     8   8   8   8   8
#     4  10  21  37  57  80 107 142 183 224 266 315
#     4   9  18  34  55  77 105 143 183 221 263 315
#     4  10  21  37  58  83 110 142 180 221 267 319
#     4  10  21  36  55  80 109 141 178 220 266 317
#     4  10  21  36  55  81 111 142 177 219 268 319
#
# _framework density 18.702759
#
# number of rings (size 3 to 8) (size 9 to 14) (size 15 to 20)
#    0.000    2.200    0.000    2.400    0.000    7.200 
#    0.000    4.000    0.000    0.000    0.000    0.000 
#    0.000    0.000    0.000    0.000    0.000    0.000 
#
# Total GULP energy -496200.441445 kJ/mol
# GULP energy per Si atom -12405.011036 kJ/mol
# Density = 1.866019 g / cm^3
# Si number density = 18.702759 Si / 1000 Ang^3
#
#
#
# Elastic Constant Matrix: (Units=GPa)
#
#
# Indices 1 2 3 4 5 6 
#
# 1 117.9464 51.7446 93.5767 0.0000 0.0000 0.0000
# 2 51.7446 67.0616 72.5147 0.0000 0.0000 0.0000
# 3 93.5767 72.5147 178.2945 0.0000 0.0000 0.0000
# 4 0.0000 0.0000 0.0000 40.5026 0.0000 0.0000
# 5 0.0000 0.0000 0.0000 0.0000 42.5940 0.0000
# 6 0.0000 0.0000 0.0000 0.0000 0.0000 29.4184
#
#
#
# Elastic Compliance Matrix: (Units=1/GPa)
#
#
# Indices 1 2 3 4 5 6 
#
# 1 0.015662 -0.005706 -0.005900 0.000000 0.000000 0.000000
# 2 -0.005706 0.028696 -0.008677 0.000000 0.000000 0.000000
# 3 -0.005900 -0.008677 0.012234 0.000000 0.000000 0.000000
# 4 0.000000 0.000000 0.000000 0.024690 0.000000 0.000000
# 5 0.000000 0.000000 0.000000 0.000000 0.023478 0.000000
# 6 0.000000 0.000000 0.000000 0.000000 0.000000 0.033992
#
#
# Mechanical properties :
#
#
# Convention : Reuss Voigt Hill
#
# Bulk Modulus (GPa) = 62.38785 88.77494 75.58139
# Shear Modulus (GPa) = 27.07698 32.20076 29.63887
#
# Velocity S-wave (km/s) = 3.80906 4.15385 3.98519
# Velocity P-wave (km/s) = 7.26466 8.40091 7.85336
#
# Compressibility (1/GPa) = 0.01602876
#
# Stress axis : x y z
#
# Youngs Moduli (GPa) = 63.84773 34.84783 81.73936
#
# Poissons Ratio (x) = 0.19883 0.48224
# Poissons Ratio (y) = 0.36429 0.70922
# Poissons Ratio (z) = 0.37668 0.30236
#
# Static dielectric constant tensor:
#      x y z
#    x 3.416320 0.000000 0.000000 
#    y 0.000000 3.356640 0.000000 
#    z 0.000000 0.000000 3.543050 
# 
# 
# High freq. dielectric constant tensor:
#      x y z
#    x 1.733290 0.000000 0.000000 
#    y 0.000000 1.719390 0.000000 
#    z 0.000000 0.000000 1.738930 
# 
# From -- ./inp_files/31132.got.cif
#   From: 2010.03.12/outbox.cif.g09.slc.cpg/sg59_16_cif.got.tgz:31132.got - 2010.04.16 16:29:54.
