data_PCOD8245816
_publ_section_title
;
Structure prediction by ZEFSAII (Michael W. Deem and Ramdas Pophale) SiO2 
 PCOD8245816
Probable space group: P M M N
;
_chemical_formula_sum "Si O2"
_cell_formula_units_Z 56
_cell_length_a 14.778181
_cell_length_b 8.629149
_cell_length_c 21.486740
_cell_angle_alpha 90.000000
_cell_angle_beta 90.000000
_cell_angle_gamma 90.000000
_cell_volume 2740.056248
_symmetry_space_group_name_H-M "P M M N"
_symmetry_group_IT_number 59
_space_group.IT_coordinate_system_code '2'
_symmetry_cell_setting 'orthorhombic'
loop_
_space_group_symop_operation_xyz
x,y,z
1/2-x,1/2-y,z
1/2+x,-y,-z
-x,1/2+y,-z
-x,-y,-z
1/2+x,1/2+y,-z
1/2-x,y,z
x,1/2-y,z
loop_
_atom_site_type_symbol
_atom_site_label
_atom_site_fract_x
_atom_site_fract_y
_atom_site_fract_z
Si Si1 0.850103 0.925233 0.622043
Si Si2 0.559029 0.568275 0.055781
Si Si3 0.596049 0.571606 0.486136
Si Si4 0.057422 0.070805 0.161630
Si Si5 0.988317 0.428015 0.709593
Si Si6 0.852333 0.426219 0.359415
Si Si7 0.750000 0.068439 0.026536
Si Si8 0.750000 0.570742 0.892968
O O1 0.750000 0.955663 0.649227
O O2 0.881944 0.750000 0.637283
O O3 0.844495 0.948889 0.547965
O O4 0.919733 0.044118 0.652651
O O5 0.565811 0.750000 0.045265
O O6 0.510108 0.531652 0.120515
O O7 0.660264 0.501325 0.057881
O O8 0.500000 0.500000 0.000000
O O9 0.500000 0.500000 0.500000
O O10 0.585801 0.750000 0.466473
O O11 0.644022 0.482151 0.430354
O O12 0.037261 0.250000 0.147692
O O13 0.161722 0.030111 0.147308
O O14 0.040290 0.035328 0.233347
O O15 0.984948 0.250000 0.730114
O O16 0.088540 0.469284 0.686680
O O17 0.750000 0.438862 0.335281
O O18 0.887762 0.250000 0.356664
O O19 0.750000 0.250000 0.038459
O O20 0.750000 0.035760 0.953375
O O21 0.750000 0.750000 0.914059
#
# Coordination Sequence:
#
# PCOD8245816 Si02
#       8
#     8   8   8   8   8   8   4   4
#     4  10  22  40  62  88 123 165 207 253 312 379
#     4  12  24  42  67  99 136 172 216 267 321 380
#     4  11  21  36  62  93 125 162 205 257 321 380
#     4  11  24  44  68  96 132 173 218 264 320 384
#     4  12  26  43  64  92 127 167 211 263 319 379
#     4  11  24  43  67  92 121 163 215 268 323 384
#     4  12  24  40  68 102 136 176 217 266 323 378
#     4  10  22  40  68 100 132 172 215 260 315 380
#
# _framework density 20.437536999999999
#
# number of rings (size 3 to 8) (size 9 to 14) (size 15 to 20)
#    0.000    0.857    2.857    4.929    1.000    3.143 
#    1.286    0.000    0.000    0.000    0.000    0.000 
#    0.000    0.000    0.000    0.000    0.000    0.000 
#
# Total GULP energy -694731.747449 kJ/mol
# GULP energy per Si atom -12405.924062 kJ/mol
# Density = 2.039102 g / cm^3
# Si number density = 20.437537 Si / 1000 Ang^3
#
#
#
# Elastic Constant Matrix: (Units=GPa)
#
#
# Indices 1 2 3 4 5 6 
#
# 1 145.4206 49.1925 40.5880 0.0000 0.0000 0.0000
# 2 49.1925 111.6641 24.0095 0.0000 0.0000 0.0000
# 3 40.5880 24.0095 85.7415 0.0000 0.0000 0.0000
# 4 0.0000 0.0000 0.0000 36.3195 0.0000 0.0000
# 5 0.0000 0.0000 0.0000 0.0000 18.4183 0.0000
# 6 0.0000 0.0000 0.0000 0.0000 0.0000 25.4225
#
#
#
# Elastic Compliance Matrix: (Units=1/GPa)
#
#
# Indices 1 2 3 4 5 6 
#
# 1 0.008883 -0.003202 -0.003308 0.000000 0.000000 0.000000
# 2 -0.003202 0.010683 -0.001476 0.000000 0.000000 0.000000
# 3 -0.003308 -0.001476 0.013642 0.000000 0.000000 0.000000
# 4 0.000000 0.000000 0.000000 0.027533 0.000000 0.000000
# 5 0.000000 0.000000 0.000000 0.000000 0.054294 0.000000
# 6 0.000000 0.000000 0.000000 0.000000 0.000000 0.039335
#
#
# Mechanical properties :
#
#
# Convention : Reuss Voigt Hill
#
# Bulk Modulus (GPa) = 58.01695 63.37845 60.69770
# Shear Modulus (GPa) = 28.39465 31.30113 29.84789
#
# Velocity S-wave (km/s) = 3.73143 3.91775 3.82572
# Velocity P-wave (km/s) = 6.85666 7.17935 7.01986
#
# Compressibility (1/GPa) = 0.01723634
#
# Stress axis : x y z
#
# Youngs Moduli (GPa) = 112.57210 93.60334 73.30106
#
# Poissons Ratio (x) = 0.29972 0.24251
# Poissons Ratio (y) = 0.36046 0.10818
# Poissons Ratio (z) = 0.37244 0.13814
#
# Static dielectric constant tensor:
#      x y z
#    x 3.931730 0.000000 0.000000 
#    y 0.000000 3.846790 0.000000 
#    z 0.000000 0.000000 3.651670 
# 
# 
# High freq. dielectric constant tensor:
#      x y z
#    x 1.813600 0.000000 0.000000 
#    y 0.000000 1.806370 0.000000 
#    z 0.000000 0.000000 1.790340 
# 
# From -- ./inp_files/30482.got.cif
#   From: 2010.03.12/outbox.cif.g09.slc.cpg/sg59_16_cif.got.tgz:30482.got - 2010.04.16 16:29:54.
