data_PCOD8245623
_publ_section_title
;
Structure prediction by ZEFSAII (Michael W. Deem and Ramdas Pophale) SiO2 
 PCOD8245623
Probable space group: P M M N
;
_chemical_formula_sum "Si O2"
_cell_formula_units_Z 56
_cell_length_a 14.129245
_cell_length_b 8.781519
_cell_length_c 22.836453
_cell_angle_alpha 90.000000
_cell_angle_beta 90.000000
_cell_angle_gamma 90.000000
_cell_volume 2833.461073
_symmetry_space_group_name_H-M "P M M N"
_symmetry_group_IT_number 59
_space_group.IT_coordinate_system_code '2'
_symmetry_cell_setting 'orthorhombic'
loop_
_space_group_symop_operation_xyz
x,y,z
1/2-x,1/2-y,z
1/2+x,-y,-z
-x,1/2+y,-z
-x,-y,-z
1/2+x,1/2+y,-z
1/2-x,y,z
x,1/2-y,z
loop_
_atom_site_type_symbol
_atom_site_label
_atom_site_fract_x
_atom_site_fract_y
_atom_site_fract_z
Si Si1 0.142617 0.930673 0.699343
Si Si2 0.357999 0.930072 0.468761
Si Si3 0.600139 0.930513 0.984579
Si Si4 0.852318 0.421101 0.096032
Si Si5 0.142959 0.073792 0.147417
Si Si6 0.532964 0.927598 0.193566
Si Si7 0.966373 0.070159 0.414893
O O1 0.250000 0.995174 0.697440
O O2 0.145484 0.750000 0.698653
O O3 0.083922 0.991975 0.643605
O O4 0.089817 0.983866 0.757149
O O5 0.250000 0.991416 0.461340
O O6 0.358655 0.750000 0.462434
O O7 0.398452 0.981087 0.531848
O O8 0.428238 0.999023 0.419730
O O9 0.603050 0.750000 0.991747
O O10 0.632118 0.979231 0.919811
O O11 0.500000 0.000000 0.000000
O O12 0.668046 0.008443 0.032132
O O13 0.750000 0.414836 0.127880
O O14 0.895734 0.250000 0.091998
O O15 0.923772 0.528394 0.130873
O O16 0.250000 0.044412 0.167923
O O17 0.114857 0.250000 0.153485
O O18 0.076796 0.977043 0.191216
O O19 0.541802 0.750000 0.205497
O O20 0.978560 0.250000 0.413484
#
# Coordination Sequence:
#
# PCOD8245623 Si02
#       7
#     8   8   8   8   8   8   8
#     4  10  21  39  62  84 110 148 191 235 282 334
#     4   9  17  31  53  83 120 157 190 229 279 332
#     4  11  21  35  58  86 114 144 178 221 278 338
#     4  11  23  38  57  81 111 147 184 224 274 333
#     4  10  22  41  63  83 108 145 186 228 277 336
#     4  12  25  39  58  83 112 144 182 233 285 336
#     4   9  18  33  55  84 115 150 194 237 279 331
#
# _framework density 19.763815999999998
#
# number of rings (size 3 to 8) (size 9 to 14) (size 15 to 20)
#    0.000    1.714    1.429    3.429    0.000    7.143 
#    0.000    0.714    0.000    3.429    0.000    0.000 
#    0.000    0.000    0.000    0.000    0.000    0.000 
#
# Total GULP energy -694331.495111 kJ/mol
# GULP energy per Si atom -12398.776698 kJ/mol
# Density = 1.971883 g / cm^3
# Si number density = 19.763816 Si / 1000 Ang^3
#
#
#
# Elastic Constant Matrix: (Units=GPa)
#
#
# Indices 1 2 3 4 5 6 
#
# 1 154.2793 24.4418 50.5167 0.0000 0.0000 0.0000
# 2 24.4418 30.8269 13.6588 0.0000 0.0000 0.0000
# 3 50.5167 13.6588 88.1434 0.0000 0.0000 0.0000
# 4 0.0000 0.0000 0.0000 27.4838 0.0000 0.0000
# 5 0.0000 0.0000 0.0000 0.0000 29.6831 0.0000
# 6 0.0000 0.0000 0.0000 0.0000 0.0000 24.5202
#
#
#
# Elastic Compliance Matrix: (Units=1/GPa)
#
#
# Indices 1 2 3 4 5 6 
#
# 1 0.008642 -0.005001 -0.004178 0.000000 0.000000 0.000000
# 2 -0.005001 0.037724 -0.002980 0.000000 0.000000 0.000000
# 3 -0.004178 -0.002980 0.014201 0.000000 0.000000 0.000000
# 4 0.000000 0.000000 0.000000 0.036385 0.000000 0.000000
# 5 0.000000 0.000000 0.000000 0.000000 0.033689 0.000000
# 6 0.000000 0.000000 0.000000 0.000000 0.000000 0.040783
#
#
# Mechanical properties :
#
#
# Convention : Reuss Voigt Hill
#
# Bulk Modulus (GPa) = 27.58564 50.05380 38.81972
# Shear Modulus (GPa) = 24.05864 28.64625 26.35245
#
# Velocity S-wave (km/s) = 3.49278 3.81127 3.65549
# Velocity P-wave (km/s) = 5.50036 6.68944 6.12383
#
# Compressibility (1/GPa) = 0.03625075
#
# Stress axis : x y z
#
# Youngs Moduli (GPa) = 115.71343 26.50798 70.41574
#
# Poissons Ratio (x) = 0.13256 0.29420
# Poissons Ratio (y) = 0.57867 0.20982
# Poissons Ratio (z) = 0.48345 0.07899
#
# Static dielectric constant tensor:
#      x y z
#    x 3.858790 0.000000 0.000000 
#    y 0.000000 3.524960 0.000000 
#    z 0.000000 0.000000 3.596940 
# 
# 
# High freq. dielectric constant tensor:
#      x y z
#    x 1.789180 0.000000 0.000000 
#    y 0.000000 1.758710 0.000000 
#    z 0.000000 0.000000 1.751040 
# 
# From -- ./inp_files/29128.got.cif
#   From: 2010.03.12/outbox.cif.g09.slc.cpg/sg59_15_cif.got.tgz:29128.got - 2010.04.16 16:29:54.
