data_PCOD8245089
_publ_section_title
;
Structure prediction by ZEFSAII (Michael W. Deem and Ramdas Pophale) SiO2 
 PCOD8245089
Probable space group: P M M N
;
_chemical_formula_sum "Si O2"
_cell_formula_units_Z 56
_cell_length_a 14.230548
_cell_length_b 8.854072
_cell_length_c 21.760524
_cell_angle_alpha 90.000000
_cell_angle_beta 90.000000
_cell_angle_gamma 90.000000
_cell_volume 2741.788957
_symmetry_space_group_name_H-M "P M M N"
_symmetry_group_IT_number 59
_space_group.IT_coordinate_system_code '2'
_symmetry_cell_setting 'orthorhombic'
loop_
_space_group_symop_operation_xyz
x,y,z
1/2-x,1/2-y,z
1/2+x,-y,-z
-x,1/2+y,-z
-x,-y,-z
1/2+x,1/2+y,-z
1/2-x,y,z
x,1/2-y,z
loop_
_atom_site_type_symbol
_atom_site_label
_atom_site_fract_x
_atom_site_fract_y
_atom_site_fract_z
Si Si1 0.141279 0.928422 0.466842
Si Si2 0.477049 0.569974 0.934662
Si Si3 0.146674 0.418914 0.278560
Si Si4 0.651907 0.919540 0.865973
Si Si5 0.641115 0.925706 0.164981
Si Si6 0.958572 0.925887 0.289039
Si Si7 0.964708 0.072580 0.410529
O O1 0.250000 0.982172 0.458899
O O2 0.133542 0.750000 0.457242
O O3 0.103860 0.976043 0.534193
O O4 0.071619 0.008412 0.418152
O O5 0.470020 0.750000 0.939337
O O6 0.561208 0.500152 0.893310
O O7 0.385186 0.510104 0.898818
O O8 0.500000 0.500000 0.000000
O O9 0.250000 0.466067 0.304234
O O10 0.119744 0.250000 0.302407
O O11 0.149447 0.415354 0.206114
O O12 0.069694 0.542058 0.296155
O O13 0.750000 0.998738 0.887578
O O14 0.651127 0.750000 0.892451
O O15 0.750000 0.956259 0.177957
O O16 0.619256 0.750000 0.155712
O O17 0.584473 0.989007 0.224881
O O18 0.937387 0.750000 0.293715
O O19 0.914866 0.007968 0.348788
O O20 0.973101 0.250000 0.405166
#
# Coordination Sequence:
#
# PCOD8245089 Si02
#       7
#     8   8   8   8   8   8   8
#     4   9  19  38  61  84 114 151 192 241 290 333
#     4  11  22  37  60  87 116 149 190 237 288 345
#     4   9  17  32  55  80 106 139 180 225 277 340
#     4   8  15  30  53  78 103 135 174 217 271 332
#     4  10  23  43  62  82 114 156 199 243 292 343
#     4  11  22  36  57  84 117 153 191 238 290 341
#     4  10  21  36  57  86 117 151 193 236 284 343
#
# _framework density 20.424620999999998
#
# number of rings (size 3 to 8) (size 9 to 14) (size 15 to 20)
#    0.000    2.286    1.429    2.143    0.000    3.714 
#    0.000    1.429    0.000    1.286    0.000    0.000 
#    0.000    0.000    0.000    0.000    0.000    0.000 
#
# Total GULP energy -693836.514604 kJ/mol
# GULP energy per Si atom -12389.937761 kJ/mol
# Density = 2.037813 g / cm^3
# Si number density = 20.424621 Si / 1000 Ang^3
#
#
#
# Elastic Constant Matrix: (Units=GPa)
#
#
# Indices 1 2 3 4 5 6 
#
# 1 84.0665 26.5950 26.8090 0.0000 0.0000 0.0000
# 2 26.5950 60.8114 34.9877 0.0000 0.0000 0.0000
# 3 26.8090 34.9877 110.4347 0.0000 0.0000 0.0000
# 4 0.0000 0.0000 0.0000 33.3002 0.0000 0.0000
# 5 0.0000 0.0000 0.0000 0.0000 16.2580 0.0000
# 6 0.0000 0.0000 0.0000 0.0000 0.0000 27.3250
#
#
#
# Elastic Compliance Matrix: (Units=1/GPa)
#
#
# Indices 1 2 3 4 5 6 
#
# 1 0.014091 -0.005129 -0.001796 0.000000 0.000000 0.000000
# 2 -0.005129 0.021977 -0.005718 0.000000 0.000000 0.000000
# 3 -0.001796 -0.005718 0.011302 0.000000 0.000000 0.000000
# 4 0.000000 0.000000 0.000000 0.030030 0.000000 0.000000
# 5 0.000000 0.000000 0.000000 0.000000 0.061508 0.000000
# 6 0.000000 0.000000 0.000000 0.000000 0.000000 0.036597
#
#
# Mechanical properties :
#
#
# Convention : Reuss Voigt Hill
#
# Bulk Modulus (GPa) = 45.27886 48.01066 46.64476
# Shear Modulus (GPa) = 24.02100 26.50471 25.26285
#
# Velocity S-wave (km/s) = 3.43312 3.60625 3.52075
# Velocity P-wave (km/s) = 6.15890 6.39510 6.27811
#
# Compressibility (1/GPa) = 0.02208536
#
# Stress axis : x y z
#
# Youngs Moduli (GPa) = 70.96916 45.50203 88.47649
#
# Poissons Ratio (x) = 0.23339 0.15887
# Poissons Ratio (y) = 0.36402 0.50587
# Poissons Ratio (z) = 0.12743 0.26016
#
# Static dielectric constant tensor:
#      x y z
#    x 3.719970 0.000000 0.000000 
#    y 0.000000 3.570220 0.000000 
#    z 0.000000 0.000000 3.807430 
# 
# 
# High freq. dielectric constant tensor:
#      x y z
#    x 1.799220 0.000000 0.000000 
#    y 0.000000 1.774620 0.000000 
#    z 0.000000 0.000000 1.805130 
# 
# From -- ./inp_files/30409.got.cif
#   From: 2010.03.12/outbox.cif.g09.slc.cpg/sg59_16_cif.got.tgz:30409.got - 2010.04.16 16:29:54.
