data_PCOD8245916
_publ_section_title
;
Structure prediction by ZEFSAII (Michael W. Deem and Ramdas Pophale) SiO2 
 PCOD8245916
Probable space group: P M M N
;
_chemical_formula_sum "Si O2"
_cell_formula_units_Z 32
_cell_length_a 8.608139
_cell_length_b 15.208200
_cell_length_c 11.905941
_cell_angle_alpha 90.000000
_cell_angle_beta 90.000000
_cell_angle_gamma 90.000000
_cell_volume 1558.657926
_symmetry_space_group_name_H-M "P M M N"
_symmetry_group_IT_number 59
_space_group.IT_coordinate_system_code '2'
_symmetry_cell_setting 'orthorhombic'
loop_
_space_group_symop_operation_xyz
x,y,z
1/2-x,1/2-y,z
1/2+x,-y,-z
-x,1/2+y,-z
-x,-y,-z
1/2+x,1/2+y,-z
1/2-x,y,z
x,1/2-y,z
loop_
_atom_site_type_symbol
_atom_site_label
_atom_site_fract_x
_atom_site_fract_y
_atom_site_fract_z
Si Si1 0.424945 0.649944 0.272391
Si Si2 0.932075 0.750000 0.894478
Si Si3 0.931621 0.597548 0.499161
Si Si4 0.567388 0.250000 0.350974
Si Si5 0.432934 0.412608 0.950175
O O1 0.250000 0.619212 0.302750
O O2 0.427329 0.750000 0.232265
O O3 0.534899 0.640190 0.379225
O O4 0.489851 0.592991 0.171303
O O5 0.750000 0.750000 0.865272
O O6 0.028830 0.750000 0.780310
O O7 0.980744 0.665971 0.967455
O O8 0.750000 0.591948 0.521275
O O9 0.000000 0.500000 0.500000
O O10 0.001827 0.660478 0.594852
O O11 0.750000 0.250000 0.370430
O O12 0.250000 0.416787 0.933749
O O13 0.500000 0.500000 0.000000
#
# Coordination Sequence:
#
# PCOD8245916 Si02
#       5
#     8   4   8   4   8
#     4  11  23  42  69  98 132 169 217 271 327 391
#     4  10  24  45  66  91 130 177 219 267 325 390
#     4  12  26  45  70  98 133 174 221 272 330 392
#     4  12  26  45  68  97 134 175 221 271 329 394
#     4  11  24  43  67  96 132 172 221 270 327 389
#
# _framework density 20.530481000000002
#
# number of rings (size 3 to 8) (size 9 to 14) (size 15 to 20)
#    0.000    0.750    2.500    4.875    3.500    3.000 
#    0.000    0.000    0.000    0.000    0.000    0.000 
#    0.000    0.000    0.000    0.000    0.000    0.000 
#
# Total GULP energy -396963.060912 kJ/mol
# GULP energy per Si atom -12405.095654 kJ/mol
# Density = 2.048375 g / cm^3
# Si number density = 20.530481 Si / 1000 Ang^3
#
#
#
# Elastic Constant Matrix: (Units=GPa)
#
#
# Indices 1 2 3 4 5 6 
#
# 1 133.2183 48.5924 34.8304 0.0000 0.0000 0.0000
# 2 48.5924 124.7206 27.1864 0.0000 0.0000 0.0000
# 3 34.8304 27.1864 105.1066 0.0000 0.0000 0.0000
# 4 0.0000 0.0000 0.0000 34.6451 0.0000 0.0000
# 5 0.0000 0.0000 0.0000 0.0000 39.2785 0.0000
# 6 0.0000 0.0000 0.0000 0.0000 0.0000 36.3111
#
#
#
# Elastic Compliance Matrix: (Units=1/GPa)
#
#
# Indices 1 2 3 4 5 6 
#
# 1 0.009228 -0.003104 -0.002255 0.000000 0.000000 0.000000
# 2 -0.003104 0.009541 -0.001439 0.000000 0.000000 0.000000
# 3 -0.002255 -0.001439 0.010634 0.000000 0.000000 0.000000
# 4 0.000000 0.000000 0.000000 0.028864 0.000000 0.000000
# 5 0.000000 0.000000 0.000000 0.000000 0.025459 0.000000
# 6 0.000000 0.000000 0.000000 0.000000 0.000000 0.027540
#
#
# Mechanical properties :
#
#
# Convention : Reuss Voigt Hill
#
# Bulk Modulus (GPa) = 63.26600 64.91821 64.09211
# Shear Modulus (GPa) = 38.42265 38.87602 38.64934
#
# Velocity S-wave (km/s) = 4.33077 4.35624 4.34353
# Velocity P-wave (km/s) = 7.47596 7.54927 7.51271
#
# Compressibility (1/GPa) = 0.01580628
#
# Stress axis : x y z
#
# Youngs Moduli (GPa) = 108.36268 104.81157 94.04003
#
# Poissons Ratio (x) = 0.32532 0.21208
# Poissons Ratio (y) = 0.33634 0.13535
# Poissons Ratio (z) = 0.24439 0.15085
#
# Static dielectric constant tensor:
#      x y z
#    x 3.892320 0.000000 0.000000 
#    y 0.000000 3.999230 0.000000 
#    z 0.000000 0.000000 3.736330 
# 
# 
# High freq. dielectric constant tensor:
#      x y z
#    x 1.816480 0.000000 0.000000 
#    y 0.000000 1.816100 0.000000 
#    z 0.000000 0.000000 1.815110 
# 
# From -- ./inp_files/13628.got.cif
#   From: 2010.03.12/outbox.cif.g09.slc.cpg/sg59_7_cif.got.tgz:13628.got - 2010.04.16 16:29:54.
