data_PCOD8245111
_publ_section_title
;
Structure prediction by ZEFSAII (Michael W. Deem and Ramdas Pophale) SiO2 
 PCOD8245111
Probable space group: P M M N
;
_chemical_formula_sum "Si O2"
_cell_formula_units_Z 40
_cell_length_a 8.487840
_cell_length_b 16.543974
_cell_length_c 13.879139
_cell_angle_alpha 90.000000
_cell_angle_beta 90.000000
_cell_angle_gamma 90.000000
_cell_volume 1948.944843
_symmetry_space_group_name_H-M "P M M N"
_symmetry_group_IT_number 59
_space_group.IT_coordinate_system_code '2'
_symmetry_cell_setting 'orthorhombic'
loop_
_space_group_symop_operation_xyz
x,y,z
1/2-x,1/2-y,z
1/2+x,-y,-z
-x,1/2+y,-z
-x,-y,-z
1/2+x,1/2+y,-z
1/2-x,y,z
x,1/2-y,z
loop_
_atom_site_type_symbol
_atom_site_label
_atom_site_fract_x
_atom_site_fract_y
_atom_site_fract_z
Si Si1 0.434474 0.079511 0.946923
Si Si2 0.564350 0.838966 0.444342
Si Si3 0.567580 0.750000 0.974468
Si Si4 0.932067 0.889292 0.650951
Si Si5 0.434837 0.049981 0.726466
Si Si6 0.071177 0.750000 0.770781
O O1 0.250000 0.078834 0.966793
O O2 0.475103 0.076232 0.834347
O O3 0.506834 0.165550 0.984411
O O4 0.500000 0.000000 0.000000
O O5 0.750000 0.830380 0.440928
O O6 0.486982 0.750000 0.450834
O O7 0.515354 0.890598 0.538680
O O8 0.507210 0.880259 0.345962
O O9 0.750000 0.750000 0.002561
O O10 0.546174 0.750000 0.860497
O O11 0.750000 0.863011 0.661027
O O12 0.042684 0.827787 0.706447
O O13 0.958024 0.974736 0.699631
O O14 0.250000 0.029688 0.713670
O O15 0.250000 0.750000 0.808838
#
# Coordination Sequence:
#
# PCOD8245111 Si02
#       6
#     8   8   4   8   8   4
#     4  10  22  39  60  87 118 153 198 247 295 350
#     4   9  18  34  58  86 117 153 193 236 284 344
#     4  10  22  40  61  86 116 156 199 244 301 362
#     4  11  21  37  59  85 118 156 193 233 288 351
#     4  10  21  36  59  88 117 152 196 242 288 339
#     4  12  24  38  59  86 114 148 195 248 293 342
#
# _framework density 20.523925999999999
#
# number of rings (size 3 to 8) (size 9 to 14) (size 15 to 20)
#    0.000    1.800    1.000    3.300    1.400    4.800 
#    0.000    1.000    0.000    0.000    0.000    0.000 
#    0.000    0.000    0.000    0.000    0.000    0.000 
#
# Total GULP energy -495929.490153 kJ/mol
# GULP energy per Si atom -12398.237254 kJ/mol
# Density = 2.047721 g / cm^3
# Si number density = 20.523926 Si / 1000 Ang^3
#
#
#
# Elastic Constant Matrix: (Units=GPa)
#
#
# Indices 1 2 3 4 5 6 
#
# 1 31.5077 21.0063 18.8589 0.0000 0.0000 0.0000
# 2 21.0063 154.3698 69.8692 0.0000 0.0000 0.0000
# 3 18.8589 69.8692 158.2665 0.0000 0.0000 0.0000
# 4 0.0000 0.0000 0.0000 46.1998 0.0000 0.0000
# 5 0.0000 0.0000 0.0000 0.0000 22.9578 0.0000
# 6 0.0000 0.0000 0.0000 0.0000 0.0000 34.0452
#
#
#
# Elastic Compliance Matrix: (Units=1/GPa)
#
#
# Indices 1 2 3 4 5 6 
#
# 1 0.035767 -0.003672 -0.002641 0.000000 0.000000 0.000000
# 2 -0.003672 0.008472 -0.003303 0.000000 0.000000 0.000000
# 3 -0.002641 -0.003303 0.008091 0.000000 0.000000 0.000000
# 4 0.000000 0.000000 0.000000 0.021645 0.000000 0.000000
# 5 0.000000 0.000000 0.000000 0.000000 0.043558 0.000000
# 6 0.000000 0.000000 0.000000 0.000000 0.000000 0.029373
#
#
# Mechanical properties :
#
#
# Convention : Reuss Voigt Hill
#
# Bulk Modulus (GPa) = 30.21185 62.62365 46.41775
# Shear Modulus (GPa) = 28.22133 36.26788 32.24460
#
# Velocity S-wave (km/s) = 3.71218 4.20825 3.96798
# Velocity P-wave (km/s) = 5.75552 7.36147 6.60747
#
# Compressibility (1/GPa) = 0.03309959
#
# Stress axis : x y z
#
# Youngs Moduli (GPa) = 27.95873 118.02950 123.59078
#
# Poissons Ratio (x) = 0.43337 0.32641
# Poissons Ratio (y) = 0.10266 0.40819
# Poissons Ratio (z) = 0.07384 0.38982
#
# Static dielectric constant tensor:
#      x y z
#    x 3.346980 0.000000 0.000000 
#    y 0.000000 -5.010760 0.000000 
#    z 0.000000 0.000000 3.881410 
# 
# 
# High freq. dielectric constant tensor:
#      x y z
#    x 1.768230 0.000000 0.000000 
#    y 0.000000 1.815830 0.000000 
#    z 0.000000 0.000000 1.817430 
# 
# From -- ./inp_files/19966.got.cif
#   From: 2010.03.12/outbox.cif.g09.slc.cpg/sg59_10_cif.got.tgz:19966.got - 2010.04.16 16:29:54.
