data_PCOD8245721
_publ_section_title
;
Structure prediction by ZEFSAII (Michael W. Deem and Ramdas Pophale) SiO2 
 PCOD8245721
Probable space group: P M M N
;
_chemical_formula_sum "Si O2"
_cell_formula_units_Z 64
_cell_length_a 9.196438
_cell_length_b 14.863867
_cell_length_c 23.905265
_cell_angle_alpha 90.000000
_cell_angle_beta 90.000000
_cell_angle_gamma 90.000000
_cell_volume 3267.721385
_symmetry_space_group_name_H-M "P M M N"
_symmetry_group_IT_number 59
_space_group.IT_coordinate_system_code '2'
_symmetry_cell_setting 'orthorhombic'
loop_
_space_group_symop_operation_xyz
x,y,z
1/2-x,1/2-y,z
1/2+x,-y,-z
-x,1/2+y,-z
-x,-y,-z
1/2+x,1/2+y,-z
1/2-x,y,z
x,1/2-y,z
loop_
_atom_site_type_symbol
_atom_site_label
_atom_site_fract_x
_atom_site_fract_y
_atom_site_fract_z
Si Si1 0.085902 0.857126 0.960233
Si Si2 0.081274 0.146242 0.149132
Si Si3 0.082465 0.851931 0.175635
Si Si4 0.577311 0.349385 0.452017
Si Si5 0.577206 0.006427 0.362781
Si Si6 0.417435 0.645397 0.422431
Si Si7 0.081991 0.482852 0.249955
Si Si8 0.913311 0.643054 0.066609
O O1 0.250000 0.894032 0.961454
O O2 0.082916 0.750000 0.962466
O O3 0.009416 0.890703 0.903540
O O4 0.000061 0.896908 0.013614
O O5 0.250000 0.133297 0.134277
O O6 0.044576 0.250000 0.162126
O O7 0.036570 0.088799 0.202975
O O8 0.250000 0.857201 0.156975
O O9 0.039326 0.750000 0.192637
O O10 0.989653 0.888350 0.123615
O O11 0.052418 0.915842 0.228402
O O12 0.750000 0.346500 0.451291
O O13 0.517101 0.250000 0.436315
O O14 0.517431 0.421401 0.407855
O O15 0.526812 0.375518 0.514639
O O16 0.750000 0.002727 0.361335
O O17 0.519057 0.036566 0.302718
O O18 0.515273 0.909094 0.378847
O O19 0.250000 0.616389 0.414998
O O20 0.436739 0.750000 0.408441
O O21 0.250000 0.470804 0.267041
O O22 0.750000 0.604596 0.065454
O O23 0.913240 0.750000 0.063605
#
# Coordination Sequence:
#
# PCOD8245721 Si02
#       8
#     8   8   8   8   8   8   8   8
#     4   9  16  27  47  75 103 130 163 204 252 311
#     4   9  18  34  54  73  97 131 170 216 265 306
#     4   9  18  34  54  72  93 126 168 212 254 298
#     4   8  16  33  56  82 111 143 178 214 258 314
#     4  11  22  34  53  81 111 141 175 222 269 305
#     4   9  18  35  59  82 107 143 181 214 256 315
#     4  10  22  38  53  72 101 138 180 217 253 309
#     4   9  16  27  47  75 103 129 159 200 254 312
#
# _framework density 19.585512000000001
#
# number of rings (size 3 to 8) (size 9 to 14) (size 15 to 20)
#    0.000    2.750    0.000    2.250    0.000    5.250 
#    0.000    2.500    0.000    2.625    0.000    0.000 
#    0.000    0.000    0.000    0.000    0.000    0.000 
#
# Total GULP energy -793640.342379 kJ/mol
# GULP energy per Si atom -12400.630350 kJ/mol
# Density = 1.954093 g / cm^3
# Si number density = 19.585512 Si / 1000 Ang^3
#
#
#
# Elastic Constant Matrix: (Units=GPa)
#
#
# Indices 1 2 3 4 5 6 
#
# 1 79.8520 10.4338 36.4437 0.0000 0.0000 0.0000
# 2 10.4338 40.5311 8.4098 0.0000 0.0000 0.0000
# 3 36.4437 8.4098 80.1679 0.0000 0.0000 0.0000
# 4 0.0000 0.0000 0.0000 8.9178 0.0000 0.0000
# 5 0.0000 0.0000 0.0000 0.0000 37.8106 0.0000
# 6 0.0000 0.0000 0.0000 0.0000 0.0000 15.4822
#
#
#
# Elastic Compliance Matrix: (Units=1/GPa)
#
#
# Indices 1 2 3 4 5 6 
#
# 1 0.016082 -0.002681 -0.007029 0.000000 0.000000 0.000000
# 2 -0.002681 0.025668 -0.001474 0.000000 0.000000 0.000000
# 3 -0.007029 -0.001474 0.015824 0.000000 0.000000 0.000000
# 4 0.000000 0.000000 0.000000 0.112135 0.000000 0.000000
# 5 0.000000 0.000000 0.000000 0.000000 0.026448 0.000000
# 6 0.000000 0.000000 0.000000 0.000000 0.000000 0.064590
#
#
# Mechanical properties :
#
#
# Convention : Reuss Voigt Hill
#
# Bulk Modulus (GPa) = 28.40491 34.56951 31.48721
# Shear Modulus (GPa) = 16.95772 22.12638 19.54205
#
# Velocity S-wave (km/s) = 2.94569 3.36479 3.16219
# Velocity P-wave (km/s) = 5.10920 5.72579 5.42626
#
# Compressibility (1/GPa) = 0.03520518
#
# Stress axis : x y z
#
# Youngs Moduli (GPa) = 62.18274 38.95828 63.19563
#
# Poissons Ratio (x) = 0.10446 0.44422
# Poissons Ratio (y) = 0.16673 0.09314
# Poissons Ratio (z) = 0.43710 0.05742
#
# Static dielectric constant tensor:
#      x y z
#    x 3.453310 0.000000 0.000000 
#    y 0.000000 3.559900 0.000000 
#    z 0.000000 0.000000 3.526920 
# 
# 
# High freq. dielectric constant tensor:
#      x y z
#    x 1.748260 0.000000 0.000000 
#    y 0.000000 1.759040 0.000000 
#    z 0.000000 0.000000 1.759560 
# 
# From -- ./inp_files/31438.got.cif
#   From: 2010.03.12/outbox.cif.g09.slc.cpg/sg59_16_cif.got.tgz:31438.got - 2010.04.16 16:29:54.
