data_PCOD8245216
_publ_section_title
;
Structure prediction by ZEFSAII (Michael W. Deem and Ramdas Pophale) SiO2 
 PCOD8245216
Probable space group: P M M N
;
_chemical_formula_sum "Si O2"
_cell_formula_units_Z 48
_cell_length_a 14.174049
_cell_length_b 8.993494
_cell_length_c 18.809427
_cell_angle_alpha 90.000000
_cell_angle_beta 90.000000
_cell_angle_gamma 90.000000
_cell_volume 2397.717123
_symmetry_space_group_name_H-M "P M M N"
_symmetry_group_IT_number 59
_space_group.IT_coordinate_system_code '2'
_symmetry_cell_setting 'orthorhombic'
loop_
_space_group_symop_operation_xyz
x,y,z
1/2-x,1/2-y,z
1/2+x,-y,-z
-x,1/2+y,-z
-x,-y,-z
1/2+x,1/2+y,-z
1/2-x,y,z
x,1/2-y,z
loop_
_atom_site_type_symbol
_atom_site_label
_atom_site_fract_x
_atom_site_fract_y
_atom_site_fract_z
Si Si1 0.862049 0.085187 0.970604
Si Si2 0.859845 0.921507 0.831971
Si Si3 0.016495 0.576633 0.609427
Si Si4 0.517194 0.574653 0.245673
Si Si5 0.640009 0.422845 0.128195
Si Si6 0.858707 0.076931 0.525358
O O1 0.750000 0.091653 0.973778
O O2 0.900675 0.250000 0.951775
O O3 0.895907 0.970546 0.910250
O O4 0.897150 0.034757 0.048830
O O5 0.750000 0.953689 0.822201
O O6 0.885594 0.750000 0.822564
O O7 0.912313 0.015803 0.771706
O O8 0.005357 0.750000 0.624910
O O9 0.051171 0.494898 0.680269
O O10 0.097064 0.543072 0.551594
O O11 0.914919 0.515142 0.584681
O O12 0.516071 0.750000 0.252780
O O13 0.587523 0.526154 0.183796
O O14 0.750000 0.456670 0.135724
O O15 0.618499 0.250000 0.143781
O O16 0.750000 0.025450 0.525043
O O17 0.868350 0.250000 0.544321
#
# Coordination Sequence:
#
# PCOD8245216 Si02
#       6
#     8   8   8   8   8   8
#     4   8  15  31  55  80 106 139 182 233 286 337
#     4  10  21  37  57  80 107 143 189 239 288 338
#     4  10  21  38  59  85 117 148 182 225 269 320
#     4  12  25  38  55  81 115 153 189 230 279 330
#     4   9  19  37  59  81 109 147 189 234 284 336
#     4   9  19  38  64  90 114 144 180 217 265 324
#
# _framework density 20.01904
#
# number of rings (size 3 to 8) (size 9 to 14) (size 15 to 20)
#    0.000    2.333    0.000    3.500    0.000    5.000 
#    0.000    3.333    0.000    0.000    0.000    0.000 
#    0.000    0.000    0.000    0.000    0.000    0.000 
#
# Total GULP energy -595263.239517 kJ/mol
# GULP energy per Si atom -12401.317490 kJ/mol
# Density = 1.997348 g / cm^3
# Si number density = 20.019040 Si / 1000 Ang^3
#
#
#
# Elastic Constant Matrix: (Units=GPa)
#
#
# Indices 1 2 3 4 5 6 
#
# 1 51.4977 8.0143 -6.4033 0.0000 0.0000 0.0000
# 2 8.0143 89.9932 29.5527 0.0000 0.0000 0.0000
# 3 -6.4033 29.5527 71.5510 0.0000 0.0000 0.0000
# 4 0.0000 0.0000 0.0000 39.5428 0.0000 0.0000
# 5 0.0000 0.0000 0.0000 0.0000 20.7321 0.0000
# 6 0.0000 0.0000 0.0000 0.0000 0.0000 29.6415
#
#
#
# Elastic Compliance Matrix: (Units=1/GPa)
#
#
# Indices 1 2 3 4 5 6 
#
# 1 0.020217 -0.002770 0.002953 0.000000 0.000000 0.000000
# 2 -0.002770 0.013235 -0.005714 0.000000 0.000000 0.000000
# 3 0.002953 -0.005714 0.016601 0.000000 0.000000 0.000000
# 4 0.000000 0.000000 0.000000 0.025289 0.000000 0.000000
# 5 0.000000 0.000000 0.000000 0.000000 0.048234 0.000000
# 6 0.000000 0.000000 0.000000 0.000000 0.000000 0.033736
#
#
# Mechanical properties :
#
#
# Convention : Reuss Voigt Hill
#
# Bulk Modulus (GPa) = 25.64763 30.59660 28.12212
# Shear Modulus (GPa) = 27.56772 30.10850 28.83811
#
# Velocity S-wave (km/s) = 3.71492 3.88234 3.79955
# Velocity P-wave (km/s) = 5.58930 5.95094 5.77295
#
# Compressibility (1/GPa) = 0.03898996
#
# Stress axis : x y z
#
# Youngs Moduli (GPa) = 49.46404 75.55599 60.23880
#
# Poissons Ratio (x) = 0.20931 -0.17791
# Poissons Ratio (y) = 0.13703 0.34423
# Poissons Ratio (z) = -0.14609 0.43176
#
# Static dielectric constant tensor:
#      x y z
#    x 3.571440 0.000000 0.000000 
#    y 0.000000 3.626620 0.000000 
#    z 0.000000 0.000000 3.725620 
# 
# 
# High freq. dielectric constant tensor:
#      x y z
#    x 1.777940 0.000000 0.000000 
#    y 0.000000 1.780130 0.000000 
#    z 0.000000 0.000000 1.783210 
# 
# From -- ./inp_files/25442.got.cif
#   From: 2010.03.12/outbox.cif.g09.slc.cpg/sg59_13_cif.got.tgz:25442.got - 2010.04.16 16:29:54.
