data_PCOD8245210
_publ_section_title
;
Structure prediction by ZEFSAII (Michael W. Deem and Ramdas Pophale) SiO2 
 PCOD8245210
Probable space group: P M M N
;
_chemical_formula_sum "Si O2"
_cell_formula_units_Z 64
_cell_length_a 8.929447
_cell_length_b 18.943128
_cell_length_c 20.706976
_cell_angle_alpha 90.000000
_cell_angle_beta 90.000000
_cell_angle_gamma 90.000000
_cell_volume 3502.619312
_symmetry_space_group_name_H-M "P M M N"
_symmetry_group_IT_number 59
_space_group.IT_coordinate_system_code '2'
_symmetry_cell_setting 'orthorhombic'
loop_
_space_group_symop_operation_xyz
x,y,z
1/2-x,1/2-y,z
1/2+x,-y,-z
-x,1/2+y,-z
-x,-y,-z
1/2+x,1/2+y,-z
1/2-x,y,z
x,1/2-y,z
loop_
_atom_site_type_symbol
_atom_site_label
_atom_site_fract_x
_atom_site_fract_y
_atom_site_fract_z
Si Si1 0.927566 0.076543 0.996746
Si Si2 0.074181 0.830647 0.882131
Si Si3 0.425263 0.168363 0.887396
Si Si4 0.074754 0.422664 0.364765
Si Si5 0.925338 0.924447 0.494549
Si Si6 0.927528 0.669829 0.751095
Si Si7 0.078616 0.831593 0.245037
Si Si8 0.072865 0.917685 0.368704
O O1 0.750000 0.068927 0.993288
O O2 0.979528 0.120579 0.059185
O O3 0.983116 0.118232 0.934408
O O4 0.000000 0.000000 0.000000
O O5 0.250000 0.836065 0.871292
O O6 0.025538 0.750000 0.897122
O O7 0.993974 0.859607 0.817942
O O8 0.250000 0.153662 0.895286
O O9 0.465134 0.250000 0.902324
O O10 0.474357 0.148515 0.815089
O O11 0.250000 0.426798 0.351983
O O12 0.043719 0.387617 0.435555
O O13 0.003248 0.374904 0.308353
O O14 0.012080 0.502409 0.360438
O O15 0.750000 0.932729 0.482179
O O16 0.999359 0.883760 0.433737
O O17 0.000000 0.000000 0.500000
O O18 0.750000 0.663926 0.754674
O O19 0.980211 0.750000 0.740483
O O20 0.250000 0.851803 0.228281
O O21 0.064767 0.750000 0.263021
O O22 0.018841 0.874326 0.306679
O O23 0.250000 0.913943 0.377442
#
# Coordination Sequence:
#
# PCOD8245210 Si02
#       8
#     8   8   8   8   8   8   8   8
#     4  11  23  38  56  79 108 139 171 212 261 309
#     4   9  19  36  55  74  99 132 167 202 245 300
#     4  10  21  37  57  80 106 137 175 217 257 305
#     4   8  15  28  45  66  92 122 158 198 242 292
#     4   9  16  28  46  67  93 126 163 203 246 295
#     4   9  17  30  49  71  95 125 161 200 241 289
#     4   9  18  33  52  73  99 133 170 207 253 308
#     4   9  17  30  48  69  94 126 165 208 250 297
#
# _framework density 18.272040000000001
#
# number of rings (size 3 to 8) (size 9 to 14) (size 15 to 20)
#    0.000    2.750    0.000    2.250    0.000    3.750 
#    0.000    6.250    0.000    0.750    0.000    0.000 
#    0.000    0.000    0.000    0.000    0.000    0.000 
#
# Total GULP energy -793374.317167 kJ/mol
# GULP energy per Si atom -12396.473706 kJ/mol
# Density = 1.823045 g / cm^3
# Si number density = 18.272040 Si / 1000 Ang^3
#
#
#
# Elastic Constant Matrix: (Units=GPa)
#
#
# Indices 1 2 3 4 5 6 
#
# 1 50.0652 30.1436 47.2342 0.0000 0.0000 0.0000
# 2 30.1436 80.2089 78.7216 0.0000 0.0000 0.0000
# 3 47.2342 78.7216 172.6514 0.0000 0.0000 0.0000
# 4 0.0000 0.0000 0.0000 34.7393 0.0000 0.0000
# 5 0.0000 0.0000 0.0000 0.0000 35.2673 0.0000
# 6 0.0000 0.0000 0.0000 0.0000 0.0000 21.2421
#
#
#
# Elastic Compliance Matrix: (Units=1/GPa)
#
#
# Indices 1 2 3 4 5 6 
#
# 1 0.028192 -0.005475 -0.005216 0.000000 0.000000 0.000000
# 2 -0.005475 0.023629 -0.009276 0.000000 0.000000 0.000000
# 3 -0.005216 -0.009276 0.011448 0.000000 0.000000 0.000000
# 4 0.000000 0.000000 0.000000 0.028786 0.000000 0.000000
# 5 0.000000 0.000000 0.000000 0.000000 0.028355 0.000000
# 6 0.000000 0.000000 0.000000 0.000000 0.000000 0.047076
#
#
# Mechanical properties :
#
#
# Convention : Reuss Voigt Hill
#
# Bulk Modulus (GPa) = 42.85511 68.34713 55.60112
# Shear Modulus (GPa) = 23.23424 28.03814 25.63619
#
# Velocity S-wave (km/s) = 3.56978 3.92150 3.74977
# Velocity P-wave (km/s) = 6.36364 7.61516 7.01736
#
# Compressibility (1/GPa) = 0.02333444
#
# Stress axis : x y z
#
# Youngs Moduli (GPa) = 35.47116 42.32081 87.34787
#
# Poissons Ratio (x) = 0.23172 0.45563
# Poissons Ratio (y) = 0.19422 0.81023
# Poissons Ratio (z) = 0.18503 0.39256
#
# Static dielectric constant tensor:
#      x y z
#    x 3.274310 0.000000 0.000000 
#    y 0.000000 3.250970 0.000000 
#    z 0.000000 0.000000 3.765370 
# 
# 
# High freq. dielectric constant tensor:
#      x y z
#    x 1.695400 0.000000 0.000000 
#    y 0.000000 1.685180 0.000000 
#    z 0.000000 0.000000 1.726850 
# 
# From -- ./inp_files/29408.got.cif
#   From: 2010.03.12/outbox.cif.g09.slc.cpg/sg59_15_cif.got.tgz:29408.got - 2010.04.16 16:29:54.
