data_PCOD8245452
_publ_section_title
;
Structure prediction by ZEFSAII (Michael W. Deem and Ramdas Pophale) SiO2 
 PCOD8245452
Probable space group: P M M N
;
_chemical_formula_sum "Si O2"
_cell_formula_units_Z 48
_cell_length_a 9.047510
_cell_length_b 9.741357
_cell_length_c 28.625204
_cell_angle_alpha 90.000000
_cell_angle_beta 90.000000
_cell_angle_gamma 90.000000
_cell_volume 2522.883066
_symmetry_space_group_name_H-M "P M M N"
_symmetry_group_IT_number 59
_space_group.IT_coordinate_system_code '2'
_symmetry_cell_setting 'orthorhombic'
loop_
_space_group_symop_operation_xyz
x,y,z
1/2-x,1/2-y,z
1/2+x,-y,-z
-x,1/2+y,-z
-x,-y,-z
1/2+x,1/2+y,-z
1/2-x,y,z
x,1/2-y,z
loop_
_atom_site_type_symbol
_atom_site_label
_atom_site_fract_x
_atom_site_fract_y
_atom_site_fract_z
Si Si1 0.075437 0.750000 0.034602
Si Si2 0.425965 0.750000 0.929475
Si Si3 0.424845 0.905357 0.357538
Si Si4 0.425151 0.517503 0.104214
Si Si5 0.921390 0.406000 0.536993
Si Si6 0.418933 0.404611 0.803555
Si Si7 0.575989 0.408225 0.282251
O O1 0.250000 0.750000 0.032390
O O2 0.021556 0.615409 0.062036
O O3 0.009717 0.750000 0.982345
O O4 0.250000 0.750000 0.928715
O O5 0.486789 0.877990 0.901284
O O6 0.250000 0.920136 0.353082
O O7 0.471883 0.750000 0.343111
O O8 0.477569 0.934944 0.410438
O O9 0.500433 0.019448 0.325918
O O10 0.250000 0.493153 0.103493
O O11 0.471280 0.584549 0.152915
O O12 0.750000 0.438795 0.534426
O O13 0.955153 0.250000 0.523168
O O14 0.000000 0.500000 0.500000
O O15 0.250000 0.435734 0.818984
O O16 0.431429 0.250000 0.783295
O O17 0.472232 0.512618 0.764674
O O18 0.750000 0.418578 0.289510
O O19 0.523816 0.250000 0.278661
#
# Coordination Sequence:
#
# PCOD8245452 Si02
#       7
#     4   4   8   8   8   8   8
#     4   9  20  39  61  85 117 149 187 233 278 329
#     4  11  23  39  59  85 117 155 189 227 278 331
#     4   9  19  37  58  80 110 149 192 235 281 333
#     4  11  22  39  60  87 117 148 186 233 282 332
#     4   9  19  35  54  79 112 149 190 236 283 334
#     4  10  21  38  59  83 111 148 191 230 275 337
#     4  10  22  38  57  84 116 147 182 229 281 334
#
# _framework density 19.025852
#
# number of rings (size 3 to 8) (size 9 to 14) (size 15 to 20)
#    0.000    2.167    0.833    2.750    1.167    3.667 
#    0.000    7.500    0.000    0.000    0.000    0.000 
#    0.000    0.000    0.000    0.000    0.000    0.000 
#
# Total GULP energy -595245.176779 kJ/mol
# GULP energy per Si atom -12400.941183 kJ/mol
# Density = 1.898255 g / cm^3
# Si number density = 19.025852 Si / 1000 Ang^3
#
#
#
# Elastic Constant Matrix: (Units=GPa)
#
#
# Indices 1 2 3 4 5 6 
#
# 1 50.9128 38.3137 35.3632 0.0000 0.0000 0.0000
# 2 38.3137 122.6341 43.8609 0.0000 0.0000 0.0000
# 3 35.3632 43.8609 88.9142 0.0000 0.0000 0.0000
# 4 0.0000 0.0000 0.0000 39.6802 0.0000 0.0000
# 5 0.0000 0.0000 0.0000 0.0000 35.5893 0.0000
# 6 0.0000 0.0000 0.0000 0.0000 0.0000 27.6714
#
#
#
# Elastic Compliance Matrix: (Units=1/GPa)
#
#
# Indices 1 2 3 4 5 6 
#
# 1 0.030735 -0.006351 -0.009091 0.000000 0.000000 0.000000
# 2 -0.006351 0.011213 -0.003006 0.000000 0.000000 0.000000
# 3 -0.009091 -0.003006 0.016345 0.000000 0.000000 0.000000
# 4 0.000000 0.000000 0.000000 0.025201 0.000000 0.000000
# 5 0.000000 0.000000 0.000000 0.000000 0.028098 0.000000
# 6 0.000000 0.000000 0.000000 0.000000 0.000000 0.036138
#
#
# Mechanical properties :
#
#
# Convention : Reuss Voigt Hill
#
# Bulk Modulus (GPa) = 46.73233 55.28184 51.00709
# Shear Modulus (GPa) = 26.07415 30.24973 28.16194
#
# Velocity S-wave (km/s) = 3.70599 3.99172 3.85150
# Velocity P-wave (km/s) = 6.55197 7.09678 6.82981
#
# Compressibility (1/GPa) = 0.02139846
#
# Stress axis : x y z
#
# Youngs Moduli (GPa) = 32.53588 89.17824 61.17971
#
# Poissons Ratio (x) = 0.56636 0.55620
# Poissons Ratio (y) = 0.20663 0.18389
# Poissons Ratio (z) = 0.29579 0.26804
#
# Static dielectric constant tensor:
#      x y z
#    x 3.292700 0.000000 0.000000 
#    y 0.000000 3.642050 0.000000 
#    z 0.000000 0.000000 3.512870 
# 
# 
# High freq. dielectric constant tensor:
#      x y z
#    x 1.726720 0.000000 0.000000 
#    y 0.000000 1.751050 0.000000 
#    z 0.000000 0.000000 1.744810 
# 
# From -- ./inp_files/32999.got.cif
#   From: 2010.03.12/outbox.cif.g09.slc.cpg/sg59_17_cif.got.tgz:32999.got - 2010.04.16 16:29:54.
