data_PCOD8245198
_publ_section_title
;
Structure prediction by ZEFSAII (Michael W. Deem and Ramdas Pophale) SiO2 
 PCOD8245198
Probable space group: P M M N
;
_chemical_formula_sum "Si O2"
_cell_formula_units_Z 56
_cell_length_a 8.920578
_cell_length_b 15.544143
_cell_length_c 21.338886
_cell_angle_alpha 90.000000
_cell_angle_beta 90.000000
_cell_angle_gamma 90.000000
_cell_volume 2958.908403
_symmetry_space_group_name_H-M "P M M N"
_symmetry_group_IT_number 59
_space_group.IT_coordinate_system_code '2'
_symmetry_cell_setting 'orthorhombic'
loop_
_space_group_symop_operation_xyz
x,y,z
1/2-x,1/2-y,z
1/2+x,-y,-z
-x,1/2+y,-z
-x,-y,-z
1/2+x,1/2+y,-z
1/2-x,y,z
x,1/2-y,z
loop_
_atom_site_type_symbol
_atom_site_label
_atom_site_fract_x
_atom_site_fract_y
_atom_site_fract_z
Si Si1 0.926350 0.997432 0.155380
Si Si2 0.076571 0.155357 0.089893
Si Si3 0.576940 0.153288 0.618176
Si Si4 0.573792 0.512965 0.294752
Si Si5 0.576852 0.578075 0.033110
Si Si6 0.927372 0.906867 0.503651
Si Si7 0.578065 0.153041 0.373158
O O1 0.750000 0.003339 0.163830
O O2 0.992802 0.980398 0.224234
O O3 0.976359 0.920233 0.106552
O O4 0.978218 0.088892 0.128476
O O5 0.250000 0.131750 0.100839
O O6 0.037814 0.250000 0.115207
O O7 0.044179 0.157590 0.013670
O O8 0.750000 0.130545 0.605512
O O9 0.559708 0.250000 0.645442
O O10 0.511627 0.084960 0.666448
O O11 0.487400 0.150093 0.553292
O O12 0.750000 0.532940 0.298550
O O13 0.538152 0.417024 0.320013
O O14 0.750000 0.556076 0.036483
O O15 0.500000 0.500000 0.000000
O O16 0.750000 0.915791 0.498733
O O17 0.970490 0.860400 0.567902
O O18 0.000000 0.000000 0.500000
O O19 0.750000 0.140903 0.395041
O O20 0.552501 0.250000 0.346619
#
# Coordination Sequence:
#
# PCOD8245198 Si02
#       7
#     8   8   8   8   8   8   8
#     4   9  18  32  51  75 102 136 179 220 265 318
#     4   9  17  29  47  73 103 136 174 216 267 323
#     4  11  24  41  61  84 111 145 184 229 281 331
#     4  10  21  37  57  81 111 149 188 227 272 328
#     4   8  14  27  46  68  96 128 165 210 254 301
#     4  12  23  37  60  87 113 142 181 230 282 332
#     4  10  21  37  56  80 112 148 184 225 276 332
#
# _framework density 18.925896999999999
#
# number of rings (size 3 to 8) (size 9 to 14) (size 15 to 20)
#    0.000    2.143    1.429    2.143    0.000    4.571 
#    0.000    2.143    0.000    2.571    0.000    0.000 
#    0.000    0.000    0.000    0.000    0.000    0.000 
#
# Total GULP energy -693834.634367 kJ/mol
# GULP energy per Si atom -12389.904185 kJ/mol
# Density = 1.888282 g / cm^3
# Si number density = 18.925897 Si / 1000 Ang^3
#
#
#
# Elastic Constant Matrix: (Units=GPa)
#
#
# Indices 1 2 3 4 5 6 
#
# 1 64.0334 29.5548 40.0146 0.0000 0.0000 0.0000
# 2 29.5548 84.4325 27.4170 0.0000 0.0000 0.0000
# 3 40.0146 27.4170 125.2736 0.0000 0.0000 0.0000
# 4 0.0000 0.0000 0.0000 16.2540 0.0000 0.0000
# 5 0.0000 0.0000 0.0000 0.0000 22.2581 0.0000
# 6 0.0000 0.0000 0.0000 0.0000 0.0000 24.0664
#
#
#
# Elastic Compliance Matrix: (Units=1/GPa)
#
#
# Indices 1 2 3 4 5 6 
#
# 1 0.021864 -0.005798 -0.005715 0.000000 0.000000 0.000000
# 2 -0.005798 0.014287 -0.001275 0.000000 0.000000 0.000000
# 3 -0.005715 -0.001275 0.010087 0.000000 0.000000 0.000000
# 4 0.000000 0.000000 0.000000 0.061523 0.000000 0.000000
# 5 0.000000 0.000000 0.000000 0.000000 0.044927 0.000000
# 6 0.000000 0.000000 0.000000 0.000000 0.000000 0.041552
#
#
# Mechanical properties :
#
#
# Convention : Reuss Voigt Hill
#
# Bulk Modulus (GPa) = 48.39507 51.96803 50.18155
# Shear Modulus (GPa) = 22.05526 24.29924 23.17725
#
# Velocity S-wave (km/s) = 3.41742 3.58706 3.50327
# Velocity P-wave (km/s) = 6.41857 6.68389 6.55257
#
# Compressibility (1/GPa) = 0.02066326
#
# Stress axis : x y z
#
# Youngs Moduli (GPa) = 45.73733 69.99284 99.13727
#
# Poissons Ratio (x) = 0.40579 0.56656
# Poissons Ratio (y) = 0.26516 0.12640
# Poissons Ratio (z) = 0.26139 0.08924
#
# Static dielectric constant tensor:
#      x y z
#    x 3.447450 0.000000 0.000000 
#    y 0.000000 3.832610 0.000000 
#    z 0.000000 0.000000 3.858490 
# 
# 
# High freq. dielectric constant tensor:
#      x y z
#    x 1.730100 0.000000 0.000000 
#    y 0.000000 1.726540 0.000000 
#    z 0.000000 0.000000 1.736890 
# 
# From -- ./inp_files/28975.got.cif
#   From: 2010.03.12/outbox.cif.g09.slc.cpg/sg59_15_cif.got.tgz:28975.got - 2010.04.16 16:29:54.
