data_PCOD8245692
_publ_section_title
;
Structure prediction by ZEFSAII (Michael W. Deem and Ramdas Pophale) SiO2 
 PCOD8245692
Probable space group: P M M N
;
_chemical_formula_sum "Si O2"
_cell_formula_units_Z 48
_cell_length_a 15.026464
_cell_length_b 8.671528
_cell_length_c 18.800740
_cell_angle_alpha 90.000000
_cell_angle_beta 90.000000
_cell_angle_gamma 90.000000
_cell_volume 2449.781606
_symmetry_space_group_name_H-M "P M M N"
_symmetry_group_IT_number 59
_space_group.IT_coordinate_system_code '2'
_symmetry_cell_setting 'orthorhombic'
loop_
_space_group_symop_operation_xyz
x,y,z
1/2-x,1/2-y,z
1/2+x,-y,-z
-x,1/2+y,-z
-x,-y,-z
1/2+x,1/2+y,-z
1/2-x,y,z
x,1/2-y,z
loop_
_atom_site_type_symbol
_atom_site_label
_atom_site_fract_x
_atom_site_fract_y
_atom_site_fract_z
Si Si1 0.750000 0.069262 0.078301
Si Si2 0.407459 0.071079 0.178718
Si Si3 0.593141 0.932056 0.167223
Si Si4 0.148361 0.569392 0.325291
Si Si5 0.352101 0.429587 0.673955
Si Si6 0.750000 0.927168 0.928379
Si Si7 0.501312 0.930488 0.577575
O O1 0.750000 0.250000 0.095538
O O2 0.663579 0.988584 0.110070
O O3 0.750000 0.042716 0.994156
O O4 0.406969 0.250000 0.200844
O O5 0.336668 0.036207 0.117829
O O6 0.502611 0.020510 0.148793
O O7 0.385630 0.969547 0.247099
O O8 0.579550 0.750000 0.159843
O O9 0.626223 0.978379 0.245621
O O10 0.250000 0.515750 0.334440
O O11 0.136931 0.750000 0.337409
O O12 0.090781 0.482706 0.383663
O O13 0.250000 0.470557 0.657171
O O14 0.371552 0.250000 0.662883
O O15 0.413386 0.522965 0.620380
O O16 0.750000 0.750000 0.954469
O O17 0.502774 0.750000 0.570012
O O18 0.500000 0.000000 0.500000
#
# Coordination Sequence:
#
# PCOD8245692 Si02
#       7
#     4   8   8   8   8   4   8
#     4  12  26  42  64  94 129 166 215 268 318 376
#     4  11  22  39  65  97 127 164 213 264 313 373
#     4  11  22  40  66  94 128 169 210 257 316 381
#     4  11  23  40  65  95 128 167 212 259 312 378
#     4  10  21  40  66  94 125 164 209 255 311 378
#     4  10  24  44  64  90 131 170 209 262 322 380
#     4  12  26  43  65  93 130 168 209 263 318 375
#
# _framework density 19.593584
#
# number of rings (size 3 to 8) (size 9 to 14) (size 15 to 20)
#    0.000    1.000    3.333    3.750    0.000    4.667 
#    0.000    0.000    0.000    0.000    0.000    0.000 
#    0.000    0.000    0.000    0.000    0.000    0.000 
#
# Total GULP energy -595532.765615 kJ/mol
# GULP energy per Si atom -12406.932617 kJ/mol
# Density = 1.954899 g / cm^3
# Si number density = 19.593584 Si / 1000 Ang^3
#
#
#
# Elastic Constant Matrix: (Units=GPa)
#
#
# Indices 1 2 3 4 5 6 
#
# 1 156.0857 37.8204 51.6437 0.0000 0.0000 0.0000
# 2 37.8204 66.4614 32.1122 0.0000 0.0000 0.0000
# 3 51.6437 32.1122 115.4091 0.0000 0.0000 0.0000
# 4 0.0000 0.0000 0.0000 35.4872 0.0000 0.0000
# 5 0.0000 0.0000 0.0000 0.0000 -18.3203 0.0000
# 6 0.0000 0.0000 0.0000 0.0000 0.0000 29.9528
#
#
#
# Elastic Compliance Matrix: (Units=1/GPa)
#
#
# Indices 1 2 3 4 5 6 
#
# 1 0.008103 -0.003303 -0.002707 0.000000 0.000000 0.000000
# 2 -0.003303 0.018730 -0.003733 0.000000 0.000000 0.000000
# 3 -0.002707 -0.003733 0.010915 0.000000 0.000000 0.000000
# 4 0.000000 0.000000 0.000000 0.028179 0.000000 0.000000
# 5 0.000000 0.000000 0.000000 0.000000 -0.054584 0.000000
# 6 0.000000 0.000000 0.000000 0.000000 0.000000 0.033386
#
#
# Mechanical properties :
#
#
# Convention : Reuss Voigt Hill
#
# Bulk Modulus (GPa) = 54.76190 64.56764 59.66477
# Shear Modulus (GPa) = 71.12218 23.84928 47.48573
#
# Velocity S-wave (km/s) = 6.03138 3.49262 4.92828
# Velocity P-wave (km/s) = 8.74717 7.02065 7.93103
#
# Compressibility (1/GPa) = 0.01826087
#
# Stress axis : x y z
#
# Youngs Moduli (GPa) = 123.41635 53.39069 91.61818
#
# Poissons Ratio (x) = 0.17635 0.24799
# Poissons Ratio (y) = 0.40765 0.34205
# Poissons Ratio (z) = 0.33406 0.19933
#
# Static dielectric constant tensor:
#      x y z
#    x 3.682640 0.000000 0.000000 
#    y 0.000000 3.514620 0.000000 
#    z 0.000000 0.000000 3.393470 
# 
# 
# High freq. dielectric constant tensor:
#      x y z
#    x 1.784160 0.000000 0.000000 
#    y 0.000000 1.772410 0.000000 
#    z 0.000000 0.000000 1.761890 
# 
# From -- ./inp_files/27441.got.cif
#   From: 2010.03.12/outbox.cif.g09.slc.cpg/sg59_14_cif.got.tgz:27441.got - 2010.04.16 16:29:54.
