data_PCOD8245819
_publ_section_title
;
Structure prediction by ZEFSAII (Michael W. Deem and Ramdas Pophale) SiO2 
 PCOD8245819
Probable space group: P M M N
;
_chemical_formula_sum "Si O2"
_cell_formula_units_Z 64
_cell_length_a 8.302731
_cell_length_b 30.989297
_cell_length_c 11.943225
_cell_angle_alpha 90.000000
_cell_angle_beta 90.000000
_cell_angle_gamma 90.000000
_cell_volume 3072.941594
_symmetry_space_group_name_H-M "P M M N"
_symmetry_group_IT_number 59
_space_group.IT_coordinate_system_code '2'
_symmetry_cell_setting 'orthorhombic'
loop_
_space_group_symop_operation_xyz
x,y,z
1/2-x,1/2-y,z
1/2+x,-y,-z
-x,1/2+y,-z
-x,-y,-z
1/2+x,1/2+y,-z
1/2-x,y,z
x,1/2-y,z
loop_
_atom_site_type_symbol
_atom_site_label
_atom_site_fract_x
_atom_site_fract_y
_atom_site_fract_z
Si Si1 0.934453 0.178720 0.755582
Si Si2 0.563185 0.547917 0.487045
Si Si3 0.440563 0.797738 0.487109
Si Si4 0.938364 0.879729 0.882769
Si Si5 0.433247 0.087567 0.750008
Si Si6 0.937560 0.796731 0.010763
Si Si7 0.438259 0.623555 0.636403
Si Si8 0.062447 0.546245 0.033778
O O1 0.750000 0.192877 0.771333
O O2 0.007608 0.196534 0.638967
O O3 0.944344 0.127168 0.754461
O O4 0.035587 0.197786 0.857247
O O5 0.500000 0.500000 0.500000
O O6 0.750000 0.550872 0.519438
O O7 0.530227 0.559802 0.359155
O O8 0.465119 0.579962 0.567084
O O9 0.250000 0.803112 0.481459
O O10 0.490238 0.750000 0.531580
O O11 0.508595 0.835096 0.568127
O O12 0.750000 0.884576 0.910582
O O13 0.963599 0.878387 0.750707
O O14 0.012521 0.836115 0.939176
O O15 0.032345 0.920266 0.933386
O O16 0.250000 0.104840 0.750568
O O17 0.461184 0.058107 0.857125
O O18 0.750000 0.796333 0.986460
O O19 0.010484 0.750000 0.973479
O O20 0.250000 0.628905 0.662453
O O21 0.250000 0.544762 0.062882
O O22 0.000000 0.500000 0.000000
#
# Coordination Sequence:
#
# PCOD8245819 Si02
#       8
#     8   8   8   8   8   8   8   8
#     4  11  20  35  62  94 127 163 205 257 311 370
#     4  11  25  43  66  93 127 164 208 256 310 372
#     4   9  19  36  59  90 126 163 204 254 309 364
#     4  11  24  43  64  89 126 167 210 260 314 371
#     4  11  23  41  65  94 129 166 205 256 312 370
#     4  10  22  40  62  89 125 167 208 256 313 373
#     4  11  23  41  64  90 125 165 211 261 312 369
#     4  12  26  44  68  96 127 164 209 256 312 373
#
# _framework density 20.826951000000001
#
# number of rings (size 3 to 8) (size 9 to 14) (size 15 to 20)
#    0.000    1.250    2.500    3.375    1.750    3.250 
#    0.000    0.000    0.000    3.375    0.000    0.000 
#    0.000    0.000    0.000    0.000    0.000    0.000 
#
# Total GULP energy -793783.185643 kJ/mol
# GULP energy per Si atom -12402.862276 kJ/mol
# Density = 2.077955 g / cm^3
# Si number density = 20.826951 Si / 1000 Ang^3
#
#
#
# Elastic Constant Matrix: (Units=GPa)
#
#
# Indices 1 2 3 4 5 6 
#
# 1 39.1109 10.9322 6.3710 0.0000 0.0000 0.0000
# 2 10.9322 175.2119 54.8634 0.0000 0.0000 0.0000
# 3 6.3710 54.8634 127.7002 0.0000 0.0000 0.0000
# 4 0.0000 0.0000 0.0000 34.1740 0.0000 0.0000
# 5 0.0000 0.0000 0.0000 0.0000 31.3853 0.0000
# 6 0.0000 0.0000 0.0000 0.0000 0.0000 16.8493
#
#
#
# Elastic Compliance Matrix: (Units=1/GPa)
#
#
# Indices 1 2 3 4 5 6 
#
# 1 0.026076 -0.001409 -0.000696 0.000000 0.000000 0.000000
# 2 -0.001409 0.006671 -0.002796 0.000000 0.000000 0.000000
# 3 -0.000696 -0.002796 0.009067 0.000000 0.000000 0.000000
# 4 0.000000 0.000000 0.000000 0.029262 0.000000 0.000000
# 5 0.000000 0.000000 0.000000 0.000000 0.031862 0.000000
# 6 0.000000 0.000000 0.000000 0.000000 0.000000 0.059350
#
#
# Mechanical properties :
#
#
# Convention : Reuss Voigt Hill
#
# Bulk Modulus (GPa) = 31.23804 54.03956 42.63880
# Shear Modulus (GPa) = 27.35863 34.47215 30.91539
#
# Velocity S-wave (km/s) = 3.62832 4.07279 3.85696
# Velocity P-wave (km/s) = 5.70827 6.93687 6.35234
#
# Compressibility (1/GPa) = 0.03201225
#
# Stress axis : x y z
#
# Youngs Moduli (GPa) = 38.35015 149.90999 110.29490
#
# Poissons Ratio (x) = 0.21125 0.07671
# Poissons Ratio (y) = 0.05404 0.30834
# Poissons Ratio (z) = 0.02667 0.41909
#
# Static dielectric constant tensor:
#      x y z
#    x 3.664320 0.000000 0.000000 
#    y 0.000000 4.027810 0.000000 
#    z 0.000000 0.000000 3.821300 
# 
# 
# High freq. dielectric constant tensor:
#      x y z
#    x 1.803220 0.000000 0.000000 
#    y 0.000000 1.831700 0.000000 
#    z 0.000000 0.000000 1.818490 
# 
# From -- ./inp_files/14932.got.cif
#   From: 2010.03.12/outbox.cif.g09.slc.cpg/sg59_8_cif.got.tgz:14932.got - 2010.04.16 16:29:54.
