data_PCOD8245349
_publ_section_title
;
Structure prediction by ZEFSAII (Michael W. Deem and Ramdas Pophale) SiO2 
 PCOD8245349
Probable space group: P M M N
;
_chemical_formula_sum "Si O2"
_cell_formula_units_Z 40
_cell_length_a 8.397423
_cell_length_b 16.331947
_cell_length_c 13.318095
_cell_angle_alpha 90.000000
_cell_angle_beta 90.000000
_cell_angle_gamma 90.000000
_cell_volume 1826.527018
_symmetry_space_group_name_H-M "P M M N"
_symmetry_group_IT_number 59
_space_group.IT_coordinate_system_code '2'
_symmetry_cell_setting 'orthorhombic'
loop_
_space_group_symop_operation_xyz
x,y,z
1/2-x,1/2-y,z
1/2+x,-y,-z
-x,1/2+y,-z
-x,-y,-z
1/2+x,1/2+y,-z
1/2-x,y,z
x,1/2-y,z
loop_
_atom_site_type_symbol
_atom_site_label
_atom_site_fract_x
_atom_site_fract_y
_atom_site_fract_z
Si Si1 0.940252 0.575656 0.433607
Si Si2 0.435822 0.250000 0.805760
Si Si3 0.061400 0.839050 0.852158
Si Si4 0.564242 0.502719 0.227144
Si Si5 0.935624 0.392318 0.934080
Si Si6 0.438182 0.750000 0.412038
O O1 0.750000 0.580446 0.439032
O O2 0.005343 0.553914 0.320798
O O3 0.000000 0.500000 0.500000
O O4 0.013891 0.664073 0.468190
O O5 0.250000 0.250000 0.833246
O O6 0.524484 0.172291 0.848551
O O7 0.455369 0.250000 0.687011
O O8 0.250000 0.832916 0.865548
O O9 0.992112 0.750000 0.820869
O O10 0.019062 0.905708 0.766031
O O11 0.987287 0.865290 0.960164
O O12 0.750000 0.516813 0.230144
O O13 0.506700 0.525237 0.114271
O O14 0.750000 0.404117 0.947065
O O15 0.250000 0.750000 0.392776
#
# Coordination Sequence:
#
# PCOD8245349 Si02
#       6
#     8   4   8   8   8   4
#     4  11  24  43  66  96 130 164 206 259 317 380
#     4  12  22  34  56  87 122 157 200 249 298 354
#     4   9  18  34  55  82 118 160 204 249 298 360
#     4  10  21  37  59  86 119 158 202 252 307 362
#     4  11  20  33  57  86 118 156 200 247 299 355
#     4  12  24  42  70  97 122 159 206 259 324 380
#
# _framework density 21.899484000000001
#
# number of rings (size 3 to 8) (size 9 to 14) (size 15 to 20)
#    0.000    1.400    3.000    3.600    0.000    0.800 
#    1.800    1.000    0.000    0.000    0.000    0.000 
#    0.000    0.000    0.000    0.000    0.000    0.000 
#
# Total GULP energy -495555.064024 kJ/mol
# GULP energy per Si atom -12388.876601 kJ/mol
# Density = 2.184964 g / cm^3
# Si number density = 21.899484 Si / 1000 Ang^3
#
#
#
# Elastic Constant Matrix: (Units=GPa)
#
#
# Indices 1 2 3 4 5 6 
#
# 1 37.3268 36.2617 15.1018 0.0000 0.0000 0.0000
# 2 36.2617 182.4031 34.0026 0.0000 0.0000 0.0000
# 3 15.1018 34.0026 39.8630 0.0000 0.0000 0.0000
# 4 0.0000 0.0000 0.0000 25.5867 0.0000 0.0000
# 5 0.0000 0.0000 0.0000 0.0000 18.6036 0.0000
# 6 0.0000 0.0000 0.0000 0.0000 0.0000 29.6287
#
#
#
# Elastic Compliance Matrix: (Units=1/GPa)
#
#
# Indices 1 2 3 4 5 6 
#
# 1 0.035661 -0.005435 -0.008874 0.000000 0.000000 0.000000
# 2 -0.005435 0.007347 -0.004208 0.000000 0.000000 0.000000
# 3 -0.008874 -0.004208 0.032037 0.000000 0.000000 0.000000
# 4 0.000000 0.000000 0.000000 0.039083 0.000000 0.000000
# 5 0.000000 0.000000 0.000000 0.000000 0.053753 0.000000
# 6 0.000000 0.000000 0.000000 0.000000 0.000000 0.033751
#
#
# Mechanical properties :
#
#
# Convention : Reuss Voigt Hill
#
# Bulk Modulus (GPa) = 26.30806 47.81391 37.06099
# Shear Modulus (GPa) = 19.89368 26.37892 23.13630
#
# Velocity S-wave (km/s) = 3.01725 3.47442 3.25388
# Velocity P-wave (km/s) = 4.91707 6.16248 5.57467
#
# Compressibility (1/GPa) = 0.03801117
#
# Stress axis : x y z
#
# Youngs Moduli (GPa) = 28.04220 136.10419 31.21381
#
# Poissons Ratio (x) = 0.73974 0.27698
# Poissons Ratio (y) = 0.15241 0.13135
# Poissons Ratio (z) = 0.24884 0.57274
#
# Static dielectric constant tensor:
#      x y z
#    x 3.616540 0.000000 0.000000 
#    y 0.000000 4.522670 0.000000 
#    z 0.000000 0.000000 4.055900 
# 
# 
# High freq. dielectric constant tensor:
#      x y z
#    x 1.832340 0.000000 0.000000 
#    y 0.000000 1.893120 0.000000 
#    z 0.000000 0.000000 1.834150 
# 
# From -- ./inp_files/19954.got.cif
#   From: 2010.03.12/outbox.cif.g09.slc.cpg/sg59_10_cif.got.tgz:19954.got - 2010.04.16 16:29:54.
