data_PCOD8245769
_publ_section_title
;
Structure prediction by ZEFSAII (Michael W. Deem and Ramdas Pophale) SiO2 
 PCOD8245769
Probable space group: P M M N
;
_chemical_formula_sum "Si O2"
_cell_formula_units_Z 48
_cell_length_a 14.520750
_cell_length_b 8.690201
_cell_length_c 20.492097
_cell_angle_alpha 90.000000
_cell_angle_beta 90.000000
_cell_angle_gamma 90.000000
_cell_volume 2585.861576
_symmetry_space_group_name_H-M "P M M N"
_symmetry_group_IT_number 59
_space_group.IT_coordinate_system_code '2'
_symmetry_cell_setting 'orthorhombic'
loop_
_space_group_symop_operation_xyz
x,y,z
1/2-x,1/2-y,z
1/2+x,-y,-z
-x,1/2+y,-z
-x,-y,-z
1/2+x,1/2+y,-z
1/2-x,y,z
x,1/2-y,z
loop_
_atom_site_type_symbol
_atom_site_label
_atom_site_fract_x
_atom_site_fract_y
_atom_site_fract_z
Si Si1 0.059179 0.432899 0.941026
Si Si2 0.750000 0.067297 0.024787
Si Si3 0.061240 0.931943 0.325104
Si Si4 0.750000 0.425761 0.487418
Si Si5 0.448676 0.928534 0.561399
Si Si6 0.250000 0.430115 0.374602
Si Si7 0.750000 0.433264 0.875970
Si Si8 0.560679 0.432010 0.820855
O O1 0.060249 0.250000 0.947515
O O2 0.161254 0.499618 0.939555
O O3 0.014940 0.488486 0.872664
O O4 0.000000 0.500000 0.000000
O O5 0.750000 0.250000 0.030151
O O6 0.750000 0.009965 0.950390
O O7 0.066422 0.750000 0.331956
O O8 0.034150 0.985396 0.252012
O O9 0.160602 0.997294 0.342281
O O10 0.982149 0.993932 0.372254
O O11 0.750000 0.250000 0.513570
O O12 0.660498 0.457455 0.443416
O O13 0.750000 0.539351 0.548365
O O14 0.473947 0.750000 0.563443
O O15 0.500000 0.000000 0.500000
O O16 0.250000 0.250000 0.362027
O O17 0.750000 0.250000 0.874262
O O18 0.660270 0.501559 0.840136
O O19 0.568467 0.250000 0.823784
#
# Coordination Sequence:
#
# PCOD8245769 Si02
#       8
#     8   4   8   4   8   4   4   8
#     4  11  21  37  60  87 117 153 198 244 291 346
#     4  11  21  36  59  87 118 152 195 244 294 345
#     4  11  22  38  60  85 116 155 196 237 289 346
#     4  10  22  39  60  83 113 153 193 230 283 347
#     4  11  22  38  60  86 116 151 193 239 286 339
#     4  12  23  35  57  88 121 151 186 238 291 345
#     4   9  15  30  56  84 112 146 188 234 282 345
#     4   9  19  35  58  84 114 155 194 233 286 353
#
# _framework density 18.562477000000001
#
# number of rings (size 3 to 8) (size 9 to 14) (size 15 to 20)
#    0.000    1.500    3.333    3.000    0.000    2.000 
#    0.000    4.167    0.000    3.000    0.000    0.000 
#    0.000    0.000    0.000    0.000    0.000    0.000 
#
# Total GULP energy -595296.964399 kJ/mol
# GULP energy per Si atom -12402.020092 kJ/mol
# Density = 1.852023 g / cm^3
# Si number density = 18.562477 Si / 1000 Ang^3
#
#
#
# Elastic Constant Matrix: (Units=GPa)
#
#
# Indices 1 2 3 4 5 6 
#
# 1 160.9692 47.9686 89.3071 0.0000 0.0000 0.0000
# 2 47.9686 86.7799 52.8369 0.0000 0.0000 0.0000
# 3 89.3071 52.8369 174.8570 0.0000 0.0000 0.0000
# 4 0.0000 0.0000 0.0000 26.2835 0.0000 0.0000
# 5 0.0000 0.0000 0.0000 0.0000 36.6470 0.0000
# 6 0.0000 0.0000 0.0000 0.0000 0.0000 26.5988
#
#
#
# Elastic Compliance Matrix: (Units=1/GPa)
#
#
# Indices 1 2 3 4 5 6 
#
# 1 0.009163 -0.002715 -0.003859 0.000000 0.000000 0.000000
# 2 -0.002715 0.014926 -0.003124 0.000000 0.000000 0.000000
# 3 -0.003859 -0.003124 0.008634 0.000000 0.000000 0.000000
# 4 0.000000 0.000000 0.000000 0.038047 0.000000 0.000000
# 5 0.000000 0.000000 0.000000 0.000000 0.027287 0.000000
# 6 0.000000 0.000000 0.000000 0.000000 0.000000 0.037596
#
#
# Mechanical properties :
#
#
# Convention : Reuss Voigt Hill
#
# Bulk Modulus (GPa) = 75.03689 89.20350 82.12020
# Shear Modulus (GPa) = 31.34988 33.40543 32.37765
#
# Velocity S-wave (km/s) = 4.11406 4.24680 4.18096
# Velocity P-wave (km/s) = 7.94223 8.49748 8.22454
#
# Compressibility (1/GPa) = 0.01332678
#
# Stress axis : x y z
#
# Youngs Moduli (GPa) = 109.13897 66.99752 115.82160
#
# Poissons Ratio (x) = 0.18189 0.44700
# Poissons Ratio (y) = 0.29630 0.36178
# Poissons Ratio (z) = 0.42121 0.20927
#
# Static dielectric constant tensor:
#      x y z
#    x 3.608140 0.000000 0.000000 
#    y 0.000000 3.340070 0.000000 
#    z 0.000000 0.000000 3.625060 
# 
# 
# High freq. dielectric constant tensor:
#      x y z
#    x 1.727760 0.000000 0.000000 
#    y 0.000000 1.711300 0.000000 
#    z 0.000000 0.000000 1.721040 
# 
# From -- ./inp_files/27530.got.cif
#   From: 2010.03.12/outbox.cif.g09.slc.cpg/sg59_14_cif.got.tgz:27530.got - 2010.04.16 16:29:54.
