data_PCOD8245194
_publ_section_title
;
Structure prediction by ZEFSAII (Michael W. Deem and Ramdas Pophale) SiO2 
 PCOD8245194
Probable space group: P M M N
;
_chemical_formula_sum "Si O2"
_cell_formula_units_Z 48
_cell_length_a 30.792345
_cell_length_b 9.252753
_cell_length_c 9.012973
_cell_angle_alpha 90.000000
_cell_angle_beta 90.000000
_cell_angle_gamma 90.000000
_cell_volume 2567.921852
_symmetry_space_group_name_H-M "P M M N"
_symmetry_group_IT_number 59
_space_group.IT_coordinate_system_code '2'
_symmetry_cell_setting 'orthorhombic'
loop_
_space_group_symop_operation_xyz
x,y,z
1/2-x,1/2-y,z
1/2+x,-y,-z
-x,1/2+y,-z
-x,-y,-z
1/2+x,1/2+y,-z
1/2-x,y,z
x,1/2-y,z
loop_
_atom_site_type_symbol
_atom_site_label
_atom_site_fract_x
_atom_site_fract_y
_atom_site_fract_z
Si Si1 0.750000 0.417822 0.330147
Si Si2 0.668225 0.418421 0.131370
Si Si3 0.416594 0.582351 0.684983
Si Si4 0.666666 0.920885 0.824658
Si Si5 0.250000 0.419695 0.362474
Si Si6 0.996957 0.583927 0.347734
Si Si7 0.406812 0.585714 0.341529
O O1 0.750000 0.250000 0.371575
O O2 0.707669 0.460796 0.237751
O O3 0.750000 0.505523 0.480170
O O4 0.669559 0.250000 0.088649
O O5 0.623926 0.459685 0.214021
O O6 0.672517 0.512512 0.985640
O O7 0.428721 0.750000 0.697496
O O8 0.458105 0.491039 0.745427
O O9 0.405783 0.542263 0.514783
O O10 0.663611 0.750000 0.840343
O O11 0.707658 0.969691 0.727261
O O12 0.623071 0.977535 0.748815
O O13 0.250000 0.250000 0.389103
O O14 0.984786 0.750000 0.377229
O O15 0.044504 0.572209 0.272336
O O16 0.000000 0.500000 0.500000
O O17 0.389876 0.750000 0.322484
#
# Coordination Sequence:
#
# PCOD8245194 Si02
#       7
#     4   8   8   8   4   8   8
#     4  10  21  38  62  86 104 134 181 220 258 316
#     4  10  21  37  56  80 110 141 175 219 267 313
#     4   9  18  33  54  80 108 138 176 223 270 314
#     4  11  23  37  54  78 109 145 180 213 259 319
#     4  10  23  40  56  80 112 140 171 218 268 310
#     4   9  17  30  51  78 107 139 176 220 268 314
#     4   9  18  34  55  79 107 138 176 224 269 309
#
# _framework density 18.692157000000002
#
# number of rings (size 3 to 8) (size 9 to 14) (size 15 to 20)
#    0.000    2.333    0.000    3.500    0.000    7.333 
#    0.000    0.833    0.000    0.000    0.000    0.000 
#    0.000    0.000    0.000    0.000    0.000    0.000 
#
# Total GULP energy -595182.898060 kJ/mol
# GULP energy per Si atom -12399.643710 kJ/mol
# Density = 1.864961 g / cm^3
# Si number density = 18.692157 Si / 1000 Ang^3
#
#
#
# Elastic Constant Matrix: (Units=GPa)
#
#
# Indices 1 2 3 4 5 6 
#
# 1 151.7666 70.4356 65.2973 0.0000 0.0000 0.0000
# 2 70.4356 83.0816 52.7594 0.0000 0.0000 0.0000
# 3 65.2973 52.7594 104.5432 0.0000 0.0000 0.0000
# 4 0.0000 0.0000 0.0000 32.5151 0.0000 0.0000
# 5 0.0000 0.0000 0.0000 0.0000 -2.9920 0.0000
# 6 0.0000 0.0000 0.0000 0.0000 0.0000 31.4764
#
#
#
# Elastic Compliance Matrix: (Units=1/GPa)
#
#
# Indices 1 2 3 4 5 6 
#
# 1 0.011615 -0.007711 -0.003363 0.000000 0.000000 0.000000
# 2 -0.007711 0.022833 -0.006706 0.000000 0.000000 0.000000
# 3 -0.003363 -0.006706 0.015050 0.000000 0.000000 0.000000
# 4 0.000000 0.000000 0.000000 0.030755 0.000000 0.000000
# 5 0.000000 0.000000 0.000000 0.000000 -0.334219 0.000000
# 6 0.000000 0.000000 0.000000 0.000000 0.000000 0.031770
#
#
# Mechanical properties :
#
#
# Convention : Reuss Voigt Hill
#
# Bulk Modulus (GPa) = 71.75369 79.59731 75.67550
# Shear Modulus (GPa) = -27.47414 22.25983 -2.60716
#
# Velocity S-wave (km/s) = -3.83798 3.45463 -1.18229
# Velocity P-wave (km/s) = 4.33938 7.65430 6.22168
#
# Compressibility (1/GPa) = 0.01393657
#
# Stress axis : x y z
#
# Youngs Moduli (GPa) = 86.09684 43.79672 66.44339
#
# Poissons Ratio (x) = 0.33773 0.22344
# Poissons Ratio (y) = 0.66392 0.44560
# Poissons Ratio (z) = 0.28954 0.29372
#
# Static dielectric constant tensor:
#      x y z
#    x 4.062730 0.000000 0.000000 
#    y 0.000000 3.502600 0.000000 
#    z 0.000000 0.000000 3.223770 
# 
# 
# High freq. dielectric constant tensor:
#      x y z
#    x 1.746700 0.000000 0.000000 
#    y 0.000000 1.726900 0.000000 
#    z 0.000000 0.000000 1.703470 
# 
# From -- ./inp_files/13009.got.cif
#   From: 2010.03.12/outbox.cif.g09.slc.cpg/sg59_7_cif.got.tgz:13009.got - 2010.04.16 16:29:54.
