data_PCOD8245656
_publ_section_title
;
Structure prediction by ZEFSAII (Michael W. Deem and Ramdas Pophale) SiO2 
 PCOD8245656
Probable space group: P M M N
;
_chemical_formula_sum "Si O2"
_cell_formula_units_Z 64
_cell_length_a 14.386211
_cell_length_b 8.638352
_cell_length_c 24.041952
_cell_angle_alpha 90.000000
_cell_angle_beta 90.000000
_cell_angle_gamma 90.000000
_cell_volume 2987.769217
_symmetry_space_group_name_H-M "P M M N"
_symmetry_group_IT_number 59
_space_group.IT_coordinate_system_code '2'
_symmetry_cell_setting 'orthorhombic'
loop_
_space_group_symop_operation_xyz
x,y,z
1/2-x,1/2-y,z
1/2+x,-y,-z
-x,1/2+y,-z
-x,-y,-z
1/2+x,1/2+y,-z
1/2-x,y,z
x,1/2-y,z
loop_
_atom_site_type_symbol
_atom_site_label
_atom_site_fract_x
_atom_site_fract_y
_atom_site_fract_z
Si Si1 0.856240 0.071749 0.970788
Si Si2 0.148231 0.579065 0.611706
Si Si3 0.857447 0.567715 0.651460
Si Si4 0.033178 0.069961 0.129278
Si Si5 0.647925 0.422742 0.257298
Si Si6 0.518256 0.071621 0.559732
Si Si7 0.856261 0.569157 0.087364
Si Si8 0.040531 0.570791 0.241945
O O1 0.750000 0.041516 0.953470
O O2 0.873777 0.250000 0.986474
O O3 0.919680 0.026382 0.919408
O O4 0.883617 0.968764 0.023822
O O5 0.250000 0.540324 0.586555
O O6 0.115810 0.750000 0.590495
O O7 0.154903 0.582589 0.677090
O O8 0.076926 0.447216 0.593717
O O9 0.750000 0.518137 0.655040
O O10 0.870388 0.750000 0.655700
O O11 0.897896 0.511758 0.592409
O O12 0.913460 0.493026 0.702197
O O13 0.050209 0.250000 0.119795
O O14 0.079535 0.018828 0.187811
O O15 0.922989 0.027601 0.128731
O O16 0.750000 0.470708 0.233438
O O17 0.619859 0.250000 0.235661
O O18 0.570684 0.547415 0.241010
O O19 0.544462 0.250000 0.554238
O O20 0.500000 0.000000 0.500000
O O21 0.750000 0.518326 0.099064
O O22 0.871218 0.750000 0.098018
O O23 0.064609 0.750000 0.236628
#
# Coordination Sequence:
#
# PCOD8245656 Si02
#       8
#     8   8   8   8   8   8   8   8
#     4  10  21  39  63  90 122 160 205 259 317 377
#     4   9  18  35  61  90 122 158 195 241 296 356
#     4  11  25  47  72  95 125 167 213 260 312 372
#     4  12  25  40  61  88 123 166 211 261 313 371
#     4   9  18  35  61  89 119 157 197 239 294 361
#     4  12  25  41  65  96 130 167 206 256 309 365
#     4  10  21  39  63  91 125 164 207 257 314 378
#     4  12  25  41  63  92 126 164 208 260 313 371
#
# _framework density 21.420663999999999
#
# number of rings (size 3 to 8) (size 9 to 14) (size 15 to 20)
#    0.000    1.375    1.250    5.625    0.000    4.500 
#    0.000    1.250    0.000    0.000    0.000    0.000 
#    0.000    0.000    0.000    0.000    0.000    0.000 
#
# Total GULP energy -793664.918433 kJ/mol
# GULP energy per Si atom -12401.014351 kJ/mol
# Density = 2.137191 g / cm^3
# Si number density = 21.420664 Si / 1000 Ang^3
#
#
#
# Elastic Constant Matrix: (Units=GPa)
#
#
# Indices 1 2 3 4 5 6 
#
# 1 88.3144 25.5893 23.3713 0.0000 0.0000 0.0000
# 2 25.5893 89.3183 20.1768 0.0000 0.0000 0.0000
# 3 23.3713 20.1768 87.9129 0.0000 0.0000 0.0000
# 4 0.0000 0.0000 0.0000 35.8786 0.0000 0.0000
# 5 0.0000 0.0000 0.0000 0.0000 12.1379 0.0000
# 6 0.0000 0.0000 0.0000 0.0000 0.0000 23.6459
#
#
#
# Elastic Compliance Matrix: (Units=1/GPa)
#
#
# Indices 1 2 3 4 5 6 
#
# 1 0.012941 -0.003091 -0.002731 0.000000 0.000000 0.000000
# 2 -0.003091 0.012546 -0.002058 0.000000 0.000000 0.000000
# 3 -0.002731 -0.002058 0.012573 0.000000 0.000000 0.000000
# 4 0.000000 0.000000 0.000000 0.027872 0.000000 0.000000
# 5 0.000000 0.000000 0.000000 0.000000 0.082386 0.000000
# 6 0.000000 0.000000 0.000000 0.000000 0.000000 0.042291
#
#
# Mechanical properties :
#
#
# Convention : Reuss Voigt Hill
#
# Bulk Modulus (GPa) = 44.83964 44.86891 44.85427
# Shear Modulus (GPa) = 23.38603 27.42635 25.40619
#
# Velocity S-wave (km/s) = 3.30775 3.58211 3.44766
# Velocity P-wave (km/s) = 5.96377 6.17257 6.06907
#
# Compressibility (1/GPa) = 0.02230170
#
# Stress axis : x y z
#
# Youngs Moduli (GPa) = 77.27092 79.70506 79.53403
#
# Poissons Ratio (x) = 0.24635 0.21721
# Poissons Ratio (y) = 0.23882 0.16367
# Poissons Ratio (z) = 0.21103 0.16402
#
# Static dielectric constant tensor:
#      x y z
#    x 3.682250 0.000000 0.000000 
#    y 0.000000 -8.877400 0.000000 
#    z 0.000000 0.000000 4.009100 
# 
# 
# High freq. dielectric constant tensor:
#      x y z
#    x 1.843090 0.000000 0.000000 
#    y 0.000000 1.839960 0.000000 
#    z 0.000000 0.000000 1.843390 
# 
# From -- ./inp_files/32206.got.cif
#   From: 2010.03.12/outbox.cif.g09.slc.cpg/sg59_17_cif.got.tgz:32206.got - 2010.04.16 16:29:54.
