data_PCOD8245120
_publ_section_title
;
Structure prediction by ZEFSAII (Michael W. Deem and Ramdas Pophale) SiO2 
 PCOD8245120
Probable space group: P M M N
;
_chemical_formula_sum "Si O2"
_cell_formula_units_Z 64
_cell_length_a 20.018564
_cell_length_b 9.177930
_cell_length_c 20.245259
_cell_angle_alpha 90.000000
_cell_angle_beta 90.000000
_cell_angle_gamma 90.000000
_cell_volume 3719.640768
_symmetry_space_group_name_H-M "P M M N"
_symmetry_group_IT_number 59
_space_group.IT_coordinate_system_code '2'
_symmetry_cell_setting 'orthorhombic'
loop_
_space_group_symop_operation_xyz
x,y,z
1/2-x,1/2-y,z
1/2+x,-y,-z
-x,1/2+y,-z
-x,-y,-z
1/2+x,1/2+y,-z
1/2-x,y,z
x,1/2-y,z
loop_
_atom_site_type_symbol
_atom_site_label
_atom_site_fract_x
_atom_site_fract_y
_atom_site_fract_z
Si Si1 0.056958 0.585544 0.698965
Si Si2 0.898742 0.585391 0.681077
Si Si3 0.586574 0.085162 0.554593
Si Si4 0.326970 0.917262 0.054571
Si Si5 0.935173 0.920288 0.027032
Si Si6 0.539751 0.583340 0.175133
Si Si7 0.613694 0.417715 0.808179
Si Si8 0.428287 0.085204 0.572588
O O1 0.084220 0.750000 0.696870
O O2 0.075371 0.515672 0.769625
O O3 0.091999 0.494540 0.640570
O O4 0.977943 0.581102 0.689330
O O5 0.872643 0.750000 0.673486
O O6 0.878083 0.495315 0.616041
O O7 0.864684 0.513726 0.745311
O O8 0.613620 0.250000 0.550205
O O9 0.507458 0.084987 0.563864
O O10 0.606119 0.000290 0.487832
O O11 0.250000 0.940774 0.036885
O O12 0.349489 0.750000 0.043445
O O13 0.338524 0.959189 0.131039
O O14 0.368758 0.021032 0.007171
O O15 0.943616 0.750000 0.012206
O O16 0.926660 0.949966 0.104924
O O17 0.000000 0.000000 0.000000
O O18 0.549877 0.750000 0.196815
O O19 0.461457 0.546942 0.168941
O O20 0.621325 0.250000 0.787220
O O21 0.400889 0.250000 0.574086
#
# Coordination Sequence:
#
# PCOD8245120 Si02
#       8
#     8   8   8   8   8   8   8   8
#     4   9  16  24  35  54  78 106 142 184 226 273
#     4   9  16  24  35  54  77 104 142 186 227 268
#     4   9  15  22  32  47  69 102 142 182 221 265
#     4  10  21  37  54  73  99 130 163 201 249 302
#     4  11  21  34  53  75  99 126 162 204 249 299
#     4   9  17  29  44  63  87 116 150 192 237 284
#     4   9  16  29  45  62  86 117 151 189 234 283
#     4   9  15  22  32  46  70 105 141 179 221 268
#
# _framework density 17.205964000000002
#
# number of rings (size 3 to 8) (size 9 to 14) (size 15 to 20)
#    0.000    2.625    1.250    1.875    0.000    7.750 
#    0.000    0.000    0.000    0.000    0.000    0.000 
#    0.000    0.000    0.000    1.125    0.000   19.750 
#
# Total GULP energy -793590.014939 kJ/mol
# GULP energy per Si atom -12399.843983 kJ/mol
# Density = 1.716680 g / cm^3
# Si number density = 17.205964 Si / 1000 Ang^3
#
#
#
# Elastic Constant Matrix: (Units=GPa)
#
#
# Indices 1 2 3 4 5 6 
#
# 1 29.6965 25.2936 29.6913 0.0000 0.0000 0.0000
# 2 25.2936 148.0944 91.6880 0.0000 0.0000 0.0000
# 3 29.6913 91.6880 142.9202 0.0000 0.0000 0.0000
# 4 0.0000 0.0000 0.0000 39.9701 0.0000 0.0000
# 5 0.0000 0.0000 0.0000 0.0000 10.4614 0.0000
# 6 0.0000 0.0000 0.0000 0.0000 0.0000 11.8822
#
#
#
# Elastic Compliance Matrix: (Units=1/GPa)
#
#
# Indices 1 2 3 4 5 6 
#
# 1 0.043306 -0.003030 -0.007053 0.000000 0.000000 0.000000
# 2 -0.003030 0.011413 -0.006693 0.000000 0.000000 0.000000
# 3 -0.007053 -0.006693 0.012756 0.000000 0.000000 0.000000
# 4 0.000000 0.000000 0.000000 0.025019 0.000000 0.000000
# 5 0.000000 0.000000 0.000000 0.000000 0.095589 0.000000
# 6 0.000000 0.000000 0.000000 0.000000 0.000000 0.084160
#
#
# Mechanical properties :
#
#
# Convention : Reuss Voigt Hill
#
# Bulk Modulus (GPa) = 29.47719 68.22854 48.85287
# Shear Modulus (GPa) = 15.76776 24.06529 19.91653
#
# Velocity S-wave (km/s) = 3.03051 3.74392 3.40595
# Velocity P-wave (km/s) = 5.42351 7.64391 6.62736
#
# Compressibility (1/GPa) = 0.03392453
#
# Stress axis : x y z
#
# Youngs Moduli (GPa) = 23.09128 87.61567 78.39590
#
# Poissons Ratio (x) = 0.26545 0.55294
# Poissons Ratio (y) = 0.06996 0.52468
# Poissons Ratio (z) = 0.16287 0.58639
#
# Static dielectric constant tensor:
#      x y z
#    x 2.515820 0.000000 0.000000 
#    y 0.000000 3.386280 0.000000 
#    z 0.000000 0.000000 3.402830 
# 
# 
# High freq. dielectric constant tensor:
#      x y z
#    x 1.579000 0.000000 0.000000 
#    y 0.000000 1.677450 0.000000 
#    z 0.000000 0.000000 1.679850 
# 
# From -- ./inp_files/30895.got.cif
#   From: 2010.03.12/outbox.cif.g09.slc.cpg/sg59_16_cif.got.tgz:30895.got - 2010.04.16 16:29:54.
