data_PCOD8245449
_publ_section_title
;
Structure prediction by ZEFSAII (Michael W. Deem and Ramdas Pophale) SiO2 
 PCOD8245449
Probable space group: P M M N
;
_chemical_formula_sum "Si O2"
_cell_formula_units_Z 56
_cell_length_a 8.753499
_cell_length_b 14.597015
_cell_length_c 21.473345
_cell_angle_alpha 90.000000
_cell_angle_beta 90.000000
_cell_angle_gamma 90.000000
_cell_volume 2743.755717
_symmetry_space_group_name_H-M "P M M N"
_symmetry_group_IT_number 59
_space_group.IT_coordinate_system_code '2'
_symmetry_cell_setting 'orthorhombic'
loop_
_space_group_symop_operation_xyz
x,y,z
1/2-x,1/2-y,z
1/2+x,-y,-z
-x,1/2+y,-z
-x,-y,-z
1/2+x,1/2+y,-z
1/2-x,y,z
x,1/2-y,z
loop_
_atom_site_type_symbol
_atom_site_label
_atom_site_fract_x
_atom_site_fract_y
_atom_site_fract_z
Si Si1 0.429804 0.012069 0.781704
Si Si2 0.071789 0.356436 0.144209
Si Si3 0.578412 0.358790 0.017563
Si Si4 0.570804 0.854680 0.108065
Si Si5 0.573822 0.642866 0.446317
Si Si6 0.429502 0.510676 0.348993
Si Si7 0.428102 0.854890 0.576428
O O1 0.250000 0.014074 0.769729
O O2 0.479975 0.910920 0.803026
O O3 0.515917 0.040440 0.719089
O O4 0.481411 0.086052 0.833029
O O5 0.250000 0.375290 0.152124
O O6 0.030949 0.250000 0.153008
O O7 0.020047 0.392300 0.076353
O O8 0.750000 0.396136 0.025754
O O9 0.574214 0.250000 0.014110
O O10 0.507912 0.397248 0.953498
O O11 0.750000 0.860980 0.096827
O O12 0.519412 0.750000 0.120191
O O13 0.750000 0.613878 0.439150
O O14 0.549278 0.750000 0.435153
O O15 0.472540 0.591359 0.395949
O O16 0.518475 0.614504 0.514823
O O17 0.250000 0.494195 0.349775
O O18 0.513556 0.416206 0.366753
O O19 0.250000 0.871360 0.564386
O O20 0.463102 0.750000 0.593831
#
# Coordination Sequence:
#
# PCOD8245449 Si02
#       7
#     8   8   8   8   8   8   8
#     4  11  24  40  58  82 112 150 195 236 281 339
#     4  10  21  38  59  82 111 147 187 234 287 341
#     4   9  17  31  55  85 112 141 181 230 283 336
#     4   9  19  37  59  82 110 144 183 230 283 338
#     4  10  21  39  64  92 121 153 191 236 285 336
#     4  12  25  40  59  84 119 158 195 237 284 340
#     4  10  21  39  64  92 120 151 191 238 286 337
#
# _framework density 20.409979
#
# number of rings (size 3 to 8) (size 9 to 14) (size 15 to 20)
#    0.000    1.857    0.000    3.857    0.000    7.143 
#    0.000    1.429    0.000    0.000    0.000    0.000 
#    0.000    0.000    0.000    0.000    0.000    0.000 
#
# Total GULP energy -694708.648211 kJ/mol
# GULP energy per Si atom -12405.511575 kJ/mol
# Density = 2.036353 g / cm^3
# Si number density = 20.409979 Si / 1000 Ang^3
#
#
#
# Elastic Constant Matrix: (Units=GPa)
#
#
# Indices 1 2 3 4 5 6 
#
# 1 67.7001 19.1722 14.6834 0.0000 0.0000 0.0000
# 2 19.1722 48.5977 15.4370 0.0000 0.0000 0.0000
# 3 14.6834 15.4370 78.6689 0.0000 0.0000 0.0000
# 4 0.0000 0.0000 0.0000 25.0468 0.0000 0.0000
# 5 0.0000 0.0000 0.0000 0.0000 41.3070 0.0000
# 6 0.0000 0.0000 0.0000 0.0000 0.0000 28.2520
#
#
#
# Elastic Compliance Matrix: (Units=1/GPa)
#
#
# Indices 1 2 3 4 5 6 
#
# 1 0.016910 -0.006046 -0.001970 0.000000 0.000000 0.000000
# 2 -0.006046 0.024106 -0.003602 0.000000 0.000000 0.000000
# 3 -0.001970 -0.003602 0.013786 0.000000 0.000000 0.000000
# 4 0.000000 0.000000 0.000000 0.039925 0.000000 0.000000
# 5 0.000000 0.000000 0.000000 0.000000 0.024209 0.000000
# 6 0.000000 0.000000 0.000000 0.000000 0.000000 0.035396
#
#
# Mechanical properties :
#
#
# Convention : Reuss Voigt Hill
#
# Bulk Modulus (GPa) = 31.67790 32.61688 32.14739
# Shear Modulus (GPa) = 26.58302 28.63277 27.60789
#
# Velocity S-wave (km/s) = 3.61287 3.74957 3.68185
# Velocity P-wave (km/s) = 5.74092 5.89587 5.81891
#
# Compressibility (1/GPa) = 0.03156775
#
# Stress axis : x y z
#
# Youngs Moduli (GPa) = 59.13541 41.48296 72.53738
#
# Poissons Ratio (x) = 0.25079 0.14290
# Poissons Ratio (y) = 0.35750 0.26127
# Poissons Ratio (z) = 0.11650 0.14942
#
# Static dielectric constant tensor:
#      x y z
#    x 3.745390 0.000000 0.000000 
#    y 0.000000 3.703780 0.000000 
#    z 0.000000 0.000000 3.696680 
# 
# 
# High freq. dielectric constant tensor:
#      x y z
#    x 1.805990 0.000000 0.000000 
#    y 0.000000 1.799000 0.000000 
#    z 0.000000 0.000000 1.796540 
# 
# From -- ./inp_files/29011.got.cif
#   From: 2010.03.12/outbox.cif.g09.slc.cpg/sg59_15_cif.got.tgz:29011.got - 2010.04.16 16:29:54.
