data_PCOD8245586
_publ_section_title
;
Structure prediction by ZEFSAII (Michael W. Deem and Ramdas Pophale) SiO2 
 PCOD8245586
Probable space group: P M M N
;
_chemical_formula_sum "Si O2"
_cell_formula_units_Z 56
_cell_length_a 14.807064
_cell_length_b 8.598550
_cell_length_c 21.348483
_cell_angle_alpha 90.000000
_cell_angle_beta 90.000000
_cell_angle_gamma 90.000000
_cell_volume 2718.073488
_symmetry_space_group_name_H-M "P M M N"
_symmetry_group_IT_number 59
_space_group.IT_coordinate_system_code '2'
_symmetry_cell_setting 'orthorhombic'
loop_
_space_group_symop_operation_xyz
x,y,z
1/2-x,1/2-y,z
1/2+x,-y,-z
-x,1/2+y,-z
-x,-y,-z
1/2+x,1/2+y,-z
1/2-x,y,z
x,1/2-y,z
loop_
_atom_site_type_symbol
_atom_site_label
_atom_site_fract_x
_atom_site_fract_y
_atom_site_fract_z
Si Si1 0.648650 0.929554 0.926441
Si Si2 0.250000 0.076525 0.736496
Si Si3 0.250000 0.424000 0.884320
Si Si4 0.027898 0.570630 0.155514
Si Si5 0.144704 0.068271 0.492502
Si Si6 0.086009 0.570765 0.949581
Si Si7 0.058815 0.931205 0.721813
Si Si8 0.000700 0.930635 0.403551
O O1 0.750000 0.967519 0.949255
O O2 0.637046 0.750000 0.909165
O O3 0.632477 0.033925 0.862043
O O4 0.584723 0.970524 0.986786
O O5 0.250000 0.250000 0.706961
O O6 0.250000 0.088226 0.810274
O O7 0.161108 0.988408 0.712952
O O8 0.250000 0.250000 0.913757
O O9 0.165588 0.522199 0.903977
O O10 0.000327 0.750000 0.147570
O O11 0.995528 0.463481 0.097369
O O12 0.993717 0.517175 0.222529
O O13 0.250000 0.015225 0.499349
O O14 0.139393 0.250000 0.476526
O O15 0.088760 0.031316 0.555624
O O16 0.094644 0.974465 0.437441
O O17 0.092041 0.750000 0.968722
O O18 0.058644 0.750000 0.736457
O O19 0.004195 0.967323 0.658889
O O20 0.003782 0.750000 0.385694
#
# Coordination Sequence:
#
# PCOD8245586 Si02
#       8
#     8   4   4   8   8   8   8   8
#     4  11  24  42  63  85 114 149 192 246 306 365
#     4  11  23  39  61  87 122 162 201 244 303 366
#     4  11  21  35  57  85 118 156 193 240 301 360
#     4  12  25  42  62  85 117 154 197 246 301 360
#     4   9  19  38  64  94 129 171 211 253 304 357
#     4  12  23  37  60  87 117 151 195 244 299 362
#     4  12  25  41  62  90 124 162 205 249 298 360
#     4  10  21  38  62  94 131 169 208 256 306 356
#
# _framework density 20.602827999999999
#
# number of rings (size 3 to 8) (size 9 to 14) (size 15 to 20)
#    0.000    1.000    2.143    5.571    1.000    2.286 
#    0.000    0.714    0.000    4.286    0.000    0.000 
#    0.000    0.000    0.000    0.000    0.000    0.000 
#
# Total GULP energy -694197.210237 kJ/mol
# GULP energy per Si atom -12396.378754 kJ/mol
# Density = 2.055594 g / cm^3
# Si number density = 20.602828 Si / 1000 Ang^3
#
#
#
# Elastic Constant Matrix: (Units=GPa)
#
#
# Indices 1 2 3 4 5 6 
#
# 1 89.1745 21.4546 44.0809 0.0000 0.0000 0.0000
# 2 21.4546 110.6448 31.0998 0.0000 0.0000 0.0000
# 3 44.0809 31.0998 99.5108 0.0000 0.0000 0.0000
# 4 0.0000 0.0000 0.0000 35.1145 0.0000 0.0000
# 5 0.0000 0.0000 0.0000 0.0000 33.2324 0.0000
# 6 0.0000 0.0000 0.0000 0.0000 0.0000 33.4783
#
#
#
# Elastic Compliance Matrix: (Units=1/GPa)
#
#
# Indices 1 2 3 4 5 6 
#
# 1 0.014479 -0.001102 -0.006070 0.000000 0.000000 0.000000
# 2 -0.001102 0.009992 -0.002635 0.000000 0.000000 0.000000
# 3 -0.006070 -0.002635 0.013561 0.000000 0.000000 0.000000
# 4 0.000000 0.000000 0.000000 0.028478 0.000000 0.000000
# 5 0.000000 0.000000 0.000000 0.000000 0.030091 0.000000
# 6 0.000000 0.000000 0.000000 0.000000 0.000000 0.029870
#
#
# Mechanical properties :
#
#
# Convention : Reuss Voigt Hill
#
# Bulk Modulus (GPa) = 54.28710 54.73341 54.51025
# Shear Modulus (GPa) = 32.84613 33.87802 33.36208
#
# Velocity S-wave (km/s) = 3.99714 4.05944 4.02841
# Velocity P-wave (km/s) = 6.90720 6.97107 6.93921
#
# Compressibility (1/GPa) = 0.01842058
#
# Stress axis : x y z
#
# Youngs Moduli (GPa) = 69.06359 100.07882 73.73884
#
# Poissons Ratio (x) = 0.11024 0.44758
# Poissons Ratio (y) = 0.07608 0.19429
# Poissons Ratio (z) = 0.41920 0.26369
#
# Static dielectric constant tensor:
#      x y z
#    x 4.251710 0.000000 0.000000 
#    y 0.000000 3.763960 0.000000 
#    z 0.000000 0.000000 3.611170 
# 
# 
# High freq. dielectric constant tensor:
#      x y z
#    x 1.818020 0.000000 0.000000 
#    y 0.000000 1.812710 0.000000 
#    z 0.000000 0.000000 1.798840 
# 
# From -- ./inp_files/30493.got.cif
#   From: 2010.03.12/outbox.cif.g09.slc.cpg/sg59_16_cif.got.tgz:30493.got - 2010.04.16 16:29:54.
