data_PCOD8245076
_publ_section_title
;
Structure prediction by ZEFSAII (Michael W. Deem and Ramdas Pophale) SiO2 
 PCOD8245076
Probable space group: P M M N
;
_chemical_formula_sum "Si O2"
_cell_formula_units_Z 56
_cell_length_a 14.254852
_cell_length_b 8.947070
_cell_length_c 21.925997
_cell_angle_alpha 90.000000
_cell_angle_beta 90.000000
_cell_angle_gamma 90.000000
_cell_volume 2796.423211
_symmetry_space_group_name_H-M "P M M N"
_symmetry_group_IT_number 59
_space_group.IT_coordinate_system_code '2'
_symmetry_cell_setting 'orthorhombic'
loop_
_space_group_symop_operation_xyz
x,y,z
1/2-x,1/2-y,z
1/2+x,-y,-z
-x,1/2+y,-z
-x,-y,-z
1/2+x,1/2+y,-z
1/2-x,y,z
x,1/2-y,z
loop_
_atom_site_type_symbol
_atom_site_label
_atom_site_fract_x
_atom_site_fract_y
_atom_site_fract_z
Si Si1 0.509484 0.078389 0.435688
Si Si2 0.550496 0.571383 0.210879
Si Si3 0.853324 0.086501 0.623277
Si Si4 0.641892 0.576395 0.976141
Si Si5 0.047269 0.575674 0.911627
Si Si6 0.858902 0.075667 0.328308
Si Si7 0.348770 0.580146 0.233009
O O1 0.527618 0.250000 0.448763
O O2 0.590598 0.016439 0.390143
O O3 0.500000 0.000000 0.500000
O O4 0.411953 0.051415 0.401766
O O5 0.553248 0.750000 0.213851
O O6 0.589443 0.511486 0.146885
O O7 0.607392 0.511761 0.268573
O O8 0.444204 0.503309 0.210647
O O9 0.750000 0.072541 0.594841
O O10 0.895772 0.250000 0.605042
O O11 0.849525 0.074212 0.694915
O O12 0.750000 0.539138 0.955567
O O13 0.633645 0.750000 0.994753
O O14 0.613613 0.475753 0.033392
O O15 0.564089 0.540367 0.923670
O O16 0.062743 0.750000 0.900980
O O17 0.750000 0.044040 0.337548
O O18 0.881384 0.250000 0.318382
O O19 0.250000 0.504083 0.209966
O O20 0.348734 0.750000 0.209818
#
# Coordination Sequence:
#
# PCOD8245076 Si02
#       7
#     8   8   8   8   8   8   8
#     4  11  23  38  59  85 114 147 190 239 290 345
#     4  11  21  35  59  87 117 151 191 236 282 338
#     4   9  17  33  57  81 108 142 178 220 276 337
#     4   9  19  38  61  83 112 151 196 243 286 331
#     4  10  21  36  56  85 119 153 191 235 288 343
#     4  10  23  43  62  81 111 152 195 239 288 339
#     4   8  15  29  51  79 109 141 176 217 271 334
#
# _framework density 20.025580000000001
#
# number of rings (size 3 to 8) (size 9 to 14) (size 15 to 20)
#    0.000    2.286    1.429    2.143    0.000    3.714 
#    0.000    1.429    0.000    1.286    0.000    0.000 
#    0.000    0.000    0.000    0.000    0.000    0.000 
#
# Total GULP energy -693813.897725 kJ/mol
# GULP energy per Si atom -12389.533888 kJ/mol
# Density = 1.998000 g / cm^3
# Si number density = 20.025580 Si / 1000 Ang^3
#
#
#
# Elastic Constant Matrix: (Units=GPa)
#
#
# Indices 1 2 3 4 5 6 
#
# 1 87.9389 31.7115 40.3897 0.0000 0.0000 0.0000
# 2 31.7115 60.4695 47.5347 0.0000 0.0000 0.0000
# 3 40.3897 47.5347 114.4537 0.0000 0.0000 0.0000
# 4 0.0000 0.0000 0.0000 29.8637 0.0000 0.0000
# 5 0.0000 0.0000 0.0000 0.0000 69.5361 0.0000
# 6 0.0000 0.0000 0.0000 0.0000 0.0000 28.3578
#
#
#
# Elastic Compliance Matrix: (Units=1/GPa)
#
#
# Indices 1 2 3 4 5 6 
#
# 1 0.014661 -0.005377 -0.002941 0.000000 0.000000 0.000000
# 2 -0.005377 0.026525 -0.009119 0.000000 0.000000 0.000000
# 3 -0.002941 -0.009119 0.013562 0.000000 0.000000 0.000000
# 4 0.000000 0.000000 0.000000 0.033485 0.000000 0.000000
# 5 0.000000 0.000000 0.000000 0.000000 0.014381 0.000000
# 6 0.000000 0.000000 0.000000 0.000000 0.000000 0.035264
#
#
# Mechanical properties :
#
#
# Convention : Reuss Voigt Hill
#
# Bulk Modulus (GPa) = 50.31321 55.79267 53.05294
# Shear Modulus (GPa) = 27.87420 35.09994 31.48707
#
# Velocity S-wave (km/s) = 3.73491 4.19113 3.96958
# Velocity P-wave (km/s) = 6.61652 7.16533 6.89639
#
# Compressibility (1/GPa) = 0.01987550
#
# Stress axis : x y z
#
# Youngs Moduli (GPa) = 68.20759 37.69963 73.73456
#
# Poissons Ratio (x) = 0.20271 0.21683
# Poissons Ratio (y) = 0.36675 0.67239
# Poissons Ratio (z) = 0.20057 0.34378
#
# Static dielectric constant tensor:
#      x y z
#    x 3.905370 0.000000 0.000000 
#    y 0.000000 3.477890 0.000000 
#    z 0.000000 0.000000 3.303280 
# 
# 
# High freq. dielectric constant tensor:
#      x y z
#    x 1.787790 0.000000 0.000000 
#    y 0.000000 1.763020 0.000000 
#    z 0.000000 0.000000 1.776410 
# 
# From -- ./inp_files/30334.got.cif
#   From: 2010.03.12/outbox.cif.g09.slc.cpg/sg59_16_cif.got.tgz:30334.got - 2010.04.16 16:29:54.
