data_PCOD8245403
_publ_section_title
;
Structure prediction by ZEFSAII (Michael W. Deem and Ramdas Pophale) SiO2 
 PCOD8245403
Probable space group: P M M N
;
_chemical_formula_sum "Si O2"
_cell_formula_units_Z 32
_cell_length_a 9.712150
_cell_length_b 8.246615
_cell_length_c 18.860350
_cell_angle_alpha 90.000000
_cell_angle_beta 90.000000
_cell_angle_gamma 90.000000
_cell_volume 1510.569977
_symmetry_space_group_name_H-M "P M M N"
_symmetry_group_IT_number 59
_space_group.IT_coordinate_system_code '2'
_symmetry_cell_setting 'orthorhombic'
loop_
_space_group_symop_operation_xyz
x,y,z
1/2-x,1/2-y,z
1/2+x,-y,-z
-x,1/2+y,-z
-x,-y,-z
1/2+x,1/2+y,-z
1/2-x,y,z
x,1/2-y,z
loop_
_atom_site_type_symbol
_atom_site_label
_atom_site_fract_x
_atom_site_fract_y
_atom_site_fract_z
Si Si1 0.532673 0.061477 0.153804
Si Si2 0.592978 0.557540 0.564547
Si Si3 0.750000 0.933865 0.048482
Si Si4 0.750000 0.062179 0.896071
Si Si5 0.096823 0.557569 0.689645
O O1 0.572575 0.250000 0.148377
O O2 0.567812 0.991534 0.231530
O O3 0.615449 0.962860 0.095094
O O4 0.374603 0.033365 0.138741
O O5 0.500000 0.500000 0.500000
O O6 0.750000 0.488904 0.560077
O O7 0.597324 0.750000 0.565239
O O8 0.518414 0.489600 0.635547
O O9 0.750000 0.750000 0.020656
O O10 0.750000 0.051092 0.981011
O O11 0.750000 0.250000 0.874219
O O12 0.250000 0.500929 0.665608
O O13 0.088190 0.750000 0.690524
#
# Coordination Sequence:
#
# PCOD8245403 Si02
#       5
#     8   8   4   4   8
#     4  11  22  40  65  92 120 159 208 256 309 371
#     4  10  21  37  61  92 125 161 204 248 295 354
#     4  12  24  42  64  90 123 162 203 254 313 370
#     4  12  26  42  60  88 125 162 205 258 313 370
#     4   9  18  35  61  89 117 155 202 250 299 361
#
# _framework density 21.184056999999999
#
# number of rings (size 3 to 8) (size 9 to 14) (size 15 to 20)
#    0.000    1.500    1.250    4.500    1.750    1.500 
#    0.000    2.500    0.000    0.000    0.000    0.000 
#    0.000    0.000    0.000    0.000    0.000    0.000 
#
# Total GULP energy -396848.735439 kJ/mol
# GULP energy per Si atom -12401.522982 kJ/mol
# Density = 2.113584 g / cm^3
# Si number density = 21.184057 Si / 1000 Ang^3
#
#
#
# Elastic Constant Matrix: (Units=GPa)
#
#
# Indices 1 2 3 4 5 6 
#
# 1 183.8232 3.2262 62.9678 0.0000 0.0000 0.0000
# 2 3.2262 41.9793 5.3399 0.0000 0.0000 0.0000
# 3 62.9678 5.3399 124.9030 0.0000 0.0000 0.0000
# 4 0.0000 0.0000 0.0000 26.8555 0.0000 0.0000
# 5 0.0000 0.0000 0.0000 0.0000 47.0839 0.0000
# 6 0.0000 0.0000 0.0000 0.0000 0.0000 51.6055
#
#
#
# Elastic Compliance Matrix: (Units=1/GPa)
#
#
# Indices 1 2 3 4 5 6 
#
# 1 0.006576 -0.000084 -0.003311 0.000000 0.000000 0.000000
# 2 -0.000084 0.023953 -0.000982 0.000000 0.000000 0.000000
# 3 -0.003311 -0.000982 0.009718 0.000000 0.000000 0.000000
# 4 0.000000 0.000000 0.000000 0.037236 0.000000 0.000000
# 5 0.000000 0.000000 0.000000 0.000000 0.021239 0.000000
# 6 0.000000 0.000000 0.000000 0.000000 0.000000 0.019378
#
#
# Mechanical properties :
#
#
# Convention : Reuss Voigt Hill
#
# Bulk Modulus (GPa) = 31.75453 54.86369 43.30911
# Shear Modulus (GPa) = 36.40321 43.72043 40.06182
#
# Velocity S-wave (km/s) = 4.14989 4.54787 4.35343
# Velocity P-wave (km/s) = 6.16315 7.31658 6.76450
#
# Compressibility (1/GPa) = 0.03149157
#
# Stress axis : x y z
#
# Youngs Moduli (GPa) = 152.07221 41.74912 102.90592
#
# Poissons Ratio (x) = 0.00351 0.34077
# Poissons Ratio (y) = 0.01279 0.10101
# Poissons Ratio (z) = 0.50359 0.04098
#
# Static dielectric constant tensor:
#      x y z
#    x 4.499800 0.000000 0.000000 
#    y 0.000000 3.449660 0.000000 
#    z 0.000000 0.000000 4.016730 
# 
# 
# High freq. dielectric constant tensor:
#      x y z
#    x 1.850150 0.000000 0.000000 
#    y 0.000000 1.800680 0.000000 
#    z 0.000000 0.000000 1.839980 
# 
# From -- ./inp_files/28580.got.cif
#   From: 2010.03.12/outbox.cif.g09.slc.cpg/sg59_15_cif.got.tgz:28580.got - 2010.04.16 16:29:54.
