data_PCOD8245179
_publ_section_title
;
Structure prediction by ZEFSAII (Michael W. Deem and Ramdas Pophale) SiO2 
 PCOD8245179
Probable space group: P M M N
;
_chemical_formula_sum "Si O2"
_cell_formula_units_Z 56
_cell_length_a 14.154925
_cell_length_b 8.806470
_cell_length_c 23.018372
_cell_angle_alpha 90.000000
_cell_angle_beta 90.000000
_cell_angle_gamma 90.000000
_cell_volume 2869.353375
_symmetry_space_group_name_H-M "P M M N"
_symmetry_group_IT_number 59
_space_group.IT_coordinate_system_code '2'
_symmetry_cell_setting 'orthorhombic'
loop_
_space_group_symop_operation_xyz
x,y,z
1/2-x,1/2-y,z
1/2+x,-y,-z
-x,1/2+y,-z
-x,-y,-z
1/2+x,1/2+y,-z
1/2-x,y,z
x,1/2-y,z
loop_
_atom_site_type_symbol
_atom_site_label
_atom_site_fract_x
_atom_site_fract_y
_atom_site_fract_z
Si Si1 0.643382 0.928938 0.025922
Si Si2 0.452721 0.929474 0.083059
Si Si3 0.900316 0.570825 0.485020
Si Si4 0.460276 0.075513 0.306360
Si Si5 0.352225 0.919813 0.404879
Si Si6 0.357039 0.929495 0.199923
Si Si7 0.854992 0.077195 0.365781
O O1 0.750000 0.980266 0.045008
O O2 0.640653 0.750000 0.017022
O O3 0.617213 0.003555 0.964903
O O4 0.562920 0.978409 0.072990
O O5 0.443172 0.750000 0.079868
O O6 0.415998 0.992436 0.144816
O O7 0.898857 0.750000 0.493675
O O8 0.832533 0.490872 0.531729
O O9 0.869043 0.534414 0.419803
O O10 0.000000 0.500000 0.500000
O O11 0.437635 0.250000 0.292516
O O12 0.572547 0.043700 0.312741
O O13 0.418860 0.030762 0.368813
O O14 0.414514 0.973933 0.256916
O O15 0.250000 0.909054 0.373929
O O16 0.397186 0.750000 0.408929
O O17 0.250000 0.996503 0.200362
O O18 0.351506 0.750000 0.197560
O O19 0.750000 0.053300 0.340258
O O20 0.870405 0.250000 0.387722
#
# Coordination Sequence:
#
# PCOD8245179 Si02
#       7
#     8   8   8   8   8   8   8
#     4   9  17  30  51  81 115 147 181 227 278 321
#     4   9  18  33  53  78 110 149 189 225 269 329
#     4  12  23  36  57  84 112 142 177 220 270 326
#     4  11  23  38  58  81 106 139 180 227 271 320
#     4  11  23  38  57  81 111 144 174 215 273 329
#     4  10  21  37  56  78 108 146 183 223 272 324
#     4  10  22  41  61  80 106 141 178 221 278 335
#
# _framework density 19.516591999999999
#
# number of rings (size 3 to 8) (size 9 to 14) (size 15 to 20)
#    0.000    1.714    1.429    3.429    0.000    7.143 
#    0.000    0.714    0.000    0.857    0.000    0.000 
#    0.000    0.000    0.000    0.000    0.000    0.000 
#
# Total GULP energy -694164.408079 kJ/mol
# GULP energy per Si atom -12395.793001 kJ/mol
# Density = 1.947217 g / cm^3
# Si number density = 19.516592 Si / 1000 Ang^3
#
#
#
# Elastic Constant Matrix: (Units=GPa)
#
#
# Indices 1 2 3 4 5 6 
#
# 1 157.9776 26.0574 55.9973 0.0000 0.0000 0.0000
# 2 26.0574 45.9905 15.3078 0.0000 0.0000 0.0000
# 3 55.9973 15.3078 99.8310 0.0000 0.0000 0.0000
# 4 0.0000 0.0000 0.0000 28.7557 0.0000 0.0000
# 5 0.0000 0.0000 0.0000 0.0000 27.7057 0.0000
# 6 0.0000 0.0000 0.0000 0.0000 0.0000 23.4647
#
#
#
# Elastic Compliance Matrix: (Units=1/GPa)
#
#
# Indices 1 2 3 4 5 6 
#
# 1 0.008363 -0.003348 -0.004178 0.000000 0.000000 0.000000
# 2 -0.003348 0.024253 -0.001841 0.000000 0.000000 0.000000
# 3 -0.004178 -0.001841 0.012643 0.000000 0.000000 0.000000
# 4 0.000000 0.000000 0.000000 0.034776 0.000000 0.000000
# 5 0.000000 0.000000 0.000000 0.000000 0.036094 0.000000
# 6 0.000000 0.000000 0.000000 0.000000 0.000000 0.042617
#
#
# Mechanical properties :
#
#
# Convention : Reuss Voigt Hill
#
# Bulk Modulus (GPa) = 37.69921 55.39155 46.54538
# Shear Modulus (GPa) = 26.83549 29.74766 28.29158
#
# Velocity S-wave (km/s) = 3.71213 3.90837 3.81151
# Velocity P-wave (km/s) = 6.14261 6.98645 6.57808
#
# Compressibility (1/GPa) = 0.02652576
#
# Stress axis : x y z
#
# Youngs Moduli (GPa) = 119.57373 41.23167 79.09785
#
# Poissons Ratio (x) = 0.13804 0.33044
# Poissons Ratio (y) = 0.40031 0.14562
# Poissons Ratio (z) = 0.49954 0.07591
#
# Static dielectric constant tensor:
#      x y z
#    x 4.018680 0.000000 0.000000 
#    y 0.000000 3.508330 0.000000 
#    z 0.000000 0.000000 3.504720 
# 
# 
# High freq. dielectric constant tensor:
#      x y z
#    x 1.780260 0.000000 0.000000 
#    y 0.000000 1.756260 0.000000 
#    z 0.000000 0.000000 1.733530 
# 
# From -- ./inp_files/30348.got.cif
#   From: 2010.03.12/outbox.cif.g09.slc.cpg/sg59_16_cif.got.tgz:30348.got - 2010.04.16 16:29:54.
