data_PCOD8245927
_publ_section_title
;
Structure prediction by ZEFSAII (Michael W. Deem and Ramdas Pophale) SiO2 
 PCOD8245927
Probable space group: P M M N
;
_chemical_formula_sum "Si O2"
_cell_formula_units_Z 56
_cell_length_a 21.643275
_cell_length_b 15.001766
_cell_length_c 9.494052
_cell_angle_alpha 90.000000
_cell_angle_beta 90.000000
_cell_angle_gamma 90.000000
_cell_volume 3082.598556
_symmetry_space_group_name_H-M "P M M N"
_symmetry_group_IT_number 59
_space_group.IT_coordinate_system_code '2'
_symmetry_cell_setting 'orthorhombic'
loop_
_space_group_symop_operation_xyz
x,y,z
1/2-x,1/2-y,z
1/2+x,-y,-z
-x,1/2+y,-z
-x,-y,-z
1/2+x,1/2+y,-z
1/2-x,y,z
x,1/2-y,z
loop_
_atom_site_type_symbol
_atom_site_label
_atom_site_fract_x
_atom_site_fract_y
_atom_site_fract_z
Si Si1 0.489293 0.096430 0.747968
Si Si2 0.890769 0.849263 0.054630
Si Si3 0.181063 0.486183 0.082787
Si Si4 0.949203 0.850310 0.538090
Si Si5 0.996165 0.897576 0.837417
Si Si6 0.319344 0.352778 0.342454
Si Si7 0.092624 0.847782 0.064223
O O1 0.483380 0.088250 0.579017
O O2 0.546462 0.155313 0.801830
O O3 0.498966 0.003388 0.827385
O O4 0.425672 0.141878 0.797652
O O5 0.863006 0.750000 0.040612
O O6 0.837244 0.923802 0.049761
O O7 0.936523 0.869589 0.925168
O O8 0.250000 0.519800 0.061694
O O9 0.173326 0.422825 0.217499
O O10 0.141983 0.575809 0.092925
O O11 0.954593 0.750000 0.482655
O O12 0.876143 0.875801 0.552452
O O13 0.987923 0.857995 0.681840
O O14 0.057120 0.861661 0.915541
O O15 0.250000 0.363654 0.410401
O O16 0.327257 0.250000 0.288971
O O17 0.124477 0.750000 0.057424
#
# Coordination Sequence:
#
# PCOD8245927 Si02
#       7
#     8   8   8   8   8   8   8
#     4  11  20  34  53  81 113 143 170 221 279 324
#     4  11  19  34  55  80 110 139 170 216 274 327
#     4  11  21  35  55  79 104 137 187 228 259 312
#     4  11  20  31  50  83 112 139 182 221 260 322
#     4  11  19  34  55  77 107 147 177 215 265 326
#     4   9  18  33  53  77 110 149 182 215 257 316
#     4  11  21  37  56  78 109 144 179 223 276 319
#
# _framework density 18.166492000000002
#
# number of rings (size 3 to 8) (size 9 to 14) (size 15 to 20)
#    0.000    1.286    4.286    5.143    0.000    1.143 
#    0.000    0.714    0.000    1.714    0.000    0.000 
#    0.000    3.429    0.000    0.000    0.000    0.000 
#
# Total GULP energy -694020.862281 kJ/mol
# GULP energy per Si atom -12393.229684 kJ/mol
# Density = 1.812514 g / cm^3
# Si number density = 18.166492 Si / 1000 Ang^3
#
#
#
# Elastic Constant Matrix: (Units=GPa)
#
#
# Indices 1 2 3 4 5 6 
#
# 1 90.1309 35.2525 38.1924 0.0000 0.0000 0.0000
# 2 35.2525 115.7673 16.9097 0.0000 0.0000 0.0000
# 3 38.1924 16.9097 93.8253 0.0000 0.0000 0.0000
# 4 0.0000 0.0000 0.0000 12.2571 0.0000 0.0000
# 5 0.0000 0.0000 0.0000 0.0000 14.5565 0.0000
# 6 0.0000 0.0000 0.0000 0.0000 0.0000 13.8784
#
#
#
# Elastic Compliance Matrix: (Units=1/GPa)
#
#
# Indices 1 2 3 4 5 6 
#
# 1 0.014827 -0.003732 -0.005363 0.000000 0.000000 0.000000
# 2 -0.003732 0.009811 -0.000249 0.000000 0.000000 0.000000
# 3 -0.005363 -0.000249 0.012886 0.000000 0.000000 0.000000
# 4 0.000000 0.000000 0.000000 0.081586 0.000000 0.000000
# 5 0.000000 0.000000 0.000000 0.000000 0.068698 0.000000
# 6 0.000000 0.000000 0.000000 0.000000 0.000000 0.072055
#
#
# Mechanical properties :
#
#
# Convention : Reuss Voigt Hill
#
# Bulk Modulus (GPa) = 53.08887 53.38142 53.23514
# Shear Modulus (GPa) = 17.55445 22.09631 19.82538
#
# Velocity S-wave (km/s) = 3.11192 3.49136 3.30709
# Velocity P-wave (km/s) = 6.49608 6.76026 6.62949
#
# Compressibility (1/GPa) = 0.01883634
#
# Stress axis : x y z
#
# Youngs Moduli (GPa) = 67.44443 101.92904 77.60346
#
# Poissons Ratio (x) = 0.38036 0.41618
# Poissons Ratio (y) = 0.25168 0.01933
# Poissons Ratio (z) = 0.36170 0.02539
#
# Static dielectric constant tensor:
#      x y z
#    x 3.461420 0.000000 0.000000 
#    y 0.000000 3.474850 0.000000 
#    z 0.000000 0.000000 3.190830 
# 
# 
# High freq. dielectric constant tensor:
#      x y z
#    x 1.684950 0.000000 0.000000 
#    y 0.000000 1.716140 0.000000 
#    z 0.000000 0.000000 1.683670 
# 
# From -- ./inp_files/11403.got.cif
#   From: 2010.03.12/outbox.cif.g09.slc.cpg/sg59_6_cif.got.tgz:11403.got - 2010.04.16 16:29:54.
