data_PCOD8245771
_publ_section_title
;
Structure prediction by ZEFSAII (Michael W. Deem and Ramdas Pophale) SiO2 
 PCOD8245771
Probable space group: P M M N
;
_chemical_formula_sum "Si O2"
_cell_formula_units_Z 48
_cell_length_a 8.704807
_cell_length_b 14.648424
_cell_length_c 19.744966
_cell_angle_alpha 90.000000
_cell_angle_beta 90.000000
_cell_angle_gamma 90.000000
_cell_volume 2517.714256
_symmetry_space_group_name_H-M "P M M N"
_symmetry_group_IT_number 59
_space_group.IT_coordinate_system_code '2'
_symmetry_cell_setting 'orthorhombic'
loop_
_space_group_symop_operation_xyz
x,y,z
1/2-x,1/2-y,z
1/2+x,-y,-z
-x,1/2+y,-z
-x,-y,-z
1/2+x,1/2+y,-z
1/2-x,y,z
x,1/2-y,z
loop_
_atom_site_type_symbol
_atom_site_label
_atom_site_fract_x
_atom_site_fract_y
_atom_site_fract_z
Si Si1 0.429939 0.250000 0.619699
Si Si2 0.568245 0.648535 0.912974
Si Si3 0.567801 0.482390 0.828444
Si Si4 0.431505 0.750000 0.527704
Si Si5 0.930536 0.145563 0.946884
Si Si6 0.929645 0.427458 0.681478
Si Si7 0.928675 0.939777 0.559219
O O1 0.250000 0.250000 0.603113
O O2 0.524527 0.250000 0.550670
O O3 0.473035 0.160763 0.661890
O O4 0.750000 0.649795 0.917870
O O5 0.502537 0.750000 0.898679
O O6 0.513302 0.583098 0.851925
O O7 0.506574 0.609474 0.984029
O O8 0.750000 0.477128 0.826206
O O9 0.503667 0.409913 0.882889
O O10 0.504840 0.460449 0.753876
O O11 0.250000 0.750000 0.534101
O O12 0.496041 0.659897 0.564125
O O13 0.750000 0.131395 0.954191
O O14 0.976042 0.250000 0.934132
O O15 0.750000 0.400824 0.683724
O O16 0.958653 0.510105 0.629954
O O17 0.750000 0.927837 0.543354
O O18 0.000000 0.000000 0.500000
#
# Coordination Sequence:
#
# PCOD8245771 Si02
#       7
#     4   8   8   4   8   8   8
#     4  12  24  38  60  88 118 147 182 231 288 345
#     4   9  17  31  51  75 104 137 178 229 275 318
#     4   9  18  33  53  78 104 140 185 222 267 329
#     4  12  24  40  64  88 114 153 196 239 290 339
#     4   9  17  29  49  76 103 136 179 225 269 322
#     4  10  22  39  60  84 114 151 189 229 281 344
#     4  11  22  38  61  90 120 150 193 240 285 340
#
# _framework density 19.064910000000001
#
# number of rings (size 3 to 8) (size 9 to 14) (size 15 to 20)
#    0.000    2.000    1.667    2.500    1.167    0.667 
#    1.500    1.667    0.000    0.000    0.000    0.000 
#    0.000    0.000    0.000    0.000    0.000    0.000 
#
# Total GULP energy -595229.797556 kJ/mol
# GULP energy per Si atom -12400.620782 kJ/mol
# Density = 1.902152 g / cm^3
# Si number density = 19.064910 Si / 1000 Ang^3
#
#
#
# Elastic Constant Matrix: (Units=GPa)
#
#
# Indices 1 2 3 4 5 6 
#
# 1 67.4432 45.1663 32.7760 0.0000 0.0000 0.0000
# 2 45.1663 141.1545 65.8552 0.0000 0.0000 0.0000
# 3 32.7760 65.8552 125.2537 0.0000 0.0000 0.0000
# 4 0.0000 0.0000 0.0000 19.5070 0.0000 0.0000
# 5 0.0000 0.0000 0.0000 0.0000 24.5250 0.0000
# 6 0.0000 0.0000 0.0000 0.0000 0.0000 26.7980
#
#
#
# Elastic Compliance Matrix: (Units=1/GPa)
#
#
# Indices 1 2 3 4 5 6 
#
# 1 0.019402 -0.005087 -0.002402 0.000000 0.000000 0.000000
# 2 -0.005087 0.010721 -0.004306 0.000000 0.000000 0.000000
# 3 -0.002402 -0.004306 0.010876 0.000000 0.000000 0.000000
# 4 0.000000 0.000000 0.000000 0.051264 0.000000 0.000000
# 5 0.000000 0.000000 0.000000 0.000000 0.040775 0.000000
# 6 0.000000 0.000000 0.000000 0.000000 0.000000 0.037316
#
#
# Mechanical properties :
#
#
# Convention : Reuss Voigt Hill
#
# Bulk Modulus (GPa) = 57.44287 69.04959 63.24623
# Shear Modulus (GPa) = 25.03172 26.83627 25.93400
#
# Velocity S-wave (km/s) = 3.62743 3.75591 3.69223
# Velocity P-wave (km/s) = 6.90941 7.42333 7.17098
#
# Compressibility (1/GPa) = 0.01740860
#
# Stress axis : x y z
#
# Youngs Moduli (GPa) = 51.54197 93.27446 91.94427
#
# Poissons Ratio (x) = 0.47452 0.22086
# Poissons Ratio (y) = 0.26221 0.39588
# Poissons Ratio (z) = 0.12381 0.40160
#
# Static dielectric constant tensor:
#      x y z
#    x 3.313590 0.000000 0.000000 
#    y 0.000000 3.866570 0.000000 
#    z 0.000000 0.000000 3.726170 
# 
# 
# High freq. dielectric constant tensor:
#      x y z
#    x 1.721220 0.000000 0.000000 
#    y 0.000000 1.756660 0.000000 
#    z 0.000000 0.000000 1.738350 
# 
# From -- ./inp_files/25565.got.cif
#   From: 2010.03.12/outbox.cif.g09.slc.cpg/sg59_13_cif.got.tgz:25565.got - 2010.04.16 16:29:54.
