data_PCOD8245328
_publ_section_title
;
Structure prediction by ZEFSAII (Michael W. Deem and Ramdas Pophale) SiO2 
 PCOD8245328
Probable space group: P M M N
;
_chemical_formula_sum "Si O2"
_cell_formula_units_Z 48
_cell_length_a 11.564113
_cell_length_b 17.903433
_cell_length_c 11.834143
_cell_angle_alpha 90.000000
_cell_angle_beta 90.000000
_cell_angle_gamma 90.000000
_cell_volume 2450.109278
_symmetry_space_group_name_H-M "P M M N"
_symmetry_group_IT_number 59
_space_group.IT_coordinate_system_code '2'
_symmetry_cell_setting 'orthorhombic'
loop_
_space_group_symop_operation_xyz
x,y,z
1/2-x,1/2-y,z
1/2+x,-y,-z
-x,1/2+y,-z
-x,-y,-z
1/2+x,1/2+y,-z
1/2-x,y,z
x,1/2-y,z
loop_
_atom_site_type_symbol
_atom_site_label
_atom_site_fract_x
_atom_site_fract_y
_atom_site_fract_z
Si Si1 0.386157 0.591320 0.689814
Si Si2 0.384881 0.835695 0.452726
Si Si3 0.882198 0.668559 0.099553
Si Si4 0.995585 0.439038 0.733572
Si Si5 0.623599 0.469443 0.949596
Si Si6 0.064149 0.834812 0.919786
O O1 0.250000 0.584511 0.711225
O O2 0.415440 0.637496 0.578139
O O3 0.439815 0.509164 0.678566
O O4 0.444407 0.635930 0.792302
O O5 0.250000 0.844743 0.427852
O O6 0.424212 0.750000 0.439523
O O7 0.453751 0.886251 0.365772
O O8 0.750000 0.662277 0.073650
O O9 0.916938 0.750000 0.149659
O O10 0.915250 0.605290 0.187930
O O11 0.937745 0.658396 0.975765
O O12 0.889623 0.464873 0.813927
O O13 0.750000 0.510852 0.973424
O O14 0.500000 0.500000 0.000000
O O15 0.645222 0.387614 0.003668
O O16 0.112342 0.750000 0.921270
#
# Coordination Sequence:
#
# PCOD8245328 Si02
#       6
#     8   8   8   8   8   8
#     4  11  22  37  58  87 118 155 199 248 307 364
#     4  10  22  40  61  84 114 152 198 254 310 361
#     4   9  19  35  56  84 118 160 203 245 302 367
#     4  11  21  37  58  87 116 156 198 249 300 364
#     4  11  23  38  59  90 125 162 200 249 305 363
#     4  10  21  37  58  87 121 157 200 250 301 358
#
# _framework density 19.590962000000001
#
# number of rings (size 3 to 8) (size 9 to 14) (size 15 to 20)
#    0.000    1.667    1.667    3.000    0.000    5.333 
#    0.000    0.000    0.000    2.000    0.000    2.333 
#    0.000    0.000    0.000    0.000    0.000    0.000 
#
# Total GULP energy -594719.873540 kJ/mol
# GULP energy per Si atom -12389.997365 kJ/mol
# Density = 1.954637 g / cm^3
# Si number density = 19.590962 Si / 1000 Ang^3
#
#
#
# Elastic Constant Matrix: (Units=GPa)
#
#
# Indices 1 2 3 4 5 6 
#
# 1 109.1744 35.5853 34.1948 0.0000 0.0000 0.0000
# 2 35.5853 123.5114 36.0567 0.0000 0.0000 0.0000
# 3 34.1948 36.0567 98.4455 0.0000 0.0000 0.0000
# 4 0.0000 0.0000 0.0000 42.0410 0.0000 0.0000
# 5 0.0000 0.0000 0.0000 0.0000 8.4390 0.0000
# 6 0.0000 0.0000 0.0000 0.0000 0.0000 20.2702
#
#
#
# Elastic Compliance Matrix: (Units=1/GPa)
#
#
# Indices 1 2 3 4 5 6 
#
# 1 0.010814 -0.002261 -0.002928 0.000000 0.000000 0.000000
# 2 -0.002261 0.009538 -0.002708 0.000000 0.000000 0.000000
# 3 -0.002928 -0.002708 0.012167 0.000000 0.000000 0.000000
# 4 0.000000 0.000000 0.000000 0.023786 0.000000 0.000000
# 5 0.000000 0.000000 0.000000 0.000000 0.118497 0.000000
# 6 0.000000 0.000000 0.000000 0.000000 0.000000 0.049333
#
#
# Mechanical properties :
#
#
# Convention : Reuss Voigt Hill
#
# Bulk Modulus (GPa) = 59.79165 60.31166 60.05166
# Shear Modulus (GPa) = 20.36618 29.16968 24.76793
#
# Velocity S-wave (km/s) = 3.22773 3.86286 3.55949
# Velocity P-wave (km/s) = 6.66913 7.12375 6.90019
#
# Compressibility (1/GPa) = 0.01672474
#
# Stress axis : x y z
#
# Youngs Moduli (GPa) = 92.47565 104.83939 82.19023
#
# Poissons Ratio (x) = 0.23702 0.24066
# Poissons Ratio (y) = 0.20907 0.22259
# Poissons Ratio (z) = 0.27078 0.28393
#
# Static dielectric constant tensor:
#      x y z
#    x 3.576220 0.000000 0.000000 
#    y 0.000000 4.051190 0.000000 
#    z 0.000000 0.000000 3.612170 
# 
# 
# High freq. dielectric constant tensor:
#      x y z
#    x 1.756440 0.000000 0.000000 
#    y 0.000000 1.782500 0.000000 
#    z 0.000000 0.000000 1.758800 
# 
# From -- ./inp_files/15791.got.cif
#   From: 2010.03.12/outbox.cif.g09.slc.cpg/sg59_8_cif.got.tgz:15791.got - 2010.04.16 16:29:54.
