data_PCOD8245915
_publ_section_title
;
Structure prediction by ZEFSAII (Michael W. Deem and Ramdas Pophale) SiO2 
 PCOD8245915
Probable space group: P M M N
;
_chemical_formula_sum "Si O2"
_cell_formula_units_Z 64
_cell_length_a 30.550426
_cell_length_b 8.780796
_cell_length_c 11.854968
_cell_angle_alpha 90.000000
_cell_angle_beta 90.000000
_cell_angle_gamma 90.000000
_cell_volume 3180.178843
_symmetry_space_group_name_H-M "P M M N"
_symmetry_group_IT_number 59
_space_group.IT_coordinate_system_code '2'
_symmetry_cell_setting 'orthorhombic'
loop_
_space_group_symop_operation_xyz
x,y,z
1/2-x,1/2-y,z
1/2+x,-y,-z
-x,1/2+y,-z
-x,-y,-z
1/2+x,1/2+y,-z
1/2-x,y,z
x,1/2-y,z
loop_
_atom_site_type_symbol
_atom_site_label
_atom_site_fract_x
_atom_site_fract_y
_atom_site_fract_z
Si Si1 0.299859 0.573178 0.997641
Si Si2 0.085031 0.923989 0.244561
Si Si3 0.546856 0.076669 0.002669
Si Si4 0.176746 0.071863 0.231972
Si Si5 0.127454 0.072704 0.597246
Si Si6 0.798339 0.422718 0.545014
Si Si7 0.456761 0.070425 0.449690
Si Si8 0.377086 0.071013 0.857168
O O1 0.250000 0.544850 0.956841
O O2 0.312184 0.750000 0.996457
O O3 0.332872 0.489294 0.914193
O O4 0.304645 0.515884 0.124749
O O5 0.096896 0.750000 0.275538
O O6 0.067209 0.935712 0.119837
O O7 0.126674 0.031739 0.256107
O O8 0.049023 0.989416 0.329433
O O9 0.541265 0.250000 0.041450
O O10 0.500000 0.000000 0.000000
O O11 0.578956 0.995426 0.089730
O O12 0.181913 0.250000 0.209714
O O13 0.203171 0.024267 0.342520
O O14 0.138094 0.250000 0.584478
O O15 0.083352 0.029339 0.531762
O O16 0.122493 0.024135 0.726742
O O17 0.167792 0.980735 0.547129
O O18 0.750000 0.431540 0.490330
O O19 0.810541 0.250000 0.578336
O O20 0.461999 0.250000 0.433239
O O21 0.500000 0.000000 0.500000
O O22 0.378272 0.250000 0.874858
#
# Coordination Sequence:
#
# PCOD8245915 Si02
#       8
#     8   8   8   8   8   8   8   8
#     4  11  24  42  64  92 127 166 210 261 316 376
#     4  11  23  41  66  95 129 166 206 260 318 372
#     4  11  25  43  66  95 130 167 210 261 315 375
#     4  12  23  38  64  96 129 165 207 258 316 378
#     4  10  24  44  64  90 126 167 211 261 312 370
#     4  11  24  41  64  94 127 166 211 259 314 375
#     4  11  24  42  65  95 128 165 212 259 312 374
#     4  11  24  43  66  92 127 167 212 263 316 375
#
# _framework density 20.124654
#
# number of rings (size 3 to 8) (size 9 to 14) (size 15 to 20)
#    0.000    1.000    2.500    3.750    1.750    7.000 
#    0.000    2.500    0.000    0.000    0.000    0.000 
#    0.000    0.000    0.000    0.000    0.000    0.000 
#
# Total GULP energy -793941.542149 kJ/mol
# GULP energy per Si atom -12405.336596 kJ/mol
# Density = 2.007885 g / cm^3
# Si number density = 20.124654 Si / 1000 Ang^3
#
#
#
# Elastic Constant Matrix: (Units=GPa)
#
#
# Indices 1 2 3 4 5 6 
#
# 1 115.2038 46.5192 27.8501 0.0000 0.0000 0.0000
# 2 46.5192 95.2677 50.4532 0.0000 0.0000 0.0000
# 3 27.8501 50.4532 92.6390 0.0000 0.0000 0.0000
# 4 0.0000 0.0000 0.0000 32.9954 0.0000 0.0000
# 5 0.0000 0.0000 0.0000 0.0000 30.2456 0.0000
# 6 0.0000 0.0000 0.0000 0.0000 0.0000 38.1710
#
#
#
# Elastic Compliance Matrix: (Units=1/GPa)
#
#
# Indices 1 2 3 4 5 6 
#
# 1 0.010831 -0.005009 -0.000528 0.000000 0.000000 0.000000
# 2 -0.005009 0.017068 -0.007790 0.000000 0.000000 0.000000
# 3 -0.000528 -0.007790 0.015196 0.000000 0.000000 0.000000
# 4 0.000000 0.000000 0.000000 0.030307 0.000000 0.000000
# 5 0.000000 0.000000 0.000000 0.000000 0.033063 0.000000
# 6 0.000000 0.000000 0.000000 0.000000 0.000000 0.026198
#
#
# Mechanical properties :
#
#
# Convention : Reuss Voigt Hill
#
# Bulk Modulus (GPa) = 60.82386 61.41729 61.12057
# Shear Modulus (GPa) = 30.34057 32.16825 31.25441
#
# Velocity S-wave (km/s) = 3.88704 4.00240 3.94514
# Velocity P-wave (km/s) = 7.10173 7.20719 7.15466
#
# Compressibility (1/GPa) = 0.01644092
#
# Stress axis : x y z
#
# Youngs Moduli (GPa) = 92.33182 58.58921 65.80764
#
# Poissons Ratio (x) = 0.29347 0.03475
# Poissons Ratio (y) = 0.46248 0.51263
# Poissons Ratio (z) = 0.04875 0.45640
#
# Static dielectric constant tensor:
#      x y z
#    x 6.241430 0.000000 0.000000 
#    y 0.000000 3.803540 0.000000 
#    z 0.000000 0.000000 3.719780 
# 
# 
# High freq. dielectric constant tensor:
#      x y z
#    x 1.800100 0.000000 0.000000 
#    y 0.000000 1.800640 0.000000 
#    z 0.000000 0.000000 1.789910 
# 
# From -- ./inp_files/19371.got.cif
#   From: 2010.03.12/outbox.cif.g09.slc.cpg/sg59_10_cif.got.tgz:19371.got - 2010.04.16 16:29:54.
