data_PCOD8245869
_publ_section_title
;
Structure prediction by ZEFSAII (Michael W. Deem and Ramdas Pophale) SiO2 
 PCOD8245869
Probable space group: P M M N
;
_chemical_formula_sum "Si O2"
_cell_formula_units_Z 32
_cell_length_a 8.508945
_cell_length_b 13.441170
_cell_length_c 13.430769
_cell_angle_alpha 90.000000
_cell_angle_beta 90.000000
_cell_angle_gamma 90.000000
_cell_volume 1536.079418
_symmetry_space_group_name_H-M "P M M N"
_symmetry_group_IT_number 59
_space_group.IT_coordinate_system_code '2'
_symmetry_cell_setting 'orthorhombic'
loop_
_space_group_symop_operation_xyz
x,y,z
1/2-x,1/2-y,z
1/2+x,-y,-z
-x,1/2+y,-z
-x,-y,-z
1/2+x,1/2+y,-z
1/2-x,y,z
x,1/2-y,z
loop_
_atom_site_type_symbol
_atom_site_label
_atom_site_fract_x
_atom_site_fract_y
_atom_site_fract_z
Si Si1 0.428460 0.750000 0.620725
Si Si2 0.568276 0.750000 0.830347
Si Si3 0.933725 0.638175 0.243403
Si Si4 0.935620 0.965882 0.895021
Si Si5 0.565414 0.603328 0.471854
O O1 0.250000 0.750000 0.660657
O O2 0.546064 0.750000 0.712914
O O3 0.460947 0.658532 0.551186
O O4 0.750000 0.750000 0.857664
O O5 0.494843 0.645553 0.872410
O O6 0.750000 0.620827 0.226632
O O7 0.981020 0.750000 0.205285
O O8 0.977108 0.633160 0.359579
O O9 0.020718 0.549160 0.186646
O O10 0.750000 0.959142 0.898574
O O11 0.000000 0.000000 0.000000
O O12 0.500000 0.500000 0.500000
O O13 0.750000 0.618637 0.491385
#
# Coordination Sequence:
#
# PCOD8245869 Si02
#       5
#     4   4   8   8   8
#     4  12  24  38  61  94 129 170 215 260 312 376
#     4  10  24  46  67  90 129 172 213 264 326 388
#     4  10  22  42  65  92 130 173 213 261 322 382
#     4  11  25  44  68  97 126 166 213 266 326 387
#     4  11  22  39  62  92 130 174 215 261 317 375
#
# _framework density 20.832256000000001
#
# number of rings (size 3 to 8) (size 9 to 14) (size 15 to 20)
#    0.000    1.250    1.250    4.125    1.750    8.500 
#    0.000    0.000    0.000    0.000    0.000    0.000 
#    0.000    0.000    0.000    0.000    0.000    0.000 
#
# Total GULP energy -396478.473318 kJ/mol
# GULP energy per Si atom -12389.952291 kJ/mol
# Density = 2.078484 g / cm^3
# Si number density = 20.832256 Si / 1000 Ang^3
#
#
#
# Elastic Constant Matrix: (Units=GPa)
#
#
# Indices 1 2 3 4 5 6 
#
# 1 50.0732 32.4809 22.7046 0.0000 0.0000 0.0000
# 2 32.4809 210.2758 65.9562 0.0000 0.0000 0.0000
# 3 22.7046 65.9562 110.9228 0.0000 0.0000 0.0000
# 4 0.0000 0.0000 0.0000 -354.7709 0.0000 0.0000
# 5 0.0000 0.0000 0.0000 0.0000 35.9437 0.0000
# 6 0.0000 0.0000 0.0000 0.0000 0.0000 27.3888
#
#
#
# Elastic Compliance Matrix: (Units=1/GPa)
#
#
# Indices 1 2 3 4 5 6 
#
# 1 0.023084 -0.002561 -0.003202 0.000000 0.000000 0.000000
# 2 -0.002561 0.006130 -0.003121 0.000000 0.000000 0.000000
# 3 -0.003202 -0.003121 0.011526 0.000000 0.000000 0.000000
# 4 0.000000 0.000000 0.000000 -0.002819 0.000000 0.000000
# 5 0.000000 0.000000 0.000000 0.000000 0.027821 0.000000
# 6 0.000000 0.000000 0.000000 0.000000 0.000000 0.036511
#
#
# Mechanical properties :
#
#
# Convention : Reuss Voigt Hill
#
# Bulk Modulus (GPa) = 43.53077 68.17281 55.85179
# Shear Modulus (GPa) = 39.16027 -41.61233 -1.22603
#
# Velocity S-wave (km/s) = 4.34036 -4.47418 -0.76799
# Velocity P-wave (km/s) = 6.78671 2.47075 5.10706
#
# Compressibility (1/GPa) = 0.02297226
#
# Stress axis : x y z
#
# Youngs Moduli (GPa) = 43.31977 163.12670 86.75759
#
# Poissons Ratio (x) = 0.41783 0.27780
# Poissons Ratio (y) = 0.11096 0.27075
# Poissons Ratio (z) = 0.13871 0.50909
#
# Static dielectric constant tensor:
#      x y z
#    x 3.830490 0.000000 0.000000 
#    y 0.000000 3.974610 0.000000 
#    z 0.000000 0.000000 3.591390 
# 
# 
# High freq. dielectric constant tensor:
#      x y z
#    x 1.804500 0.000000 0.000000 
#    y 0.000000 1.850340 0.000000 
#    z 0.000000 0.000000 1.819030 
# 
# From -- ./inp_files/13635.got.cif
#   From: 2010.03.12/outbox.cif.g09.slc.cpg/sg59_7_cif.got.tgz:13635.got - 2010.04.16 16:29:54.
