data_PCOD8245208
_publ_section_title
;
Structure prediction by ZEFSAII (Michael W. Deem and Ramdas Pophale) SiO2 
 PCOD8245208
Probable space group: P M M N
;
_chemical_formula_sum "Si O2"
_cell_formula_units_Z 64
_cell_length_a 9.007606
_cell_length_b 14.310699
_cell_length_c 25.952751
_cell_angle_alpha 90.000000
_cell_angle_beta 90.000000
_cell_angle_gamma 90.000000
_cell_volume 3345.442954
_symmetry_space_group_name_H-M "P M M N"
_symmetry_group_IT_number 59
_space_group.IT_coordinate_system_code '2'
_symmetry_cell_setting 'orthorhombic'
loop_
_space_group_symop_operation_xyz
x,y,z
1/2-x,1/2-y,z
1/2+x,-y,-z
-x,1/2+y,-z
-x,-y,-z
1/2+x,1/2+y,-z
1/2-x,y,z
x,1/2-y,z
loop_
_atom_site_type_symbol
_atom_site_label
_atom_site_fract_x
_atom_site_fract_y
_atom_site_fract_z
Si Si1 0.573837 0.502104 0.444735
Si Si2 0.924553 0.007213 0.177910
Si Si3 0.922531 0.142010 0.629272
Si Si4 0.582075 0.860465 0.897026
Si Si5 0.420894 0.357662 0.374013
Si Si6 0.585781 0.361131 0.003507
Si Si7 0.924861 0.143605 0.889647
Si Si8 0.081614 0.003114 0.284047
O O1 0.500000 0.500000 0.500000
O O2 0.750000 0.504483 0.449851
O O3 0.519787 0.595202 0.415425
O O4 0.525200 0.408336 0.415204
O O5 0.750000 0.008199 0.172921
O O6 0.987521 0.913834 0.152655
O O7 0.967961 0.009340 0.237450
O O8 0.987556 0.098310 0.149528
O O9 0.750000 0.130526 0.614201
O O10 0.968401 0.250000 0.635122
O O11 0.954028 0.090062 0.683188
O O12 0.750000 0.895572 0.891301
O O13 0.568313 0.750000 0.893428
O O14 0.525024 0.897681 0.952443
O O15 0.250000 0.368518 0.391851
O O16 0.468864 0.250000 0.370006
O O17 0.442519 0.404685 0.318391
O O18 0.750000 0.400134 0.015886
O O19 0.591655 0.250000 0.002509
O O20 0.532758 0.394399 0.946854
O O21 0.750000 0.132989 0.880664
O O22 0.975497 0.250000 0.882877
O O23 0.250000 0.999367 0.262928
#
# Coordination Sequence:
#
# PCOD8245208 Si02
#       8
#     8   8   8   8   8   8   8   8
#     4  11  22  36  56  85 123 160 192 230 273 318
#     4  12  25  37  53  80 112 144 179 225 277 325
#     4   9  19  38  63  87 111 145 189 232 277 329
#     4  10  21  37  57  79 104 138 179 221 268 327
#     4   9  19  38  63  87 111 144 187 232 279 330
#     4   8  15  31  55  80 105 133 168 215 270 325
#     4   9  19  37  59  80 105 140 179 219 267 326
#     4   9  19  37  58  81 110 143 182 228 277 331
#
# _framework density 19.130500999999999
#
# number of rings (size 3 to 8) (size 9 to 14) (size 15 to 20)
#    0.000    2.375    0.000    4.125    0.000    6.000 
#    0.000    3.750    0.000    0.000    0.000    0.000 
#    0.000    0.000    0.000    0.000    0.000    0.000 
#
# Total GULP energy -793652.322794 kJ/mol
# GULP energy per Si atom -12400.817544 kJ/mol
# Density = 1.908696 g / cm^3
# Si number density = 19.130501 Si / 1000 Ang^3
#
#
#
# Elastic Constant Matrix: (Units=GPa)
#
#
# Indices 1 2 3 4 5 6 
#
# 1 110.8042 39.2899 61.6189 0.0000 0.0000 0.0000
# 2 39.2899 107.9684 38.4117 0.0000 0.0000 0.0000
# 3 61.6189 38.4117 117.7216 0.0000 0.0000 0.0000
# 4 0.0000 0.0000 0.0000 17.8698 0.0000 0.0000
# 5 0.0000 0.0000 0.0000 0.0000 37.0117 0.0000
# 6 0.0000 0.0000 0.0000 0.0000 0.0000 26.2125
#
#
#
# Elastic Compliance Matrix: (Units=1/GPa)
#
#
# Indices 1 2 3 4 5 6 
#
# 1 0.013388 -0.002691 -0.006129 0.000000 0.000000 0.000000
# 2 -0.002691 0.011019 -0.002187 0.000000 0.000000 0.000000
# 3 -0.006129 -0.002187 0.012417 0.000000 0.000000 0.000000
# 4 0.000000 0.000000 0.000000 0.055960 0.000000 0.000000
# 5 0.000000 0.000000 0.000000 0.000000 0.027019 0.000000
# 6 0.000000 0.000000 0.000000 0.000000 0.000000 0.038150
#
#
# Mechanical properties :
#
#
# Convention : Reuss Voigt Hill
#
# Bulk Modulus (GPa) = 67.52828 68.34834 67.93831
# Shear Modulus (GPa) = 27.04112 29.36370 28.20241
#
# Velocity S-wave (km/s) = 3.76374 3.92205 3.84371
# Velocity P-wave (km/s) = 7.36635 7.50433 7.43566
#
# Compressibility (1/GPa) = 0.01480861
#
# Stress axis : x y z
#
# Youngs Moduli (GPa) = 74.69484 90.74971 80.53789
#
# Poissons Ratio (x) = 0.24422 0.49365
# Poissons Ratio (y) = 0.20102 0.17613
# Poissons Ratio (z) = 0.45784 0.19846
#
# Static dielectric constant tensor:
#      x y z
#    x 3.497980 0.000000 0.000000 
#    y 0.000000 3.550730 0.000000 
#    z 0.000000 0.000000 3.487780 
# 
# 
# High freq. dielectric constant tensor:
#      x y z
#    x 1.738870 0.000000 0.000000 
#    y 0.000000 1.748190 0.000000 
#    z 0.000000 0.000000 1.742580 
# 
# From -- ./inp_files/31647.got.cif
#   From: 2010.03.12/outbox.cif.g09.slc.cpg/sg59_16_cif.got.tgz:31647.got - 2010.04.16 16:29:54.
