data_PCOD8245804
_publ_section_title
;
Structure prediction by ZEFSAII (Michael W. Deem and Ramdas Pophale) SiO2 
 PCOD8245804
Probable space group: P M M N
;
_chemical_formula_sum "Si O2"
_cell_formula_units_Z 48
_cell_length_a 8.801854
_cell_length_b 20.202196
_cell_length_c 14.312062
_cell_angle_alpha 90.000000
_cell_angle_beta 90.000000
_cell_angle_gamma 90.000000
_cell_volume 2544.924775
_symmetry_space_group_name_H-M "P M M N"
_symmetry_group_IT_number 59
_space_group.IT_coordinate_system_code '2'
_symmetry_cell_setting 'orthorhombic'
loop_
_space_group_symop_operation_xyz
x,y,z
1/2-x,1/2-y,z
1/2+x,-y,-z
-x,1/2+y,-z
-x,-y,-z
1/2+x,1/2+y,-z
1/2-x,y,z
x,1/2-y,z
loop_
_atom_site_type_symbol
_atom_site_label
_atom_site_fract_x
_atom_site_fract_y
_atom_site_fract_z
Si Si1 0.075502 0.825486 0.934725
Si Si2 0.572011 0.440443 0.557719
Si Si3 0.426369 0.062663 0.950355
Si Si4 0.074733 0.479596 0.743632
Si Si5 0.924898 0.674204 0.551949
Si Si6 0.072955 0.121603 0.245653
O O1 0.250000 0.845957 0.917566
O O2 0.061345 0.750000 0.968509
O O3 0.983537 0.833403 0.838965
O O4 0.005878 0.870516 0.015826
O O5 0.500000 0.500000 0.500000
O O6 0.750000 0.451032 0.555719
O O7 0.516607 0.440925 0.664174
O O8 0.530352 0.370306 0.513087
O O9 0.250000 0.064082 0.977626
O O10 0.450576 0.059528 0.839598
O O11 0.500000 0.000000 0.000000
O O12 0.250000 0.481911 0.714571
O O13 0.017653 0.553754 0.754904
O O14 0.750000 0.657075 0.530436
O O15 0.962321 0.750000 0.528629
O O16 0.961572 0.661293 0.660066
O O17 0.250000 0.105811 0.233876
#
# Coordination Sequence:
#
# PCOD8245804 Si02
#       6
#     8   8   8   8   8   8
#     4  11  24  40  59  87 125 164 202 249 303 358
#     4  12  24  39  62  89 120 160 203 248 297 356
#     4  11  23  39  63  89 119 157 200 249 300 360
#     4  11  23  39  61  91 122 155 199 251 302 355
#     4  10  22  40  61  88 123 160 199 246 301 358
#     4  11  21  35  61  92 123 160 198 245 302 361
#
# _framework density 18.861068
#
# number of rings (size 3 to 8) (size 9 to 14) (size 15 to 20)
#    0.000    1.000    3.333    4.000    0.000    5.000 
#    0.000    0.833    0.000    1.000    0.000    0.000 
#    0.000    0.000    0.000    0.000    0.000    0.000 
#
# Total GULP energy -595507.414123 kJ/mol
# GULP energy per Si atom -12406.404461 kJ/mol
# Density = 1.881814 g / cm^3
# Si number density = 18.861068 Si / 1000 Ang^3
#
#
#
# Elastic Constant Matrix: (Units=GPa)
#
#
# Indices 1 2 3 4 5 6 
#
# 1 118.3636 61.9357 60.8197 0.0000 0.0000 0.0000
# 2 61.9357 116.1138 57.0699 0.0000 0.0000 0.0000
# 3 60.8197 57.0699 105.4745 0.0000 0.0000 0.0000
# 4 0.0000 0.0000 0.0000 45.8855 0.0000 0.0000
# 5 0.0000 0.0000 0.0000 0.0000 32.8316 0.0000
# 6 0.0000 0.0000 0.0000 0.0000 0.0000 29.0634
#
#
#
# Elastic Compliance Matrix: (Units=1/GPa)
#
#
# Indices 1 2 3 4 5 6 
#
# 1 0.013623 -0.004639 -0.005345 0.000000 0.000000 0.000000
# 2 -0.004639 0.013312 -0.004528 0.000000 0.000000 0.000000
# 3 -0.005345 -0.004528 0.015013 0.000000 0.000000 0.000000
# 4 0.000000 0.000000 0.000000 0.021793 0.000000 0.000000
# 5 0.000000 0.000000 0.000000 0.000000 0.030458 0.000000
# 6 0.000000 0.000000 0.000000 0.000000 0.000000 0.034408
#
#
# Mechanical properties :
#
#
# Convention : Reuss Voigt Hill
#
# Bulk Modulus (GPa) = 77.37766 77.73361 77.55563
# Shear Modulus (GPa) = 30.87579 32.23122 31.55351
#
# Velocity S-wave (km/s) = 4.05039 4.13834 4.09460
# Velocity P-wave (km/s) = 7.93652 8.00860 7.97264
#
# Compressibility (1/GPa) = 0.01292363
#
# Stress axis : x y z
#
# Youngs Moduli (GPa) = 73.40760 75.11851 66.60928
#
# Poissons Ratio (x) = 0.34850 0.35602
# Poissons Ratio (y) = 0.34056 0.30160
# Poissons Ratio (z) = 0.39236 0.34012
#
# Static dielectric constant tensor:
#      x y z
#    x 3.684760 0.000000 0.000000 
#    y 0.000000 3.334480 0.000000 
#    z 0.000000 0.000000 3.665840 
# 
# 
# High freq. dielectric constant tensor:
#      x y z
#    x 1.749390 0.000000 0.000000 
#    y 0.000000 1.730290 0.000000 
#    z 0.000000 0.000000 1.736710 
# 
# From -- ./inp_files/20367.got.cif
#   From: 2010.03.12/outbox.cif.g09.slc.cpg/sg59_11_cif.got.tgz:20367.got - 2010.04.16 16:29:54.
