data_PCOD8245616
_publ_section_title
;
Structure prediction by ZEFSAII (Michael W. Deem and Ramdas Pophale) SiO2 
 PCOD8245616
Probable space group: P M M N
;
_chemical_formula_sum "Si O2"
_cell_formula_units_Z 48
_cell_length_a 17.959897
_cell_length_b 8.478058
_cell_length_c 15.853884
_cell_angle_alpha 90.000000
_cell_angle_beta 90.000000
_cell_angle_gamma 90.000000
_cell_volume 2413.992415
_symmetry_space_group_name_H-M "P M M N"
_symmetry_group_IT_number 59
_space_group.IT_coordinate_system_code '2'
_symmetry_cell_setting 'orthorhombic'
loop_
_space_group_symop_operation_xyz
x,y,z
1/2-x,1/2-y,z
1/2+x,-y,-z
-x,1/2+y,-z
-x,-y,-z
1/2+x,1/2+y,-z
1/2-x,y,z
x,1/2-y,z
loop_
_atom_site_type_symbol
_atom_site_label
_atom_site_fract_x
_atom_site_fract_y
_atom_site_fract_z
Si Si1 0.540193 0.435824 0.808996
Si Si2 0.250000 0.432944 0.784581
Si Si3 0.388597 0.563573 0.881915
Si Si4 0.019396 0.068494 0.371791
Si Si5 0.250000 0.927013 0.607867
Si Si6 0.166319 0.562871 0.063580
Si Si7 0.112723 0.071169 0.532622
O O1 0.543695 0.250000 0.794121
O O2 0.464262 0.477033 0.856754
O O3 0.547393 0.524017 0.720505
O O4 0.610608 0.496134 0.863675
O O5 0.250000 0.250000 0.810310
O O6 0.323563 0.518586 0.817740
O O7 0.250000 0.448853 0.683979
O O8 0.401917 0.750000 0.878914
O O9 0.364962 0.502351 0.974156
O O10 0.993480 0.250000 0.373875
O O11 0.085528 0.038441 0.437799
O O12 0.950681 0.959076 0.397745
O O13 0.250000 0.750000 0.643918
O O14 0.179373 0.951853 0.548306
O O15 0.250000 0.495518 0.078646
O O16 0.169330 0.750000 0.061358
O O17 0.140091 0.250000 0.543244
#
# Coordination Sequence:
#
# PCOD8245616 Si02
#       7
#     8   4   8   8   4   8   8
#     4  11  22  36  59  89 120 153 198 245 288 346
#     4  12  24  38  58  87 122 153 192 243 298 349
#     4  11  21  38  62  85 117 155 197 242 295 350
#     4  10  21  39  61  85 116 153 194 237 288 346
#     4  12  24  38  58  87 118 151 192 233 288 353
#     4   9  19  38  61  84 115 156 198 243 293 342
#     4  10  21  39  62  85 116 152 191 241 292 341
#
# _framework density 19.884073000000001
#
# number of rings (size 3 to 8) (size 9 to 14) (size 15 to 20)
#    0.000    1.500    0.833    5.000    0.000    2.000 
#    1.500    2.500    0.000    0.000    0.000    0.000 
#    0.000    0.000    0.000    0.000    0.000    0.000 
#
# Total GULP energy -595404.707491 kJ/mol
# GULP energy per Si atom -12404.264739 kJ/mol
# Density = 1.983882 g / cm^3
# Si number density = 19.884073 Si / 1000 Ang^3
#
#
#
# Elastic Constant Matrix: (Units=GPa)
#
#
# Indices 1 2 3 4 5 6 
#
# 1 123.0945 13.6468 76.1348 0.0000 0.0000 0.0000
# 2 13.6468 46.3791 19.1825 0.0000 0.0000 0.0000
# 3 76.1348 19.1825 135.2312 0.0000 0.0000 0.0000
# 4 0.0000 0.0000 0.0000 27.4256 0.0000 0.0000
# 5 0.0000 0.0000 0.0000 0.0000 23.6905 0.0000
# 6 0.0000 0.0000 0.0000 0.0000 0.0000 23.4697
#
#
#
# Elastic Compliance Matrix: (Units=1/GPa)
#
#
# Indices 1 2 3 4 5 6 
#
# 1 0.012493 -0.000815 -0.006918 0.000000 0.000000 0.000000
# 2 -0.000815 0.022958 -0.002798 0.000000 0.000000 0.000000
# 3 -0.006918 -0.002798 0.011686 0.000000 0.000000 0.000000
# 4 0.000000 0.000000 0.000000 0.036462 0.000000 0.000000
# 5 0.000000 0.000000 0.000000 0.000000 0.042211 0.000000
# 6 0.000000 0.000000 0.000000 0.000000 0.000000 0.042608
#
#
# Mechanical properties :
#
#
# Convention : Reuss Voigt Hill
#
# Bulk Modulus (GPa) = 38.34860 58.07032 48.20946
# Shear Modulus (GPa) = 25.23053 27.96653 26.59853
#
# Velocity S-wave (km/s) = 3.56600 3.75437 3.66140
# Velocity P-wave (km/s) = 6.02355 6.93265 6.49402
#
# Compressibility (1/GPa) = 0.02607657
#
# Stress axis : x y z
#
# Youngs Moduli (GPa) = 80.04513 43.55702 85.56951
#
# Poissons Ratio (x) = 0.03549 0.59196
# Poissons Ratio (y) = 0.06521 0.23942
# Poissons Ratio (z) = 0.55375 0.12187
#
# Static dielectric constant tensor:
#      x y z
#    x 3.919650 0.000000 0.000000 
#    y 0.000000 3.496270 0.000000 
#    z 0.000000 0.000000 3.676050 
# 
# 
# High freq. dielectric constant tensor:
#      x y z
#    x 1.779360 0.000000 0.000000 
#    y 0.000000 1.772000 0.000000 
#    z 0.000000 0.000000 1.781390 
# 
# From -- ./inp_files/20571.got.cif
#   From: 2010.03.12/outbox.cif.g09.slc.cpg/sg59_11_cif.got.tgz:20571.got - 2010.04.16 16:29:54.
