data_PCOD8245706
_publ_section_title
;
Structure prediction by ZEFSAII (Michael W. Deem and Ramdas Pophale) SiO2 
 PCOD8245706
Probable space group: P M M N
;
_chemical_formula_sum "Si O2"
_cell_formula_units_Z 40
_cell_length_a 8.771980
_cell_length_b 14.796547
_cell_length_c 15.007710
_cell_angle_alpha 90.000000
_cell_angle_beta 90.000000
_cell_angle_gamma 90.000000
_cell_volume 1947.925935
_symmetry_space_group_name_H-M "P M M N"
_symmetry_group_IT_number 59
_space_group.IT_coordinate_system_code '2'
_symmetry_cell_setting 'orthorhombic'
loop_
_space_group_symop_operation_xyz
x,y,z
1/2-x,1/2-y,z
1/2+x,-y,-z
-x,1/2+y,-z
-x,-y,-z
1/2+x,1/2+y,-z
1/2-x,y,z
x,1/2-y,z
loop_
_atom_site_type_symbol
_atom_site_label
_atom_site_fract_x
_atom_site_fract_y
_atom_site_fract_z
Si Si1 0.429525 0.931497 0.735924
Si Si2 0.572319 0.102511 0.670939
Si Si3 0.575313 0.250000 0.525069
Si Si4 0.928741 0.750000 0.662517
Si Si5 0.070850 0.750000 0.195116
Si Si6 0.077137 0.250000 0.992980
Si Si7 0.072209 0.060086 0.076386
O O1 0.250000 0.919890 0.736405
O O2 0.503238 0.837487 0.709191
O O3 0.488849 0.963217 0.832065
O O4 0.477888 0.009416 0.665868
O O5 0.750000 0.078877 0.681118
O O6 0.542622 0.159967 0.581826
O O7 0.509761 0.160155 0.755540
O O8 0.750000 0.250000 0.491545
O O9 0.463202 0.250000 0.441999
O O10 0.750000 0.750000 0.678895
O O11 0.250000 0.750000 0.209241
O O12 0.030935 0.750000 0.092100
O O13 0.250000 0.250000 0.957404
O O14 0.042980 0.164547 0.054389
O O15 0.250000 0.036942 0.085492
O O16 0.000000 0.000000 0.000000
#
# Coordination Sequence:
#
# PCOD8245706 Si02
#       7
#     8   8   4   4   4   4   8
#     4  12  25  41  62  89 120 158 203 250 301 359
#     4   9  19  38  63  90 121 156 194 241 299 358
#     4   9  20  41  67  95 124 154 195 245 295 356
#     4  12  26  44  65  88 120 161 202 248 302 359
#     4   9  18  33  57  87 118 154 195 240 291 350
#     4  10  22  36  53  78 112 153 194 241 296 351
#     4  11  23  40  60  86 120 159 204 251 300 355
#
# _framework density 20.534662000000001
#
# number of rings (size 3 to 8) (size 9 to 14) (size 15 to 20)
#    0.000    1.600    0.000    6.300    0.000    8.000 
#    0.000    2.000    0.000    0.000    0.000    0.000 
#    0.000    0.000    0.000    0.000    0.000    0.000 
#
# Total GULP energy -496173.044244 kJ/mol
# GULP energy per Si atom -12404.326106 kJ/mol
# Density = 2.048792 g / cm^3
# Si number density = 20.534662 Si / 1000 Ang^3
#
#
#
# Elastic Constant Matrix: (Units=GPa)
#
#
# Indices 1 2 3 4 5 6 
#
# 1 136.1169 64.4318 45.1471 0.0000 0.0000 0.0000
# 2 64.4318 148.6554 36.5988 0.0000 0.0000 0.0000
# 3 45.1471 36.5988 93.4797 0.0000 0.0000 0.0000
# 4 0.0000 0.0000 0.0000 16.5300 0.0000 0.0000
# 5 0.0000 0.0000 0.0000 0.0000 38.0260 0.0000
# 6 0.0000 0.0000 0.0000 0.0000 0.0000 27.7280
#
#
#
# Elastic Compliance Matrix: (Units=1/GPa)
#
#
# Indices 1 2 3 4 5 6 
#
# 1 0.010200 -0.003550 -0.003536 0.000000 0.000000 0.000000
# 2 -0.003550 0.008680 -0.001684 0.000000 0.000000 0.000000
# 3 -0.003536 -0.001684 0.013065 0.000000 0.000000 0.000000
# 4 0.000000 0.000000 0.000000 0.060496 0.000000 0.000000
# 5 0.000000 0.000000 0.000000 0.000000 0.026298 0.000000
# 6 0.000000 0.000000 0.000000 0.000000 0.000000 0.036065
#
#
# Mechanical properties :
#
#
# Convention : Reuss Voigt Hill
#
# Bulk Modulus (GPa) = 69.42404 74.51194 71.96799
# Shear Modulus (GPa) = 28.22530 31.92841 30.07686
#
# Velocity S-wave (km/s) = 3.71147 3.94744 3.83128
# Velocity P-wave (km/s) = 7.22830 7.55917 7.39559
#
# Compressibility (1/GPa) = 0.01440423
#
# Stress axis : x y z
#
# Youngs Moduli (GPa) = 98.03790 115.20226 76.54270
#
# Poissons Ratio (x) = 0.40902 0.27067
# Poissons Ratio (y) = 0.34808 0.12888
# Poissons Ratio (z) = 0.34668 0.19398
#
# Static dielectric constant tensor:
#      x y z
#    x 3.677100 0.000000 0.000000 
#    y 0.000000 3.908490 0.000000 
#    z 0.000000 0.000000 3.549770 
# 
# 
# High freq. dielectric constant tensor:
#      x y z
#    x 1.798170 0.000000 0.000000 
#    y 0.000000 1.821020 0.000000 
#    z 0.000000 0.000000 1.802610 
# 
# From -- ./inp_files/20054.got.cif
#   From: 2010.03.12/outbox.cif.g09.slc.cpg/sg59_11_cif.got.tgz:20054.got - 2010.04.16 16:29:54.
