data_PCOD8245379
_publ_section_title
;
Structure prediction by ZEFSAII (Michael W. Deem and Ramdas Pophale) SiO2 
 PCOD8245379
Probable space group: P M M N
;
_chemical_formula_sum "Si O2"
_cell_formula_units_Z 56
_cell_length_a 21.722626
_cell_length_b 8.628626
_cell_length_c 14.294978
_cell_angle_alpha 90.000000
_cell_angle_beta 90.000000
_cell_angle_gamma 90.000000
_cell_volume 2679.399436
_symmetry_space_group_name_H-M "P M M N"
_symmetry_group_IT_number 59
_space_group.IT_coordinate_system_code '2'
_symmetry_cell_setting 'orthorhombic'
loop_
_space_group_symop_operation_xyz
x,y,z
1/2-x,1/2-y,z
1/2+x,-y,-z
-x,1/2+y,-z
-x,-y,-z
1/2+x,1/2+y,-z
1/2-x,y,z
x,1/2-y,z
loop_
_atom_site_type_symbol
_atom_site_label
_atom_site_fract_x
_atom_site_fract_y
_atom_site_fract_z
Si Si1 0.988028 0.069513 0.601006
Si Si2 0.818566 0.418567 0.745245
Si Si3 0.924835 0.429431 0.246990
Si Si4 0.320631 0.433266 0.066781
Si Si5 0.679752 0.428856 0.386159
Si Si6 0.438526 0.068440 0.953009
Si Si7 0.136457 0.429294 0.423402
O O1 0.005623 0.250000 0.605378
O O2 0.916714 0.039086 0.618983
O O3 0.000000 0.000000 0.500000
O O4 0.025349 0.972449 0.675909
O O5 0.750000 0.385575 0.777385
O O6 0.850933 0.250000 0.728447
O O7 0.847508 0.508404 0.833504
O O8 0.812240 0.526382 0.652332
O O9 0.931448 0.250000 0.219969
O O10 0.857826 0.464942 0.291762
O O11 0.936776 0.531766 0.156566
O O12 0.250000 0.490581 0.042056
O O13 0.319664 0.250000 0.069398
O O14 0.373083 0.494123 0.994372
O O15 0.750000 0.472558 0.364877
O O16 0.672156 0.250000 0.416120
O O17 0.655136 0.532266 0.471046
O O18 0.442960 0.250000 0.968337
O O19 0.500000 0.000000 0.000000
O O20 0.118050 0.250000 0.420366
#
# Coordination Sequence:
#
# PCOD8245379 Si02
#       7
#     8   8   8   8   8   8   8
#     4  12  24  41  64  91 124 162 205 254 307 368
#     4  10  21  37  59  89 125 164 206 255 312 372
#     4  11  24  43  66  93 127 166 210 257 314 383
#     4   9  20  41  66  91 122 163 214 269 324 385
#     4  10  22  41  64  91 127 169 212 261 313 369
#     4  11  25  44  67  95 129 166 211 269 331 389
#     4  12  24  37  59  90 126 168 211 256 309 368
#
# _framework density 20.900205
#
# number of rings (size 3 to 8) (size 9 to 14) (size 15 to 20)
#    0.000    1.286    1.429    4.286    2.000    5.143 
#    0.000    0.000    0.000    0.000    0.000    0.000 
#    0.000    0.000    0.000    0.000    0.000    0.000 
#
# Total GULP energy -694078.612060 kJ/mol
# GULP energy per Si atom -12394.260930 kJ/mol
# Density = 2.085263 g / cm^3
# Si number density = 20.900205 Si / 1000 Ang^3
#
#
#
# Elastic Constant Matrix: (Units=GPa)
#
#
# Indices 1 2 3 4 5 6 
#
# 1 120.1378 35.5271 39.2517 0.0000 0.0000 0.0000
# 2 35.5271 56.3067 27.1761 0.0000 0.0000 0.0000
# 3 39.2517 27.1761 115.2521 0.0000 0.0000 0.0000
# 4 0.0000 0.0000 0.0000 36.6945 0.0000 0.0000
# 5 0.0000 0.0000 0.0000 0.0000 31.6441 0.0000
# 6 0.0000 0.0000 0.0000 0.0000 0.0000 25.6667
#
#
#
# Elastic Compliance Matrix: (Units=1/GPa)
#
#
# Indices 1 2 3 4 5 6 
#
# 1 0.010760 -0.005665 -0.002329 0.000000 0.000000 0.000000
# 2 -0.005665 0.023023 -0.003499 0.000000 0.000000 0.000000
# 3 -0.002329 -0.003499 0.010295 0.000000 0.000000 0.000000
# 4 0.000000 0.000000 0.000000 0.027252 0.000000 0.000000
# 5 0.000000 0.000000 0.000000 0.000000 0.031601 0.000000
# 6 0.000000 0.000000 0.000000 0.000000 0.000000 0.038961
#
#
# Mechanical properties :
#
#
# Convention : Reuss Voigt Hill
#
# Bulk Modulus (GPa) = 47.41235 55.06740 51.23988
# Shear Modulus (GPa) = 29.08507 31.45052 30.26780
#
# Velocity S-wave (km/s) = 3.73448 3.88338 3.80966
# Velocity P-wave (km/s) = 6.42880 6.82001 6.62729
#
# Compressibility (1/GPa) = 0.02109155
#
# Stress axis : x y z
#
# Youngs Moduli (GPa) = 92.93765 43.43430 97.13560
#
# Poissons Ratio (x) = 0.24606 0.22620
# Poissons Ratio (y) = 0.52650 0.33992
# Poissons Ratio (z) = 0.21643 0.15200
#
# Static dielectric constant tensor:
#      x y z
#    x 3.023120 0.000000 0.000000 
#    y 0.000000 3.819570 0.000000 
#    z 0.000000 0.000000 3.574440 
# 
# 
# High freq. dielectric constant tensor:
#      x y z
#    x 1.826980 0.000000 0.000000 
#    y 0.000000 1.822060 0.000000 
#    z 0.000000 0.000000 1.817230 
# 
# From -- ./inp_files/24288.got.cif
#   From: 2010.03.12/outbox.cif.g09.slc.cpg/sg59_13_cif.got.tgz:24288.got - 2010.04.16 16:29:54.
