data_PCOD8245381
_publ_section_title
;
Structure prediction by ZEFSAII (Michael W. Deem and Ramdas Pophale) SiO2 
 PCOD8245381
Probable space group: P M M N
;
_chemical_formula_sum "Si O2"
_cell_formula_units_Z 64
_cell_length_a 14.749383
_cell_length_b 22.856527
_cell_length_c 9.683129
_cell_angle_alpha 90.000000
_cell_angle_beta 90.000000
_cell_angle_gamma 90.000000
_cell_volume 3264.373261
_symmetry_space_group_name_H-M "P M M N"
_symmetry_group_IT_number 59
_space_group.IT_coordinate_system_code '2'
_symmetry_cell_setting 'orthorhombic'
loop_
_space_group_symop_operation_xyz
x,y,z
1/2-x,1/2-y,z
1/2+x,-y,-z
-x,1/2+y,-z
-x,-y,-z
1/2+x,1/2+y,-z
1/2-x,y,z
x,1/2-y,z
loop_
_atom_site_type_symbol
_atom_site_label
_atom_site_fract_x
_atom_site_fract_y
_atom_site_fract_z
Si Si1 0.354014 0.090606 0.727032
Si Si2 0.395681 0.490819 0.972501
Si Si3 0.352745 0.517650 0.534672
Si Si4 0.150361 0.452509 0.267387
Si Si5 0.353170 0.817482 0.170800
Si Si6 0.507770 0.682342 0.379819
Si Si7 0.352467 0.881696 0.896196
Si Si8 0.978516 0.117160 0.347384
O O1 0.250000 0.110145 0.727538
O O2 0.380496 0.064981 0.875752
O O3 0.412205 0.147673 0.694871
O O4 0.374279 0.043547 0.608565
O O5 0.355241 0.547712 0.896617
O O6 0.500000 0.500000 0.000000
O O7 0.345819 0.480198 0.116050
O O8 0.250000 0.539016 0.569099
O O9 0.366511 0.506415 0.372000
O O10 0.426340 0.564099 0.580538
O O11 0.250000 0.424716 0.298645
O O12 0.073605 0.403377 0.281825
O O13 0.250000 0.833087 0.211129
O O14 0.362853 0.750000 0.127121
O O15 0.413386 0.832558 0.303706
O O16 0.386704 0.856328 0.041905
O O17 0.532898 0.750000 0.367198
O O18 0.497203 0.667105 0.540919
O O19 0.250000 0.860672 0.866502
O O20 0.417171 0.856798 0.775899
#
# Coordination Sequence:
#
# PCOD8245381 Si02
#       8
#     8   8   8   8   8   8   8   8
#     4  11  22  40  64  90 126 161 200 254 309 368
#     4  12  22  36  60  93 130 160 192 247 307 370
#     4  10  21  37  59  91 126 160 192 235 302 368
#     4  11  23  37  55  86 124 163 198 236 299 369
#     4   9  21  42  63  84 116 159 206 256 308 367
#     4  11  26  43  63  89 118 162 216 260 306 362
#     4  11  22  37  60  92 125 160 200 245 307 376
#     4  12  23  37  61  87 126 158 200 255 302 357
#
# _framework density 19.605602000000001
#
# number of rings (size 3 to 8) (size 9 to 14) (size 15 to 20)
#    0.000    1.125    3.750    2.625    3.500    1.750 
#    0.000    0.000    0.000    0.000    0.000    0.000 
#    0.000    0.000    0.000    0.000    0.000    0.000 
#
# Total GULP energy -793918.088636 kJ/mol
# GULP energy per Si atom -12404.970135 kJ/mol
# Density = 1.956098 g / cm^3
# Si number density = 19.605602 Si / 1000 Ang^3
#
#
#
# Elastic Constant Matrix: (Units=GPa)
#
#
# Indices 1 2 3 4 5 6 
#
# 1 107.8352 30.9555 32.9350 0.0000 0.0000 0.0000
# 2 30.9555 70.0151 27.9184 0.0000 0.0000 0.0000
# 3 32.9350 27.9184 113.8580 0.0000 0.0000 0.0000
# 4 0.0000 0.0000 0.0000 27.7898 0.0000 0.0000
# 5 0.0000 0.0000 0.0000 0.0000 31.5417 0.0000
# 6 0.0000 0.0000 0.0000 0.0000 0.0000 25.2369
#
#
#
# Elastic Compliance Matrix: (Units=1/GPa)
#
#
# Indices 1 2 3 4 5 6 
#
# 1 0.011108 -0.004023 -0.002227 0.000000 0.000000 0.000000
# 2 -0.004023 0.017288 -0.003075 0.000000 0.000000 0.000000
# 3 -0.002227 -0.003075 0.010181 0.000000 0.000000 0.000000
# 4 0.000000 0.000000 0.000000 0.035984 0.000000 0.000000
# 5 0.000000 0.000000 0.000000 0.000000 0.031704 0.000000
# 6 0.000000 0.000000 0.000000 0.000000 0.000000 0.039625
#
#
# Mechanical properties :
#
#
# Convention : Reuss Voigt Hill
#
# Bulk Modulus (GPa) = 50.18433 52.81402 51.49917
# Shear Modulus (GPa) = 29.20847 30.24029 29.72438
#
# Velocity S-wave (km/s) = 3.86398 3.93164 3.89796
# Velocity P-wave (km/s) = 6.74979 6.89979 6.82520
#
# Compressibility (1/GPa) = 0.01992654
#
# Stress axis : x y z
#
# Youngs Moduli (GPa) = 90.02130 57.84453 98.22193
#
# Poissons Ratio (x) = 0.23273 0.21871
# Poissons Ratio (y) = 0.36220 0.30205
# Poissons Ratio (z) = 0.20045 0.17788
#
# Static dielectric constant tensor:
#      x y z
#    x 3.787750 0.000000 0.000000 
#    y 0.000000 3.281140 0.000000 
#    z 0.000000 0.000000 3.749940 
# 
# 
# High freq. dielectric constant tensor:
#      x y z
#    x 1.780480 0.000000 0.000000 
#    y 0.000000 1.726630 0.000000 
#    z 0.000000 0.000000 1.779790 
# 
# From -- ./inp_files/9623.got.cif
#   From: 2010.03.12/outbox.cif.g09.slc.cpg/sg59_5_cif.got.tgz:9623.got - 2010.04.16 16:29:54.
