data_PCOD8245384
_publ_section_title
;
Structure prediction by ZEFSAII (Michael W. Deem and Ramdas Pophale) SiO2 
 PCOD8245384
Probable space group: P M M N
;
_chemical_formula_sum "Si O2"
_cell_formula_units_Z 64
_cell_length_a 22.938861
_cell_length_b 8.842106
_cell_length_c 16.523526
_cell_angle_alpha 90.000000
_cell_angle_beta 90.000000
_cell_angle_gamma 90.000000
_cell_volume 3351.431096
_symmetry_space_group_name_H-M "P M M N"
_symmetry_group_IT_number 59
_space_group.IT_coordinate_system_code '2'
_symmetry_cell_setting 'orthorhombic'
loop_
_space_group_symop_operation_xyz
x,y,z
1/2-x,1/2-y,z
1/2+x,-y,-z
-x,1/2+y,-z
-x,-y,-z
1/2+x,1/2+y,-z
1/2-x,y,z
x,1/2-y,z
loop_
_atom_site_type_symbol
_atom_site_label
_atom_site_fract_x
_atom_site_fract_y
_atom_site_fract_z
Si Si1 0.925936 0.073101 0.548768
Si Si2 0.017701 0.929357 0.084034
Si Si3 0.181864 0.570400 0.887939
Si Si4 0.313717 0.926173 0.366262
Si Si5 0.581496 0.570977 0.212523
Si Si6 0.135138 0.072968 0.051832
Si Si7 0.183946 0.412188 0.213533
Si Si8 0.968543 0.427800 0.373287
O O1 0.937919 0.250000 0.562948
O O2 0.859013 0.026523 0.564420
O O3 0.936213 0.026643 0.456303
O O4 0.965355 0.983641 0.613945
O O5 0.023712 0.750000 0.077640
O O6 0.970367 0.975882 0.151351
O O7 0.079703 0.005780 0.100334
O O8 0.000000 0.000000 0.000000
O O9 0.250000 0.519017 0.880551
O O10 0.177422 0.750000 0.885135
O O11 0.143209 0.502013 0.814978
O O12 0.153255 0.513257 0.971136
O O13 0.250000 0.998269 0.385790
O O14 0.306468 0.750000 0.361851
O O15 0.342052 0.973130 0.279454
O O16 0.589833 0.750000 0.214928
O O17 0.564409 0.511943 0.300890
O O18 0.126434 0.250000 0.029761
O O19 0.183764 0.039530 0.119429
O O20 0.250000 0.394503 0.239674
O O21 0.151270 0.250000 0.221357
O O22 0.967333 0.250000 0.355815
#
# Coordination Sequence:
#
# PCOD8245384 Si02
#       8
#     8   8   8   8   8   8   8   8
#     4   9  19  37  58  84 115 147 187 231 285 348
#     4  11  23  38  57  82 113 149 187 233 283 334
#     4  11  24  41  62  86 113 149 195 244 289 337
#     4   9  18  33  54  79 109 145 183 226 277 334
#     4  11  24  41  61  86 117 152 190 234 288 345
#     4  11  22  36  56  82 113 151 191 233 283 336
#     4   9  19  34  50  74 110 147 184 223 265 321
#     4  10  21  37  60  86 114 148 188 238 289 342
#
# _framework density 19.096319000000001
#
# number of rings (size 3 to 8) (size 9 to 14) (size 15 to 20)
#    0.000    1.875    1.250    2.250    1.750    5.000 
#    0.000    1.875    0.000    2.250    0.000    0.000 
#    0.000    0.000    0.000    0.000    0.000    0.000 
#
# Total GULP energy -793066.716994 kJ/mol
# GULP energy per Si atom -12391.667453 kJ/mol
# Density = 1.905285 g / cm^3
# Si number density = 19.096319 Si / 1000 Ang^3
#
#
#
# Elastic Constant Matrix: (Units=GPa)
#
#
# Indices 1 2 3 4 5 6 
#
# 1 120.3412 49.1232 62.8007 0.0000 0.0000 0.0000
# 2 49.1232 63.6073 36.4027 0.0000 0.0000 0.0000
# 3 62.8007 36.4027 109.4105 0.0000 0.0000 0.0000
# 4 0.0000 0.0000 0.0000 32.9117 0.0000 0.0000
# 5 0.0000 0.0000 0.0000 0.0000 22.6064 0.0000
# 6 0.0000 0.0000 0.0000 0.0000 0.0000 27.7947
#
#
#
# Elastic Compliance Matrix: (Units=1/GPa)
#
#
# Indices 1 2 3 4 5 6 
#
# 1 0.014531 -0.007965 -0.005690 0.000000 0.000000 0.000000
# 2 -0.007965 0.023785 -0.003342 0.000000 0.000000 0.000000
# 3 -0.005690 -0.003342 0.013518 0.000000 0.000000 0.000000
# 4 0.000000 0.000000 0.000000 0.030384 0.000000 0.000000
# 5 0.000000 0.000000 0.000000 0.000000 0.044235 0.000000
# 6 0.000000 0.000000 0.000000 0.000000 0.000000 0.035978
#
#
# Mechanical properties :
#
#
# Convention : Reuss Voigt Hill
#
# Bulk Modulus (GPa) = 56.05601 65.55691 60.80646
# Shear Modulus (GPa) = 24.70685 26.33137 25.51911
#
# Velocity S-wave (km/s) = 3.60085 3.71734 3.65956
# Velocity P-wave (km/s) = 6.83419 7.26836 7.05462
#
# Compressibility (1/GPa) = 0.01783930
#
# Stress axis : x y z
#
# Youngs Moduli (GPa) = 68.82021 42.04246 73.97574
#
# Poissons Ratio (x) = 0.33488 0.42094
# Poissons Ratio (y) = 0.54817 0.24721
# Poissons Ratio (z) = 0.39161 0.14050
#
# Static dielectric constant tensor:
#      x y z
#    x 3.683270 0.000000 0.000000 
#    y 0.000000 3.649080 0.000000 
#    z 0.000000 0.000000 3.464910 
# 
# 
# High freq. dielectric constant tensor:
#      x y z
#    x 1.744960 0.000000 0.000000 
#    y 0.000000 1.747040 0.000000 
#    z 0.000000 0.000000 1.738530 
# 
# From -- ./inp_files/24708.got.cif
#   From: 2010.03.12/outbox.cif.g09.slc.cpg/sg59_13_cif.got.tgz:24708.got - 2010.04.16 16:29:54.
