data_PCOD8245251
_publ_section_title
;
Structure prediction by ZEFSAII (Michael W. Deem and Ramdas Pophale) SiO2 
 PCOD8245251
Probable space group: P M M N
;
_chemical_formula_sum "Si O2"
_cell_formula_units_Z 56
_cell_length_a 9.029364
_cell_length_b 22.194946
_cell_length_c 14.793330
_cell_angle_alpha 90.000000
_cell_angle_beta 90.000000
_cell_angle_gamma 90.000000
_cell_volume 2964.675737
_symmetry_space_group_name_H-M "P M M N"
_symmetry_group_IT_number 59
_space_group.IT_coordinate_system_code '2'
_symmetry_cell_setting 'orthorhombic'
loop_
_space_group_symop_operation_xyz
x,y,z
1/2-x,1/2-y,z
1/2+x,-y,-z
-x,1/2+y,-z
-x,-y,-z
1/2+x,1/2+y,-z
1/2-x,y,z
x,1/2-y,z
loop_
_atom_site_type_symbol
_atom_site_label
_atom_site_fract_x
_atom_site_fract_y
_atom_site_fract_z
Si Si1 0.580314 0.011505 0.906543
Si Si2 0.921893 0.087630 0.199990
Si Si3 0.919208 0.819121 0.924419
Si Si4 0.579368 0.682676 0.288289
Si Si5 0.580044 0.444764 0.399335
Si Si6 0.919785 0.349002 0.890999
Si Si7 0.424195 0.080478 0.576415
O O1 0.750000 0.990972 0.916023
O O2 0.566317 0.080029 0.877283
O O3 0.499653 0.973722 0.829709
O O4 0.500000 0.000000 0.000000
O O5 0.750000 0.084782 0.172431
O O6 0.943543 0.092452 0.307447
O O7 0.994885 0.144736 0.152635
O O8 0.750000 0.841659 0.929422
O O9 0.928197 0.750000 0.895543
O O10 0.992047 0.828280 0.021334
O O11 0.750000 0.667579 0.265548
O O12 0.564789 0.750000 0.330390
O O13 0.487839 0.682685 0.195977
O O14 0.513786 0.632999 0.357794
O O15 0.750000 0.444977 0.429553
O O16 0.527779 0.514436 0.386997
O O17 0.488986 0.410241 0.476271
O O18 0.750000 0.328811 0.902423
O O19 0.250000 0.087618 0.569251
#
# Coordination Sequence:
#
# PCOD8245251 Si02
#       7
#     8   8   8   8   8   8   8
#     4  11  22  35  54  82 114 148 185 230 281 330
#     4  11  22  37  58  84 114 148 185 229 281 334
#     4  11  24  40  57  77 106 148 193 234 276 327
#     4  10  21  37  57  82 113 150 189 229 279 339
#     4   9  19  35  57  84 111 141 179 226 283 339
#     4  11  23  37  56  83 113 148 188 230 280 332
#     4   9  18  35  58  83 111 143 179 225 277 333
#
# _framework density 18.889081000000001
#
# number of rings (size 3 to 8) (size 9 to 14) (size 15 to 20)
#    0.000    1.714    1.429    3.000    0.000    7.714 
#    0.000    3.571    0.000    2.571    0.000    0.000 
#    0.000    0.000    0.000    0.000    0.000    0.000 
#
# Total GULP energy -694550.812038 kJ/mol
# GULP energy per Si atom -12402.693072 kJ/mol
# Density = 1.884609 g / cm^3
# Si number density = 18.889081 Si / 1000 Ang^3
#
#
#
# Elastic Constant Matrix: (Units=GPa)
#
#
# Indices 1 2 3 4 5 6 
#
# 1 105.3937 39.5780 49.7511 0.0000 0.0000 0.0000
# 2 39.5780 92.0444 47.1252 0.0000 0.0000 0.0000
# 3 49.7511 47.1252 115.0807 0.0000 0.0000 0.0000
# 4 0.0000 0.0000 0.0000 21.9719 0.0000 0.0000
# 5 0.0000 0.0000 0.0000 0.0000 36.1065 0.0000
# 6 0.0000 0.0000 0.0000 0.0000 0.0000 28.0227
#
#
#
# Elastic Compliance Matrix: (Units=1/GPa)
#
#
# Indices 1 2 3 4 5 6 
#
# 1 0.012688 -0.003350 -0.004114 0.000000 0.000000 0.000000
# 2 -0.003350 0.014631 -0.004543 0.000000 0.000000 0.000000
# 3 -0.004114 -0.004543 0.012328 0.000000 0.000000 0.000000
# 4 0.000000 0.000000 0.000000 0.045513 0.000000 0.000000
# 5 0.000000 0.000000 0.000000 0.000000 0.027696 0.000000
# 6 0.000000 0.000000 0.000000 0.000000 0.000000 0.035685
#
#
# Mechanical properties :
#
#
# Convention : Reuss Voigt Hill
#
# Bulk Modulus (GPa) = 63.96177 65.04747 64.50462
# Shear Modulus (GPa) = 28.12712 28.95786 28.54249
#
# Velocity S-wave (km/s) = 3.86303 3.91966 3.89145
# Velocity P-wave (km/s) = 7.33707 7.41595 7.37662
#
# Compressibility (1/GPa) = 0.01563434
#
# Stress axis : x y z
#
# Youngs Moduli (GPa) = 78.81546 68.34990 81.11433
#
# Poissons Ratio (x) = 0.22894 0.33366
# Poissons Ratio (y) = 0.26400 0.36851
# Poissons Ratio (z) = 0.32421 0.31052
#
# Static dielectric constant tensor:
#      x y z
#    x 3.555810 0.000000 0.000000 
#    y 0.000000 3.551620 0.000000 
#    z 0.000000 0.000000 2.889980 
# 
# 
# High freq. dielectric constant tensor:
#      x y z
#    x 1.741400 0.000000 0.000000 
#    y 0.000000 1.734380 0.000000 
#    z 0.000000 0.000000 1.728940 
# 
# From -- ./inp_files/21011.got.cif
#   From: 2010.03.12/outbox.cif.g09.slc.cpg/sg59_11_cif.got.tgz:21011.got - 2010.04.16 16:29:54.
