data_PCOD8245498
_publ_section_title
;
Structure prediction by ZEFSAII (Michael W. Deem and Ramdas Pophale) SiO2 
 PCOD8245498
Probable space group: P M M N
;
_chemical_formula_sum "Si O2"
_cell_formula_units_Z 48
_cell_length_a 18.737772
_cell_length_b 8.605335
_cell_length_c 15.266657
_cell_angle_alpha 90.000000
_cell_angle_beta 90.000000
_cell_angle_gamma 90.000000
_cell_volume 2461.669134
_symmetry_space_group_name_H-M "P M M N"
_symmetry_group_IT_number 59
_space_group.IT_coordinate_system_code '2'
_symmetry_cell_setting 'orthorhombic'
loop_
_space_group_symop_operation_xyz
x,y,z
1/2-x,1/2-y,z
1/2+x,-y,-z
-x,1/2+y,-z
-x,-y,-z
1/2+x,1/2+y,-z
1/2-x,y,z
x,1/2-y,z
loop_
_atom_site_type_symbol
_atom_site_label
_atom_site_fract_x
_atom_site_fract_y
_atom_site_fract_z
Si Si1 0.077932 0.567783 0.503043
Si Si2 0.332404 0.430335 0.349634
Si Si3 0.921686 0.568273 0.991182
Si Si4 0.166267 0.570526 0.857271
Si Si5 0.828863 0.434163 0.339210
Si Si6 0.331684 0.568997 0.165183
O O1 0.071835 0.750000 0.513352
O O2 0.120501 0.529444 0.415486
O O3 0.118020 0.495856 0.588000
O O4 0.000000 0.500000 0.500000
O O5 0.250000 0.472825 0.366206
O O6 0.347984 0.250000 0.364919
O O7 0.354430 0.474426 0.251246
O O8 0.925361 0.750000 0.970765
O O9 0.878571 0.540703 0.080346
O O10 0.882315 0.481187 0.912940
O O11 0.000000 0.500000 0.000000
O O12 0.250000 0.543352 0.872869
O O13 0.146831 0.750000 0.876382
O O14 0.144723 0.522856 0.758315
O O15 0.750000 0.504645 0.355808
O O16 0.824145 0.250000 0.347528
O O17 0.250000 0.531192 0.138974
O O18 0.341832 0.750000 0.184833
#
# Coordination Sequence:
#
# PCOD8245498 Si02
#       6
#     8   8   8   8   8   8
#     4  11  22  36  55  81 116 154 193 237 286 340
#     4  10  21  38  60  86 115 148 189 236 286 342
#     4  12  25  39  56  81 116 153 189 230 279 337
#     4   9  18  36  61  85 109 140 183 234 285 338
#     4   8  16  33  58  83 105 138 185 231 275 327
#     4  10  21  39  63  88 113 145 188 236 286 341
#
# _framework density 19.498964000000001
#
# number of rings (size 3 to 8) (size 9 to 14) (size 15 to 20)
#    0.000    2.000    0.000    5.000    0.000    6.333 
#    0.000    6.667    0.000    2.000    0.000    0.000 
#    0.000    0.000    0.000    0.000    0.000    0.000 
#
# Total GULP energy -595320.635894 kJ/mol
# GULP energy per Si atom -12402.513248 kJ/mol
# Density = 1.945458 g / cm^3
# Si number density = 19.498964 Si / 1000 Ang^3
#
#
#
# Elastic Constant Matrix: (Units=GPa)
#
#
# Indices 1 2 3 4 5 6 
#
# 1 102.5580 24.3467 68.2437 0.0000 0.0000 0.0000
# 2 24.3467 49.7431 13.8307 0.0000 0.0000 0.0000
# 3 68.2437 13.8307 120.0726 0.0000 0.0000 0.0000
# 4 0.0000 0.0000 0.0000 30.0321 0.0000 0.0000
# 5 0.0000 0.0000 0.0000 0.0000 -1.3087 0.0000
# 6 0.0000 0.0000 0.0000 0.0000 0.0000 32.0375
#
#
#
# Elastic Compliance Matrix: (Units=1/GPa)
#
#
# Indices 1 2 3 4 5 6 
#
# 1 0.017204 -0.005890 -0.009099 0.000000 0.000000 0.000000
# 2 -0.005890 0.022785 0.000723 0.000000 0.000000 0.000000
# 3 -0.009099 0.000723 0.013417 0.000000 0.000000 0.000000
# 4 0.000000 0.000000 0.000000 0.033298 0.000000 0.000000
# 5 0.000000 0.000000 0.000000 0.000000 -0.764128 0.000000
# 6 0.000000 0.000000 0.000000 0.000000 0.000000 0.031213
#
#
# Mechanical properties :
#
#
# Convention : Reuss Voigt Hill
#
# Bulk Modulus (GPa) = 40.20462 53.91287 47.05874
# Shear Modulus (GPa) = -8.20496 23.21570 7.50537
#
# Velocity S-wave (km/s) = -2.05354 3.45427 1.96404
# Velocity P-wave (km/s) = 3.87826 6.60442 5.41569
#
# Compressibility (1/GPa) = 0.02487276
#
# Stress axis : x y z
#
# Youngs Moduli (GPa) = 58.12683 43.88812 74.53441
#
# Poissons Ratio (x) = 0.25852 0.67821
# Poissons Ratio (y) = 0.34239 -0.05391
# Poissons Ratio (z) = 0.52892 -0.03174
#
# Static dielectric constant tensor:
#      x y z
#    x 3.652110 0.000000 0.000000 
#    y 0.000000 3.442490 0.000000 
#    z 0.000000 0.000000 3.570690 
# 
# 
# High freq. dielectric constant tensor:
#      x y z
#    x 1.758360 0.000000 0.000000 
#    y 0.000000 1.748750 0.000000 
#    z 0.000000 0.000000 1.774210 
# 
# From -- ./inp_files/23647.got.cif
#   From: 2010.03.12/outbox.cif.g09.slc.cpg/sg59_12_cif.got.tgz:23647.got - 2010.04.16 16:29:54.
