data_PCOD8245800
_publ_section_title
;
Structure prediction by ZEFSAII (Michael W. Deem and Ramdas Pophale) SiO2 
 PCOD8245800
Probable space group: P M M N
;
_chemical_formula_sum "Si O2"
_cell_formula_units_Z 64
_cell_length_a 8.691455
_cell_length_b 14.652258
_cell_length_c 25.931880
_cell_angle_alpha 90.000000
_cell_angle_beta 90.000000
_cell_angle_gamma 90.000000
_cell_volume 3302.410424
_symmetry_space_group_name_H-M "P M M N"
_symmetry_group_IT_number 59
_space_group.IT_coordinate_system_code '2'
_symmetry_cell_setting 'orthorhombic'
loop_
_space_group_symop_operation_xyz
x,y,z
1/2-x,1/2-y,z
1/2+x,-y,-z
-x,1/2+y,-z
-x,-y,-z
1/2+x,1/2+y,-z
1/2-x,y,z
x,1/2-y,z
loop_
_atom_site_type_symbol
_atom_site_label
_atom_site_fract_x
_atom_site_fract_y
_atom_site_fract_z
Si Si1 0.430283 0.000105 0.788680
Si Si2 0.932312 0.354407 0.861803
Si Si3 0.432442 0.145584 0.138411
Si Si4 0.923378 0.850714 0.599324
Si Si5 0.930378 0.500215 0.943932
Si Si6 0.929660 0.003373 0.678071
Si Si7 0.430659 0.599219 0.496544
Si Si8 0.077153 0.147787 0.607974
O O1 0.250000 0.999581 0.797918
O O2 0.499657 0.907400 0.812577
O O3 0.498042 0.092833 0.813053
O O4 0.467813 0.001370 0.728712
O O5 0.750000 0.355953 0.855565
O O6 0.993661 0.250000 0.864427
O O7 0.982971 0.408857 0.913457
O O8 0.250000 0.144296 0.144025
O O9 0.494028 0.250000 0.136001
O O10 0.484449 0.090947 0.086928
O O11 0.750000 0.878666 0.582269
O O12 0.925979 0.750000 0.623641
O O13 0.033923 0.850433 0.549961
O O14 0.982740 0.918165 0.643390
O O15 0.750000 0.501083 0.950182
O O16 0.000000 0.500000 0.000000
O O17 0.750000 0.999660 0.692609
O O18 0.964620 0.093550 0.645607
O O19 0.500000 0.500000 0.500000
O O20 0.250000 0.596641 0.486433
O O21 0.511245 0.650950 0.449686
O O22 0.250000 0.105740 0.607769
O O23 0.082224 0.250000 0.629441
#
# Coordination Sequence:
#
# PCOD8245800 Si02
#       8
#     8   8   8   8   8   8   8   8
#     4  11  23  38  58  85 117 147 183 240 297 343
#     4   9  19  38  61  82 109 151 200 241 280 336
#     4   9  19  38  61  82 110 153 201 241 281 336
#     4  10  22  40  61  86 114 145 184 230 279 334
#     4   9  18  32  52  83 120 155 191 234 285 337
#     4  11  23  40  62  85 113 152 191 231 280 340
#     4  12  23  37  60  86 115 151 188 229 279 335
#     4  11  24  41  61  86 117 150 185 232 286 337
#
# _framework density 19.379784000000001
#
# number of rings (size 3 to 8) (size 9 to 14) (size 15 to 20)
#    0.000    1.750    1.250    4.125    0.000    7.250 
#    0.000    1.250    0.000    0.000    0.000    0.000 
#    0.000    0.000    0.000    0.000    0.000    0.000 
#
# Total GULP energy -793671.498695 kJ/mol
# GULP energy per Si atom -12401.117167 kJ/mol
# Density = 1.933567 g / cm^3
# Si number density = 19.379784 Si / 1000 Ang^3
#
#
#
# Elastic Constant Matrix: (Units=GPa)
#
#
# Indices 1 2 3 4 5 6 
#
# 1 47.5399 28.9463 17.7860 0.0000 0.0000 0.0000
# 2 28.9463 158.3711 60.5682 0.0000 0.0000 0.0000
# 3 17.7860 60.5682 129.7085 0.0000 0.0000 0.0000
# 4 0.0000 0.0000 0.0000 63.2283 0.0000 0.0000
# 5 0.0000 0.0000 0.0000 0.0000 35.4998 0.0000
# 6 0.0000 0.0000 0.0000 0.0000 0.0000 5.8489
#
#
#
# Elastic Compliance Matrix: (Units=1/GPa)
#
#
# Indices 1 2 3 4 5 6 
#
# 1 0.023909 -0.003794 -0.001507 0.000000 0.000000 0.000000
# 2 -0.003794 0.008289 -0.003350 0.000000 0.000000 0.000000
# 3 -0.001507 -0.003350 0.009481 0.000000 0.000000 0.000000
# 4 0.000000 0.000000 0.000000 0.015816 0.000000 0.000000
# 5 0.000000 0.000000 0.000000 0.000000 0.028169 0.000000
# 6 0.000000 0.000000 0.000000 0.000000 0.000000 0.170973
#
#
# Mechanical properties :
#
#
# Convention : Reuss Voigt Hill
#
# Bulk Modulus (GPa) = 41.02330 61.13561 51.07945
# Shear Modulus (GPa) = 17.72653 36.13666 26.93160
#
# Velocity S-wave (km/s) = 3.02767 4.32285 3.73188
# Velocity P-wave (km/s) = 5.78242 7.51869 6.70698
#
# Compressibility (1/GPa) = 0.02437639
#
# Stress axis : x y z
#
# Youngs Moduli (GPa) = 41.82599 120.64185 105.47708
#
# Poissons Ratio (x) = 0.45766 0.15895
# Poissons Ratio (y) = 0.15867 0.35339
# Poissons Ratio (z) = 0.06303 0.40420
#
# Static dielectric constant tensor:
#      x y z
#    x 3.423510 0.000000 0.000000 
#    y 0.000000 3.761910 0.000000 
#    z 0.000000 0.000000 3.949600 
# 
# 
# High freq. dielectric constant tensor:
#      x y z
#    x 1.752040 0.000000 0.000000 
#    y 0.000000 1.764570 0.000000 
#    z 0.000000 0.000000 1.748730 
# 
# From -- ./inp_files/31426.got.cif
#   From: 2010.03.12/outbox.cif.g09.slc.cpg/sg59_16_cif.got.tgz:31426.got - 2010.04.16 16:29:54.
