data_PCOD8245946
_publ_section_title
;
Structure prediction by ZEFSAII (Michael W. Deem and Ramdas Pophale) SiO2 
 PCOD8245946
Probable space group: P M M N
;
_chemical_formula_sum "Si O2"
_cell_formula_units_Z 40
_cell_length_a 20.226881
_cell_length_b 9.124603
_cell_length_c 12.593522
_cell_angle_alpha 90.000000
_cell_angle_beta 90.000000
_cell_angle_gamma 90.000000
_cell_volume 2324.288870
_symmetry_space_group_name_H-M "P M M N"
_symmetry_group_IT_number 59
_space_group.IT_coordinate_system_code '2'
_symmetry_cell_setting 'orthorhombic'
loop_
_space_group_symop_operation_xyz
x,y,z
1/2-x,1/2-y,z
1/2+x,-y,-z
-x,1/2+y,-z
-x,-y,-z
1/2+x,1/2+y,-z
1/2-x,y,z
x,1/2-y,z
loop_
_atom_site_type_symbol
_atom_site_label
_atom_site_fract_x
_atom_site_fract_y
_atom_site_fract_z
Si Si1 0.676464 0.575932 0.888610
Si Si2 0.897484 0.580006 0.682486
Si Si3 0.068783 0.919646 0.511804
Si Si4 0.951437 0.083606 0.256916
Si Si5 0.435784 0.076198 0.952332
O O1 0.750000 0.512898 0.909237
O O2 0.677100 0.750000 0.887458
O O3 0.651144 0.520630 0.773911
O O4 0.627752 0.521625 0.981285
O O5 0.886042 0.750000 0.657882
O O6 0.881151 0.491727 0.573533
O O7 0.971801 0.550045 0.721561
O O8 0.059086 0.750000 0.484202
O O9 0.091341 0.938996 0.634740
O O10 0.000000 0.000000 0.500000
O O11 0.943980 0.250000 0.215441
O O12 0.924013 0.972817 0.168797
O O13 0.444995 0.250000 0.958909
O O14 0.500000 0.000000 0.000000
#
# Coordination Sequence:
#
# PCOD8245946 Si02
#       5
#     8   8   8   8   8
#     4   9  18  33  51  71  98 132 167 205 251 298
#     4   9  16  29  48  70  97 125 159 200 244 293
#     4   9  17  28  44  68  98 127 156 194 240 288
#     4   9  17  30  46  70 100 127 159 200 245 289
#     4  11  20  31  50  74  99 129 166 207 251 297
#
# _framework density 17.209565000000001
#
# number of rings (size 3 to 8) (size 9 to 14) (size 15 to 20)
#    0.000    2.600    2.000    2.400    0.000    4.000 
#    0.000    0.000    0.000    6.600    0.000    8.400 
#    0.000    0.000    0.000    0.000    0.000    0.000 
#
# Total GULP energy -495771.344191 kJ/mol
# GULP energy per Si atom -12394.283605 kJ/mol
# Density = 1.717040 g / cm^3
# Si number density = 17.209565 Si / 1000 Ang^3
#
#
#
# Elastic Constant Matrix: (Units=GPa)
#
#
# Indices 1 2 3 4 5 6 
#
# 1 85.5195 30.2640 59.2487 0.0000 0.0000 0.0000
# 2 30.2640 73.0241 59.5787 0.0000 0.0000 0.0000
# 3 59.2487 59.5787 148.4501 0.0000 0.0000 0.0000
# 4 0.0000 0.0000 0.0000 36.6291 0.0000 0.0000
# 5 0.0000 0.0000 0.0000 0.0000 21.5010 0.0000
# 6 0.0000 0.0000 0.0000 0.0000 0.0000 13.3778
#
#
#
# Elastic Compliance Matrix: (Units=1/GPa)
#
#
# Indices 1 2 3 4 5 6 
#
# 1 0.016389 -0.002164 -0.005673 0.000000 0.000000 0.000000
# 2 -0.002164 0.020647 -0.007423 0.000000 0.000000 0.000000
# 3 -0.005673 -0.007423 0.011979 0.000000 0.000000 0.000000
# 4 0.000000 0.000000 0.000000 0.027301 0.000000 0.000000
# 5 0.000000 0.000000 0.000000 0.000000 0.046510 0.000000
# 6 0.000000 0.000000 0.000000 0.000000 0.000000 0.074751
#
#
# Mechanical properties :
#
#
# Convention : Reuss Voigt Hill
#
# Bulk Modulus (GPa) = 54.06407 67.24184 60.65295
# Shear Modulus (GPa) = 21.34372 24.82838 23.08605
#
# Velocity S-wave (km/s) = 3.52550 3.80242 3.66658
# Velocity P-wave (km/s) = 6.93221 7.64428 7.29694
#
# Compressibility (1/GPa) = 0.01849657
#
# Stress axis : x y z
#
# Youngs Moduli (GPa) = 61.01612 48.43308 83.47730
#
# Poissons Ratio (x) = 0.10482 0.47353
# Poissons Ratio (y) = 0.13205 0.61963
# Poissons Ratio (z) = 0.34612 0.35950
#
# Static dielectric constant tensor:
#      x y z
#    x 3.022130 0.000000 0.000000 
#    y 0.000000 3.195400 0.000000 
#    z 0.000000 0.000000 4.020400 
# 
# 
# High freq. dielectric constant tensor:
#      x y z
#    x 1.613020 0.000000 0.000000 
#    y 0.000000 1.651940 0.000000 
#    z 0.000000 0.000000 1.683620 
# 
# From -- ./inp_files/14027.got.cif
#   From: 2010.03.12/outbox.cif.g09.slc.cpg/sg59_8_cif.got.tgz:14027.got - 2010.04.16 16:29:54.
