data_PCOD8245354
_publ_section_title
;
Structure prediction by ZEFSAII (Michael W. Deem and Ramdas Pophale) SiO2 
 PCOD8245354
Probable space group: P M M N
;
_chemical_formula_sum "Si O2"
_cell_formula_units_Z 48
_cell_length_a 23.004825
_cell_length_b 8.810357
_cell_length_c 12.613619
_cell_angle_alpha 90.000000
_cell_angle_beta 90.000000
_cell_angle_gamma 90.000000
_cell_volume 2556.537393
_symmetry_space_group_name_H-M "P M M N"
_symmetry_group_IT_number 59
_space_group.IT_coordinate_system_code '2'
_symmetry_cell_setting 'orthorhombic'
loop_
_space_group_symop_operation_xyz
x,y,z
1/2-x,1/2-y,z
1/2+x,-y,-z
-x,1/2+y,-z
-x,-y,-z
1/2+x,1/2+y,-z
1/2-x,y,z
x,1/2-y,z
loop_
_atom_site_type_symbol
_atom_site_label
_atom_site_fract_x
_atom_site_fract_y
_atom_site_fract_z
Si Si1 0.496707 0.572539 0.615016
Si Si2 0.130809 0.927165 0.692577
Si Si3 0.182463 0.426532 0.892758
Si Si4 0.683106 0.925324 0.504896
Si Si5 0.683159 0.073715 0.888448
Si Si6 0.609587 0.428843 0.686999
O O1 0.500000 0.500000 0.500000
O O2 0.506094 0.750000 0.601794
O O3 0.435858 0.532523 0.669264
O O4 0.546611 0.505861 0.690700
O O5 0.143568 0.750000 0.677703
O O6 0.144202 0.976651 0.811907
O O7 0.172721 0.021005 0.615020
O O8 0.250000 0.464046 0.873693
O O9 0.169026 0.250000 0.877654
O O10 0.163921 0.476074 0.010495
O O11 0.750000 0.951327 0.534882
O O12 0.665520 0.750000 0.515831
O O13 0.643440 0.024509 0.581398
O O14 0.750000 0.042767 0.858366
O O15 0.672618 0.250000 0.913840
O O16 0.644854 0.017094 0.789934
O O17 0.601542 0.250000 0.684467
#
# Coordination Sequence:
#
# PCOD8245354 Si02
#       6
#     8   8   8   8   8   8
#     4  11  23  39  59  83 113 153 196 239 287 342
#     4  11  23  38  58  83 112 150 194 236 285 344
#     4  10  21  37  59  87 117 149 187 234 289 344
#     4  11  23  36  54  83 117 150 186 234 289 343
#     4   9  19  37  60  85 115 151 190 233 283 342
#     4  11  22  37  59  86 115 151 193 236 287 344
#
# _framework density 18.775397000000002
#
# number of rings (size 3 to 8) (size 9 to 14) (size 15 to 20)
#    0.000    1.500    1.667    3.500    0.000    8.333 
#    0.000    2.500    0.000    0.000    0.000    0.000 
#    0.000    0.000    0.000    0.000    0.000    0.000 
#
# Total GULP energy -595520.013063 kJ/mol
# GULP energy per Si atom -12406.666939 kJ/mol
# Density = 1.873266 g / cm^3
# Si number density = 18.775397 Si / 1000 Ang^3
#
#
#
# Elastic Constant Matrix: (Units=GPa)
#
#
# Indices 1 2 3 4 5 6 
#
# 1 90.7950 45.6900 49.4380 0.0000 0.0000 0.0000
# 2 45.6900 71.8655 33.6254 0.0000 0.0000 0.0000
# 3 49.4380 33.6254 108.0205 0.0000 0.0000 0.0000
# 4 0.0000 0.0000 0.0000 32.4019 0.0000 0.0000
# 5 0.0000 0.0000 0.0000 0.0000 28.6439 0.0000
# 6 0.0000 0.0000 0.0000 0.0000 0.0000 30.9398
#
#
#
# Elastic Compliance Matrix: (Units=1/GPa)
#
#
# Indices 1 2 3 4 5 6 
#
# 1 0.018792 -0.009274 -0.005714 0.000000 0.000000 0.000000
# 2 -0.009274 0.020864 -0.002250 0.000000 0.000000 0.000000
# 3 -0.005714 -0.002250 0.012573 0.000000 0.000000 0.000000
# 4 0.000000 0.000000 0.000000 0.030862 0.000000 0.000000
# 5 0.000000 0.000000 0.000000 0.000000 0.034911 0.000000
# 6 0.000000 0.000000 0.000000 0.000000 0.000000 0.032321
#
#
# Mechanical properties :
#
#
# Convention : Reuss Voigt Hill
#
# Bulk Modulus (GPa) = 56.32846 58.68754 57.50800
# Shear Modulus (GPa) = 26.21697 27.85896 27.03797
#
# Velocity S-wave (km/s) = 3.74083 3.85619 3.79895
# Velocity P-wave (km/s) = 6.98031 7.15210 7.06673
#
# Compressibility (1/GPa) = 0.01775301
#
# Stress axis : x y z
#
# Youngs Moduli (GPa) = 53.21506 47.92994 79.53598
#
# Poissons Ratio (x) = 0.44449 0.45444
# Poissons Ratio (y) = 0.49351 0.17898
# Poissons Ratio (z) = 0.30405 0.10785
#
# Static dielectric constant tensor:
#      x y z
#    x 3.935140 0.000000 0.000000 
#    y 0.000000 3.512940 0.000000 
#    z 0.000000 0.000000 3.361530 
# 
# 
# High freq. dielectric constant tensor:
#      x y z
#    x 1.728970 0.000000 0.000000 
#    y 0.000000 1.741570 0.000000 
#    z 0.000000 0.000000 1.729130 
# 
# From -- ./inp_files/14362.got.cif
#   From: 2010.03.12/outbox.cif.g09.slc.cpg/sg59_8_cif.got.tgz:14362.got - 2010.04.16 16:29:54.
