data_PCOD8245719
_publ_section_title
;
Structure prediction by ZEFSAII (Michael W. Deem and Ramdas Pophale) SiO2 
 PCOD8245719
Probable space group: P M M N
;
_chemical_formula_sum "Si O2"
_cell_formula_units_Z 56
_cell_length_a 25.118080
_cell_length_b 17.280716
_cell_length_c 5.224594
_cell_angle_alpha 90.000000
_cell_angle_beta 90.000000
_cell_angle_gamma 90.000000
_cell_volume 2267.778949
_symmetry_space_group_name_H-M "P M M N"
_symmetry_group_IT_number 59
_space_group.IT_coordinate_system_code '2'
_symmetry_cell_setting 'orthorhombic'
loop_
_space_group_symop_operation_xyz
x,y,z
1/2-x,1/2-y,z
1/2+x,-y,-z
-x,1/2+y,-z
-x,-y,-z
1/2+x,1/2+y,-z
1/2-x,y,z
x,1/2-y,z
loop_
_atom_site_type_symbol
_atom_site_label
_atom_site_fract_x
_atom_site_fract_y
_atom_site_fract_z
Si Si1 0.312330 0.924749 0.380408
Si Si2 0.189735 0.336368 0.747638
Si Si3 0.022503 0.839990 0.426604
Si Si4 0.631021 0.545040 0.919116
Si Si5 0.455516 0.563521 0.939530
Si Si6 0.187451 0.664954 0.868194
Si Si7 0.910917 0.665916 0.596657
O O1 0.250000 0.940495 0.406929
O O2 0.325794 0.868399 0.144891
O O3 0.336173 0.887897 0.640058
O O4 0.340918 0.006020 0.327408
O O5 0.250000 0.348845 0.645393
O O6 0.185136 0.250000 0.875541
O O7 0.147842 0.340725 0.518906
O O8 0.176745 0.406469 0.938597
O O9 0.040015 0.750000 0.449938
O O10 0.958169 0.847259 0.391512
O O11 0.036830 0.886708 0.684331
O O12 0.049961 0.878331 0.180987
O O13 0.584818 0.602946 0.820675
O O14 0.601046 0.481300 0.092427
O O15 0.500000 0.500000 0.000000
O O16 0.250000 0.671014 0.824544
O O17 0.161515 0.750000 0.848513
O O18 0.918984 0.750000 0.724884
#
# Coordination Sequence:
#
# PCOD8245719 Si02
#       7
#     8   8   8   8   8   8   8
#     4  10  22  37  58  92 125 165 212 265 329 394
#     4  10  23  43  67  99 140 186 236 291 352 425
#     4  11  25  48  74 106 145 192 239 297 364 440
#     4  12  25  39  66  96 138 177 228 285 356 415
#     4  12  25  44  73 106 144 184 239 301 366 428
#     4   9  18  37  61  83 113 158 213 263 314 382
#     4  10  23  42  70  99 132 183 235 282 347 430
#
# _framework density 24.693762
#
# number of rings (size 3 to 8) (size 9 to 14) (size 15 to 20)
#    0.000    1.429    1.429    3.000    4.000    2.857 
#    0.000    5.714    0.000    0.000    0.000    0.000 
#    0.000    0.000    0.000    0.000    0.000    0.000 
#
# Total GULP energy -694154.533720 kJ/mol
# GULP energy per Si atom -12395.616674 kJ/mol
# Density = 2.463756 g / cm^3
# Si number density = 24.693762 Si / 1000 Ang^3
#
#
#
# Elastic Constant Matrix: (Units=GPa)
#
#
# Indices 1 2 3 4 5 6 
#
# 1 87.5425 48.7639 15.5896 0.0000 0.0000 0.0000
# 2 48.7639 147.0610 33.6722 0.0000 0.0000 0.0000
# 3 15.5896 33.6722 90.4576 0.0000 0.0000 0.0000
# 4 0.0000 0.0000 0.0000 8.3506 0.0000 0.0000
# 5 0.0000 0.0000 0.0000 0.0000 22.9054 0.0000
# 6 0.0000 0.0000 0.0000 0.0000 0.0000 27.5546
#
#
#
# Elastic Compliance Matrix: (Units=1/GPa)
#
#
# Indices 1 2 3 4 5 6 
#
# 1 0.014058 -0.004489 -0.000752 0.000000 0.000000 0.000000
# 2 -0.004489 0.008867 -0.002527 0.000000 0.000000 0.000000
# 3 -0.000752 -0.002527 0.012125 0.000000 0.000000 0.000000
# 4 0.000000 0.000000 0.000000 0.119751 0.000000 0.000000
# 5 0.000000 0.000000 0.000000 0.000000 0.043658 0.000000
# 6 0.000000 0.000000 0.000000 0.000000 0.000000 0.036292
#
#
# Mechanical properties :
#
#
# Convention : Reuss Voigt Hill
#
# Bulk Modulus (GPa) = 51.24537 57.90140 54.57338
# Shear Modulus (GPa) = 19.47109 26.89781 23.18445
#
# Velocity S-wave (km/s) = 2.81107 3.30397 3.06744
# Velocity P-wave (km/s) = 5.59764 6.16876 5.89013
#
# Compressibility (1/GPa) = 0.01951396
#
# Stress axis : x y z
#
# Youngs Moduli (GPa) = 71.13632 112.77657 82.47353
#
# Poissons Ratio (x) = 0.50628 0.06199
# Poissons Ratio (y) = 0.31935 0.20841
# Poissons Ratio (z) = 0.05347 0.28499
#
# Static dielectric constant tensor:
#      x y z
#    x 4.584380 0.000000 0.000000 
#    y 0.000000 4.923490 0.000000 
#    z 0.000000 0.000000 4.104920 
# 
# 
# High freq. dielectric constant tensor:
#      x y z
#    x 1.984390 0.000000 0.000000 
#    y 0.000000 2.008790 0.000000 
#    z 0.000000 0.000000 1.962070 
# 
# From -- ./inp_files/4571.got.cif
#   From: 2010.03.12/outbox.cif.g09.slc.cpg/sg59_3_cif.got.tgz:4571.got - 2010.04.16 16:29:54.
