data_PCOD8245406
_publ_section_title
;
Structure prediction by ZEFSAII (Michael W. Deem and Ramdas Pophale) SiO2 
 PCOD8245406
Probable space group: P M M N
;
_chemical_formula_sum "Si O2"
_cell_formula_units_Z 56
_cell_length_a 13.963550
_cell_length_b 21.703944
_cell_length_c 8.670633
_cell_angle_alpha 90.000000
_cell_angle_beta 90.000000
_cell_angle_gamma 90.000000
_cell_volume 2627.757649
_symmetry_space_group_name_H-M "P M M N"
_symmetry_group_IT_number 59
_space_group.IT_coordinate_system_code '2'
_symmetry_cell_setting 'orthorhombic'
loop_
_space_group_symop_operation_xyz
x,y,z
1/2-x,1/2-y,z
1/2+x,-y,-z
-x,1/2+y,-z
-x,-y,-z
1/2+x,1/2+y,-z
1/2-x,y,z
x,1/2-y,z
loop_
_atom_site_type_symbol
_atom_site_label
_atom_site_fract_x
_atom_site_fract_y
_atom_site_fract_z
Si Si1 0.639668 0.318409 0.503822
Si Si2 0.006786 0.139989 0.746504
Si Si3 0.138591 0.181577 0.006561
Si Si4 0.634587 0.947389 0.449498
Si Si5 0.853942 0.928544 0.788117
Si Si6 0.140153 0.928582 0.703319
Si Si7 0.587942 0.041601 0.958405
O O1 0.750000 0.332612 0.554688
O O2 0.634035 0.250000 0.431761
O O3 0.568362 0.320008 0.649360
O O4 0.600389 0.366307 0.375365
O O5 0.069988 0.182728 0.858140
O O6 0.086509 0.107564 0.642465
O O7 0.938645 0.092906 0.836161
O O8 0.250000 0.166868 0.962669
O O9 0.132189 0.250000 0.082530
O O10 0.095477 0.127321 0.117370
O O11 0.750000 0.942597 0.438007
O O12 0.594795 0.942876 0.625669
O O13 0.594429 0.011013 0.376377
O O14 0.750000 0.902059 0.748235
O O15 0.839826 0.991871 0.884050
O O16 0.250000 0.931537 0.662756
O O17 0.126873 0.926671 0.886977
O O18 0.500000 0.000000 0.000000
#
# Coordination Sequence:
#
# PCOD8245406 Si02
#       7
#     8   8   8   8   8   8   8
#     4  10  24  45  64  85 118 162 210 256 299 347
#     4  12  23  37  64  88 124 154 199 245 305 357
#     4  10  21  39  60  84 117 158 198 239 292 357
#     4  10  21  37  61  93 122 153 192 243 304 367
#     4  10  21  38  58  83 119 157 196 242 295 353
#     4  10  21  40  63  87 119 157 200 248 304 363
#     4  12  22  34  58  92 121 153 190 246 299 362
#
# _framework density 21.310946999999999
#
# number of rings (size 3 to 8) (size 9 to 14) (size 15 to 20)
#    0.000    1.429    2.857    2.143    2.000    5.714 
#    0.000    4.286    0.000    5.143    0.000    0.000 
#    0.000    0.000    0.000    0.000    0.000    0.000 
#
# Total GULP energy -693985.874839 kJ/mol
# GULP energy per Si atom -12392.604908 kJ/mol
# Density = 2.126244 g / cm^3
# Si number density = 21.310947 Si / 1000 Ang^3
#
#
#
# Elastic Constant Matrix: (Units=GPa)
#
#
# Indices 1 2 3 4 5 6 
#
# 1 58.5618 28.2089 21.3223 0.0000 0.0000 0.0000
# 2 28.2089 113.6313 47.1538 0.0000 0.0000 0.0000
# 3 21.3223 47.1538 128.4217 0.0000 0.0000 0.0000
# 4 0.0000 0.0000 0.0000 29.5516 0.0000 0.0000
# 5 0.0000 0.0000 0.0000 0.0000 25.4608 0.0000
# 6 0.0000 0.0000 0.0000 0.0000 0.0000 22.7744
#
#
#
# Elastic Compliance Matrix: (Units=1/GPa)
#
#
# Indices 1 2 3 4 5 6 
#
# 1 0.019720 -0.004173 -0.001742 0.000000 0.000000 0.000000
# 2 -0.004173 0.011265 -0.003444 0.000000 0.000000 0.000000
# 3 -0.001742 -0.003444 0.009341 0.000000 0.000000 0.000000
# 4 0.000000 0.000000 0.000000 0.033839 0.000000 0.000000
# 5 0.000000 0.000000 0.000000 0.000000 0.039276 0.000000
# 6 0.000000 0.000000 0.000000 0.000000 0.000000 0.043909
#
#
# Mechanical properties :
#
#
# Convention : Reuss Voigt Hill
#
# Bulk Modulus (GPa) = 46.27628 54.88722 50.58175
# Shear Modulus (GPa) = 27.28220 29.15269 28.21744
#
# Velocity S-wave (km/s) = 3.58187 3.70262 3.64274
# Velocity P-wave (km/s) = 6.23444 6.64007 6.44045
#
# Compressibility (1/GPa) = 0.02160934
#
# Stress axis : x y z
#
# Youngs Moduli (GPa) = 50.70946 88.76885 107.06057
#
# Poissons Ratio (x) = 0.37040 0.18651
# Poissons Ratio (y) = 0.21159 0.36867
# Poissons Ratio (z) = 0.08834 0.30568
#
# Static dielectric constant tensor:
#      x y z
#    x 3.790590 0.000000 0.000000 
#    y 0.000000 3.494900 0.000000 
#    z 0.000000 0.000000 3.629800 
# 
# 
# High freq. dielectric constant tensor:
#      x y z
#    x 1.842700 0.000000 0.000000 
#    y 0.000000 1.831610 0.000000 
#    z 0.000000 0.000000 1.829790 
# 
# From -- ./inp_files/9379.got.cif
#   From: 2010.03.12/outbox.cif.g09.slc.cpg/sg59_5_cif.got.tgz:9379.got - 2010.04.16 16:29:54.
