data_PCOD8245707
_publ_section_title
;
Structure prediction by ZEFSAII (Michael W. Deem and Ramdas Pophale) SiO2 
 PCOD8245707
Probable space group: P M M N
;
_chemical_formula_sum "Si O2"
_cell_formula_units_Z 56
_cell_length_a 19.443672
_cell_length_b 14.584121
_cell_length_c 10.281314
_cell_angle_alpha 90.000000
_cell_angle_beta 90.000000
_cell_angle_gamma 90.000000
_cell_volume 2915.460543
_symmetry_space_group_name_H-M "P M M N"
_symmetry_group_IT_number 59
_space_group.IT_coordinate_system_code '2'
_symmetry_cell_setting 'orthorhombic'
loop_
_space_group_symop_operation_xyz
x,y,z
1/2-x,1/2-y,z
1/2+x,-y,-z
-x,1/2+y,-z
-x,-y,-z
1/2+x,1/2+y,-z
1/2-x,y,z
x,1/2-y,z
loop_
_atom_site_type_symbol
_atom_site_label
_atom_site_fract_x
_atom_site_fract_y
_atom_site_fract_z
Si Si1 0.826249 0.993906 0.411541
Si Si2 0.432502 0.356556 0.277500
Si Si3 0.827138 0.355605 0.203844
Si Si4 0.538327 0.143047 0.066992
Si Si5 0.057689 0.642342 0.217996
Si Si6 0.554500 0.643981 0.425708
Si Si7 0.827672 0.009234 0.710914
O O1 0.750000 0.955890 0.378339
O O2 0.879124 0.912633 0.380744
O O3 0.843349 0.084182 0.329749
O O4 0.829512 0.027930 0.558313
O O5 0.416031 0.250000 0.254467
O O6 0.485954 0.400230 0.172906
O O7 0.463417 0.372757 0.422487
O O8 0.361110 0.410217 0.259145
O O9 0.750000 0.373110 0.149475
O O10 0.836554 0.250000 0.246373
O O11 0.882308 0.384366 0.094237
O O12 0.529120 0.250000 0.087552
O O13 0.520368 0.115180 0.918724
O O14 0.073837 0.750000 0.220840
O O15 0.130156 0.590808 0.222509
O O16 0.009983 0.611558 0.338446
O O17 0.571287 0.750000 0.397997
O O18 0.750000 0.009137 0.765649
#
# Coordination Sequence:
#
# PCOD8245707 Si02
#       7
#     8   8   8   8   8   8   8
#     4   9  19  34  53  80 110 139 174 219 265 310
#     4   9  19  36  59  82 104 137 180 223 263 311
#     4   9  18  32  51  76 106 140 177 214 255 312
#     4   9  19  35  55  79 105 138 178 217 262 312
#     4  10  22  37  54  79 111 143 174 218 270 317
#     4   9  19  35  56  80 105 138 178 218 264 316
#     4  10  22  36  53  80 109 141 180 218 266 320
#
# _framework density 19.207943
#
# number of rings (size 3 to 8) (size 9 to 14) (size 15 to 20)
#    0.000    2.714    0.000    0.000    4.000    3.714 
#    0.000    5.714    0.000    0.000    0.000    4.000 
#    0.000    0.000    0.000    0.000    0.000    0.000 
#
# Total GULP energy -694240.055466 kJ/mol
# GULP energy per Si atom -12397.143848 kJ/mol
# Density = 1.916422 g / cm^3
# Si number density = 19.207943 Si / 1000 Ang^3
#
#
#
# Elastic Constant Matrix: (Units=GPa)
#
#
# Indices 1 2 3 4 5 6 
#
# 1 129.8463 46.8938 65.4092 0.0000 0.0000 0.0000
# 2 46.8938 62.0307 40.4277 0.0000 0.0000 0.0000
# 3 65.4092 40.4277 93.9499 0.0000 0.0000 0.0000
# 4 0.0000 0.0000 0.0000 19.5026 0.0000 0.0000
# 5 0.0000 0.0000 0.0000 0.0000 20.7650 0.0000
# 6 0.0000 0.0000 0.0000 0.0000 0.0000 32.8450
#
#
#
# Elastic Compliance Matrix: (Units=1/GPa)
#
#
# Indices 1 2 3 4 5 6 
#
# 1 0.013083 -0.005495 -0.006744 0.000000 0.000000 0.000000
# 2 -0.005495 0.024713 -0.006808 0.000000 0.000000 0.000000
# 3 -0.006744 -0.006808 0.018269 0.000000 0.000000 0.000000
# 4 0.000000 0.000000 0.000000 0.051275 0.000000 0.000000
# 5 0.000000 0.000000 0.000000 0.000000 0.048158 0.000000
# 6 0.000000 0.000000 0.000000 0.000000 0.000000 0.030446
#
#
# Mechanical properties :
#
#
# Convention : Reuss Voigt Hill
#
# Bulk Modulus (GPa) = 55.64947 65.69872 60.67409
# Shear Modulus (GPa) = 21.73638 23.49558 22.61598
#
# Velocity S-wave (km/s) = 3.36763 3.50125 3.43509
# Velocity P-wave (km/s) = 6.64502 7.11500 6.88402
#
# Compressibility (1/GPa) = 0.01796962
#
# Stress axis : x y z
#
# Youngs Moduli (GPa) = 76.43316 40.46529 54.73772
#
# Poissons Ratio (x) = 0.22237 0.36916
# Poissons Ratio (y) = 0.42003 0.37266
# Poissons Ratio (z) = 0.51547 0.27549
#
# Static dielectric constant tensor:
#      x y z
#    x 3.623450 0.000000 0.000000 
#    y 0.000000 3.380450 0.000000 
#    z 0.000000 0.000000 3.561660 
# 
# 
# High freq. dielectric constant tensor:
#      x y z
#    x 1.744100 0.000000 0.000000 
#    y 0.000000 1.742940 0.000000 
#    z 0.000000 0.000000 1.740400 
# 
# From -- ./inp_files/11408.got.cif
#   From: 2010.03.12/outbox.cif.g09.slc.cpg/sg59_6_cif.got.tgz:11408.got - 2010.04.16 16:29:54.
