data_PCOD8245093
_publ_section_title
;
Structure prediction by ZEFSAII (Michael W. Deem and Ramdas Pophale) SiO2 
 PCOD8245093
Probable space group: P M M N
;
_chemical_formula_sum "Si O2"
_cell_formula_units_Z 56
_cell_length_a 14.134479
_cell_length_b 9.005571
_cell_length_c 21.636938
_cell_angle_alpha 90.000000
_cell_angle_beta 90.000000
_cell_angle_gamma 90.000000
_cell_volume 2754.145373
_symmetry_space_group_name_H-M "P M M N"
_symmetry_group_IT_number 59
_space_group.IT_coordinate_system_code '2'
_symmetry_cell_setting 'orthorhombic'
loop_
_space_group_symop_operation_xyz
x,y,z
1/2-x,1/2-y,z
1/2+x,-y,-z
-x,1/2+y,-z
-x,-y,-z
1/2+x,1/2+y,-z
1/2-x,y,z
x,1/2-y,z
loop_
_atom_site_type_symbol
_atom_site_label
_atom_site_fract_x
_atom_site_fract_y
_atom_site_fract_z
Si Si1 0.040825 0.576495 0.210818
Si Si2 0.359758 0.577969 0.336181
Si Si3 0.645545 0.084664 0.219048
Si Si4 0.348844 0.915864 0.635620
Si Si5 0.950726 0.922389 0.910699
Si Si6 0.023913 0.427578 0.435043
Si Si7 0.358205 0.578593 0.975368
O O1 0.058819 0.750000 0.206033
O O2 0.083096 0.516811 0.275935
O O3 0.088692 0.498109 0.151908
O O4 0.929967 0.539836 0.202109
O O5 0.250000 0.553328 0.321896
O O6 0.383767 0.750000 0.347499
O O7 0.383788 0.488731 0.399397
O O8 0.750000 0.041655 0.193583
O O9 0.617361 0.250000 0.193487
O O10 0.647110 0.092355 0.291900
O O11 0.250000 0.995616 0.615259
O O12 0.348402 0.750000 0.607970
O O13 0.439776 0.994512 0.607563
O O14 0.931004 0.750000 0.904895
O O15 0.064068 0.954629 0.921497
O O16 0.886239 0.981657 0.965880
O O17 0.031780 0.250000 0.440579
O O18 0.000000 0.500000 0.500000
O O19 0.250000 0.540366 0.953798
O O20 0.365441 0.750000 0.995032
#
# Coordination Sequence:
#
# PCOD8245093 Si02
#       7
#     8   8   8   8   8   8   8
#     4  11  22  36  57  85 119 155 194 242 295 347
#     4  10  23  43  62  81 112 156 201 244 293 346
#     4   9  17  32  55  80 107 142 183 227 281 345
#     4   8  15  30  53  78 103 136 176 217 270 335
#     4  10  21  36  57  87 119 153 197 242 289 347
#     4  11  22  37  60  87 116 148 189 237 288 346
#     4   9  19  38  61  83 113 154 197 242 292 343
#
# _framework density 20.332985999999998
#
# number of rings (size 3 to 8) (size 9 to 14) (size 15 to 20)
#    0.000    2.286    1.429    2.143    0.000    3.714 
#    0.000    4.286    0.000    1.286    0.000    0.000 
#    0.000    0.000    0.000    0.000    0.000    0.000 
#
# Total GULP energy -693813.482915 kJ/mol
# GULP energy per Si atom -12389.526481 kJ/mol
# Density = 2.028671 g / cm^3
# Si number density = 20.332986 Si / 1000 Ang^3
#
#
#
# Elastic Constant Matrix: (Units=GPa)
#
#
# Indices 1 2 3 4 5 6 
#
# 1 76.1073 27.1467 18.1141 0.0000 0.0000 0.0000
# 2 27.1467 79.0262 49.3205 0.0000 0.0000 0.0000
# 3 18.1141 49.3205 106.2522 0.0000 0.0000 0.0000
# 4 0.0000 0.0000 0.0000 32.9118 0.0000 0.0000
# 5 0.0000 0.0000 0.0000 0.0000 13.1793 0.0000
# 6 0.0000 0.0000 0.0000 0.0000 0.0000 28.1734
#
#
#
# Elastic Compliance Matrix: (Units=1/GPa)
#
#
# Indices 1 2 3 4 5 6 
#
# 1 0.014978 -0.005000 -0.000233 0.000000 0.000000 0.000000
# 2 -0.005000 0.019484 -0.008192 0.000000 0.000000 0.000000
# 3 -0.000233 -0.008192 0.013254 0.000000 0.000000 0.000000
# 4 0.000000 0.000000 0.000000 0.030384 0.000000 0.000000
# 5 0.000000 0.000000 0.000000 0.000000 0.075877 0.000000
# 6 0.000000 0.000000 0.000000 0.000000 0.000000 0.035494
#
#
# Mechanical properties :
#
#
# Convention : Reuss Voigt Hill
#
# Bulk Modulus (GPa) = 47.92216 50.06090 48.99153
# Shear Modulus (GPa) = 22.39382 25.97319 24.18351
#
# Velocity S-wave (km/s) = 3.32227 3.57794 3.45247
# Velocity P-wave (km/s) = 6.19164 6.46087 6.32769
#
# Compressibility (1/GPa) = 0.02086717
#
# Stress axis : x y z
#
# Youngs Moduli (GPa) = 66.76382 51.32375 75.45057
#
# Poissons Ratio (x) = 0.25662 0.01755
# Poissons Ratio (y) = 0.33382 0.61808
# Poissons Ratio (z) = 0.01553 0.42043
#
# Static dielectric constant tensor:
#      x y z
#    x 3.279080 0.000000 0.000000 
#    y 0.000000 3.758800 0.000000 
#    z 0.000000 0.000000 3.675740 
# 
# 
# High freq. dielectric constant tensor:
#      x y z
#    x 1.796690 0.000000 0.000000 
#    y 0.000000 1.771690 0.000000 
#    z 0.000000 0.000000 1.796590 
# 
# From -- ./inp_files/30366.got.cif
#   From: 2010.03.12/outbox.cif.g09.slc.cpg/sg59_16_cif.got.tgz:30366.got - 2010.04.16 16:29:54.
