data_PCOD8245788
_publ_section_title
;
Structure prediction by ZEFSAII (Michael W. Deem and Ramdas Pophale) SiO2 
 PCOD8245788
Probable space group: P M M N
;
_chemical_formula_sum "Si O2"
_cell_formula_units_Z 48
_cell_length_a 14.564847
_cell_length_b 8.924160
_cell_length_c 19.661422
_cell_angle_alpha 90.000000
_cell_angle_beta 90.000000
_cell_angle_gamma 90.000000
_cell_volume 2555.572462
_symmetry_space_group_name_H-M "P M M N"
_symmetry_group_IT_number 59
_space_group.IT_coordinate_system_code '2'
_symmetry_cell_setting 'orthorhombic'
loop_
_space_group_symop_operation_xyz
x,y,z
1/2-x,1/2-y,z
1/2+x,-y,-z
-x,1/2+y,-z
-x,-y,-z
1/2+x,1/2+y,-z
1/2-x,y,z
x,1/2-y,z
loop_
_atom_site_type_symbol
_atom_site_label
_atom_site_fract_x
_atom_site_fract_y
_atom_site_fract_z
Si Si1 0.514662 0.426566 0.827922
Si Si2 0.062288 0.924614 0.556880
Si Si3 0.357920 0.418074 0.070621
Si Si4 0.250000 0.428983 0.525330
Si Si5 0.250000 0.428029 0.370006
Si Si6 0.558714 0.576910 0.688696
Si Si7 0.648716 0.571517 0.080336
O O1 0.511523 0.250000 0.822884
O O2 0.601457 0.473648 0.872533
O O3 0.519682 0.489842 0.752662
O O4 0.422738 0.490104 0.864201
O O5 0.074580 0.750000 0.539317
O O6 0.012983 0.947268 0.628540
O O7 0.160428 0.005210 0.562082
O O8 0.000000 0.000000 0.500000
O O9 0.250000 0.416163 0.081490
O O10 0.397391 0.250000 0.080233
O O11 0.381522 0.481311 0.995286
O O12 0.250000 0.250000 0.531433
O O13 0.250000 0.485339 0.447458
O O14 0.250000 0.250000 0.371866
O O15 0.158821 0.488097 0.332316
O O16 0.568943 0.750000 0.708232
O O17 0.750000 0.508541 0.098562
O O18 0.651702 0.750000 0.079398
#
# Coordination Sequence:
#
# PCOD8245788 Si02
#       7
#     8   8   8   4   4   8   8
#     4  11  22  34  53  83 115 143 179 232 284 327
#     4  11  22  39  63  90 118 151 193 244 292 341
#     4   9  18  34  57  80 104 144 188 222 270 339
#     4  11  21  39  65  91 117 150 193 240 289 347
#     4   9  18  37  61  83 107 148 189 220 271 335
#     4  10  22  40  59  80 115 155 190 225 273 344
#     4   8  16  34  57  78 104 141 186 230 274 330
#
# _framework density 18.782485000000001
#
# number of rings (size 3 to 8) (size 9 to 14) (size 15 to 20)
#    0.000    2.167    1.667    2.750    1.167    1.667 
#    1.500    0.833    0.000    3.500    0.000    0.000 
#    0.000    0.000    0.000    0.000    0.000    0.000 
#
# Total GULP energy -595210.842174 kJ/mol
# GULP energy per Si atom -12400.225879 kJ/mol
# Density = 1.873974 g / cm^3
# Si number density = 18.782485 Si / 1000 Ang^3
#
#
#
# Elastic Constant Matrix: (Units=GPa)
#
#
# Indices 1 2 3 4 5 6 
#
# 1 117.0327 48.2553 55.5245 0.0000 0.0000 0.0000
# 2 48.2553 72.6644 51.9902 0.0000 0.0000 0.0000
# 3 55.5245 51.9902 118.2822 0.0000 0.0000 0.0000
# 4 0.0000 0.0000 0.0000 31.3391 0.0000 0.0000
# 5 0.0000 0.0000 0.0000 0.0000 18.7838 0.0000
# 6 0.0000 0.0000 0.0000 0.0000 0.0000 29.0984
#
#
#
# Elastic Compliance Matrix: (Units=1/GPa)
#
#
# Indices 1 2 3 4 5 6 
#
# 1 0.012571 -0.006019 -0.003256 0.000000 0.000000 0.000000
# 2 -0.006019 0.022957 -0.007265 0.000000 0.000000 0.000000
# 3 -0.003256 -0.007265 0.013176 0.000000 0.000000 0.000000
# 4 0.000000 0.000000 0.000000 0.031909 0.000000 0.000000
# 5 0.000000 0.000000 0.000000 0.000000 0.053237 0.000000
# 6 0.000000 0.000000 0.000000 0.000000 0.000000 0.034366
#
#
# Mechanical properties :
#
#
# Convention : Reuss Voigt Hill
#
# Bulk Modulus (GPa) = 64.00125 68.83546 66.41835
# Shear Modulus (GPa) = 24.21263 25.99156 25.10209
#
# Velocity S-wave (km/s) = 3.59431 3.72401 3.65973
# Velocity P-wave (km/s) = 7.16759 7.43097 7.30047
#
# Compressibility (1/GPa) = 0.01562470
#
# Stress axis : x y z
#
# Youngs Moduli (GPa) = 79.54902 43.55954 75.89571
#
# Poissons Ratio (x) = 0.26218 0.24708
# Poissons Ratio (y) = 0.47879 0.55140
# Poissons Ratio (z) = 0.25897 0.31647
#
# Static dielectric constant tensor:
#      x y z
#    x 4.227540 0.000000 0.000000 
#    y 0.000000 3.302690 0.000000 
#    z 0.000000 0.000000 3.477620 
# 
# 
# High freq. dielectric constant tensor:
#      x y z
#    x 1.741260 0.000000 0.000000 
#    y 0.000000 1.708740 0.000000 
#    z 0.000000 0.000000 1.729340 
# 
# From -- ./inp_files/27421.got.cif
#   From: 2010.03.12/outbox.cif.g09.slc.cpg/sg59_14_cif.got.tgz:27421.got - 2010.04.16 16:29:54.
