data_PCOD8245952
_publ_section_title
;
Structure prediction by ZEFSAII (Michael W. Deem and Ramdas Pophale) SiO2 
 PCOD8245952
Probable space group: P M M N
;
_chemical_formula_sum "Si O2"
_cell_formula_units_Z 64
_cell_length_a 8.486246
_cell_length_b 29.885521
_cell_length_c 15.040913
_cell_angle_alpha 90.000000
_cell_angle_beta 90.000000
_cell_angle_gamma 90.000000
_cell_volume 3814.614432
_symmetry_space_group_name_H-M "P M M N"
_symmetry_group_IT_number 59
_space_group.IT_coordinate_system_code '2'
_symmetry_cell_setting 'orthorhombic'
loop_
_space_group_symop_operation_xyz
x,y,z
1/2-x,1/2-y,z
1/2+x,-y,-z
-x,1/2+y,-z
-x,-y,-z
1/2+x,1/2+y,-z
1/2-x,y,z
x,1/2-y,z
loop_
_atom_site_type_symbol
_atom_site_label
_atom_site_fract_x
_atom_site_fract_y
_atom_site_fract_z
Si Si1 0.937160 0.797966 0.793269
Si Si2 0.564599 0.885643 0.710633
Si Si3 0.934692 0.558517 0.551592
Si Si4 0.566419 0.970073 0.367405
Si Si5 0.066593 0.892627 0.032862
Si Si6 0.563586 0.959169 0.170656
Si Si7 0.064415 0.199850 0.003282
Si Si8 0.935272 0.553171 0.869270
O O1 0.750000 0.797634 0.787255
O O2 0.002882 0.750000 0.759369
O O3 0.011465 0.837416 0.733137
O O4 0.987430 0.805538 0.894639
O O5 0.750000 0.882595 0.726146
O O6 0.523984 0.897029 0.607975
O O7 0.501939 0.923264 0.778918
O O8 0.750000 0.546998 0.556750
O O9 0.987281 0.563536 0.447998
O O10 0.026465 0.519445 0.600834
O O11 0.750000 0.966382 0.352283
O O12 0.491495 0.958986 0.271499
O O13 0.250000 0.897413 0.012612
O O14 0.022609 0.918353 0.122760
O O15 0.022712 0.840294 0.048467
O O16 0.970518 0.914396 0.951714
O O17 0.750000 0.951497 0.167075
O O18 0.524489 0.005945 0.121703
O O19 0.250000 0.193631 0.991329
O O20 0.015272 0.250000 0.969473
O O21 0.750000 0.543560 0.866300
#
# Coordination Sequence:
#
# PCOD8245952 Si02
#       8
#     8   8   8   8   8   8   8   8
#     4   8  13  23  42  68  93 117 148 183 219 268
#     4   9  15  24  44  69  93 122 153 184 225 278
#     4   9  16  28  46  68  92 119 150 187 234 283
#     4   9  18  30  45  66  91 118 153 196 238 277
#     4  12  24  35  48  69  96 129 164 202 241 283
#     4  11  22  35  48  65  93 129 168 206 243 284
#     4   9  17  32  53  73  95 124 158 196 238 285
#     4  11  20  33  49  68  95 128 164 197 235 286
#
# _framework density 16.77758
#
# number of rings (size 3 to 8) (size 9 to 14) (size 15 to 20)
#    0.000    2.250    2.500    3.000    0.000    0.750 
#    0.000    0.000    0.000    0.000    0.000    0.875 
#    0.000    5.000    0.000    0.000    0.000    0.000 
#
# Total GULP energy -793085.523966 kJ/mol
# GULP energy per Si atom -12391.961312 kJ/mol
# Density = 1.673939 g / cm^3
# Si number density = 16.777580 Si / 1000 Ang^3
#
#
#
# Elastic Constant Matrix: (Units=GPa)
#
#
# Indices 1 2 3 4 5 6 
#
# 1 26.8445 16.3556 11.5655 0.0000 0.0000 0.0000
# 2 16.3556 127.7935 45.6101 0.0000 0.0000 0.0000
# 3 11.5655 45.6101 87.6283 0.0000 0.0000 0.0000
# 4 0.0000 0.0000 0.0000 23.6896 0.0000 0.0000
# 5 0.0000 0.0000 0.0000 0.0000 13.5113 0.0000
# 6 0.0000 0.0000 0.0000 0.0000 0.0000 19.4177
#
#
#
# Elastic Compliance Matrix: (Units=1/GPa)
#
#
# Indices 1 2 3 4 5 6 
#
# 1 0.041167 -0.004089 -0.003305 0.000000 0.000000 0.000000
# 2 -0.004089 0.010017 -0.004674 0.000000 0.000000 0.000000
# 3 -0.003305 -0.004674 0.014281 0.000000 0.000000 0.000000
# 4 0.000000 0.000000 0.000000 0.042213 0.000000 0.000000
# 5 0.000000 0.000000 0.000000 0.000000 0.074012 0.000000
# 6 0.000000 0.000000 0.000000 0.000000 0.000000 0.051499
#
#
# Mechanical properties :
#
#
# Convention : Reuss Voigt Hill
#
# Bulk Modulus (GPa) = 24.19652 43.25874 33.72763
# Shear Modulus (GPa) = 18.44335 22.57273 20.50804
#
# Velocity S-wave (km/s) = 3.31914 3.67196 3.50000
# Velocity P-wave (km/s) = 5.39835 6.61947 6.03985
#
# Compressibility (1/GPa) = 0.04132826
#
# Stress axis : x y z
#
# Youngs Moduli (GPa) = 24.29133 99.83417 70.02422
#
# Poissons Ratio (x) = 0.40824 0.23143
# Poissons Ratio (y) = 0.09933 0.32729
# Poissons Ratio (z) = 0.08028 0.46661
#
# Static dielectric constant tensor:
#      x y z
#    x 2.903540 0.000000 0.000000 
#    y 0.000000 3.443000 0.000000 
#    z 0.000000 0.000000 3.364420 
# 
# 
# High freq. dielectric constant tensor:
#      x y z
#    x 1.627370 0.000000 0.000000 
#    y 0.000000 1.636190 0.000000 
#    z 0.000000 0.000000 1.629650 
# 
# From -- ./inp_files/21938.got.cif
#   From: 2010.03.12/outbox.cif.g09.slc.cpg/sg59_11_cif.got.tgz:21938.got - 2010.04.16 16:29:54.
