data_PCOD8245560
_publ_section_title
;
Structure prediction by ZEFSAII (Michael W. Deem and Ramdas Pophale) SiO2 
 PCOD8245560
Probable space group: P M M N
;
_chemical_formula_sum "Si O2"
_cell_formula_units_Z 40
_cell_length_a 25.236391
_cell_length_b 8.453278
_cell_length_c 9.152598
_cell_angle_alpha 90.000000
_cell_angle_beta 90.000000
_cell_angle_gamma 90.000000
_cell_volume 1952.525826
_symmetry_space_group_name_H-M "P M M N"
_symmetry_group_IT_number 59
_space_group.IT_coordinate_system_code '2'
_symmetry_cell_setting 'orthorhombic'
loop_
_space_group_symop_operation_xyz
x,y,z
1/2-x,1/2-y,z
1/2+x,-y,-z
-x,1/2+y,-z
-x,-y,-z
1/2+x,1/2+y,-z
1/2-x,y,z
x,1/2-y,z
loop_
_atom_site_type_symbol
_atom_site_label
_atom_site_fract_x
_atom_site_fract_y
_atom_site_fract_z
Si Si1 0.250000 0.937175 0.833324
Si Si2 0.852233 0.064962 0.336705
Si Si3 0.437829 0.932805 0.161226
Si Si4 0.058806 0.066580 0.853344
Si Si5 0.750000 0.438009 0.832534
Si Si6 0.847454 0.933448 0.653166
O O1 0.250000 0.750000 0.820412
O O2 0.302154 0.003473 0.752808
O O3 0.250000 0.993914 0.999868
O O4 0.860075 0.250000 0.309168
O O5 0.904686 0.974191 0.284213
O O6 0.842963 0.033923 0.506355
O O7 0.426012 0.750000 0.194211
O O8 0.498837 0.979086 0.188923
O O9 0.403956 0.038698 0.271220
O O10 0.421899 0.967753 0.993739
O O11 0.062320 0.250000 0.894209
O O12 0.750000 0.250000 0.817032
O O13 0.697928 0.509046 0.761200
O O14 0.840476 0.750000 0.615901
#
# Coordination Sequence:
#
# PCOD8245560 Si02
#       6
#     4   8   8   8   4   8
#     4   9  21  39  62  88 112 147 194 239 284 348
#     4  11  22  39  62  87 119 159 200 243 298 359
#     4  10  21  39  62  87 118 159 202 244 297 359
#     4  10  21  38  61  90 121 153 197 252 301 350
#     4  11  22  41  66  90 118 153 196 243 298 362
#     4  12  25  40  59  88 123 157 199 250 299 347
#
# _framework density 20.486286
#
# number of rings (size 3 to 8) (size 9 to 14) (size 15 to 20)
#    0.000    1.400    0.000    5.700    0.000    5.600 
#    0.000    4.500    0.000    0.000    0.000    0.000 
#    0.000    0.000    0.000    0.000    0.000    0.000 
#
# Total GULP energy -496302.672722 kJ/mol
# GULP energy per Si atom -12407.566818 kJ/mol
# Density = 2.043966 g / cm^3
# Si number density = 20.486286 Si / 1000 Ang^3
#
#
#
# Elastic Constant Matrix: (Units=GPa)
#
#
# Indices 1 2 3 4 5 6 
#
# 1 125.3383 31.1169 69.9711 0.0000 0.0000 0.0000
# 2 31.1169 58.1100 8.8197 0.0000 0.0000 0.0000
# 3 69.9711 8.8197 124.1705 0.0000 0.0000 0.0000
# 4 0.0000 0.0000 0.0000 32.3540 0.0000 0.0000
# 5 0.0000 0.0000 0.0000 0.0000 18.8997 0.0000
# 6 0.0000 0.0000 0.0000 0.0000 0.0000 28.3121
#
#
#
# Elastic Compliance Matrix: (Units=1/GPa)
#
#
# Indices 1 2 3 4 5 6 
#
# 1 0.013511 -0.006145 -0.007177 0.000000 0.000000 0.000000
# 2 -0.006145 0.020192 0.002029 0.000000 0.000000 0.000000
# 3 -0.007177 0.002029 0.011954 0.000000 0.000000 0.000000
# 4 0.000000 0.000000 0.000000 0.030908 0.000000 0.000000
# 5 0.000000 0.000000 0.000000 0.000000 0.052911 0.000000
# 6 0.000000 0.000000 0.000000 0.000000 0.000000 0.035321
#
#
# Mechanical properties :
#
#
# Convention : Reuss Voigt Hill
#
# Bulk Modulus (GPa) = 43.34852 58.60382 50.97617
# Shear Modulus (GPa) = 25.63158 29.09390 27.36274
#
# Velocity S-wave (km/s) = 3.54101 3.77260 3.65863
# Velocity P-wave (km/s) = 6.15825 6.90254 6.54099
#
# Compressibility (1/GPa) = 0.02306884
#
# Stress axis : x y z
#
# Youngs Moduli (GPa) = 74.01581 49.52555 83.65712
#
# Poissons Ratio (x) = 0.30436 0.60039
# Poissons Ratio (y) = 0.45486 -0.16972
# Poissons Ratio (z) = 0.53120 -0.10048
#
# Static dielectric constant tensor:
#      x y z
#    x 3.853370 0.000000 0.000000 
#    y 0.000000 3.617970 0.000000 
#    z 0.000000 0.000000 3.643240 
# 
# 
# High freq. dielectric constant tensor:
#      x y z
#    x 1.814560 0.000000 0.000000 
#    y 0.000000 1.800860 0.000000 
#    z 0.000000 0.000000 1.803270 
# 
# From -- ./inp_files/12450.got.cif
#   From: 2010.03.12/outbox.cif.g09.slc.cpg/sg59_7_cif.got.tgz:12450.got - 2010.04.16 16:29:54.
