data_PCOD8245733
_publ_section_title
;
Structure prediction by ZEFSAII (Michael W. Deem and Ramdas Pophale) SiO2 
 PCOD8245733
Probable space group: P M M N
;
_chemical_formula_sum "Si O2"
_cell_formula_units_Z 56
_cell_length_a 13.331023
_cell_length_b 28.844728
_cell_length_c 6.772830
_cell_angle_alpha 90.000000
_cell_angle_beta 90.000000
_cell_angle_gamma 90.000000
_cell_volume 2604.354507
_symmetry_space_group_name_H-M "P M M N"
_symmetry_group_IT_number 59
_space_group.IT_coordinate_system_code '2'
_symmetry_cell_setting 'orthorhombic'
loop_
_space_group_symop_operation_xyz
x,y,z
1/2-x,1/2-y,z
1/2+x,-y,-z
-x,1/2+y,-z
-x,-y,-z
1/2+x,1/2+y,-z
1/2-x,y,z
x,1/2-y,z
loop_
_atom_site_type_symbol
_atom_site_label
_atom_site_fract_x
_atom_site_fract_y
_atom_site_fract_z
Si Si1 0.357965 0.029332 0.523363
Si Si2 0.963747 0.017750 0.792719
Si Si3 0.863777 0.697685 0.167791
Si Si4 0.634558 0.198283 0.515401
Si Si5 0.490504 0.664784 0.838596
Si Si6 0.638342 0.634611 0.525373
Si Si7 0.869140 0.381766 0.831096
O O1 0.250000 0.008752 0.583819
O O2 0.439378 0.006601 0.661976
O O3 0.357128 0.083680 0.560944
O O4 0.377092 0.015463 0.294046
O O5 0.926432 0.070810 0.777253
O O6 0.000000 0.000000 0.000000
O O7 0.750000 0.682474 0.107436
O O8 0.863701 0.750000 0.244362
O O9 0.904173 0.667227 0.350648
O O10 0.939710 0.694415 0.984706
O O11 0.750000 0.191640 0.455461
O O12 0.617863 0.250000 0.608823
O O13 0.570523 0.196579 0.314158
O O14 0.604503 0.158106 0.670849
O O15 0.565821 0.632902 0.713234
O O16 0.410630 0.633683 0.956217
O O17 0.750000 0.651634 0.587806
O O18 0.750000 0.390200 0.845906
#
# Coordination Sequence:
#
# PCOD8245733 Si02
#       7
#     8   8   8   8   8   8   8
#     4  10  22  40  62  89 120 156 200 248 299 362
#     4  11  23  41  65  93 123 159 202 252 311 372
#     4  10  22  38  57  87 126 164 204 254 311 370
#     4  10  23  42  62  87 122 164 207 251 300 356
#     4  12  21  36  62  90 119 158 206 253 301 360
#     4  10  22  40  60  84 118 157 196 243 299 359
#     4  11  25  43  63  91 128 165 204 257 317 376
#
# _framework density 21.502448999999999
#
# number of rings (size 3 to 8) (size 9 to 14) (size 15 to 20)
#    0.000    1.429    0.000    5.143    0.000    5.714 
#    0.000    6.429    0.000    0.000    0.000    0.000 
#    0.000    0.000    0.000    0.000    0.000    0.000 
#
# Total GULP energy -694195.514775 kJ/mol
# GULP energy per Si atom -12396.348478 kJ/mol
# Density = 2.145351 g / cm^3
# Si number density = 21.502449 Si / 1000 Ang^3
#
#
#
# Elastic Constant Matrix: (Units=GPa)
#
#
# Indices 1 2 3 4 5 6 
#
# 1 130.0853 38.2607 60.6149 0.0000 0.0000 0.0000
# 2 38.2607 109.8911 46.5653 0.0000 0.0000 0.0000
# 3 60.6149 46.5653 127.9412 0.0000 0.0000 0.0000
# 4 0.0000 0.0000 0.0000 33.8583 0.0000 0.0000
# 5 0.0000 0.0000 0.0000 0.0000 41.7867 0.0000
# 6 0.0000 0.0000 0.0000 0.0000 0.0000 27.5960
#
#
#
# Elastic Compliance Matrix: (Units=1/GPa)
#
#
# Indices 1 2 3 4 5 6 
#
# 1 0.010148 -0.001769 -0.004164 0.000000 0.000000 0.000000
# 2 -0.001769 0.011068 -0.003190 0.000000 0.000000 0.000000
# 3 -0.004164 -0.003190 0.010950 0.000000 0.000000 0.000000
# 4 0.000000 0.000000 0.000000 0.029535 0.000000 0.000000
# 5 0.000000 0.000000 0.000000 0.000000 0.023931 0.000000
# 6 0.000000 0.000000 0.000000 0.000000 0.000000 0.036237
#
#
# Mechanical properties :
#
#
# Convention : Reuss Voigt Hill
#
# Bulk Modulus (GPa) = 71.84141 73.19993 72.52067
# Shear Modulus (GPa) = 34.54142 35.47997 35.01070
#
# Velocity S-wave (km/s) = 4.01233 4.06648 4.03950
# Velocity P-wave (km/s) = 7.41272 7.49432 7.45363
#
# Compressibility (1/GPa) = 0.01391955
#
# Stress axis : x y z
#
# Youngs Moduli (GPa) = 98.54425 90.35441 91.32466
#
# Poissons Ratio (x) = 0.15981 0.38027
# Poissons Ratio (y) = 0.17429 0.29134
# Poissons Ratio (z) = 0.41034 0.28825
#
# Static dielectric constant tensor:
#      x y z
#    x 4.351070 0.000000 0.000000 
#    y 0.000000 3.809220 0.000000 
#    z 0.000000 0.000000 3.832370 
# 
# 
# High freq. dielectric constant tensor:
#      x y z
#    x 1.873840 0.000000 0.000000 
#    y 0.000000 1.837970 0.000000 
#    z 0.000000 0.000000 1.834350 
# 
# From -- ./inp_files/2308.got.cif
#   From: 2010.03.12/outbox.cif.g09.slc.cpg/sg59_2_cif.got.tgz:2308.got - 2010.04.16 16:29:54.
