data_PCOD8245695
_publ_section_title
;
Structure prediction by ZEFSAII (Michael W. Deem and Ramdas Pophale) SiO2 
 PCOD8245695
Probable space group: P M M N
;
_chemical_formula_sum "Si O2"
_cell_formula_units_Z 56
_cell_length_a 22.166907
_cell_length_b 8.742659
_cell_length_c 14.336048
_cell_angle_alpha 90.000000
_cell_angle_beta 90.000000
_cell_angle_gamma 90.000000
_cell_volume 2778.293258
_symmetry_space_group_name_H-M "P M M N"
_symmetry_group_IT_number 59
_space_group.IT_coordinate_system_code '2'
_symmetry_cell_setting 'orthorhombic'
loop_
_space_group_symop_operation_xyz
x,y,z
1/2-x,1/2-y,z
1/2+x,-y,-z
-x,1/2+y,-z
-x,-y,-z
1/2+x,1/2+y,-z
1/2-x,y,z
x,1/2-y,z
loop_
_atom_site_type_symbol
_atom_site_label
_atom_site_fract_x
_atom_site_fract_y
_atom_site_fract_z
Si Si1 0.655429 0.919979 0.628084
Si Si2 0.750000 0.570762 0.313988
Si Si3 0.086755 0.426298 0.060740
Si Si4 0.376447 0.929826 0.699490
Si Si5 0.750000 0.076043 0.509228
Si Si6 0.955768 0.427164 0.123912
Si Si7 0.680112 0.427963 0.815125
Si Si8 0.438459 0.079293 0.523609
O O1 0.684999 0.750000 0.625440
O O2 0.591457 0.914872 0.578045
O O3 0.693308 0.047105 0.574340
O O4 0.648927 0.973227 0.734082
O O5 0.750000 0.750000 0.293850
O O6 0.688658 0.499336 0.271054
O O7 0.750000 0.541516 0.424327
O O8 0.105525 0.250000 0.067217
O O9 0.142889 0.529943 0.092585
O O10 0.027601 0.459484 0.124566
O O11 0.074649 0.467347 0.953683
O O12 0.367905 0.750000 0.689543
O O13 0.426656 0.971864 0.776744
O O14 0.397845 0.991963 0.599475
O O15 0.750000 0.250000 0.472146
O O16 0.943376 0.250000 0.099584
O O17 0.750000 0.473859 0.828134
O O18 0.673786 0.250000 0.792509
O O19 0.449110 0.250000 0.562429
O O20 0.500000 0.000000 0.500000
#
# Coordination Sequence:
#
# PCOD8245695 Si02
#       8
#     8   4   8   8   4   8   8   8
#     4  11  23  39  60  85 119 160 202 251 299 352
#     4  12  24  40  60  87 122 161 208 256 306 364
#     4  10  21  40  67  94 121 156 201 254 311 370
#     4  11  23  41  65  91 123 163 207 253 309 373
#     4  12  22  36  60  85 114 157 204 244 292 356
#     4   9  21  42  66  93 122 156 200 251 308 372
#     4  11  24  40  60  90 126 165 209 255 306 370
#     4  11  25  41  59  88 126 164 207 256 307 359
#
# _framework density 20.156261000000001
#
# number of rings (size 3 to 8) (size 9 to 14) (size 15 to 20)
#    0.000    1.286    2.143    3.429    2.000    4.286 
#    1.286    0.000    0.000    0.000    0.000    0.000 
#    0.000    0.000    0.000    0.000    0.000    0.000 
#
# Total GULP energy -694452.114333 kJ/mol
# GULP energy per Si atom -12400.930613 kJ/mol
# Density = 2.011038 g / cm^3
# Si number density = 20.156261 Si / 1000 Ang^3
#
#
#
# Elastic Constant Matrix: (Units=GPa)
#
#
# Indices 1 2 3 4 5 6 
#
# 1 116.0900 57.1959 42.3326 0.0000 0.0000 0.0000
# 2 57.1959 118.1353 33.4236 0.0000 0.0000 0.0000
# 3 42.3326 33.4236 72.3781 0.0000 0.0000 0.0000
# 4 0.0000 0.0000 0.0000 33.5644 0.0000 0.0000
# 5 0.0000 0.0000 0.0000 0.0000 17.5955 0.0000
# 6 0.0000 0.0000 0.0000 0.0000 0.0000 12.5056
#
#
#
# Elastic Compliance Matrix: (Units=1/GPa)
#
#
# Indices 1 2 3 4 5 6 
#
# 1 0.012898 -0.004728 -0.005361 0.000000 0.000000 0.000000
# 2 -0.004728 0.011470 -0.002531 0.000000 0.000000 0.000000
# 3 -0.005361 -0.002531 0.018121 0.000000 0.000000 0.000000
# 4 0.000000 0.000000 0.000000 0.029794 0.000000 0.000000
# 5 0.000000 0.000000 0.000000 0.000000 0.056833 0.000000
# 6 0.000000 0.000000 0.000000 0.000000 0.000000 0.079964
#
#
# Mechanical properties :
#
#
# Convention : Reuss Voigt Hill
#
# Bulk Modulus (GPa) = 57.97487 63.61196 60.79341
# Shear Modulus (GPa) = 20.82730 24.30984 22.56857
#
# Velocity S-wave (km/s) = 3.21797 3.47662 3.34979
# Velocity P-wave (km/s) = 6.52934 6.90968 6.72220
#
# Compressibility (1/GPa) = 0.01724885
#
# Stress axis : x y z
#
# Youngs Moduli (GPa) = 77.53013 87.18216 55.18576
#
# Poissons Ratio (x) = 0.41221 0.29582
# Poissons Ratio (y) = 0.36657 0.13970
# Poissons Ratio (z) = 0.41560 0.22070
#
# Static dielectric constant tensor:
#      x y z
#    x 3.718230 0.000000 0.000000 
#    y 0.000000 3.724180 0.000000 
#    z 0.000000 0.000000 3.517690 
# 
# 
# High freq. dielectric constant tensor:
#      x y z
#    x 1.792360 0.000000 0.000000 
#    y 0.000000 1.799570 0.000000 
#    z 0.000000 0.000000 1.775030 
# 
# From -- ./inp_files/24318.got.cif
#   From: 2010.03.12/outbox.cif.g09.slc.cpg/sg59_13_cif.got.tgz:24318.got - 2010.04.16 16:29:54.
