data_PCOD8245928
_publ_section_title
;
Structure prediction by ZEFSAII (Michael W. Deem and Ramdas Pophale) SiO2 
 PCOD8245928
Probable space group: P M M N
;
_chemical_formula_sum "Si O2"
_cell_formula_units_Z 64
_cell_length_a 15.095691
_cell_length_b 19.377522
_cell_length_c 11.151231
_cell_angle_alpha 90.000000
_cell_angle_beta 90.000000
_cell_angle_gamma 90.000000
_cell_volume 3261.925580
_symmetry_space_group_name_H-M "P M M N"
_symmetry_group_IT_number 59
_space_group.IT_coordinate_system_code '2'
_symmetry_cell_setting 'orthorhombic'
loop_
_space_group_symop_operation_xyz
x,y,z
1/2-x,1/2-y,z
1/2+x,-y,-z
-x,1/2+y,-z
-x,-y,-z
1/2+x,1/2+y,-z
1/2-x,y,z
x,1/2-y,z
loop_
_atom_site_type_symbol
_atom_site_label
_atom_site_fract_x
_atom_site_fract_y
_atom_site_fract_z
Si Si1 0.351169 0.564809 0.444486
Si Si2 0.010400 0.830509 0.552971
Si Si3 0.110978 0.425828 0.809717
Si Si4 0.651271 0.060971 0.059017
Si Si5 0.004218 0.121531 0.188193
Si Si6 0.350157 0.083502 0.539787
Si Si7 0.152961 0.173595 0.021590
Si Si8 0.921351 0.471507 0.803805
O O1 0.250000 0.583509 0.477322
O O2 0.413567 0.627867 0.482723
O O3 0.381926 0.494731 0.511535
O O4 0.357043 0.553298 0.301622
O O5 0.014950 0.750000 0.515961
O O6 0.027162 0.837653 0.694595
O O7 0.913776 0.861114 0.522860
O O8 0.146090 0.501804 0.840964
O O9 0.148388 0.404390 0.681538
O O10 0.004666 0.420263 0.810827
O O11 0.147186 0.374936 0.908125
O O12 0.750000 0.093180 0.057791
O O13 0.579266 0.118252 0.096612
O O14 0.630170 0.028395 0.929382
O O15 0.082034 0.162492 0.124805
O O16 0.041403 0.047017 0.225051
O O17 0.250000 0.094863 0.491439
O O18 0.250000 0.163172 0.080622
O O19 0.140895 0.250000 0.970286
#
# Coordination Sequence:
#
# PCOD8245928 Si02
#       8
#     8   8   8   8   8   8   8   8
#     4  11  23  42  68  94 121 161 212 263 312 367
#     4  12  26  43  64  89 127 171 210 259 312 376
#     4  11  20  37  60  89 123 155 196 246 305 363
#     4  11  21  35  62  98 125 151 193 252 313 364
#     4  11  22  40  63  89 123 163 204 252 308 370
#     4  11  23  40  66  94 124 164 209 262 313 368
#     4  11  23  38  58  85 121 163 201 242 300 372
#     4  11  19  37  67  93 121 156 199 257 313 367
#
# _framework density 19.620311000000001
#
# number of rings (size 3 to 8) (size 9 to 14) (size 15 to 20)
#    0.000    0.875    5.000    4.500    0.000    3.500 
#    0.000    0.000    0.000    1.125    0.000    0.000 
#    0.000    0.000    0.000    0.000    0.000    0.000 
#
# Total GULP energy -793776.748108 kJ/mol
# GULP energy per Si atom -12402.761689 kJ/mol
# Density = 1.957565 g / cm^3
# Si number density = 19.620311 Si / 1000 Ang^3
#
#
#
# Elastic Constant Matrix: (Units=GPa)
#
#
# Indices 1 2 3 4 5 6 
#
# 1 125.0942 44.2810 18.4844 0.0000 0.0000 0.0000
# 2 44.2810 90.6033 12.1039 0.0000 0.0000 0.0000
# 3 18.4844 12.1039 86.0122 0.0000 0.0000 0.0000
# 4 0.0000 0.0000 0.0000 12.2049 0.0000 0.0000
# 5 0.0000 0.0000 0.0000 0.0000 21.9607 0.0000
# 6 0.0000 0.0000 0.0000 0.0000 0.0000 17.8681
#
#
#
# Elastic Compliance Matrix: (Units=1/GPa)
#
#
# Indices 1 2 3 4 5 6 
#
# 1 0.009844 -0.004615 -0.001466 0.000000 0.000000 0.000000
# 2 -0.004615 0.013413 -0.000896 0.000000 0.000000 0.000000
# 3 -0.001466 -0.000896 0.012067 0.000000 0.000000 0.000000
# 4 0.000000 0.000000 0.000000 0.081934 0.000000 0.000000
# 5 0.000000 0.000000 0.000000 0.000000 0.045536 0.000000
# 6 0.000000 0.000000 0.000000 0.000000 0.000000 0.055966
#
#
# Mechanical properties :
#
#
# Convention : Reuss Voigt Hill
#
# Bulk Modulus (GPa) = 46.79453 50.16092 48.47772
# Shear Modulus (GPa) = 20.84746 25.52944 23.18845
#
# Velocity S-wave (km/s) = 3.26321 3.61109 3.44155
# Velocity P-wave (km/s) = 6.17251 6.55805 6.36819
#
# Compressibility (1/GPa) = 0.02137002
#
# Stress axis : x y z
#
# Youngs Moduli (GPa) = 101.58070 74.55731 82.86824
#
# Poissons Ratio (x) = 0.34411 0.12149
# Poissons Ratio (y) = 0.46884 0.07421
# Poissons Ratio (z) = 0.14893 0.06677
#
# Static dielectric constant tensor:
#      x y z
#    x 3.820780 0.000000 0.000000 
#    y 0.000000 3.419160 0.000000 
#    z 0.000000 0.000000 3.579750 
# 
# 
# High freq. dielectric constant tensor:
#      x y z
#    x 1.778790 0.000000 0.000000 
#    y 0.000000 1.733230 0.000000 
#    z 0.000000 0.000000 1.772000 
# 
# From -- ./inp_files/17254.got.cif
#   From: 2010.03.12/outbox.cif.g09.slc.cpg/sg59_9_cif.got.tgz:17254.got - 2010.04.16 16:29:54.
