data_PCOD8245948
_publ_section_title
;
Structure prediction by ZEFSAII (Michael W. Deem and Ramdas Pophale) SiO2 
 PCOD8245948
Probable space group: P M M N
;
_chemical_formula_sum "Si O2"
_cell_formula_units_Z 64
_cell_length_a 8.464805
_cell_length_b 29.940151
_cell_length_c 15.183026
_cell_angle_alpha 90.000000
_cell_angle_beta 90.000000
_cell_angle_gamma 90.000000
_cell_volume 3847.948757
_symmetry_space_group_name_H-M "P M M N"
_symmetry_group_IT_number 59
_space_group.IT_coordinate_system_code '2'
_symmetry_cell_setting 'orthorhombic'
loop_
_space_group_symop_operation_xyz
x,y,z
1/2-x,1/2-y,z
1/2+x,-y,-z
-x,1/2+y,-z
-x,-y,-z
1/2+x,1/2+y,-z
1/2-x,y,z
x,1/2-y,z
loop_
_atom_site_type_symbol
_atom_site_label
_atom_site_fract_x
_atom_site_fract_y
_atom_site_fract_z
Si Si1 0.931859 0.799183 0.806022
Si Si2 0.562631 0.884646 0.711451
Si Si3 0.934351 0.563247 0.553408
Si Si4 0.563632 0.973054 0.376013
Si Si5 0.063263 0.894745 0.045580
Si Si6 0.565707 0.963422 0.176891
Si Si7 0.934433 0.298737 0.004851
Si Si8 0.935605 0.556951 0.874575
O O1 0.750000 0.808405 0.832726
O O2 0.952587 0.750000 0.764800
O O3 0.991484 0.834347 0.733203
O O4 0.036620 0.805190 0.891981
O O5 0.750000 0.888563 0.708920
O O6 0.490954 0.897698 0.615222
O O7 0.500850 0.918425 0.786901
O O8 0.750000 0.570729 0.550511
O O9 0.994314 0.562403 0.451738
O O10 0.969878 0.517921 0.605106
O O11 0.750000 0.982373 0.385255
O O12 0.518623 0.955885 0.279134
O O13 0.250000 0.895519 0.059162
O O14 0.998579 0.843136 0.043475
O O15 0.979415 0.917844 0.128206
O O16 0.023559 0.921375 0.957019
O O17 0.750000 0.973485 0.166869
O O18 0.472902 0.004500 0.133024
O O19 0.750000 0.296830 0.987908
O O20 0.007589 0.250000 0.974307
O O21 0.750000 0.563539 0.889096
#
# Coordination Sequence:
#
# PCOD8245948 Si02
#       8
#     8   8   8   8   8   8   8   8
#     4   9  16  27  44  66  91 117 146 179 216 264
#     4   9  16  26  44  68  91 118 148 177 217 264
#     4   9  16  29  47  65  87 115 146 181 222 267
#     4   9  18  30  45  65  87 113 148 188 226 259
#     4  11  22  34  48  67  90 122 156 188 227 272
#     4  11  22  34  46  64  92 124 159 195 228 264
#     4   9  18  32  48  66  88 113 145 187 230 269
#     4  11  20  32  47  66  93 125 158 187 220 264
#
# _framework density 16.632237
#
# number of rings (size 3 to 8) (size 9 to 14) (size 15 to 20)
#    0.000    2.250    2.500    1.500    0.000    1.000 
#    0.000    0.625    0.000    0.000    0.000    0.875 
#    0.000    3.000    0.000    0.000    0.000    0.000 
#
# Total GULP energy -792990.725371 kJ/mol
# GULP energy per Si atom -12390.480084 kJ/mol
# Density = 1.659438 g / cm^3
# Si number density = 16.632237 Si / 1000 Ang^3
#
#
#
# Elastic Constant Matrix: (Units=GPa)
#
#
# Indices 1 2 3 4 5 6 
#
# 1 11.5877 0.7135 4.9078 0.0000 0.0000 0.0000
# 2 0.7135 125.6347 57.4676 0.0000 0.0000 0.0000
# 3 4.9078 57.4676 99.3556 0.0000 0.0000 0.0000
# 4 0.0000 0.0000 0.0000 24.0994 0.0000 0.0000
# 5 0.0000 0.0000 0.0000 0.0000 14.1049 0.0000
# 6 0.0000 0.0000 0.0000 0.0000 0.0000 14.5570
#
#
#
# Elastic Compliance Matrix: (Units=1/GPa)
#
#
# Indices 1 2 3 4 5 6 
#
# 1 0.088524 0.002036 -0.005551 0.000000 0.000000 0.000000
# 2 0.002036 0.010870 -0.006388 0.000000 0.000000 0.000000
# 3 -0.005551 -0.006388 0.014034 0.000000 0.000000 0.000000
# 4 0.000000 0.000000 0.000000 0.041495 0.000000 0.000000
# 5 0.000000 0.000000 0.000000 0.000000 0.070897 0.000000
# 6 0.000000 0.000000 0.000000 0.000000 0.000000 0.068695
#
#
# Mechanical properties :
#
#
# Convention : Reuss Voigt Hill
#
# Bulk Modulus (GPa) = 10.68110 40.30619 25.49365
# Shear Modulus (GPa) = 14.47067 22.11822 18.29444
#
# Velocity S-wave (km/s) = 2.95284 3.65065 3.32013
# Velocity P-wave (km/s) = 4.24989 6.48507 5.48259
#
# Compressibility (1/GPa) = 0.09362329
#
# Stress axis : x y z
#
# Youngs Moduli (GPa) = 11.29639 91.99717 71.25685
#
# Poissons Ratio (x) = -0.18732 0.39551
# Poissons Ratio (y) = -0.02300 0.45517
# Poissons Ratio (z) = 0.06270 0.58766
#
# Static dielectric constant tensor:
#      x y z
#    x 3.000100 0.000000 0.000000 
#    y 0.000000 3.504370 0.000000 
#    z 0.000000 0.000000 3.388480 
# 
# 
# High freq. dielectric constant tensor:
#      x y z
#    x 1.629680 0.000000 0.000000 
#    y 0.000000 1.631800 0.000000 
#    z 0.000000 0.000000 1.624140 
# 
# From -- ./inp_files/21942.got.cif
#   From: 2010.03.12/outbox.cif.g09.slc.cpg/sg59_11_cif.got.tgz:21942.got - 2010.04.16 16:29:54.
