data_PCOD8245439
_publ_section_title
;
Structure prediction by ZEFSAII (Michael W. Deem and Ramdas Pophale) SiO2 
 PCOD8245439
Probable space group: P M M N
;
_chemical_formula_sum "Si O2"
_cell_formula_units_Z 48
_cell_length_a 8.675434
_cell_length_b 15.069566
_cell_length_c 19.154829
_cell_angle_alpha 90.000000
_cell_angle_beta 90.000000
_cell_angle_gamma 90.000000
_cell_volume 2504.207053
_symmetry_space_group_name_H-M "P M M N"
_symmetry_group_IT_number 59
_space_group.IT_coordinate_system_code '2'
_symmetry_cell_setting 'orthorhombic'
loop_
_space_group_symop_operation_xyz
x,y,z
1/2-x,1/2-y,z
1/2+x,-y,-z
-x,1/2+y,-z
-x,-y,-z
1/2+x,1/2+y,-z
1/2-x,y,z
x,1/2-y,z
loop_
_atom_site_type_symbol
_atom_site_label
_atom_site_fract_x
_atom_site_fract_y
_atom_site_fract_z
Si Si1 0.929504 0.352409 0.421986
Si Si2 0.432191 0.650024 0.072809
Si Si3 0.432539 0.349734 0.073428
Si Si4 0.071053 0.148358 0.569170
Si Si5 0.433012 0.000115 0.175273
Si Si6 0.068050 0.503992 0.332862
O O1 0.750000 0.372958 0.412114
O O2 0.969420 0.250000 0.406507
O O3 0.975430 0.377772 0.500589
O O4 0.027421 0.411067 0.368868
O O5 0.250000 0.644292 0.065830
O O6 0.487442 0.750000 0.089556
O O7 0.492657 0.587572 0.135187
O O8 0.502369 0.616092 0.000151
O O9 0.250000 0.353957 0.068871
O O10 0.490715 0.250000 0.089389
O O11 0.495430 0.412873 0.134976
O O12 0.250000 0.131983 0.553035
O O13 0.039116 0.250000 0.590848
O O14 0.016552 0.086557 0.631742
O O15 0.250000 0.001858 0.176666
O O16 0.495962 0.999968 0.253946
O O17 0.250000 0.519778 0.336029
#
# Coordination Sequence:
#
# PCOD8245439 Si02
#       6
#     8   8   8   8   8   8
#     4  10  21  38  59  81 106 138 177 220 264 312
#     4   9  17  31  51  73  97 127 166 210 252 297
#     4   9  17  31  51  73  97 127 166 210 252 297
#     4  10  21  38  59  81 106 138 177 220 264 312
#     4   9  19  33  49  72 101 135 170 203 248 306
#     4  11  22  35  54  80 110 143 178 217 262 314
#
# _framework density 19.167743999999999
#
# number of rings (size 3 to 8) (size 9 to 14) (size 15 to 20)
#    0.000    2.333    0.000    2.500    0.000    3.333 
#    0.000    6.667    0.000    4.000    0.000    0.000 
#    0.000    0.000    0.000    0.000    0.000    0.000 
#
# Total GULP energy -595288.212212 kJ/mol
# GULP energy per Si atom -12401.837754 kJ/mol
# Density = 1.912412 g / cm^3
# Si number density = 19.167744 Si / 1000 Ang^3
#
#
#
# Elastic Constant Matrix: (Units=GPa)
#
#
# Indices 1 2 3 4 5 6 
#
# 1 28.1038 17.0120 10.9127 0.0000 0.0000 0.0000
# 2 17.0120 119.8721 82.3466 0.0000 0.0000 0.0000
# 3 10.9127 82.3466 150.1147 0.0000 0.0000 0.0000
# 4 0.0000 0.0000 0.0000 20.6001 0.0000 0.0000
# 5 0.0000 0.0000 0.0000 0.0000 27.8759 0.0000
# 6 0.0000 0.0000 0.0000 0.0000 0.0000 23.0897
#
#
#
# Elastic Compliance Matrix: (Units=1/GPa)
#
#
# Indices 1 2 3 4 5 6 
#
# 1 0.038936 -0.005747 0.000322 0.000000 0.000000 0.000000
# 2 -0.005747 0.014235 -0.007391 0.000000 0.000000 0.000000
# 3 0.000322 -0.007391 0.010693 0.000000 0.000000 0.000000
# 4 0.000000 0.000000 0.000000 0.048544 0.000000 0.000000
# 5 0.000000 0.000000 0.000000 0.000000 0.035873 0.000000
# 6 0.000000 0.000000 0.000000 0.000000 0.000000 0.043309
#
#
# Mechanical properties :
#
#
# Convention : Reuss Voigt Hill
#
# Bulk Modulus (GPa) = 26.15612 57.62590 41.89101
# Shear Modulus (GPa) = 21.74236 26.83441 24.28839
#
# Velocity S-wave (km/s) = 3.37162 3.74569 3.56357
# Velocity P-wave (km/s) = 5.36960 6.98829 6.23172
#
# Compressibility (1/GPa) = 0.03823198
#
# Stress axis : x y z
#
# Youngs Moduli (GPa) = 25.68306 70.24894 93.52310
#
# Poissons Ratio (x) = 0.40372 -0.03012
# Poissons Ratio (y) = 0.14760 0.69123
# Poissons Ratio (z) = -0.00827 0.51921
#
# Static dielectric constant tensor:
#      x y z
#    x 3.887270 0.000000 0.000000 
#    y 0.000000 3.753190 0.000000 
#    z 0.000000 0.000000 3.659960 
# 
# 
# High freq. dielectric constant tensor:
#      x y z
#    x 1.730370 0.000000 0.000000 
#    y 0.000000 1.759820 0.000000 
#    z 0.000000 0.000000 1.741580 
# 
# From -- ./inp_files/25416.got.cif
#   From: 2010.03.12/outbox.cif.g09.slc.cpg/sg59_13_cif.got.tgz:25416.got - 2010.04.16 16:29:54.
