data_PCOD8245783
_publ_section_title
;
Structure prediction by ZEFSAII (Michael W. Deem and Ramdas Pophale) SiO2 
 PCOD8245783
Probable space group: P M M N
;
_chemical_formula_sum "Si O2"
_cell_formula_units_Z 48
_cell_length_a 28.647573
_cell_length_b 9.151410
_cell_length_c 9.760860
_cell_angle_alpha 90.000000
_cell_angle_beta 90.000000
_cell_angle_gamma 90.000000
_cell_volume 2558.962558
_symmetry_space_group_name_H-M "P M M N"
_symmetry_group_IT_number 59
_space_group.IT_coordinate_system_code '2'
_symmetry_cell_setting 'orthorhombic'
loop_
_space_group_symop_operation_xyz
x,y,z
1/2-x,1/2-y,z
1/2+x,-y,-z
-x,1/2+y,-z
-x,-y,-z
1/2+x,1/2+y,-z
1/2-x,y,z
x,1/2-y,z
loop_
_atom_site_type_symbol
_atom_site_label
_atom_site_fract_x
_atom_site_fract_y
_atom_site_fract_z
Si Si1 0.196498 0.920563 0.527178
Si Si2 0.477499 0.415876 0.623912
Si Si3 0.876942 0.922865 0.282638
Si Si4 0.874176 0.577528 0.967693
Si Si5 0.466167 0.582502 0.101651
Si Si6 0.695163 0.084735 0.784796
O O1 0.250000 0.966183 0.554351
O O2 0.189626 0.750000 0.555688
O O3 0.182350 0.957921 0.371141
O O4 0.164281 0.009906 0.629084
O O5 0.500000 0.500000 0.500000
O O6 0.470475 0.250000 0.577423
O O7 0.427074 0.482122 0.665339
O O8 0.513112 0.427783 0.747991
O O9 0.874425 0.750000 0.295721
O O10 0.870409 0.970946 0.125460
O O11 0.881849 0.750000 0.954182
O O12 0.916493 0.495251 0.894659
O O13 0.827671 0.529336 0.888999
O O14 0.461169 0.750000 0.053906
O O15 0.500000 0.500000 0.000000
O O16 0.750000 0.074310 0.807187
O O17 0.677913 0.250000 0.815290
#
# Coordination Sequence:
#
# PCOD8245783 Si02
#       6
#     8   8   8   8   8   8
#     4   9  20  39  61  85 114 149 190 236 287 343
#     4  10  23  41  58  83 118 152 191 237 283 338
#     4  10  22  40  57  82 119 152 188 236 286 336
#     4  11  23  39  59  86 119 154 194 237 286 345
#     4  11  22  40  62  85 117 154 193 237 286 339
#     4   9  20  40  62  86 117 150 189 239 291 343
#
# _framework density 18.757601999999999
#
# number of rings (size 3 to 8) (size 9 to 14) (size 15 to 20)
#    0.000    2.000    1.667    2.000    2.333    5.333 
#    0.000    5.000    0.000    0.000    0.000    0.000 
#    0.000    0.000    0.000    0.000    0.000    0.000 
#
# Total GULP energy -595320.477037 kJ/mol
# GULP energy per Si atom -12402.509938 kJ/mol
# Density = 1.871491 g / cm^3
# Si number density = 18.757602 Si / 1000 Ang^3
#
#
#
# Elastic Constant Matrix: (Units=GPa)
#
#
# Indices 1 2 3 4 5 6 
#
# 1 104.4044 45.4381 67.4895 0.0000 0.0000 0.0000
# 2 45.4381 75.3836 53.1713 0.0000 0.0000 0.0000
# 3 67.4895 53.1713 108.1984 0.0000 0.0000 0.0000
# 4 0.0000 0.0000 0.0000 37.9330 0.0000 0.0000
# 5 0.0000 0.0000 0.0000 0.0000 38.0356 0.0000
# 6 0.0000 0.0000 0.0000 0.0000 0.0000 39.7830
#
#
#
# Elastic Compliance Matrix: (Units=1/GPa)
#
#
# Indices 1 2 3 4 5 6 
#
# 1 0.016878 -0.004205 -0.008461 0.000000 0.000000 0.000000
# 2 -0.004205 0.021351 -0.007869 0.000000 0.000000 0.000000
# 3 -0.008461 -0.007869 0.018387 0.000000 0.000000 0.000000
# 4 0.000000 0.000000 0.000000 0.026362 0.000000 0.000000
# 5 0.000000 0.000000 0.000000 0.000000 0.026291 0.000000
# 6 0.000000 0.000000 0.000000 0.000000 0.000000 0.025136
#
#
# Mechanical properties :
#
#
# Convention : Reuss Voigt Hill
#
# Bulk Modulus (GPa) = 64.33148 68.90935 66.62042
# Shear Modulus (GPa) = 27.67663 31.27615 29.47639
#
# Velocity S-wave (km/s) = 3.84538 4.08779 3.96844
# Velocity P-wave (km/s) = 7.35436 7.68743 7.52274
#
# Compressibility (1/GPa) = 0.01554449
#
# Stress axis : x y z
#
# Youngs Moduli (GPa) = 59.24955 46.83682 54.38618
#
# Poissons Ratio (x) = 0.19696 0.46016
# Poissons Ratio (y) = 0.24916 0.42797
# Poissons Ratio (z) = 0.50131 0.36857
#
# Static dielectric constant tensor:
#      x y z
#    x 3.391050 0.000000 0.000000 
#    y 0.000000 3.459240 0.000000 
#    z 0.000000 0.000000 3.439890 
# 
# 
# High freq. dielectric constant tensor:
#      x y z
#    x 1.738790 0.000000 0.000000 
#    y 0.000000 1.727180 0.000000 
#    z 0.000000 0.000000 1.734680 
# 
# From -- ./inp_files/6201.got.cif
#   From: 2010.03.12/outbox.cif.g09.slc.cpg/sg59_4_cif.got.tgz:6201.got - 2010.04.16 16:29:54.
