data_PCOD8245110
_publ_section_title
;
Structure prediction by ZEFSAII (Michael W. Deem and Ramdas Pophale) SiO2 
 PCOD8245110
Probable space group: P M M N
;
_chemical_formula_sum "Si O2"
_cell_formula_units_Z 40
_cell_length_a 9.397737
_cell_length_b 15.839598
_cell_length_c 14.172031
_cell_angle_alpha 90.000000
_cell_angle_beta 90.000000
_cell_angle_gamma 90.000000
_cell_volume 2109.597178
_symmetry_space_group_name_H-M "P M M N"
_symmetry_group_IT_number 59
_space_group.IT_coordinate_system_code '2'
_symmetry_cell_setting 'orthorhombic'
loop_
_space_group_symop_operation_xyz
x,y,z
1/2-x,1/2-y,z
1/2+x,-y,-z
-x,1/2+y,-z
-x,-y,-z
1/2+x,1/2+y,-z
1/2-x,y,z
x,1/2-y,z
loop_
_atom_site_type_symbol
_atom_site_label
_atom_site_fract_x
_atom_site_fract_y
_atom_site_fract_z
Si Si1 0.590747 0.845598 0.227939
Si Si2 0.084406 0.750000 0.723385
Si Si3 0.081247 0.250000 0.082363
Si Si4 0.586271 0.089192 0.400368
Si Si5 0.916364 0.582976 0.029526
Si Si6 0.584874 0.075848 0.615734
O O1 0.750000 0.866538 0.264084
O O2 0.582663 0.750000 0.191153
O O3 0.551103 0.904636 0.140013
O O4 0.481118 0.856584 0.313173
O O5 0.250000 0.750000 0.751253
O O6 0.044207 0.830344 0.660592
O O7 0.990838 0.750000 0.816146
O O8 0.250000 0.250000 0.094616
O O9 0.031076 0.165618 0.027605
O O10 0.750000 0.063102 0.385644
O O11 0.556665 0.109117 0.510155
O O12 0.488648 0.013518 0.364826
O O13 0.750000 0.568166 0.011316
O O14 0.000000 0.500000 0.000000
O O15 0.750000 0.065619 0.637765
#
# Coordination Sequence:
#
# PCOD8245110 Si02
#       6
#     8   4   4   8   8   8
#     4  10  21  39  61  84 114 153 190 230 286 349
#     4  10  22  38  59  82 110 152 193 230 279 338
#     4  10  22  42  61  84 118 150 189 242 291 340
#     4   9  20  39  58  80 115 154 191 230 280 340
#     4  10  22  41  63  85 115 153 191 236 291 344
#     4  10  21  36  59  86 116 149 187 237 285 331
#
# _framework density 18.960965999999999
#
# number of rings (size 3 to 8) (size 9 to 14) (size 15 to 20)
#    0.000    2.200    1.000    0.600    4.200    3.600 
#    0.000    0.000    0.000    0.000    0.000    0.000 
#    0.000    0.000    0.000    0.000    0.000    0.000 
#
# Total GULP energy -496098.137616 kJ/mol
# GULP energy per Si atom -12402.453440 kJ/mol
# Density = 1.891781 g / cm^3
# Si number density = 18.960966 Si / 1000 Ang^3
#
#
#
# Elastic Constant Matrix: (Units=GPa)
#
#
# Indices 1 2 3 4 5 6 
#
# 1 74.1645 49.0183 52.6785 0.0000 0.0000 0.0000
# 2 49.0183 113.9698 56.1747 0.0000 0.0000 0.0000
# 3 52.6785 56.1747 99.6048 0.0000 0.0000 0.0000
# 4 0.0000 0.0000 0.0000 35.8273 0.0000 0.0000
# 5 0.0000 0.0000 0.0000 0.0000 36.7479 0.0000
# 6 0.0000 0.0000 0.0000 0.0000 0.0000 34.4390
#
#
#
# Elastic Compliance Matrix: (Units=1/GPa)
#
#
# Indices 1 2 3 4 5 6 
#
# 1 0.023939 -0.005617 -0.009493 0.000000 0.000000 0.000000
# 2 -0.005617 0.013470 -0.004626 0.000000 0.000000 0.000000
# 3 -0.009493 -0.004626 0.017669 0.000000 0.000000 0.000000
# 4 0.000000 0.000000 0.000000 0.027912 0.000000 0.000000
# 5 0.000000 0.000000 0.000000 0.000000 0.027212 0.000000
# 6 0.000000 0.000000 0.000000 0.000000 0.000000 0.029037
#
#
# Mechanical properties :
#
#
# Convention : Reuss Voigt Hill
#
# Bulk Modulus (GPa) = 64.07687 67.05355 65.56521
# Shear Modulus (GPa) = 27.18672 30.06069 28.62370
#
# Velocity S-wave (km/s) = 3.79070 3.98603 3.88959
# Velocity P-wave (km/s) = 7.28194 7.52498 7.40446
#
# Compressibility (1/GPa) = 0.01560626
#
# Stress axis : x y z
#
# Youngs Moduli (GPa) = 41.77332 74.23681 56.59578
#
# Poissons Ratio (x) = 0.41700 0.53724
# Poissons Ratio (y) = 0.23465 0.26182
# Poissons Ratio (z) = 0.39654 0.34343
#
# Static dielectric constant tensor:
#      x y z
#    x 3.416330 0.000000 0.000000 
#    y 0.000000 3.453000 0.000000 
#    z 0.000000 0.000000 3.466530 
# 
# 
# High freq. dielectric constant tensor:
#      x y z
#    x 1.732110 0.000000 0.000000 
#    y 0.000000 1.741980 0.000000 
#    z 0.000000 0.000000 1.743880 
# 
# From -- ./inp_files/19951.got.cif
#   From: 2010.03.12/outbox.cif.g09.slc.cpg/sg59_10_cif.got.tgz:19951.got - 2010.04.16 16:29:54.
