data_PCOD8245338
_publ_section_title
;
Structure prediction by ZEFSAII (Michael W. Deem and Ramdas Pophale) SiO2 
 PCOD8245338
Probable space group: P M M N
;
_chemical_formula_sum "Si O2"
_cell_formula_units_Z 48
_cell_length_a 8.825346
_cell_length_b 23.134546
_cell_length_c 12.621334
_cell_angle_alpha 90.000000
_cell_angle_beta 90.000000
_cell_angle_gamma 90.000000
_cell_volume 2576.902471
_symmetry_space_group_name_H-M "P M M N"
_symmetry_group_IT_number 59
_space_group.IT_coordinate_system_code '2'
_symmetry_cell_setting 'orthorhombic'
loop_
_space_group_symop_operation_xyz
x,y,z
1/2-x,1/2-y,z
1/2+x,-y,-z
-x,1/2+y,-z
-x,-y,-z
1/2+x,1/2+y,-z
1/2-x,y,z
x,1/2-y,z
loop_
_atom_site_type_symbol
_atom_site_label
_atom_site_fract_x
_atom_site_fract_y
_atom_site_fract_z
Si Si1 0.425753 0.684050 0.507619
Si Si2 0.428440 0.120875 0.301516
Si Si3 0.424659 0.316285 0.890966
Si Si4 0.576496 0.880875 0.319071
Si Si5 0.075773 0.507685 0.613339
Si Si6 0.426486 0.683198 0.890567
O O1 0.250000 0.675113 0.533669
O O2 0.463919 0.750000 0.479494
O O3 0.519036 0.666383 0.610661
O O4 0.469528 0.644718 0.408937
O O5 0.250000 0.114981 0.306398
O O6 0.498148 0.058112 0.320596
O O7 0.478155 0.143098 0.187081
O O8 0.250000 0.326869 0.921538
O O9 0.452021 0.250000 0.857168
O O10 0.476185 0.356629 0.794070
O O11 0.528085 0.333475 0.990195
O O12 0.750000 0.862607 0.343001
O O13 0.558568 0.949789 0.317499
O O14 0.250000 0.523794 0.594038
O O15 0.000000 0.500000 0.500000
O O16 0.250000 0.671013 0.873620
O O17 0.466780 0.750000 0.868018
#
# Coordination Sequence:
#
# PCOD8245338 Si02
#       6
#     8   8   8   8   8   8
#     4  11  23  36  54  83 117 149 184 234 291 345
#     4  12  24  38  58  83 112 151 195 238 287 342
#     4   9  18  35  59  86 116 149 186 230 281 341
#     4  10  21  37  59  85 114 151 193 234 282 342
#     4  11  22  38  59  84 115 154 196 238 286 341
#     4  10  21  38  60  86 116 149 187 235 290 345
#
# _framework density 18.627015
#
# number of rings (size 3 to 8) (size 9 to 14) (size 15 to 20)
#    0.000    1.500    1.667    4.000    0.000    6.333 
#    0.000    2.500    0.000    0.000    0.000    0.000 
#    0.000    0.000    0.000    0.000    0.000    0.000 
#
# Total GULP energy -595482.234392 kJ/mol
# GULP energy per Si atom -12405.879883 kJ/mol
# Density = 1.858462 g / cm^3
# Si number density = 18.627015 Si / 1000 Ang^3
#
#
#
# Elastic Constant Matrix: (Units=GPa)
#
#
# Indices 1 2 3 4 5 6 
#
# 1 111.3062 46.1836 45.6728 0.0000 0.0000 0.0000
# 2 46.1836 88.4175 48.6626 0.0000 0.0000 0.0000
# 3 45.6728 48.6626 109.0532 0.0000 0.0000 0.0000
# 4 0.0000 0.0000 0.0000 16.6119 0.0000 0.0000
# 5 0.0000 0.0000 0.0000 0.0000 27.3994 0.0000
# 6 0.0000 0.0000 0.0000 0.0000 0.0000 28.5497
#
#
#
# Elastic Compliance Matrix: (Units=1/GPa)
#
#
# Indices 1 2 3 4 5 6 
#
# 1 0.012166 -0.004706 -0.002995 0.000000 0.000000 0.000000
# 2 -0.004706 0.016812 -0.005531 0.000000 0.000000 0.000000
# 3 -0.002995 -0.005531 0.012892 0.000000 0.000000 0.000000
# 4 0.000000 0.000000 0.000000 0.060198 0.000000 0.000000
# 5 0.000000 0.000000 0.000000 0.000000 0.036497 0.000000
# 6 0.000000 0.000000 0.000000 0.000000 0.000000 0.035027
#
#
# Mechanical properties :
#
#
# Convention : Reuss Voigt Hill
#
# Bulk Modulus (GPa) = 64.91132 65.53500 65.22316
# Shear Modulus (GPa) = 24.36734 25.72939 25.04836
#
# Velocity S-wave (km/s) = 3.62079 3.72061 3.67104
# Velocity P-wave (km/s) = 7.23904 7.32915 7.28423
#
# Compressibility (1/GPa) = 0.01540563
#
# Stress axis : x y z
#
# Youngs Moduli (GPa) = 82.19627 59.47985 77.56502
#
# Poissons Ratio (x) = 0.27993 0.23232
# Poissons Ratio (y) = 0.38684 0.42902
# Poissons Ratio (z) = 0.24619 0.32899
#
# Static dielectric constant tensor:
#      x y z
#    x 3.534190 0.000000 0.000000 
#    y 0.000000 3.425060 0.000000 
#    z 0.000000 0.000000 3.391470 
# 
# 
# High freq. dielectric constant tensor:
#      x y z
#    x 1.732900 0.000000 0.000000 
#    y 0.000000 1.725290 0.000000 
#    z 0.000000 0.000000 1.721460 
# 
# From -- ./inp_files/14330.got.cif
#   From: 2010.03.12/outbox.cif.g09.slc.cpg/sg59_8_cif.got.tgz:14330.got - 2010.04.16 16:29:54.
