data_PCOD8245052
_publ_section_title
;
Structure prediction by ZEFSAII (Michael W. Deem and Ramdas Pophale) SiO2 
 PCOD8245052
Probable space group: P M M N
;
_chemical_formula_sum "Si O2"
_cell_formula_units_Z 56
_cell_length_a 9.028470
_cell_length_b 22.292083
_cell_length_c 14.233898
_cell_angle_alpha 90.000000
_cell_angle_beta 90.000000
_cell_angle_gamma 90.000000
_cell_volume 2864.762744
_symmetry_space_group_name_H-M "P M M N"
_symmetry_group_IT_number 59
_space_group.IT_coordinate_system_code '2'
_symmetry_cell_setting 'orthorhombic'
loop_
_space_group_symop_operation_xyz
x,y,z
1/2-x,1/2-y,z
1/2+x,-y,-z
-x,1/2+y,-z
-x,-y,-z
1/2+x,1/2+y,-z
1/2-x,y,z
x,1/2-y,z
loop_
_atom_site_type_symbol
_atom_site_label
_atom_site_fract_x
_atom_site_fract_y
_atom_site_fract_z
Si Si1 0.419867 0.094781 0.351356
Si Si2 0.917836 0.021297 0.089952
Si Si3 0.572293 0.750000 0.181271
Si Si4 0.577277 0.525784 0.289775
Si Si5 0.575333 0.750000 0.965141
Si Si6 0.918580 0.183205 0.483370
Si Si7 0.578764 0.150556 0.694215
Si Si8 0.419624 0.136155 0.148953
O O1 0.250000 0.076783 0.369198
O O2 0.477871 0.132247 0.439686
O O3 0.434677 0.139117 0.261763
O O4 0.509898 0.032911 0.340088
O O5 0.750000 0.024797 0.060783
O O6 0.971078 0.086492 0.113842
O O7 0.944264 0.977440 0.177680
O O8 0.000000 0.000000 0.000000
O O9 0.750000 0.750000 0.189585
O O10 0.508872 0.689726 0.228774
O O11 0.517550 0.750000 0.072451
O O12 0.750000 0.529714 0.317451
O O13 0.491996 0.585165 0.320752
O O14 0.750000 0.750000 0.968087
O O15 0.519208 0.694310 0.903792
O O16 0.750000 0.169129 0.453617
O O17 0.964499 0.250000 0.448694
O O18 0.934528 0.183744 0.595341
O O19 0.750000 0.144488 0.725737
O O20 0.250000 0.121786 0.120668
#
# Coordination Sequence:
#
# PCOD8245052 Si02
#       8
#     8   8   4   8   4   8   8   8
#     4  10  21  37  62  93 121 152 196 246 295 351
#     4  10  21  36  56  82 114 151 195 240 288 343
#     4  11  23  39  60  87 120 158 201 243 294 357
#     4  10  22  40  61  86 119 157 196 243 300 356
#     4   9  20  37  58  83 116 156 191 231 288 345
#     4  10  22  41  62  85 118 160 196 238 299 355
#     4  11  23  42  64  87 119 156 200 250 298 349
#     4   9  19  37  58  83 118 153 190 235 286 344
#
# _framework density 19.547867
#
# number of rings (size 3 to 8) (size 9 to 14) (size 15 to 20)
#    0.000    2.000    0.714    1.929    3.000    4.286 
#    0.000    1.071    0.000    0.000    0.000    0.000 
#    0.000    0.000    0.000    0.000    0.000    0.000 
#
# Total GULP energy -694322.753546 kJ/mol
# GULP energy per Si atom -12398.620599 kJ/mol
# Density = 1.950338 g / cm^3
# Si number density = 19.547867 Si / 1000 Ang^3
#
#
#
# Elastic Constant Matrix: (Units=GPa)
#
#
# Indices 1 2 3 4 5 6 
#
# 1 98.1124 54.3089 30.7325 0.0000 0.0000 0.0000
# 2 54.3089 101.3170 35.9561 0.0000 0.0000 0.0000
# 3 30.7325 35.9561 62.0485 0.0000 0.0000 0.0000
# 4 0.0000 0.0000 0.0000 17.3769 0.0000 0.0000
# 5 0.0000 0.0000 0.0000 0.0000 29.5653 0.0000
# 6 0.0000 0.0000 0.0000 0.0000 0.0000 29.9448
#
#
#
# Elastic Compliance Matrix: (Units=1/GPa)
#
#
# Indices 1 2 3 4 5 6 
#
# 1 0.015075 -0.006837 -0.003505 0.000000 0.000000 0.000000
# 2 -0.006837 0.015526 -0.005611 0.000000 0.000000 0.000000
# 3 -0.003505 -0.005611 0.021104 0.000000 0.000000 0.000000
# 4 0.000000 0.000000 0.000000 0.057548 0.000000 0.000000
# 5 0.000000 0.000000 0.000000 0.000000 0.033823 0.000000
# 6 0.000000 0.000000 0.000000 0.000000 0.000000 0.033395
#
#
# Mechanical properties :
#
#
# Convention : Reuss Voigt Hill
#
# Bulk Modulus (GPa) = 50.50554 55.94145 53.22349
# Shear Modulus (GPa) = 23.25862 24.74276 24.00069
#
# Velocity S-wave (km/s) = 3.45313 3.56160 3.50779
# Velocity P-wave (km/s) = 6.46466 6.75227 6.61003
#
# Compressibility (1/GPa) = 0.01979981
#
# Stress axis : x y z
#
# Youngs Moduli (GPa) = 66.33712 64.40878 47.38523
#
# Poissons Ratio (x) = 0.44034 0.16607
# Poissons Ratio (y) = 0.45352 0.26587
# Poissons Ratio (z) = 0.23249 0.36138
#
# Static dielectric constant tensor:
#      x y z
#    x 3.625080 0.000000 0.000000 
#    y 0.000000 3.330950 0.000000 
#    z 0.000000 0.000000 3.612870 
# 
# 
# High freq. dielectric constant tensor:
#      x y z
#    x 1.764530 0.000000 0.000000 
#    y 0.000000 1.767540 0.000000 
#    z 0.000000 0.000000 1.762640 
# 
# From -- ./inp_files/21238.got.cif
#   From: 2010.03.12/outbox.cif.g09.slc.cpg/sg59_11_cif.got.tgz:21238.got - 2010.04.16 16:29:54.
