data_PCOD8245322
_publ_section_title
;
Structure prediction by ZEFSAII (Michael W. Deem and Ramdas Pophale) SiO2 
 PCOD8245322
Probable space group: P M M N
;
_chemical_formula_sum "Si O2"
_cell_formula_units_Z 48
_cell_length_a 9.398953
_cell_length_b 9.013199
_cell_length_c 28.889297
_cell_angle_alpha 90.000000
_cell_angle_beta 90.000000
_cell_angle_gamma 90.000000
_cell_volume 2447.346216
_symmetry_space_group_name_H-M "P M M N"
_symmetry_group_IT_number 59
_space_group.IT_coordinate_system_code '2'
_symmetry_cell_setting 'orthorhombic'
loop_
_space_group_symop_operation_xyz
x,y,z
1/2-x,1/2-y,z
1/2+x,-y,-z
-x,1/2+y,-z
-x,-y,-z
1/2+x,1/2+y,-z
1/2-x,y,z
x,1/2-y,z
loop_
_atom_site_type_symbol
_atom_site_label
_atom_site_fract_x
_atom_site_fract_y
_atom_site_fract_z
Si Si1 0.913488 0.425059 0.286517
Si Si2 0.914808 0.925188 0.458789
Si Si3 0.250000 0.422152 0.934273
Si Si4 0.414151 0.925056 0.367860
Si Si5 0.750000 0.573197 0.962558
Si Si6 0.408256 0.418068 0.199078
Si Si7 0.541523 0.423799 0.895030
O O1 0.750000 0.480085 0.289965
O O2 0.923888 0.250000 0.293922
O O3 0.011594 0.501986 0.324155
O O4 0.975890 0.470794 0.236549
O O5 0.750000 0.978991 0.457338
O O6 0.922198 0.750000 0.465560
O O7 0.995031 0.975317 0.412287
O O8 0.000000 0.000000 0.500000
O O9 0.250000 0.250000 0.945409
O O10 0.378948 0.467445 0.901656
O O11 0.250000 0.494820 0.985396
O O12 0.250000 0.978688 0.372814
O O13 0.419989 0.750000 0.361317
O O14 0.750000 0.750000 0.960722
O O15 0.613871 0.511591 0.936406
O O16 0.250000 0.427378 0.221196
O O17 0.441153 0.250000 0.182989
O O18 0.410267 0.525036 0.155240
O O19 0.574602 0.250000 0.899925
#
# Coordination Sequence:
#
# PCOD8245322 Si02
#       7
#     8   8   4   8   4   8   8
#     4  10  22  39  60  87 117 150 190 235 284 343
#     4  10  21  37  58  85 118 157 201 248 298 350
#     4   9  22  39  57  83 117 149 185 233 282 333
#     4  10  21  38  60  86 117 154 197 243 292 346
#     4  11  21  39  61  83 113 151 189 229 280 337
#     4  10  21  38  58  81 113 149 187 230 281 339
#     4  11  22  38  59  85 115 147 187 234 281 335
#
# _framework density 19.61308
#
# number of rings (size 3 to 8) (size 9 to 14) (size 15 to 20)
#    0.000    1.833    0.833    2.750    1.167    4.333 
#    0.000    3.750    0.000    0.000    0.000    0.000 
#    0.000    0.000    0.000    0.000    0.000    0.000 
#
# Total GULP energy -595154.888009 kJ/mol
# GULP energy per Si atom -12399.060167 kJ/mol
# Density = 1.956844 g / cm^3
# Si number density = 19.613080 Si / 1000 Ang^3
#
#
#
# Elastic Constant Matrix: (Units=GPa)
#
#
# Indices 1 2 3 4 5 6 
#
# 1 168.0798 30.5357 58.9286 0.0000 0.0000 0.0000
# 2 30.5357 47.9244 31.2084 0.0000 0.0000 0.0000
# 3 58.9286 31.2084 113.7856 0.0000 0.0000 0.0000
# 4 0.0000 0.0000 0.0000 28.0036 0.0000 0.0000
# 5 0.0000 0.0000 0.0000 0.0000 40.3285 0.0000
# 6 0.0000 0.0000 0.0000 0.0000 0.0000 31.9021
#
#
#
# Elastic Compliance Matrix: (Units=1/GPa)
#
#
# Indices 1 2 3 4 5 6 
#
# 1 0.007558 -0.002760 -0.003157 0.000000 0.000000 0.000000
# 2 -0.002760 0.026411 -0.005815 0.000000 0.000000 0.000000
# 3 -0.003157 -0.005815 0.012018 0.000000 0.000000 0.000000
# 4 0.000000 0.000000 0.000000 0.035710 0.000000 0.000000
# 5 0.000000 0.000000 0.000000 0.000000 0.024796 0.000000
# 6 0.000000 0.000000 0.000000 0.000000 0.000000 0.031346
#
#
# Mechanical properties :
#
#
# Convention : Reuss Voigt Hill
#
# Bulk Modulus (GPa) = 44.39665 63.45946 53.92806
# Shear Modulus (GPa) = 29.61905 33.98800 31.80352
#
# Velocity S-wave (km/s) = 3.89030 4.16736 4.03121
# Velocity P-wave (km/s) = 6.54711 7.45532 7.01593
#
# Compressibility (1/GPa) = 0.02252422
#
# Stress axis : x y z
#
# Youngs Moduli (GPa) = 132.31319 37.86293 83.20577
#
# Poissons Ratio (x) = 0.10449 0.26270
# Poissons Ratio (y) = 0.36513 0.48382
# Poissons Ratio (z) = 0.41775 0.22016
#
# Static dielectric constant tensor:
#      x y z
#    x 4.065870 0.000000 0.000000 
#    y 0.000000 3.426720 0.000000 
#    z 0.000000 0.000000 3.568530 
# 
# 
# High freq. dielectric constant tensor:
#      x y z
#    x 1.786420 0.000000 0.000000 
#    y 0.000000 1.750190 0.000000 
#    z 0.000000 0.000000 1.770780 
# 
# From -- ./inp_files/33019.got.cif
#   From: 2010.03.12/outbox.cif.g09.slc.cpg/sg59_17_cif.got.tgz:33019.got - 2010.04.16 16:29:54.
