data_PCOD8245197
_publ_section_title
;
Structure prediction by ZEFSAII (Michael W. Deem and Ramdas Pophale) SiO2 
 PCOD8245197
Probable space group: P M M N
;
_chemical_formula_sum "Si O2"
_cell_formula_units_Z 64
_cell_length_a 15.205389
_cell_length_b 8.926185
_cell_length_c 23.990877
_cell_angle_alpha 90.000000
_cell_angle_beta 90.000000
_cell_angle_gamma 90.000000
_cell_volume 3256.188536
_symmetry_space_group_name_H-M "P M M N"
_symmetry_group_IT_number 59
_space_group.IT_coordinate_system_code '2'
_symmetry_cell_setting 'orthorhombic'
loop_
_space_group_symop_operation_xyz
x,y,z
1/2-x,1/2-y,z
1/2+x,-y,-z
-x,1/2+y,-z
-x,-y,-z
1/2+x,1/2+y,-z
1/2-x,y,z
x,1/2-y,z
loop_
_atom_site_type_symbol
_atom_site_label
_atom_site_fract_x
_atom_site_fract_y
_atom_site_fract_z
Si Si1 0.152785 0.081047 0.775767
Si Si2 0.491811 0.073564 0.420129
Si Si3 0.652407 0.071973 0.999932
Si Si4 0.996044 0.427016 0.293665
Si Si5 0.853004 0.073108 0.502073
Si Si6 0.153309 0.078819 0.216266
Si Si7 0.096267 0.572785 0.880053
Si Si8 0.581556 0.427061 0.883063
O O1 0.250000 0.079965 0.749203
O O2 0.118349 0.250000 0.784636
O O3 0.090002 0.995967 0.733652
O O4 0.162031 0.000070 0.835862
O O5 0.476895 0.250000 0.424316
O O6 0.497756 0.016345 0.356893
O O7 0.585113 0.028567 0.449138
O O8 0.403959 0.998267 0.445463
O O9 0.750000 0.006859 0.995269
O O10 0.654223 0.250000 0.000537
O O11 0.611438 0.010407 0.057329
O O12 0.600347 0.014889 0.945776
O O13 0.985755 0.250000 0.291144
O O14 0.083294 0.481082 0.261236
O O15 0.750000 0.016450 0.496123
O O16 0.851319 0.250000 0.510243
O O17 0.250000 0.066755 0.243605
O O18 0.132156 0.250000 0.199149
O O19 0.156069 0.975428 0.160666
O O20 0.106577 0.750000 0.877789
O O21 0.001366 0.518352 0.860127
O O22 0.566712 0.250000 0.882104
#
# Coordination Sequence:
#
# PCOD8245197 Si02
#       8
#     8   8   8   8   8   8   8   8
#     4  11  24  40  58  83 115 149 187 236 290 342
#     4   9  19  35  57  86 117 152 196 240 280 327
#     4   9  19  34  52  77 106 137 179 229 280 342
#     4  10  21  38  60  85 115 153 194 237 283 333
#     4   9  18  34  56  84 120 158 193 234 282 330
#     4  10  21  37  56  80 111 147 189 237 287 341
#     4  11  21  36  58  80 106 143 186 231 284 343
#     4  11  21  35  56  80 108 142 182 231 287 345
#
# _framework density 19.654881
#
# number of rings (size 3 to 8) (size 9 to 14) (size 15 to 20)
#    0.000    2.000    1.250    2.250    0.000    4.000 
#    0.000    4.375    0.000    4.500    0.000    0.000 
#    0.000    0.000    0.000    0.000    0.000    0.000 
#
# Total GULP energy -793345.364011 kJ/mol
# GULP energy per Si atom -12396.021313 kJ/mol
# Density = 1.961015 g / cm^3
# Si number density = 19.654881 Si / 1000 Ang^3
#
#
#
# Elastic Constant Matrix: (Units=GPa)
#
#
# Indices 1 2 3 4 5 6 
#
# 1 127.3567 19.9081 53.0440 0.0000 0.0000 0.0000
# 2 19.9081 32.6472 33.5512 0.0000 0.0000 0.0000
# 3 53.0440 33.5512 153.6226 0.0000 0.0000 0.0000
# 4 0.0000 0.0000 0.0000 27.6677 0.0000 0.0000
# 5 0.0000 0.0000 0.0000 0.0000 17.8101 0.0000
# 6 0.0000 0.0000 0.0000 0.0000 0.0000 26.9904
#
#
#
# Elastic Compliance Matrix: (Units=1/GPa)
#
#
# Indices 1 2 3 4 5 6 
#
# 1 0.009407 -0.003092 -0.002573 0.000000 0.000000 0.000000
# 2 -0.003092 0.040512 -0.007780 0.000000 0.000000 0.000000
# 3 -0.002573 -0.007780 0.009097 0.000000 0.000000 0.000000
# 4 0.000000 0.000000 0.000000 0.036143 0.000000 0.000000
# 5 0.000000 0.000000 0.000000 0.000000 0.056148 0.000000
# 6 0.000000 0.000000 0.000000 0.000000 0.000000 0.037050
#
#
# Mechanical properties :
#
#
# Convention : Reuss Voigt Hill
#
# Bulk Modulus (GPa) = 31.12805 58.51481 44.82143
# Shear Modulus (GPa) = 22.12827 28.30186 25.21506
#
# Velocity S-wave (km/s) = 3.35900 3.79877 3.58563
# Velocity P-wave (km/s) = 5.56017 7.00547 6.32424
#
# Compressibility (1/GPa) = 0.03212536
#
# Stress axis : x y z
#
# Youngs Moduli (GPa) = 106.30516 24.68425 109.92699
#
# Poissons Ratio (x) = 0.07633 0.28281
# Poissons Ratio (y) = 0.32873 0.85523
# Poissons Ratio (z) = 0.27349 0.19204
#
# Static dielectric constant tensor:
#      x y z
#    x 3.701130 0.000000 0.000000 
#    y 0.000000 3.367430 0.000000 
#    z 0.000000 0.000000 3.690430 
# 
# 
# High freq. dielectric constant tensor:
#      x y z
#    x 1.776230 0.000000 0.000000 
#    y 0.000000 1.748140 0.000000 
#    z 0.000000 0.000000 1.763570 
# 
# From -- ./inp_files/32251.got.cif
#   From: 2010.03.12/outbox.cif.g09.slc.cpg/sg59_17_cif.got.tgz:32251.got - 2010.04.16 16:29:54.
