data_PCOD8245818
_publ_section_title
;
Structure prediction by ZEFSAII (Michael W. Deem and Ramdas Pophale) SiO2 
 PCOD8245818
Probable space group: P M M N
;
_chemical_formula_sum "Si O2"
_cell_formula_units_Z 56
_cell_length_a 14.771095
_cell_length_b 8.670391
_cell_length_c 21.558654
_cell_angle_alpha 90.000000
_cell_angle_beta 90.000000
_cell_angle_gamma 90.000000
_cell_volume 2761.042023
_symmetry_space_group_name_H-M "P M M N"
_symmetry_group_IT_number 59
_space_group.IT_coordinate_system_code '2'
_symmetry_cell_setting 'orthorhombic'
loop_
_space_group_symop_operation_xyz
x,y,z
1/2-x,1/2-y,z
1/2+x,-y,-z
-x,1/2+y,-z
-x,-y,-z
1/2+x,1/2+y,-z
1/2-x,y,z
x,1/2-y,z
loop_
_atom_site_type_symbol
_atom_site_label
_atom_site_fract_x
_atom_site_fract_y
_atom_site_fract_z
Si Si1 0.936014 0.569467 0.663900
Si Si2 0.147634 0.925462 0.860584
Si Si3 0.052508 0.069823 0.557975
Si Si4 0.511197 0.427842 0.791399
Si Si5 0.750000 0.927973 0.485363
Si Si6 0.350227 0.075678 0.121974
Si Si7 0.404108 0.427589 0.986411
Si Si8 0.250000 0.930609 0.382094
O O1 0.930056 0.750000 0.652384
O O2 0.961342 0.534485 0.734284
O O3 0.838694 0.498993 0.649482
O O4 0.015132 0.502531 0.620865
O O5 0.250000 0.936660 0.836391
O O6 0.111866 0.750000 0.858563
O O7 0.144365 0.983246 0.931032
O O8 0.088656 0.029725 0.814615
O O9 0.032405 0.250000 0.558682
O O10 0.160130 0.035400 0.554549
O O11 0.000000 0.000000 0.500000
O O12 0.513945 0.250000 0.771310
O O13 0.580656 0.456079 0.847665
O O14 0.750000 0.750000 0.507354
O O15 0.750000 0.035513 0.545146
O O16 0.250000 0.045509 0.149003
O O17 0.382213 0.250000 0.137392
O O18 0.344733 0.052870 0.048123
O O19 0.414895 0.250000 0.966794
O O20 0.500000 0.500000 0.000000
O O21 0.250000 0.750000 0.370882
#
# Coordination Sequence:
#
# PCOD8245818 Si02
#       8
#     8   8   8   8   4   8   8   4
#     4  12  26  45  67  93 132 176 216 263 322 383
#     4  11  24  43  67  93 124 165 215 267 324 388
#     4  11  22  40  66  98 133 171 215 265 317 373
#     4  12  26  44  66  92 125 166 214 266 318 380
#     4  10  22  40  66  98 136 174 211 260 325 378
#     4  10  22  40  62  89 125 165 205 254 316 380
#     4  11  21  36  62  93 126 164 208 259 321 380
#     4  12  24  40  68 102 134 168 217 264 311 380
#
# _framework density 20.282198000000001
#
# number of rings (size 3 to 8) (size 9 to 14) (size 15 to 20)
#    0.000    0.857    2.857    4.929    1.000    3.143 
#    1.286    0.000    0.000    0.000    0.000    0.000 
#    0.000    0.000    0.000    0.000    0.000    0.000 
#
# Total GULP energy -694701.695294 kJ/mol
# GULP energy per Si atom -12405.387416 kJ/mol
# Density = 2.023603 g / cm^3
# Si number density = 20.282198 Si / 1000 Ang^3
#
#
#
# Elastic Constant Matrix: (Units=GPa)
#
#
# Indices 1 2 3 4 5 6 
#
# 1 142.5271 53.0245 45.9192 0.0000 0.0000 0.0000
# 2 53.0245 123.1258 34.2326 0.0000 0.0000 0.0000
# 3 45.9192 34.2326 91.9071 0.0000 0.0000 0.0000
# 4 0.0000 0.0000 0.0000 37.5289 0.0000 0.0000
# 5 0.0000 0.0000 0.0000 0.0000 15.3303 0.0000
# 6 0.0000 0.0000 0.0000 0.0000 0.0000 22.3703
#
#
#
# Elastic Compliance Matrix: (Units=1/GPa)
#
#
# Indices 1 2 3 4 5 6 
#
# 1 0.009268 -0.003016 -0.003507 0.000000 0.000000 0.000000
# 2 -0.003016 0.010042 -0.002233 0.000000 0.000000 0.000000
# 3 -0.003507 -0.002233 0.013465 0.000000 0.000000 0.000000
# 4 0.000000 0.000000 0.000000 0.026646 0.000000 0.000000
# 5 0.000000 0.000000 0.000000 0.000000 0.065230 0.000000
# 6 0.000000 0.000000 0.000000 0.000000 0.000000 0.044702
#
#
# Mechanical properties :
#
#
# Convention : Reuss Voigt Hill
#
# Bulk Modulus (GPa) = 65.52568 69.32362 67.42465
# Shear Modulus (GPa) = 26.04797 30.00483 28.02640
#
# Velocity S-wave (km/s) = 3.58757 3.85043 3.72132
# Velocity P-wave (km/s) = 7.03832 7.34993 7.19581
#
# Compressibility (1/GPa) = 0.01526119
#
# Stress axis : x y z
#
# Youngs Moduli (GPa) = 107.89446 99.58525 74.26867
#
# Poissons Ratio (x) = 0.30038 0.26048
# Poissons Ratio (y) = 0.32544 0.16586
# Poissons Ratio (z) = 0.37841 0.22239
#
# Static dielectric constant tensor:
#      x y z
#    x 0.977770 0.000000 0.000000 
#    y 0.000000 3.740410 0.000000 
#    z 0.000000 0.000000 3.675100 
# 
# 
# High freq. dielectric constant tensor:
#      x y z
#    x 1.806890 0.000000 0.000000 
#    y 0.000000 1.803320 0.000000 
#    z 0.000000 0.000000 1.784710 
# 
# From -- ./inp_files/30422.got.cif
#   From: 2010.03.12/outbox.cif.g09.slc.cpg/sg59_16_cif.got.tgz:30422.got - 2010.04.16 16:29:54.
