data_PCOD8245806
_publ_section_title
;
Structure prediction by ZEFSAII (Michael W. Deem and Ramdas Pophale) SiO2 
 PCOD8245806
Probable space group: P M M N
;
_chemical_formula_sum "Si O2"
_cell_formula_units_Z 48
_cell_length_a 28.232024
_cell_length_b 8.681760
_cell_length_c 9.964785
_cell_angle_alpha 90.000000
_cell_angle_beta 90.000000
_cell_angle_gamma 90.000000
_cell_volume 2442.405242
_symmetry_space_group_name_H-M "P M M N"
_symmetry_group_IT_number 59
_space_group.IT_coordinate_system_code '2'
_symmetry_cell_setting 'orthorhombic'
loop_
_space_group_symop_operation_xyz
x,y,z
1/2-x,1/2-y,z
1/2+x,-y,-z
-x,1/2+y,-z
-x,-y,-z
1/2+x,1/2+y,-z
1/2-x,y,z
x,1/2-y,z
loop_
_atom_site_type_symbol
_atom_site_label
_atom_site_fract_x
_atom_site_fract_y
_atom_site_fract_z
Si Si1 0.874139 0.071217 0.981411
Si Si2 0.804081 0.430620 0.505701
Si Si3 0.481360 0.431497 0.636541
Si Si4 0.881402 0.070312 0.290038
Si Si5 0.468250 0.430479 0.115240
Si Si6 0.805680 0.574046 0.784102
O O1 0.887278 0.250000 0.963759
O O2 0.913941 0.965200 0.914975
O O3 0.826284 0.031068 0.902897
O O4 0.867754 0.029418 0.137519
O O5 0.750000 0.478407 0.471058
O O6 0.807657 0.250000 0.533769
O O7 0.837128 0.480735 0.381720
O O8 0.822957 0.516638 0.638272
O O9 0.500000 0.500000 0.500000
O O10 0.484230 0.250000 0.630817
O O11 0.427668 0.478478 0.666448
O O12 0.517577 0.492175 0.746597
O O13 0.892608 0.250000 0.306863
O O14 0.477472 0.250000 0.124194
O O15 0.500000 0.500000 0.000000
O O16 0.750000 0.554178 0.794355
O O17 0.821889 0.750000 0.802710
#
# Coordination Sequence:
#
# PCOD8245806 Si02
#       6
#     8   8   8   8   8   8
#     4  11  23  39  63  92 123 162 205 251 308 368
#     4   9  19  38  63  89 119 157 201 251 306 365
#     4  12  26  43  64  90 124 165 208 255 308 365
#     4  10  22  40  62  90 124 157 203 255 307 367
#     4  12  24  42  65  91 125 163 206 252 306 368
#     4  10  22  40  61  88 123 161 204 254 306 364
#
# _framework density 19.652757000000001
#
# number of rings (size 3 to 8) (size 9 to 14) (size 15 to 20)
#    0.000    1.333    1.667    4.000    2.333    3.000 
#    0.000    1.667    0.000    2.000    0.000    0.000 
#    0.000    0.000    0.000    0.000    0.000    0.000 
#
# Total GULP energy -595445.560790 kJ/mol
# GULP energy per Si atom -12405.115850 kJ/mol
# Density = 1.960803 g / cm^3
# Si number density = 19.652757 Si / 1000 Ang^3
#
#
#
# Elastic Constant Matrix: (Units=GPa)
#
#
# Indices 1 2 3 4 5 6 
#
# 1 80.4476 43.0378 70.0971 0.0000 0.0000 0.0000
# 2 43.0378 110.4515 68.2993 0.0000 0.0000 0.0000
# 3 70.0971 68.2993 182.7388 0.0000 0.0000 0.0000
# 4 0.0000 0.0000 0.0000 29.5538 0.0000 0.0000
# 5 0.0000 0.0000 0.0000 0.0000 44.3004 0.0000
# 6 0.0000 0.0000 0.0000 0.0000 0.0000 33.4763
#
#
#
# Elastic Compliance Matrix: (Units=1/GPa)
#
#
# Indices 1 2 3 4 5 6 
#
# 1 0.019912 -0.003948 -0.006163 0.000000 0.000000 0.000000
# 2 -0.003948 0.012558 -0.003179 0.000000 0.000000 0.000000
# 3 -0.006163 -0.003179 0.009024 0.000000 0.000000 0.000000
# 4 0.000000 0.000000 0.000000 0.033837 0.000000 0.000000
# 5 0.000000 0.000000 0.000000 0.000000 0.022573 0.000000
# 6 0.000000 0.000000 0.000000 0.000000 0.000000 0.029872
#
#
# Mechanical properties :
#
#
# Convention : Reuss Voigt Hill
#
# Bulk Modulus (GPa) = 67.04648 81.83404 74.44026
# Shear Modulus (GPa) = 31.38186 34.27969 32.83077
#
# Velocity S-wave (km/s) = 4.00035 4.18098 4.09166
# Velocity P-wave (km/s) = 7.45163 8.06460 7.76416
#
# Compressibility (1/GPa) = 0.01491503
#
# Stress axis : x y z
#
# Youngs Moduli (GPa) = 50.22017 79.63040 110.81070
#
# Poissons Ratio (x) = 0.31440 0.68288
# Poissons Ratio (y) = 0.19828 0.35228
# Poissons Ratio (z) = 0.30948 0.25315
#
# Static dielectric constant tensor:
#      x y z
#    x 3.523290 0.000000 0.000000 
#    y 0.000000 3.688100 0.000000 
#    z 0.000000 0.000000 3.795710 
# 
# 
# High freq. dielectric constant tensor:
#      x y z
#    x 1.770200 0.000000 0.000000 
#    y 0.000000 1.772920 0.000000 
#    z 0.000000 0.000000 1.779130 
# 
# From -- ./inp_files/6271.got.cif
#   From: 2010.03.12/outbox.cif.g09.slc.cpg/sg59_4_cif.got.tgz:6271.got - 2010.04.16 16:29:54.
