data_PCOD8245544
_publ_section_title
;
Structure prediction by ZEFSAII (Michael W. Deem and Ramdas Pophale) SiO2 
 PCOD8245544
Probable space group: P M M N
;
_chemical_formula_sum "Si O2"
_cell_formula_units_Z 40
_cell_length_a 8.997124
_cell_length_b 15.907848
_cell_length_c 14.300394
_cell_angle_alpha 90.000000
_cell_angle_beta 90.000000
_cell_angle_gamma 90.000000
_cell_volume 2046.742190
_symmetry_space_group_name_H-M "P M M N"
_symmetry_group_IT_number 59
_space_group.IT_coordinate_system_code '2'
_symmetry_cell_setting 'orthorhombic'
loop_
_space_group_symop_operation_xyz
x,y,z
1/2-x,1/2-y,z
1/2+x,-y,-z
-x,1/2+y,-z
-x,-y,-z
1/2+x,1/2+y,-z
1/2-x,y,z
x,1/2-y,z
loop_
_atom_site_type_symbol
_atom_site_label
_atom_site_fract_x
_atom_site_fract_y
_atom_site_fract_z
Si Si1 0.582709 0.845654 0.226706
Si Si2 0.925870 0.750000 0.706470
Si Si3 0.073457 0.250000 0.079196
Si Si4 0.577862 0.100620 0.401166
Si Si5 0.923955 0.585945 0.028577
Si Si6 0.578671 0.071867 0.612321
O O1 0.750000 0.864924 0.262004
O O2 0.569560 0.750000 0.193084
O O3 0.542032 0.902550 0.138077
O O4 0.466761 0.860764 0.309956
O O5 0.750000 0.750000 0.700048
O O6 0.980208 0.750000 0.813545
O O7 0.985300 0.832058 0.655555
O O8 0.250000 0.250000 0.070158
O O9 0.010939 0.165464 0.029620
O O10 0.750000 0.110349 0.375251
O O11 0.550028 0.113848 0.511558
O O12 0.523517 0.008930 0.371239
O O13 0.750000 0.578012 0.008708
O O14 0.000000 0.500000 0.000000
O O15 0.750000 0.045535 0.623071
#
# Coordination Sequence:
#
# PCOD8245544 Si02
#       6
#     8   4   4   8   8   8
#     4  10  21  38  61  88 118 155 195 240 297 357
#     4  11  23  37  60  89 118 156 199 239 290 349
#     4   9  20  41  62  83 118 156 195 241 292 353
#     4  10  22  41  60  84 119 156 196 243 292 348
#     4  10  21  40  63  87 118 156 197 244 298 355
#     4  10  22  39  61  86 117 154 195 243 295 349
#
# _framework density 19.543254000000001
#
# number of rings (size 3 to 8) (size 9 to 14) (size 15 to 20)
#    0.000    2.000    1.000    1.500    4.200    3.600 
#    0.000    1.500    0.000    0.000    0.000    0.000 
#    0.000    0.000    0.000    0.000    0.000    0.000 
#
# Total GULP energy -496123.052374 kJ/mol
# GULP energy per Si atom -12403.076309 kJ/mol
# Density = 1.949877 g / cm^3
# Si number density = 19.543254 Si / 1000 Ang^3
#
#
#
# Elastic Constant Matrix: (Units=GPa)
#
#
# Indices 1 2 3 4 5 6 
#
# 1 67.5801 34.4543 51.1619 0.0000 0.0000 0.0000
# 2 34.4543 110.8929 59.9685 0.0000 0.0000 0.0000
# 3 51.1619 59.9685 111.2784 0.0000 0.0000 0.0000
# 4 0.0000 0.0000 0.0000 33.8656 0.0000 0.0000
# 5 0.0000 0.0000 0.0000 0.0000 27.4133 0.0000
# 6 0.0000 0.0000 0.0000 0.0000 0.0000 38.2359
#
#
#
# Elastic Compliance Matrix: (Units=1/GPa)
#
#
# Indices 1 2 3 4 5 6 
#
# 1 0.023012 -0.002016 -0.009494 0.000000 0.000000 0.000000
# 2 -0.002016 0.012903 -0.006027 0.000000 0.000000 0.000000
# 3 -0.009494 -0.006027 0.016599 0.000000 0.000000 0.000000
# 4 0.000000 0.000000 0.000000 0.029528 0.000000 0.000000
# 5 0.000000 0.000000 0.000000 0.000000 0.036479 0.000000
# 6 0.000000 0.000000 0.000000 0.000000 0.000000 0.026153
#
#
# Mechanical properties :
#
#
# Convention : Reuss Voigt Hill
#
# Bulk Modulus (GPa) = 57.33351 64.54676 60.94014
# Shear Modulus (GPa) = 26.94507 29.51407 28.22957
#
# Velocity S-wave (km/s) = 3.71717 3.89034 3.80474
# Velocity P-wave (km/s) = 6.91546 7.29924 7.10994
#
# Compressibility (1/GPa) = 0.01744181
#
# Stress axis : x y z
#
# Youngs Moduli (GPa) = 43.45470 77.50023 60.24335
#
# Poissons Ratio (x) = 0.15623 0.57195
# Poissons Ratio (y) = 0.08760 0.36307
# Poissons Ratio (z) = 0.41256 0.46708
#
# Static dielectric constant tensor:
#      x y z
#    x 3.438070 0.000000 0.000000 
#    y 0.000000 3.572240 0.000000 
#    z 0.000000 0.000000 3.639980 
# 
# 
# High freq. dielectric constant tensor:
#      x y z
#    x 1.751370 0.000000 0.000000 
#    y 0.000000 1.766690 0.000000 
#    z 0.000000 0.000000 1.770000 
# 
# From -- ./inp_files/19911.got.cif
#   From: 2010.03.12/outbox.cif.g09.slc.cpg/sg59_10_cif.got.tgz:19911.got - 2010.04.16 16:29:54.
