data_PCOD8245061
_publ_section_title
;
Structure prediction by ZEFSAII (Michael W. Deem and Ramdas Pophale) SiO2 
 PCOD8245061
Probable space group: P M M N
;
_chemical_formula_sum "Si O2"
_cell_formula_units_Z 64
_cell_length_a 18.311009
_cell_length_b 8.874308
_cell_length_c 21.054302
_cell_angle_alpha 90.000000
_cell_angle_beta 90.000000
_cell_angle_gamma 90.000000
_cell_volume 3421.272148
_symmetry_space_group_name_H-M "P M M N"
_symmetry_group_IT_number 59
_space_group.IT_coordinate_system_code '2'
_symmetry_cell_setting 'orthorhombic'
loop_
_space_group_symop_operation_xyz
x,y,z
1/2-x,1/2-y,z
1/2+x,-y,-z
-x,1/2+y,-z
-x,-y,-z
1/2+x,1/2+y,-z
1/2-x,y,z
x,1/2-y,z
loop_
_atom_site_type_symbol
_atom_site_label
_atom_site_fract_x
_atom_site_fract_y
_atom_site_fract_z
Si Si1 0.034328 0.073623 0.938708
Si Si2 0.166366 0.424807 0.260005
Si Si3 0.334595 0.573537 0.617250
Si Si4 0.167462 0.925460 0.880481
Si Si5 0.040486 0.573383 0.192233
Si Si6 0.578919 0.572318 0.496451
Si Si7 0.835292 0.422570 0.607869
Si Si8 0.093099 0.575327 0.749821
O O1 0.036592 0.250000 0.948841
O O2 0.986136 0.027694 0.877846
O O3 0.116662 0.015734 0.929204
O O4 0.000000 0.000000 0.000000
O O5 0.250000 0.452205 0.239857
O O6 0.151072 0.250000 0.273400
O O7 0.116153 0.485665 0.203150
O O8 0.145786 0.518848 0.322331
O O9 0.250000 0.527296 0.613981
O O10 0.344583 0.750000 0.603327
O O11 0.379073 0.480739 0.565894
O O12 0.365256 0.529034 0.686060
O O13 0.250000 0.979052 0.892142
O O14 0.157834 0.750000 0.895047
O O15 0.147289 0.961686 0.807725
O O16 0.053788 0.750000 0.199132
O O17 0.980632 0.521718 0.244034
O O18 0.500000 0.500000 0.500000
O O19 0.570359 0.750000 0.494580
O O20 0.623370 0.526282 0.558390
O O21 0.750000 0.437426 0.593325
O O22 0.861425 0.250000 0.601784
O O23 0.070529 0.750000 0.749269
#
# Coordination Sequence:
#
# PCOD8245061 Si02
#       8
#     8   8   8   8   8   8   8   8
#     4  10  21  37  57  82 113 152 193 233 279 329
#     4  10  21  37  59  86 113 144 185 231 280 336
#     4  10  21  38  59  83 113 147 183 226 278 334
#     4   9  17  32  56  85 115 148 187 229 274 328
#     4  10  21  36  56  83 115 148 184 229 280 329
#     4  12  26  41  57  78 108 146 189 235 283 334
#     4  10  21  39  62  84 108 141 181 229 285 341
#     4   9  18  33  56  84 114 148 185 224 271 329
#
# _framework density 18.706492000000001
#
# number of rings (size 3 to 8) (size 9 to 14) (size 15 to 20)
#    0.000    2.000    0.000    3.375    1.750    7.000 
#    0.000    0.625    0.000    3.000    0.000    0.000 
#    0.000    0.000    0.000    0.000    0.000    0.000 
#
# Total GULP energy -793884.740908 kJ/mol
# GULP energy per Si atom -12404.449077 kJ/mol
# Density = 1.866392 g / cm^3
# Si number density = 18.706492 Si / 1000 Ang^3
#
#
#
# Elastic Constant Matrix: (Units=GPa)
#
#
# Indices 1 2 3 4 5 6 
#
# 1 133.8928 68.3243 82.4472 0.0000 0.0000 0.0000
# 2 68.3243 94.0979 53.8507 0.0000 0.0000 0.0000
# 3 82.4472 53.8507 99.7243 0.0000 0.0000 0.0000
# 4 0.0000 0.0000 0.0000 29.2588 0.0000 0.0000
# 5 0.0000 0.0000 0.0000 0.0000 30.4321 0.0000
# 6 0.0000 0.0000 0.0000 0.0000 0.0000 33.6254
#
#
#
# Elastic Compliance Matrix: (Units=1/GPa)
#
#
# Indices 1 2 3 4 5 6 
#
# 1 0.017539 -0.006421 -0.011033 0.000000 0.000000 0.000000
# 2 -0.006421 0.017731 -0.004266 0.000000 0.000000 0.000000
# 3 -0.011033 -0.004266 0.021453 0.000000 0.000000 0.000000
# 4 0.000000 0.000000 0.000000 0.034178 0.000000 0.000000
# 5 0.000000 0.000000 0.000000 0.000000 0.032860 0.000000
# 6 0.000000 0.000000 0.000000 0.000000 0.000000 0.029739
#
#
# Mechanical properties :
#
#
# Convention : Reuss Voigt Hill
#
# Bulk Modulus (GPa) = 75.28666 81.88436 78.58551
# Shear Modulus (GPa) = 24.83013 26.86944 25.84978
#
# Velocity S-wave (km/s) = 3.64724 3.79406 3.72137
# Velocity P-wave (km/s) = 7.62037 7.94112 7.78240
#
# Compressibility (1/GPa) = 0.01328257
#
# Stress axis : x y z
#
# Youngs Moduli (GPa) = 57.01528 56.39877 46.61358
#
# Poissons Ratio (x) = 0.36214 0.51430
# Poissons Ratio (y) = 0.36610 0.19885
# Poissons Ratio (z) = 0.62906 0.24060
#
# Static dielectric constant tensor:
#      x y z
#    x 3.601730 0.000000 0.000000 
#    y 0.000000 3.791290 0.000000 
#    z 0.000000 0.000000 3.374170 
# 
# 
# High freq. dielectric constant tensor:
#      x y z
#    x 1.734910 0.000000 0.000000 
#    y 0.000000 1.731980 0.000000 
#    z 0.000000 0.000000 1.720200 
# 
# From -- ./inp_files/30725.got.cif
#   From: 2010.03.12/outbox.cif.g09.slc.cpg/sg59_16_cif.got.tgz:30725.got - 2010.04.16 16:29:54.
