data_PCOD8245579
_publ_section_title
;
Structure prediction by ZEFSAII (Michael W. Deem and Ramdas Pophale) SiO2 
 PCOD8245579
Probable space group: P M M N
;
_chemical_formula_sum "Si O2"
_cell_formula_units_Z 56
_cell_length_a 8.881446
_cell_length_b 15.117042
_cell_length_c 21.241272
_cell_angle_alpha 90.000000
_cell_angle_beta 90.000000
_cell_angle_gamma 90.000000
_cell_volume 2851.878503
_symmetry_space_group_name_H-M "P M M N"
_symmetry_group_IT_number 59
_space_group.IT_coordinate_system_code '2'
_symmetry_cell_setting 'orthorhombic'
loop_
_space_group_symop_operation_xyz
x,y,z
1/2-x,1/2-y,z
1/2+x,-y,-z
-x,1/2+y,-z
-x,-y,-z
1/2+x,1/2+y,-z
1/2-x,y,z
x,1/2-y,z
loop_
_atom_site_type_symbol
_atom_site_label
_atom_site_fract_x
_atom_site_fract_y
_atom_site_fract_z
Si Si1 0.573052 0.496088 0.352900
Si Si2 0.575413 0.594274 0.004328
Si Si3 0.075330 0.497158 0.792924
Si Si4 0.421799 0.150390 0.134081
Si Si5 0.574313 0.851819 0.562031
Si Si6 0.426362 0.647835 0.429920
Si Si7 0.421156 0.849118 0.127674
O O1 0.750000 0.488540 0.366088
O O2 0.533477 0.493053 0.279699
O O3 0.488714 0.412631 0.382776
O O4 0.512281 0.588725 0.379242
O O5 0.750000 0.580747 0.017839
O O6 0.507200 0.648898 0.061690
O O7 0.500000 0.500000 0.000000
O O8 0.544983 0.647091 0.940236
O O9 0.250000 0.479334 0.803224
O O10 0.032341 0.586907 0.828333
O O11 0.988152 0.413842 0.820485
O O12 0.250000 0.121374 0.147406
O O13 0.451245 0.250000 0.157520
O O14 0.750000 0.870876 0.551430
O O15 0.545333 0.750000 0.580866
O O16 0.486996 0.876993 0.498647
O O17 0.250000 0.626690 0.427915
O O18 0.460361 0.750000 0.413877
O O19 0.250000 0.877890 0.115008
O O20 0.432018 0.750000 0.155031
#
# Coordination Sequence:
#
# PCOD8245579 Si02
#       7
#     8   8   8   8   8   8   8
#     4  11  24  40  59  85 119 158 199 242 293 350
#     4  11  21  36  62  92 121 153 192 240 297 353
#     4  11  25  42  60  84 116 158 201 245 295 348
#     4  10  22  40  62  87 117 154 194 240 295 352
#     4  10  21  38  62  91 121 155 195 240 290 344
#     4  10  21  38  62  91 121 154 193 240 293 346
#     4  11  24  41  62  88 118 155 198 245 298 354
#
# _framework density 19.636182000000002
#
# number of rings (size 3 to 8) (size 9 to 14) (size 15 to 20)
#    0.000    1.429    1.429    3.429    0.000    7.714 
#    0.000    5.714    0.000    0.000    0.000    0.000 
#    0.000    0.000    0.000    0.000    0.000    0.000 
#
# Total GULP energy -694700.223034 kJ/mol
# GULP energy per Si atom -12405.361126 kJ/mol
# Density = 1.959149 g / cm^3
# Si number density = 19.636182 Si / 1000 Ang^3
#
#
#
# Elastic Constant Matrix: (Units=GPa)
#
#
# Indices 1 2 3 4 5 6 
#
# 1 83.2383 39.5761 45.2576 0.0000 0.0000 0.0000
# 2 39.5761 103.6162 37.9458 0.0000 0.0000 0.0000
# 3 45.2576 37.9458 88.7588 0.0000 0.0000 0.0000
# 4 0.0000 0.0000 0.0000 -9.5325 0.0000 0.0000
# 5 0.0000 0.0000 0.0000 0.0000 33.2654 0.0000
# 6 0.0000 0.0000 0.0000 0.0000 0.0000 30.3315
#
#
#
# Elastic Compliance Matrix: (Units=1/GPa)
#
#
# Indices 1 2 3 4 5 6 
#
# 1 0.018025 -0.004172 -0.007407 0.000000 0.000000 0.000000
# 2 -0.004172 0.012408 -0.003177 0.000000 0.000000 0.000000
# 3 -0.007407 -0.003177 0.016402 0.000000 0.000000 0.000000
# 4 0.000000 0.000000 0.000000 -0.104904 0.000000 0.000000
# 5 0.000000 0.000000 0.000000 0.000000 0.030061 0.000000
# 6 0.000000 0.000000 0.000000 0.000000 0.000000 0.032969
#
#
# Mechanical properties :
#
#
# Convention : Reuss Voigt Hill
#
# Bulk Modulus (GPa) = 57.73147 57.90803 57.81975
# Shear Modulus (GPa) = 124.23276 21.00181 72.61728
#
# Velocity S-wave (km/s) = 7.96270 3.27394 6.08783
# Velocity P-wave (km/s) = 10.67726 6.62164 8.88397
#
# Compressibility (1/GPa) = 0.01732158
#
# Stress axis : x y z
#
# Youngs Moduli (GPa) = 55.47984 80.59276 60.96927
#
# Poissons Ratio (x) = 0.33622 0.45160
# Poissons Ratio (y) = 0.23146 0.19372
# Poissons Ratio (z) = 0.41094 0.25608
#
# Static dielectric constant tensor:
#      x y z
#    x 3.845550 0.000000 0.000000 
#    y 0.000000 3.563170 0.000000 
#    z 0.000000 0.000000 3.608520 
# 
# 
# High freq. dielectric constant tensor:
#      x y z
#    x 1.779960 0.000000 0.000000 
#    y 0.000000 1.779340 0.000000 
#    z 0.000000 0.000000 1.760360 
# 
# From -- ./inp_files/29005.got.cif
#   From: 2010.03.12/outbox.cif.g09.slc.cpg/sg59_15_cif.got.tgz:29005.got - 2010.04.16 16:29:54.
