data_PCOD8245094
_publ_section_title
;
Structure prediction by ZEFSAII (Michael W. Deem and Ramdas Pophale) SiO2 
 PCOD8245094
Probable space group: P M M N
;
_chemical_formula_sum "Si O2"
_cell_formula_units_Z 64
_cell_length_a 22.241774
_cell_length_b 17.532785
_cell_length_c 8.230881
_cell_angle_alpha 90.000000
_cell_angle_beta 90.000000
_cell_angle_gamma 90.000000
_cell_volume 3209.716343
_symmetry_space_group_name_H-M "P M M N"
_symmetry_group_IT_number 59
_space_group.IT_coordinate_system_code '2'
_symmetry_cell_setting 'orthorhombic'
loop_
_space_group_symop_operation_xyz
x,y,z
1/2-x,1/2-y,z
1/2+x,-y,-z
-x,1/2+y,-z
-x,-y,-z
1/2+x,1/2+y,-z
1/2-x,y,z
x,1/2-y,z
loop_
_atom_site_type_symbol
_atom_site_label
_atom_site_fract_x
_atom_site_fract_y
_atom_site_fract_z
Si Si1 0.098110 0.549052 0.660594
Si Si2 0.930279 0.336326 0.588429
Si Si3 0.886367 0.162702 0.085083
Si Si4 0.406679 0.160885 0.398479
Si Si5 0.960299 0.601865 0.261861
Si Si6 0.181452 0.030688 0.404504
Si Si7 0.181343 0.879423 0.234422
Si Si8 0.973806 0.662292 0.926445
O O1 0.057006 0.610722 0.566273
O O2 0.136117 0.598808 0.788829
O O3 0.050360 0.488771 0.732407
O O4 0.147056 0.504694 0.556899
O O5 0.951236 0.250000 0.550395
O O6 0.859502 0.338337 0.629456
O O7 0.969259 0.373621 0.733985
O O8 0.879355 0.250000 0.148320
O O9 0.843385 0.150896 0.933836
O O10 0.955986 0.143667 0.053404
O O11 0.390747 0.250000 0.388960
O O12 0.431244 0.143358 0.580168
O O13 0.346508 0.112575 0.362262
O O14 0.451444 0.135285 0.252061
O O15 0.937817 0.625837 0.081252
O O16 0.250000 0.043796 0.455238
O O17 0.176136 0.971439 0.253367
O O18 0.250000 0.852576 0.257729
O O19 0.959926 0.750000 0.944048
#
# Coordination Sequence:
#
# PCOD8245094 Si02
#       8
#     8   8   8   8   8   8   8   8
#     4  10  23  36  56  86 113 150 198 247 294 358
#     4  11  20  36  58  80 114 154 195 244 297 350
#     4  11  22  37  56  85 119 154 196 246 300 351
#     4  10  21  37  63  94 123 155 195 242 295 359
#     4  11  21  37  59  86 124 160 193 238 301 361
#     4   9  21  42  61  82 116 155 198 244 297 352
#     4  10  22  38  57  80 111 154 202 243 287 348
#     4  10  21  36  57  89 126 157 193 242 300 357
#
# _framework density 19.939457000000001
#
# number of rings (size 3 to 8) (size 9 to 14) (size 15 to 20)
#    0.000    1.750    1.250    3.000    1.750    5.250 
#    0.000    0.000    0.000    2.250    0.000    1.750 
#    0.000    0.000    0.000    0.000    0.000    0.000 
#
# Total GULP energy -793018.531357 kJ/mol
# GULP energy per Si atom -12390.914552 kJ/mol
# Density = 1.989407 g / cm^3
# Si number density = 19.939457 Si / 1000 Ang^3
#
#
#
# Elastic Constant Matrix: (Units=GPa)
#
#
# Indices 1 2 3 4 5 6 
#
# 1 93.5725 51.8730 21.8858 0.0000 0.0000 0.0000
# 2 51.8730 133.0908 44.9502 0.0000 0.0000 0.0000
# 3 21.8858 44.9502 93.0044 0.0000 0.0000 0.0000
# 4 0.0000 0.0000 0.0000 29.2212 0.0000 0.0000
# 5 0.0000 0.0000 0.0000 0.0000 20.3656 0.0000
# 6 0.0000 0.0000 0.0000 0.0000 0.0000 24.6602
#
#
#
# Elastic Compliance Matrix: (Units=1/GPa)
#
#
# Indices 1 2 3 4 5 6 
#
# 1 0.013678 -0.005072 -0.000767 0.000000 0.000000 0.000000
# 2 -0.005072 0.010860 -0.004055 0.000000 0.000000 0.000000
# 3 -0.000767 -0.004055 0.012893 0.000000 0.000000 0.000000
# 4 0.000000 0.000000 0.000000 0.034222 0.000000 0.000000
# 5 0.000000 0.000000 0.000000 0.000000 0.049102 0.000000
# 6 0.000000 0.000000 0.000000 0.000000 0.000000 0.040551
#
#
# Mechanical properties :
#
#
# Convention : Reuss Voigt Hill
#
# Bulk Modulus (GPa) = 56.68399 61.89843 59.29121
# Shear Modulus (GPa) = 26.74139 28.24665 27.49402
#
# Velocity S-wave (km/s) = 3.66612 3.76789 3.71735
# Velocity P-wave (km/s) = 6.81251 7.07389 6.94443
#
# Compressibility (1/GPa) = 0.01764167
#
# Stress axis : x y z
#
# Youngs Moduli (GPa) = 73.10970 92.07990 77.56295
#
# Poissons Ratio (x) = 0.46702 0.05952
# Poissons Ratio (y) = 0.37081 0.31454
# Poissons Ratio (z) = 0.05610 0.37341
#
# Static dielectric constant tensor:
#      x y z
#    x 3.487940 0.000000 0.000000 
#    y 0.000000 3.842770 0.000000 
#    z 0.000000 0.000000 3.874830 
# 
# 
# High freq. dielectric constant tensor:
#      x y z
#    x 1.750680 0.000000 0.000000 
#    y 0.000000 1.789650 0.000000 
#    z 0.000000 0.000000 1.780470 
# 
# From -- ./inp_files/11648.got.cif
#   From: 2010.03.12/outbox.cif.g09.slc.cpg/sg59_6_cif.got.tgz:11648.got - 2010.04.16 16:29:54.
