data_PCOD8245165
_publ_section_title
;
Structure prediction by ZEFSAII (Michael W. Deem and Ramdas Pophale) SiO2 
 PCOD8245165
Probable space group: P M M N
;
_chemical_formula_sum "Si O2"
_cell_formula_units_Z 64
_cell_length_a 9.182357
_cell_length_b 18.899067
_cell_length_c 20.165735
_cell_angle_alpha 90.000000
_cell_angle_beta 90.000000
_cell_angle_gamma 90.000000
_cell_volume 3499.520920
_symmetry_space_group_name_H-M "P M M N"
_symmetry_group_IT_number 59
_space_group.IT_coordinate_system_code '2'
_symmetry_cell_setting 'orthorhombic'
loop_
_space_group_symop_operation_xyz
x,y,z
1/2-x,1/2-y,z
1/2+x,-y,-z
-x,1/2+y,-z
-x,-y,-z
1/2+x,1/2+y,-z
1/2-x,y,z
x,1/2-y,z
loop_
_atom_site_type_symbol
_atom_site_label
_atom_site_fract_x
_atom_site_fract_y
_atom_site_fract_z
Si Si1 0.416100 0.043000 0.784818
Si Si2 0.421232 0.168859 0.529725
Si Si3 0.416562 0.559607 0.090605
Si Si4 0.416152 0.577163 0.949272
Si Si5 0.412373 0.877171 0.812525
Si Si6 0.913726 0.830056 0.696842
Si Si7 0.079200 0.439166 0.638813
Si Si8 0.077786 0.587793 0.587821
O O1 0.250000 0.067884 0.786814
O O2 0.495658 0.085595 0.844466
O O3 0.488178 0.062388 0.713123
O O4 0.433872 0.959867 0.796473
O O5 0.250000 0.164961 0.515000
O O6 0.475643 0.250000 0.531014
O O7 0.459415 0.133282 0.600530
O O8 0.500953 0.124402 0.473793
O O9 0.250000 0.556661 0.112821
O O10 0.466197 0.482789 0.065959
O O11 0.439090 0.608572 0.024147
O O12 0.250000 0.546360 0.943651
O O13 0.435663 0.636236 0.891561
O O14 0.250000 0.853056 0.791373
O O15 0.531974 0.832349 0.772826
O O16 0.750000 0.861231 0.691326
O O17 0.913246 0.750000 0.670827
O O18 0.028827 0.874139 0.654836
O O19 0.250000 0.449773 0.648206
O O20 0.025627 0.506191 0.594776
O O21 0.250000 0.595419 0.579058
#
# Coordination Sequence:
#
# PCOD8245165 Si02
#       8
#     8   8   8   8   8   8   8   8
#     4   9  16  29  46  66  96 128 159 197 240 285
#     4  10  21  37  56  78 103 129 159 201 250 295
#     4   9  15  23  38  64  94 123 157 195 238 286
#     4   8  15  26  39  58  90 127 158 194 239 286
#     4   9  16  29  47  65  89 126 166 205 245 287
#     4  11  23  35  47  68  99 131 164 207 256 302
#     4   9  18  34  54  75 101 133 166 200 243 295
#     4  11  21  36  56  75  97 130 167 202 242 292
#
# _framework density 18.288218000000001
#
# number of rings (size 3 to 8) (size 9 to 14) (size 15 to 20)
#    0.000    2.500    1.250    2.625    0.000    5.250 
#    0.000    1.250    0.000    0.000    0.000    0.875 
#    0.000    3.000    0.000    0.000    0.000    0.000 
#
# Total GULP energy -793023.468777 kJ/mol
# GULP energy per Si atom -12390.991700 kJ/mol
# Density = 1.824659 g / cm^3
# Si number density = 18.288218 Si / 1000 Ang^3
#
#
#
# Elastic Constant Matrix: (Units=GPa)
#
#
# Indices 1 2 3 4 5 6 
#
# 1 55.2602 18.9286 39.5814 0.0000 0.0000 0.0000
# 2 18.9286 47.9596 43.3366 0.0000 0.0000 0.0000
# 3 39.5814 43.3366 153.2754 0.0000 0.0000 0.0000
# 4 0.0000 0.0000 0.0000 9.2240 0.0000 0.0000
# 5 0.0000 0.0000 0.0000 0.0000 31.3320 0.0000
# 6 0.0000 0.0000 0.0000 0.0000 0.0000 15.2469
#
#
#
# Elastic Compliance Matrix: (Units=1/GPa)
#
#
# Indices 1 2 3 4 5 6 
#
# 1 0.023062 -0.004997 -0.004542 0.000000 0.000000 0.000000
# 2 -0.004997 0.029089 -0.006934 0.000000 0.000000 0.000000
# 3 -0.004542 -0.006934 0.009658 0.000000 0.000000 0.000000
# 4 0.000000 0.000000 0.000000 0.108413 0.000000 0.000000
# 5 0.000000 0.000000 0.000000 0.000000 0.031916 0.000000
# 6 0.000000 0.000000 0.000000 0.000000 0.000000 0.065587
#
#
# Mechanical properties :
#
#
# Convention : Reuss Voigt Hill
#
# Bulk Modulus (GPa) = 34.64927 51.13203 42.89065
# Shear Modulus (GPa) = 16.11384 21.47049 18.79216
#
# Velocity S-wave (km/s) = 2.97156 3.43009 3.20903
# Velocity P-wave (km/s) = 5.54625 6.61113 6.10197
#
# Compressibility (1/GPa) = 0.02886064
#
# Stress axis : x y z
#
# Youngs Moduli (GPa) = 43.36220 34.37750 103.54417
#
# Poissons Ratio (x) = 0.17180 0.47034
# Poissons Ratio (y) = 0.21669 0.71797
# Poissons Ratio (z) = 0.19697 0.23837
#
# Static dielectric constant tensor:
#      x y z
#    x 3.300850 0.000000 0.000000 
#    y 0.000000 2.979830 0.000000 
#    z 0.000000 0.000000 3.959730 
# 
# 
# High freq. dielectric constant tensor:
#      x y z
#    x 1.699350 0.000000 0.000000 
#    y 0.000000 1.649190 0.000000 
#    z 0.000000 0.000000 1.732380 
# 
# From -- ./inp_files/29478.got.cif
#   From: 2010.03.12/outbox.cif.g09.slc.cpg/sg59_15_cif.got.tgz:29478.got - 2010.04.16 16:29:54.
