data_PCOD8245739
_publ_section_title
;
Structure prediction by ZEFSAII (Michael W. Deem and Ramdas Pophale) SiO2 
 PCOD8245739
Probable space group: P M M N
;
_chemical_formula_sum "Si O2"
_cell_formula_units_Z 56
_cell_length_a 8.536052
_cell_length_b 21.586464
_cell_length_c 14.876611
_cell_angle_alpha 90.000000
_cell_angle_beta 90.000000
_cell_angle_gamma 90.000000
_cell_volume 2741.211639
_symmetry_space_group_name_H-M "P M M N"
_symmetry_group_IT_number 59
_space_group.IT_coordinate_system_code '2'
_symmetry_cell_setting 'orthorhombic'
loop_
_space_group_symop_operation_xyz
x,y,z
1/2-x,1/2-y,z
1/2+x,-y,-z
-x,1/2+y,-z
-x,-y,-z
1/2+x,1/2+y,-z
1/2-x,y,z
x,1/2-y,z
loop_
_atom_site_type_symbol
_atom_site_label
_atom_site_fract_x
_atom_site_fract_y
_atom_site_fract_z
Si Si1 0.431970 0.750000 0.231156
Si Si2 0.429748 0.575236 0.648287
Si Si3 0.929222 0.885020 0.469259
Si Si4 0.071808 0.250000 0.582956
Si Si5 0.068177 0.177665 0.232444
Si Si6 0.564337 0.681305 0.967294
Si Si7 0.931109 0.050676 0.700881
Si Si8 0.934033 0.872855 0.148766
O O1 0.250000 0.750000 0.202861
O O2 0.444392 0.750000 0.338520
O O3 0.522792 0.690820 0.195976
O O4 0.250000 0.557043 0.660850
O O5 0.464083 0.580773 0.542374
O O6 0.466375 0.639821 0.696688
O O7 0.534906 0.521863 0.692065
O O8 0.750000 0.902367 0.489488
O O9 0.955100 0.811105 0.477213
O O10 0.971165 0.908990 0.370179
O O11 0.250000 0.250000 0.621631
O O12 0.250000 0.161621 0.247084
O O13 0.037286 0.250000 0.248826
O O14 0.011884 0.158832 0.131683
O O15 0.750000 0.687632 0.968030
O O16 0.494049 0.750000 0.987760
O O17 0.510699 0.632561 0.044106
O O18 0.750000 0.064238 0.684402
O O19 0.977066 0.071055 0.802036
O O20 0.750000 0.884842 0.156122
#
# Coordination Sequence:
#
# PCOD8245739 Si02
#       8
#     4   8   8   4   8   8   8   8
#     4  12  22  32  52  85 126 163 198 243 294 346
#     4  12  26  43  62  86 118 158 203 247 298 352
#     4  11  23  41  64  90 120 158 201 243 295 352
#     4  10  22  38  60  87 120 157 196 241 294 354
#     4   9  19  39  66  92 119 152 197 249 301 353
#     4   8  15  31  59  91 119 154 196 240 295 357
#     4  12  25  42  61  87 121 159 202 246 296 355
#     4  11  20  35  60  89 123 160 200 242 297 357
#
# _framework density 20.428923000000001
#
# number of rings (size 3 to 8) (size 9 to 14) (size 15 to 20)
#    0.000    1.429    2.143    5.357    1.000    0.857 
#    0.000    2.143    0.000    0.000    0.000    0.000 
#    0.000    0.000    0.000    0.000    0.000    0.000 
#
# Total GULP energy -694495.615304 kJ/mol
# GULP energy per Si atom -12401.707416 kJ/mol
# Density = 2.038243 g / cm^3
# Si number density = 20.428923 Si / 1000 Ang^3
#
#
#
# Elastic Constant Matrix: (Units=GPa)
#
#
# Indices 1 2 3 4 5 6 
#
# 1 63.7306 19.4388 18.7821 0.0000 0.0000 0.0000
# 2 19.4388 76.4964 21.6264 0.0000 0.0000 0.0000
# 3 18.7821 21.6264 89.2117 0.0000 0.0000 0.0000
# 4 0.0000 0.0000 0.0000 26.0238 0.0000 0.0000
# 5 0.0000 0.0000 0.0000 0.0000 23.4798 0.0000
# 6 0.0000 0.0000 0.0000 0.0000 0.0000 22.8419
#
#
#
# Elastic Compliance Matrix: (Units=1/GPa)
#
#
# Indices 1 2 3 4 5 6 
#
# 1 0.017647 -0.003687 -0.002822 0.000000 0.000000 0.000000
# 2 -0.003687 0.014805 -0.002813 0.000000 0.000000 0.000000
# 3 -0.002822 -0.002813 0.012485 0.000000 0.000000 0.000000
# 4 0.000000 0.000000 0.000000 0.038426 0.000000 0.000000
# 5 0.000000 0.000000 0.000000 0.000000 0.042590 0.000000
# 6 0.000000 0.000000 0.000000 0.000000 0.000000 0.043779
#
#
# Mechanical properties :
#
#
# Convention : Reuss Voigt Hill
#
# Bulk Modulus (GPa) = 38.03025 38.79259 38.41142
# Shear Modulus (GPa) = 25.36281 25.77519 25.56900
#
# Velocity S-wave (km/s) = 3.52734 3.55590 3.54165
# Velocity P-wave (km/s) = 5.93681 5.99078 5.96386
#
# Compressibility (1/GPa) = 0.02629486
#
# Stress axis : x y z
#
# Youngs Moduli (GPa) = 56.66658 67.54694 80.09491
#
# Poissons Ratio (x) = 0.24902 0.22600
# Poissons Ratio (y) = 0.20891 0.22528
# Poissons Ratio (z) = 0.15989 0.18999
#
# Static dielectric constant tensor:
#      x y z
#    x 3.493470 0.000000 0.000000 
#    y 0.000000 3.569670 0.000000 
#    z 0.000000 0.000000 3.865300 
# 
# 
# High freq. dielectric constant tensor:
#      x y z
#    x 1.785750 0.000000 0.000000 
#    y 0.000000 1.788820 0.000000 
#    z 0.000000 0.000000 1.800940 
# 
# From -- ./inp_files/21206.got.cif
#   From: 2010.03.12/outbox.cif.g09.slc.cpg/sg59_11_cif.got.tgz:21206.got - 2010.04.16 16:29:54.
