data_PCOD8245468
_publ_section_title
;
Structure prediction by ZEFSAII (Michael W. Deem and Ramdas Pophale) SiO2 
 PCOD8245468
Probable space group: P M M N
;
_chemical_formula_sum "Si O2"
_cell_formula_units_Z 64
_cell_length_a 15.434420
_cell_length_b 8.812739
_cell_length_c 23.797385
_cell_angle_alpha 90.000000
_cell_angle_beta 90.000000
_cell_angle_gamma 90.000000
_cell_volume 3236.908768
_symmetry_space_group_name_H-M "P M M N"
_symmetry_group_IT_number 59
_space_group.IT_coordinate_system_code '2'
_symmetry_cell_setting 'orthorhombic'
loop_
_space_group_symop_operation_xyz
x,y,z
1/2-x,1/2-y,z
1/2+x,-y,-z
-x,1/2+y,-z
-x,-y,-z
1/2+x,1/2+y,-z
1/2-x,y,z
x,1/2-y,z
loop_
_atom_site_type_symbol
_atom_site_label
_atom_site_fract_x
_atom_site_fract_y
_atom_site_fract_z
Si Si1 0.155029 0.570020 0.377655
Si Si2 0.999383 0.929033 0.813425
Si Si3 0.406051 0.071243 0.004653
Si Si4 0.151507 0.574647 0.118005
Si Si5 0.653222 0.922835 0.392860
Si Si6 0.846491 0.424297 0.104960
Si Si7 0.906479 0.429020 0.502502
Si Si8 0.006693 0.070083 0.693483
O O1 0.250000 0.513003 0.357726
O O2 0.150976 0.750000 0.378307
O O3 0.138873 0.510338 0.440782
O O4 0.082163 0.510207 0.334861
O O5 0.985968 0.750000 0.815077
O O6 0.081627 0.979605 0.850817
O O7 0.912111 0.007509 0.835170
O O8 0.019706 0.983138 0.751165
O O9 0.415225 0.250000 0.009169
O O10 0.357718 0.012461 0.059619
O O11 0.500000 0.000000 0.000000
O O12 0.350555 0.026459 0.950500
O O13 0.250000 0.555505 0.139813
O O14 0.128121 0.750000 0.108342
O O15 0.750000 0.936846 0.367764
O O16 0.630311 0.750000 0.409082
O O17 0.585919 0.980479 0.346248
O O18 0.649184 0.022222 0.448940
O O19 0.750000 0.443535 0.131078
O O20 0.863800 0.250000 0.087913
O O21 0.915085 0.250000 0.503521
O O22 0.000000 0.500000 0.500000
O O23 0.005758 0.250000 0.704060
#
# Coordination Sequence:
#
# PCOD8245468 Si02
#       8
#     8   8   8   8   8   8   8   8
#     4   9  18  34  57  83 111 147 191 236 289 353
#     4  11  24  41  62  88 119 158 203 255 301 349
#     4  12  23  37  62  94 127 161 197 243 299 356
#     4  11  24  42  65  92 123 161 201 244 298 360
#     4  10  21  38  59  86 120 157 197 244 297 352
#     4  10  22  41  63  88 121 160 198 243 302 360
#     4  11  20  34  58  87 119 153 192 240 297 357
#     4  10  21  39  59  81 114 156 200 246 295 352
#
# _framework density 19.771948999999999
#
# number of rings (size 3 to 8) (size 9 to 14) (size 15 to 20)
#    0.000    1.500    2.500    3.000    0.000    5.500 
#    0.000    1.250    0.000    1.500    0.000    0.000 
#    0.000    0.000    0.000    0.000    0.000    0.000 
#
# Total GULP energy -793773.360466 kJ/mol
# GULP energy per Si atom -12402.708757 kJ/mol
# Density = 1.972695 g / cm^3
# Si number density = 19.771949 Si / 1000 Ang^3
#
#
#
# Elastic Constant Matrix: (Units=GPa)
#
#
# Indices 1 2 3 4 5 6 
#
# 1 133.3901 28.3751 38.8842 0.0000 0.0000 0.0000
# 2 28.3751 79.8140 30.0685 0.0000 0.0000 0.0000
# 3 38.8842 30.0685 108.9924 0.0000 0.0000 0.0000
# 4 0.0000 0.0000 0.0000 35.2186 0.0000 0.0000
# 5 0.0000 0.0000 0.0000 0.0000 16.2761 0.0000
# 6 0.0000 0.0000 0.0000 0.0000 0.0000 23.6809
#
#
#
# Elastic Compliance Matrix: (Units=1/GPa)
#
#
# Indices 1 2 3 4 5 6 
#
# 1 0.008683 -0.002143 -0.002507 0.000000 0.000000 0.000000
# 2 -0.002143 0.014511 -0.003239 0.000000 0.000000 0.000000
# 3 -0.002507 -0.003239 0.010963 0.000000 0.000000 0.000000
# 4 0.000000 0.000000 0.000000 0.028394 0.000000 0.000000
# 5 0.000000 0.000000 0.000000 0.000000 0.061440 0.000000
# 6 0.000000 0.000000 0.000000 0.000000 0.000000 0.042228
#
#
# Mechanical properties :
#
#
# Convention : Reuss Voigt Hill
#
# Bulk Modulus (GPa) = 54.40512 57.42801 55.91657
# Shear Modulus (GPa) = 26.57837 30.02635 28.30236
#
# Velocity S-wave (km/s) = 3.67037 3.90119 3.78754
# Velocity P-wave (km/s) = 6.74820 7.02856 6.88981
#
# Compressibility (1/GPa) = 0.01838062
#
# Stress axis : x y z
#
# Youngs Moduli (GPa) = 115.16303 68.91287 91.21767
#
# Poissons Ratio (x) = 0.14766 0.22866
# Poissons Ratio (y) = 0.24676 0.29544
# Poissons Ratio (z) = 0.28869 0.22320
#
# Static dielectric constant tensor:
#      x y z
#    x 3.822630 0.000000 0.000000 
#    y 0.000000 3.558940 0.000000 
#    z 0.000000 0.000000 3.409620 
# 
# 
# High freq. dielectric constant tensor:
#      x y z
#    x 1.789690 0.000000 0.000000 
#    y 0.000000 1.758940 0.000000 
#    z 0.000000 0.000000 1.765020 
# 
# From -- ./inp_files/32154.got.cif
#   From: 2010.03.12/outbox.cif.g09.slc.cpg/sg59_17_cif.got.tgz:32154.got - 2010.04.16 16:29:54.
