data_PCOD8245014
_publ_section_title
;
Structure prediction by ZEFSAII (Michael W. Deem and Ramdas Pophale) SiO2 
 PCOD8245014
Probable space group: P M M N
;
_chemical_formula_sum "Si O2"
_cell_formula_units_Z 64
_cell_length_a 9.067095
_cell_length_b 14.405247
_cell_length_c 25.169601
_cell_angle_alpha 90.000000
_cell_angle_beta 90.000000
_cell_angle_gamma 90.000000
_cell_volume 3287.495798
_symmetry_space_group_name_H-M "P M M N"
_symmetry_group_IT_number 59
_space_group.IT_coordinate_system_code '2'
_symmetry_cell_setting 'orthorhombic'
loop_
_space_group_symop_operation_xyz
x,y,z
1/2-x,1/2-y,z
1/2+x,-y,-z
-x,1/2+y,-z
-x,-y,-z
1/2+x,1/2+y,-z
1/2-x,y,z
x,1/2-y,z
loop_
_atom_site_type_symbol
_atom_site_label
_atom_site_fract_x
_atom_site_fract_y
_atom_site_fract_z
Si Si1 0.080901 0.090161 0.983726
Si Si2 0.420765 0.144808 0.373652
Si Si3 0.918411 0.090063 0.479591
Si Si4 0.422073 0.351019 0.094630
Si Si5 0.423794 0.039740 0.872319
Si Si6 0.576289 0.977437 0.330277
Si Si7 0.084609 0.851446 0.406810
Si Si8 0.574405 0.855389 0.231201
O O1 0.250000 0.064580 0.983093
O O2 0.036200 0.109553 0.922052
O O3 0.046303 0.163006 0.030667
O O4 0.000000 0.000000 0.000000
O O5 0.250000 0.117555 0.379906
O O6 0.438956 0.250000 0.352951
O O7 0.497890 0.136080 0.430593
O O8 0.497105 0.077687 0.330051
O O9 0.750000 0.068345 0.462313
O O10 0.923661 0.159054 0.529643
O O11 0.000000 0.000000 0.500000
O O12 0.250000 0.371337 0.104088
O O13 0.466191 0.250000 0.119490
O O14 0.509561 0.436047 0.121185
O O15 0.250000 0.025271 0.866128
O O16 0.487948 0.091520 0.820687
O O17 0.750000 0.992805 0.327787
O O18 0.532059 0.926155 0.385002
O O19 0.518814 0.914226 0.281746
O O20 0.250000 0.882616 0.389975
O O21 0.047356 0.750000 0.382875
O O22 0.750000 0.851491 0.229882
O O23 0.511714 0.750000 0.233629
#
# Coordination Sequence:
#
# PCOD8245014 Si02
#       8
#     8   8   8   8   8   8   8   8
#     4   8  14  25  43  68  98 134 174 212 254 305
#     4  11  24  41  60  82 111 147 185 225 270 322
#     4  11  21  35  57  85 117 151 183 217 263 316
#     4   9  17  29  46  72 108 145 178 214 259 313
#     4   9  17  31  52  76 103 137 177 222 268 316
#     4  11  22  37  59  82 106 138 177 225 275 323
#     4  10  21  36  55  80 112 146 177 213 259 313
#     4   9  19  36  57  82 108 133 169 221 276 325
#
# _framework density 19.467704999999999
#
# number of rings (size 3 to 8) (size 9 to 14) (size 15 to 20)
#    0.000    2.250    1.250    1.875    0.000    3.500 
#    0.000    4.375    0.000    5.625    0.000    3.500 
#    0.000    0.000    0.000    0.000    0.000    0.000 
#
# Total GULP energy -792849.204502 kJ/mol
# GULP energy per Si atom -12388.268820 kJ/mol
# Density = 1.942340 g / cm^3
# Si number density = 19.467705 Si / 1000 Ang^3
#
#
#
# Elastic Constant Matrix: (Units=GPa)
#
#
# Indices 1 2 3 4 5 6 
#
# 1 70.3235 44.8788 29.9833 0.0000 0.0000 0.0000
# 2 44.8788 134.6449 53.3777 0.0000 0.0000 0.0000
# 3 29.9833 53.3777 106.2519 0.0000 0.0000 0.0000
# 4 0.0000 0.0000 0.0000 25.9310 0.0000 0.0000
# 5 0.0000 0.0000 0.0000 0.0000 20.3974 0.0000
# 6 0.0000 0.0000 0.0000 0.0000 0.0000 25.8064
#
#
#
# Elastic Compliance Matrix: (Units=1/GPa)
#
#
# Indices 1 2 3 4 5 6 
#
# 1 0.018650 -0.005157 -0.002672 0.000000 0.000000 0.000000
# 2 -0.005157 0.010700 -0.003920 0.000000 0.000000 0.000000
# 3 -0.002672 -0.003920 0.012135 0.000000 0.000000 0.000000
# 4 0.000000 0.000000 0.000000 0.038564 0.000000 0.000000
# 5 0.000000 0.000000 0.000000 0.000000 0.049026 0.000000
# 6 0.000000 0.000000 0.000000 0.000000 0.000000 0.038750
#
#
# Mechanical properties :
#
#
# Convention : Reuss Voigt Hill
#
# Bulk Modulus (GPa) = 55.59669 63.07775 59.33722
# Shear Modulus (GPa) = 25.33963 26.62566 25.98265
#
# Velocity S-wave (km/s) = 3.61172 3.70223 3.65725
# Velocity P-wave (km/s) = 6.78329 7.12369 6.95557
#
# Compressibility (1/GPa) = 0.01798668
#
# Stress axis : x y z
#
# Youngs Moduli (GPa) = 53.61803 93.45905 82.40650
#
# Poissons Ratio (x) = 0.48197 0.22021
# Poissons Ratio (y) = 0.27651 0.32303
# Poissons Ratio (z) = 0.14328 0.36636
#
# Static dielectric constant tensor:
#      x y z
#    x 3.427650 0.000000 0.000000 
#    y 0.000000 3.162900 0.000000 
#    z 0.000000 0.000000 3.577660 
# 
# 
# High freq. dielectric constant tensor:
#      x y z
#    x 1.743390 0.000000 0.000000 
#    y 0.000000 1.760800 0.000000 
#    z 0.000000 0.000000 1.745810 
# 
# From -- ./inp_files/31635.got.cif
#   From: 2010.03.12/outbox.cif.g09.slc.cpg/sg59_16_cif.got.tgz:31635.got - 2010.04.16 16:29:54.
