data_PCOD8245715
_publ_section_title
;
Structure prediction by ZEFSAII (Michael W. Deem and Ramdas Pophale) SiO2 
 PCOD8245715
Probable space group: P M M N
;
_chemical_formula_sum "Si O2"
_cell_formula_units_Z 40
_cell_length_a 28.499681
_cell_length_b 8.945880
_cell_length_c 7.767632
_cell_angle_alpha 90.000000
_cell_angle_beta 90.000000
_cell_angle_gamma 90.000000
_cell_volume 1980.394490
_symmetry_space_group_name_H-M "P M M N"
_symmetry_group_IT_number 59
_space_group.IT_coordinate_system_code '2'
_symmetry_cell_setting 'orthorhombic'
loop_
_space_group_symop_operation_xyz
x,y,z
1/2-x,1/2-y,z
1/2+x,-y,-z
-x,1/2+y,-z
-x,-y,-z
1/2+x,1/2+y,-z
1/2-x,y,z
x,1/2-y,z
loop_
_atom_site_type_symbol
_atom_site_label
_atom_site_fract_x
_atom_site_fract_y
_atom_site_fract_z
Si Si1 0.048274 0.076133 0.952887
Si Si2 0.452683 0.421587 0.555537
Si Si3 0.860111 0.426897 0.927394
Si Si4 0.146124 0.072733 0.418409
Si Si5 0.195187 0.921863 0.732678
O O1 0.046487 0.250000 0.002765
O O2 0.059112 0.049949 0.753726
O O3 0.088285 0.996802 0.062928
O O4 0.000000 0.000000 0.000000
O O5 0.500000 0.500000 0.500000
O O6 0.461290 0.250000 0.515476
O O7 0.407547 0.480551 0.451463
O O8 0.863523 0.250000 0.910072
O O9 0.835838 0.494209 0.756258
O O10 0.829915 0.475693 0.092452
O O11 0.149665 0.250000 0.400713
O O12 0.179002 0.023096 0.574736
O O13 0.250000 0.944377 0.761979
O O14 0.182493 0.750000 0.692358
#
# Coordination Sequence:
#
# PCOD8245715 Si02
#       5
#     8   8   8   8   8
#     4  11  22  38  58  87 125 167 213 262 314 375
#     4  10  22  37  56  84 122 163 206 255 307 368
#     4  11  23  40  64  94 127 168 212 261 318 378
#     4  11  23  41  64  93 128 166 209 262 317 376
#     4  10  23  44  68  93 124 165 213 264 316 375
#
# _framework density 20.197997000000001
#
# number of rings (size 3 to 8) (size 9 to 14) (size 15 to 20)
#    0.000    1.400    2.000    3.000    0.000    8.400 
#    0.000    2.000    0.000    0.000    0.000    0.000 
#    0.000    0.000    0.000    0.000    0.000    0.000 
#
# Total GULP energy -496192.713258 kJ/mol
# GULP energy per Si atom -12404.817831 kJ/mol
# Density = 2.015203 g / cm^3
# Si number density = 20.197997 Si / 1000 Ang^3
#
#
#
# Elastic Constant Matrix: (Units=GPa)
#
#
# Indices 1 2 3 4 5 6 
#
# 1 91.7951 38.7499 46.6522 0.0000 0.0000 0.0000
# 2 38.7499 92.2952 60.9152 0.0000 0.0000 0.0000
# 3 46.6522 60.9152 136.2532 0.0000 0.0000 0.0000
# 4 0.0000 0.0000 0.0000 38.5759 0.0000 0.0000
# 5 0.0000 0.0000 0.0000 0.0000 27.9113 0.0000
# 6 0.0000 0.0000 0.0000 0.0000 0.0000 31.6085
#
#
#
# Elastic Compliance Matrix: (Units=1/GPa)
#
#
# Indices 1 2 3 4 5 6 
#
# 1 0.014104 -0.003879 -0.003095 0.000000 0.000000 0.000000
# 2 -0.003879 0.016437 -0.006020 0.000000 0.000000 0.000000
# 3 -0.003095 -0.006020 0.011091 0.000000 0.000000 0.000000
# 4 0.000000 0.000000 0.000000 0.025923 0.000000 0.000000
# 5 0.000000 0.000000 0.000000 0.000000 0.035828 0.000000
# 6 0.000000 0.000000 0.000000 0.000000 0.000000 0.031637
#
#
# Mechanical properties :
#
#
# Convention : Reuss Voigt Hill
#
# Bulk Modulus (GPa) = 63.92637 68.10866 66.01752
# Shear Modulus (GPa) = 30.08023 31.22089 30.65056
#
# Velocity S-wave (km/s) = 3.86329 3.93586 3.89974
# Velocity P-wave (km/s) = 7.18461 7.37891 7.28241
#
# Compressibility (1/GPa) = 0.01564300
#
# Stress axis : x y z
#
# Youngs Moduli (GPa) = 70.90082 60.83913 90.16688
#
# Poissons Ratio (x) = 0.23599 0.27907
# Poissons Ratio (y) = 0.27501 0.54284
# Poissons Ratio (z) = 0.21944 0.36627
#
# Static dielectric constant tensor:
#      x y z
#    x 3.591860 0.000000 0.000000 
#    y 0.000000 3.799840 0.000000 
#    z 0.000000 0.000000 3.866240 
# 
# 
# High freq. dielectric constant tensor:
#      x y z
#    x 1.786020 0.000000 0.000000 
#    y 0.000000 1.791410 0.000000 
#    z 0.000000 0.000000 1.806760 
# 
# From -- ./inp_files/12377.got.cif
#   From: 2010.03.12/outbox.cif.g09.slc.cpg/sg59_7_cif.got.tgz:12377.got - 2010.04.16 16:29:54.
