data_PCOD8245321
_publ_section_title
;
Structure prediction by ZEFSAII (Michael W. Deem and Ramdas Pophale) SiO2 
 PCOD8245321
Probable space group: P M M N
;
_chemical_formula_sum "Si O2"
_cell_formula_units_Z 64
_cell_length_a 9.152315
_cell_length_b 25.019812
_cell_length_c 14.189745
_cell_angle_alpha 90.000000
_cell_angle_beta 90.000000
_cell_angle_gamma 90.000000
_cell_volume 3249.298365
_symmetry_space_group_name_H-M "P M M N"
_symmetry_group_IT_number 59
_space_group.IT_coordinate_system_code '2'
_symmetry_cell_setting 'orthorhombic'
loop_
_space_group_symop_operation_xyz
x,y,z
1/2-x,1/2-y,z
1/2+x,-y,-z
-x,1/2+y,-z
-x,-y,-z
1/2+x,1/2+y,-z
1/2-x,y,z
x,1/2-y,z
loop_
_atom_site_type_symbol
_atom_site_label
_atom_site_fract_x
_atom_site_fract_y
_atom_site_fract_z
Si Si1 0.921706 0.600679 0.084765
Si Si2 0.080932 0.494932 0.775877
Si Si3 0.919763 0.811852 0.772383
Si Si4 0.582786 0.515931 0.593492
Si Si5 0.081829 0.812487 0.199631
Si Si6 0.415661 0.139414 0.421108
Si Si7 0.922104 0.309772 0.587355
Si Si8 0.421814 0.899123 0.889445
O O1 0.750000 0.605501 0.066258
O O2 0.961411 0.551792 0.152651
O O3 0.978086 0.655845 0.128931
O O4 0.002078 0.588721 0.987823
O O5 0.250000 0.492275 0.747512
O O6 0.041389 0.551778 0.821145
O O7 0.987120 0.485551 0.682061
O O8 0.750000 0.827841 0.784181
O O9 0.946787 0.750000 0.794287
O O10 0.970971 0.824204 0.665562
O O11 0.015670 0.844703 0.846039
O O12 0.500000 0.500000 0.500000
O O13 0.750000 0.497766 0.584172
O O14 0.567264 0.578737 0.611212
O O15 0.250000 0.828685 0.182222
O O16 0.059558 0.750000 0.179964
O O17 0.034813 0.826507 0.306623
O O18 0.250000 0.153785 0.447233
O O19 0.509726 0.148940 0.514251
O O20 0.750000 0.311279 0.575847
O O21 0.980367 0.250000 0.566098
O O22 0.250000 0.892488 0.905701
#
# Coordination Sequence:
#
# PCOD8245321 Si02
#       8
#     8   8   8   8   8   8   8   8
#     4  11  24  40  63  91 119 152 197 248 299 360
#     4  10  23  43  64  90 122 156 198 247 296 353
#     4  10  21  39  62  88 121 160 203 251 303 358
#     4  11  24  40  61  89 124 162 199 242 295 353
#     4   9  20  40  61  85 120 157 197 245 295 351
#     4  10  21  37  58  85 118 157 198 243 293 350
#     4   9  19  35  56  83 115 152 193 238 288 344
#     4  11  23  41  64  89 119 155 197 247 302 358
#
# _framework density 19.696559000000001
#
# number of rings (size 3 to 8) (size 9 to 14) (size 15 to 20)
#    0.000    1.875    1.250    2.625    1.750    5.250 
#    0.000    1.250    0.000    0.000    0.000    0.000 
#    0.000    0.000    0.000    0.000    0.000    0.000 
#
# Total GULP energy -793916.526321 kJ/mol
# GULP energy per Si atom -12404.945724 kJ/mol
# Density = 1.965173 g / cm^3
# Si number density = 19.696559 Si / 1000 Ang^3
#
#
#
# Elastic Constant Matrix: (Units=GPa)
#
#
# Indices 1 2 3 4 5 6 
#
# 1 96.4639 41.8929 74.2609 0.0000 0.0000 0.0000
# 2 41.8929 72.9099 36.3895 0.0000 0.0000 0.0000
# 3 74.2609 36.3895 130.3954 0.0000 0.0000 0.0000
# 4 0.0000 0.0000 0.0000 21.2132 0.0000 0.0000
# 5 0.0000 0.0000 0.0000 0.0000 40.6764 0.0000
# 6 0.0000 0.0000 0.0000 0.0000 0.0000 31.9268
#
#
#
# Elastic Compliance Matrix: (Units=1/GPa)
#
#
# Indices 1 2 3 4 5 6 
#
# 1 0.021263 -0.007172 -0.010108 0.000000 0.000000 0.000000
# 2 -0.007172 0.018355 -0.001037 0.000000 0.000000 0.000000
# 3 -0.010108 -0.001037 0.013715 0.000000 0.000000 0.000000
# 4 0.000000 0.000000 0.000000 0.047140 0.000000 0.000000
# 5 0.000000 0.000000 0.000000 0.000000 0.024584 0.000000
# 6 0.000000 0.000000 0.000000 0.000000 0.000000 0.031322
#
#
# Mechanical properties :
#
#
# Convention : Reuss Voigt Hill
#
# Bulk Modulus (GPa) = 59.89090 67.20619 63.54854
# Shear Modulus (GPa) = 25.17892 28.57835 26.87864
#
# Velocity S-wave (km/s) = 3.57927 3.81324 3.69811
# Velocity P-wave (km/s) = 6.89597 7.32001 7.11115
#
# Compressibility (1/GPa) = 0.01669703
#
# Stress axis : x y z
#
# Youngs Moduli (GPa) = 47.03098 54.48249 72.91386
#
# Poissons Ratio (x) = 0.39077 0.73698
# Poissons Ratio (y) = 0.33733 0.07564
# Poissons Ratio (z) = 0.47537 0.05652
#
# Static dielectric constant tensor:
#      x y z
#    x 4.957350 0.000000 0.000000 
#    y 0.000000 3.637360 0.000000 
#    z 0.000000 0.000000 3.585770 
# 
# 
# High freq. dielectric constant tensor:
#      x y z
#    x 1.765970 0.000000 0.000000 
#    y 0.000000 1.772140 0.000000 
#    z 0.000000 0.000000 1.775750 
# 
# From -- ./inp_files/21609.got.cif
#   From: 2010.03.12/outbox.cif.g09.slc.cpg/sg59_11_cif.got.tgz:21609.got - 2010.04.16 16:29:54.
