data_PCOD8245065
_publ_section_title
;
Structure prediction by ZEFSAII (Michael W. Deem and Ramdas Pophale) SiO2 
 PCOD8245065
Probable space group: P M M N
;
_chemical_formula_sum "Si O2"
_cell_formula_units_Z 40
_cell_length_a 9.007061
_cell_length_b 19.513477
_cell_length_c 12.150344
_cell_angle_alpha 90.000000
_cell_angle_beta 90.000000
_cell_angle_gamma 90.000000
_cell_volume 2135.533255
_symmetry_space_group_name_H-M "P M M N"
_symmetry_group_IT_number 59
_space_group.IT_coordinate_system_code '2'
_symmetry_cell_setting 'orthorhombic'
loop_
_space_group_symop_operation_xyz
x,y,z
1/2-x,1/2-y,z
1/2+x,-y,-z
-x,1/2+y,-z
-x,-y,-z
1/2+x,1/2+y,-z
1/2-x,y,z
x,1/2-y,z
loop_
_atom_site_type_symbol
_atom_site_label
_atom_site_fract_x
_atom_site_fract_y
_atom_site_fract_z
Si Si1 0.416610 0.323984 0.009813
Si Si2 0.076112 0.390367 0.480168
Si Si3 0.574867 0.959096 0.096794
Si Si4 0.424056 0.750000 0.815477
Si Si5 0.423768 0.999164 0.663594
Si Si6 0.073228 0.750000 0.562789
O O1 0.250000 0.342288 0.048130
O O2 0.421836 0.250000 0.948369
O O3 0.473564 0.380162 0.923315
O O4 0.514297 0.318363 0.122174
O O5 0.250000 0.377715 0.462209
O O6 0.043435 0.434336 0.589422
O O7 0.011703 0.432293 0.376562
O O8 0.994069 0.317665 0.493996
O O9 0.750000 0.969201 0.091913
O O10 0.515804 0.983296 0.214923
O O11 0.500000 0.000000 0.000000
O O12 0.250000 0.750000 0.824347
O O13 0.477028 0.750000 0.690098
O O14 0.250000 0.980981 0.662227
O O15 0.250000 0.750000 0.548886
#
# Coordination Sequence:
#
# PCOD8245065 Si02
#       6
#     8   8   8   4   8   4
#     4   8  17  34  52  74 106 141 178 221 270 323
#     4  10  21  38  60  85 111 148 193 234 280 338
#     4  10  21  36  56  84 114 149 187 227 276 333
#     4   9  19  33  52  75 104 142 179 226 278 323
#     4   9  20  39  59  82 116 151 185 232 287 336
#     4  11  23  37  56  83 114 146 187 238 290 333
#
# _framework density 18.730684
#
# number of rings (size 3 to 8) (size 9 to 14) (size 15 to 20)
#    0.600    2.000    0.000    0.900    2.800    4.000 
#    1.800    0.000    0.000    1.200    0.000    0.000 
#    0.000    0.000    0.000    0.000    0.000    0.000 
#
# Total GULP energy -495769.452487 kJ/mol
# GULP energy per Si atom -12394.236312 kJ/mol
# Density = 1.868805 g / cm^3
# Si number density = 18.730684 Si / 1000 Ang^3
#
#
#
# Elastic Constant Matrix: (Units=GPa)
#
#
# Indices 1 2 3 4 5 6 
#
# 1 57.8700 43.9155 31.1718 0.0000 0.0000 0.0000
# 2 43.9155 132.3780 46.1920 0.0000 0.0000 0.0000
# 3 31.1718 46.1920 108.4764 0.0000 0.0000 0.0000
# 4 0.0000 0.0000 0.0000 25.8524 0.0000 0.0000
# 5 0.0000 0.0000 0.0000 0.0000 27.0503 0.0000
# 6 0.0000 0.0000 0.0000 0.0000 0.0000 31.0463
#
#
#
# Elastic Compliance Matrix: (Units=1/GPa)
#
#
# Indices 1 2 3 4 5 6 
#
# 1 0.024641 -0.006699 -0.004228 0.000000 0.000000 0.000000
# 2 -0.006699 0.010694 -0.002629 0.000000 0.000000 0.000000
# 3 -0.004228 -0.002629 0.011553 0.000000 0.000000 0.000000
# 4 0.000000 0.000000 0.000000 0.038681 0.000000 0.000000
# 5 0.000000 0.000000 0.000000 0.000000 0.036968 0.000000
# 6 0.000000 0.000000 0.000000 0.000000 0.000000 0.032210
#
#
# Mechanical properties :
#
#
# Convention : Reuss Voigt Hill
#
# Bulk Modulus (GPa) = 50.56632 60.14257 55.35444
# Shear Modulus (GPa) = 26.53199 28.61946 27.57572
#
# Velocity S-wave (km/s) = 3.76772 3.91313 3.84112
# Velocity P-wave (km/s) = 6.78106 7.25229 7.02063
#
# Compressibility (1/GPa) = 0.01977601
#
# Stress axis : x y z
#
# Youngs Moduli (GPa) = 40.58197 93.51238 86.55799
#
# Poissons Ratio (x) = 0.62646 0.36599
# Poissons Ratio (y) = 0.27187 0.22752
# Poissons Ratio (z) = 0.17159 0.24580
#
# Static dielectric constant tensor:
#      x y z
#    x 3.384520 0.000000 0.000000 
#    y 0.000000 3.380350 0.000000 
#    z 0.000000 0.000000 3.700810 
# 
# 
# High freq. dielectric constant tensor:
#      x y z
#    x 1.724650 0.000000 0.000000 
#    y 0.000000 1.733610 0.000000 
#    z 0.000000 0.000000 1.712120 
# 
# From -- ./inp_files/14131.got.cif
#   From: 2010.03.12/outbox.cif.g09.slc.cpg/sg59_8_cif.got.tgz:14131.got - 2010.04.16 16:29:54.
