data_PCOD8245717
_publ_section_title
;
Structure prediction by ZEFSAII (Michael W. Deem and Ramdas Pophale) SiO2 
 PCOD8245717
Probable space group: P M M N
;
_chemical_formula_sum "Si O2"
_cell_formula_units_Z 48
_cell_length_a 8.808909
_cell_length_b 16.799431
_cell_length_c 16.712331
_cell_angle_alpha 90.000000
_cell_angle_beta 90.000000
_cell_angle_gamma 90.000000
_cell_volume 2473.168603
_symmetry_space_group_name_H-M "P M M N"
_symmetry_group_IT_number 59
_space_group.IT_coordinate_system_code '2'
_symmetry_cell_setting 'orthorhombic'
loop_
_space_group_symop_operation_xyz
x,y,z
1/2-x,1/2-y,z
1/2+x,-y,-z
-x,1/2+y,-z
-x,-y,-z
1/2+x,1/2+y,-z
1/2-x,y,z
x,1/2-y,z
loop_
_atom_site_type_symbol
_atom_site_label
_atom_site_fract_x
_atom_site_fract_y
_atom_site_fract_z
Si Si1 0.425552 0.929454 0.401830
Si Si2 0.426568 0.157960 0.742488
Si Si3 0.074485 0.390140 0.436891
Si Si4 0.070618 0.404017 0.077151
Si Si5 0.927852 0.250000 0.341213
Si Si6 0.430605 0.250000 0.168251
Si Si7 0.572890 0.934555 0.100673
O O1 0.250000 0.911568 0.420130
O O2 0.471844 0.892731 0.317539
O O3 0.526651 0.889070 0.470405
O O4 0.455678 0.023711 0.398329
O O5 0.250000 0.143422 0.723290
O O6 0.470395 0.250000 0.734737
O O7 0.466891 0.130190 0.832113
O O8 0.250000 0.365021 0.430874
O O9 0.971921 0.328303 0.389834
O O10 0.250000 0.404665 0.082807
O O11 0.004422 0.327332 0.122654
O O12 0.009460 0.482684 0.121043
O O13 0.015852 0.400826 0.984743
O O14 0.750000 0.250000 0.325241
O O15 0.014901 0.250000 0.258328
O O16 0.250000 0.250000 0.167450
O O17 0.750000 0.952959 0.097383
#
# Coordination Sequence:
#
# PCOD8245717 Si02
#       7
#     8   8   8   8   4   4   8
#     4  10  22  40  63  89 117 152 194 240 289 344
#     4  10  22  37  57  85 118 155 194 237 287 344
#     4  10  22  42  65  87 116 154 193 237 292 349
#     4   9  19  36  59  83 112 150 192 239 293 346
#     4  12  26  40  60  89 120 153 194 243 290 343
#     4  10  22  38  58  85 116 153 194 239 290 349
#     4   9  19  36  58  84 113 150 195 240 288 344
#
# _framework density 19.408300000000001
#
# number of rings (size 3 to 8) (size 9 to 14) (size 15 to 20)
#    0.000    2.167    0.000    1.750    4.667    3.667 
#    0.000    0.000    0.000    0.000    0.000    0.000 
#    0.000    0.000    0.000    0.000    0.000    0.000 
#
# Total GULP energy -595390.255018 kJ/mol
# GULP energy per Si atom -12403.963646 kJ/mol
# Density = 1.936413 g / cm^3
# Si number density = 19.408300 Si / 1000 Ang^3
#
#
#
# Elastic Constant Matrix: (Units=GPa)
#
#
# Indices 1 2 3 4 5 6 
#
# 1 25.2506 22.3889 8.7192 0.0000 0.0000 0.0000
# 2 22.3889 102.6024 46.6913 0.0000 0.0000 0.0000
# 3 8.7192 46.6913 84.3168 0.0000 0.0000 0.0000
# 4 0.0000 0.0000 0.0000 27.6896 0.0000 0.0000
# 5 0.0000 0.0000 0.0000 0.0000 27.8107 0.0000
# 6 0.0000 0.0000 0.0000 0.0000 0.0000 27.5185
#
#
#
# Elastic Compliance Matrix: (Units=1/GPa)
#
#
# Indices 1 2 3 4 5 6 
#
# 1 0.049186 -0.011254 0.001146 0.000000 0.000000 0.000000
# 2 -0.011254 0.015605 -0.007478 0.000000 0.000000 0.000000
# 3 0.001146 -0.007478 0.015882 0.000000 0.000000 0.000000
# 4 0.000000 0.000000 0.000000 0.036115 0.000000 0.000000
# 5 0.000000 0.000000 0.000000 0.000000 0.035957 0.000000
# 6 0.000000 0.000000 0.000000 0.000000 0.000000 0.036339
#
#
# Mechanical properties :
#
#
# Convention : Reuss Voigt Hill
#
# Bulk Modulus (GPa) = 21.97734 40.86316 31.42025
# Shear Modulus (GPa) = 20.88342 25.56179 23.22260
#
# Velocity S-wave (km/s) = 3.28381 3.63306 3.46284
# Velocity P-wave (km/s) = 5.07209 6.22085 5.67561
#
# Compressibility (1/GPa) = 0.04550140
#
# Stress axis : x y z
#
# Youngs Moduli (GPa) = 20.33085 64.08184 62.96303
#
# Poissons Ratio (x) = 0.72121 -0.07215
# Poissons Ratio (y) = 0.22881 0.47081
# Poissons Ratio (z) = -0.02330 0.47918
#
# Static dielectric constant tensor:
#      x y z
#    x 3.457370 0.000000 0.000000 
#    y 0.000000 3.672820 0.000000 
#    z 0.000000 0.000000 3.594180 
# 
# 
# High freq. dielectric constant tensor:
#      x y z
#    x 1.749460 0.000000 0.000000 
#    y 0.000000 1.762780 0.000000 
#    z 0.000000 0.000000 1.761700 
# 
# From -- ./inp_files/20620.got.cif
#   From: 2010.03.12/outbox.cif.g09.slc.cpg/sg59_11_cif.got.tgz:20620.got - 2010.04.16 16:29:54.
