data_PCOD8245075
_publ_section_title
;
Structure prediction by ZEFSAII (Michael W. Deem and Ramdas Pophale) SiO2 
 PCOD8245075
Probable space group: P M M N
;
_chemical_formula_sum "Si O2"
_cell_formula_units_Z 56
_cell_length_a 9.171191
_cell_length_b 21.426851
_cell_length_c 14.193135
_cell_angle_alpha 90.000000
_cell_angle_beta 90.000000
_cell_angle_gamma 90.000000
_cell_volume 2789.089312
_symmetry_space_group_name_H-M "P M M N"
_symmetry_group_IT_number 59
_space_group.IT_coordinate_system_code '2'
_symmetry_cell_setting 'orthorhombic'
loop_
_space_group_symop_operation_xyz
x,y,z
1/2-x,1/2-y,z
1/2+x,-y,-z
-x,1/2+y,-z
-x,-y,-z
1/2+x,1/2+y,-z
1/2-x,y,z
x,1/2-y,z
loop_
_atom_site_type_symbol
_atom_site_label
_atom_site_fract_x
_atom_site_fract_y
_atom_site_fract_z
Si Si1 0.580806 0.575747 0.759926
Si Si2 0.407838 0.180641 0.740261
Si Si3 0.412820 0.649269 0.431497
Si Si4 0.420118 0.677830 0.081415
Si Si5 0.410912 0.509178 0.406698
Si Si6 0.082406 0.320889 0.385177
Si Si7 0.577194 0.439672 0.045684
O O1 0.750000 0.563993 0.787917
O O2 0.522675 0.525541 0.683547
O O3 0.559803 0.644053 0.713917
O O4 0.477145 0.568085 0.848334
O O5 0.250000 0.145981 0.729593
O O6 0.377139 0.250000 0.774952
O O7 0.489157 0.187773 0.640462
O O8 0.504108 0.151200 0.823659
O O9 0.250000 0.677803 0.440019
O O10 0.404684 0.581725 0.383972
O O11 0.484665 0.647233 0.534478
O O12 0.250000 0.675882 0.102535
O O13 0.463940 0.750000 0.053073
O O14 0.463765 0.626678 0.002875
O O15 0.500000 0.500000 0.500000
O O16 0.250000 0.480889 0.424516
O O17 0.250000 0.324891 0.417896
O O18 0.031743 0.250000 0.370163
O O19 0.750000 0.451195 0.043271
O O20 0.500000 0.500000 0.000000
#
# Coordination Sequence:
#
# PCOD8245075 Si02
#       7
#     8   8   8   8   8   8   8
#     4  10  22  41  61  85 119 155 193 243 298 352
#     4  10  21  36  56  85 118 152 192 236 286 348
#     4  11  22  34  54  85 119 156 197 239 287 343
#     4   9  20  41  65  87 116 155 199 249 305 362
#     4  10  21  37  58  83 113 151 193 236 284 340
#     4  10  21  38  60  86 118 158 201 243 291 348
#     4  11  25  43  65  93 123 156 198 250 306 363
#
# _framework density 20.078239
#
# number of rings (size 3 to 8) (size 9 to 14) (size 15 to 20)
#    0.000    1.857    1.429    1.714    2.000    6.286 
#    0.000    0.000    0.000    0.000    0.000    0.000 
#    0.000    0.000    0.000    0.000    0.000    0.000 
#
# Total GULP energy -694087.901064 kJ/mol
# GULP energy per Si atom -12394.426805 kJ/mol
# Density = 2.003254 g / cm^3
# Si number density = 20.078239 Si / 1000 Ang^3
#
#
#
# Elastic Constant Matrix: (Units=GPa)
#
#
# Indices 1 2 3 4 5 6 
#
# 1 100.6879 31.8022 64.7234 0.0000 0.0000 0.0000
# 2 31.8022 102.5071 40.5543 0.0000 0.0000 0.0000
# 3 64.7234 40.5543 139.7526 0.0000 0.0000 0.0000
# 4 0.0000 0.0000 0.0000 32.2102 0.0000 0.0000
# 5 0.0000 0.0000 0.0000 0.0000 38.7860 0.0000
# 6 0.0000 0.0000 0.0000 0.0000 0.0000 23.4182
#
#
#
# Elastic Compliance Matrix: (Units=1/GPa)
#
#
# Indices 1 2 3 4 5 6 
#
# 1 0.014526 -0.002084 -0.006122 0.000000 0.000000 0.000000
# 2 -0.002084 0.011320 -0.002320 0.000000 0.000000 0.000000
# 3 -0.006122 -0.002320 0.010664 0.000000 0.000000 0.000000
# 4 0.000000 0.000000 0.000000 0.031046 0.000000 0.000000
# 5 0.000000 0.000000 0.000000 0.000000 0.025783 0.000000
# 6 0.000000 0.000000 0.000000 0.000000 0.000000 0.042702
#
#
# Mechanical properties :
#
#
# Convention : Reuss Voigt Hill
#
# Bulk Modulus (GPa) = 64.69595 68.56750 66.63173
# Shear Modulus (GPa) = 30.81772 32.60739 31.71256
#
# Velocity S-wave (km/s) = 3.92201 4.03428 3.97854
# Velocity P-wave (km/s) = 7.26646 7.47829 7.37314
#
# Compressibility (1/GPa) = 0.01545692
#
# Stress axis : x y z
#
# Youngs Moduli (GPa) = 68.84434 88.34130 93.77310
#
# Poissons Ratio (x) = 0.18413 0.57411
# Poissons Ratio (y) = 0.14349 0.21751
# Poissons Ratio (z) = 0.42149 0.20491
#
# Static dielectric constant tensor:
#      x y z
#    x 3.832380 0.000000 0.000000 
#    y 0.000000 3.998790 0.000000 
#    z 0.000000 0.000000 3.462820 
# 
# 
# High freq. dielectric constant tensor:
#      x y z
#    x 1.785400 0.000000 0.000000 
#    y 0.000000 1.789570 0.000000 
#    z 0.000000 0.000000 1.775420 
# 
# From -- ./inp_files/21039.got.cif
#   From: 2010.03.12/outbox.cif.g09.slc.cpg/sg59_11_cif.got.tgz:21039.got - 2010.04.16 16:29:54.
