data_PCOD8245515
_publ_section_title
;
Structure prediction by ZEFSAII (Michael W. Deem and Ramdas Pophale) SiO2 
 PCOD8245515
Probable space group: P M M N
;
_chemical_formula_sum "Si O2"
_cell_formula_units_Z 48
_cell_length_a 8.712311
_cell_length_b 26.574742
_cell_length_c 10.291684
_cell_angle_alpha 90.000000
_cell_angle_beta 90.000000
_cell_angle_gamma 90.000000
_cell_volume 2382.807014
_symmetry_space_group_name_H-M "P M M N"
_symmetry_group_IT_number 59
_space_group.IT_coordinate_system_code '2'
_symmetry_cell_setting 'orthorhombic'
loop_
_space_group_symop_operation_xyz
x,y,z
1/2-x,1/2-y,z
1/2+x,-y,-z
-x,1/2+y,-z
-x,-y,-z
1/2+x,1/2+y,-z
1/2-x,y,z
x,1/2-y,z
loop_
_atom_site_type_symbol
_atom_site_label
_atom_site_fract_x
_atom_site_fract_y
_atom_site_fract_z
Si Si1 0.073080 0.308826 0.151339
Si Si2 0.569572 0.364677 0.385285
Si Si3 0.426513 0.357440 0.882184
Si Si4 0.931000 0.306224 0.637112
Si Si5 0.430942 0.026287 0.375066
Si Si6 0.571659 0.524420 0.126210
O O1 0.250000 0.321810 0.183060
O O2 0.047702 0.250000 0.131314
O O3 0.965646 0.327383 0.267199
O O4 0.018860 0.336485 0.020634
O O5 0.750000 0.375375 0.392876
O O6 0.505887 0.339203 0.517150
O O7 0.482006 0.416414 0.363457
O O8 0.250000 0.343464 0.856612
O O9 0.526648 0.331933 0.771664
O O10 0.454796 0.416461 0.880917
O O11 0.750000 0.302836 0.626101
O O12 0.001971 0.250000 0.629903
O O13 0.250000 0.023944 0.385484
O O14 0.500000 0.000000 0.500000
O O15 0.483697 0.995979 0.250110
O O16 0.750000 0.510188 0.135900
O O17 0.500000 0.500000 0.000000
#
# Coordination Sequence:
#
# PCOD8245515 Si02
#       6
#     8   8   8   8   8   8
#     4  10  21  38  60  88 122 158 197 243 296 354
#     4  11  23  40  62  88 119 156 200 249 302 359
#     4  10  22  39  60  87 118 153 195 242 290 348
#     4  10  22  39  59  86 119 153 192 240 293 351
#     4  12  25  42  63  89 122 159 203 253 306 366
#     4  11  23  40  63  92 124 160 203 249 301 360
#
# _framework density 20.144310000000001
#
# number of rings (size 3 to 8) (size 9 to 14) (size 15 to 20)
#    0.000    1.333    0.000    5.500    0.000    9.333 
#    0.000    0.000    0.000    0.000    0.000    0.000 
#    0.000    0.000    0.000    0.000    0.000    0.000 
#
# Total GULP energy -595507.553228 kJ/mol
# GULP energy per Si atom -12406.407359 kJ/mol
# Density = 2.009846 g / cm^3
# Si number density = 20.144310 Si / 1000 Ang^3
#
#
#
# Elastic Constant Matrix: (Units=GPa)
#
#
# Indices 1 2 3 4 5 6 
#
# 1 90.5547 38.4815 38.7762 0.0000 0.0000 0.0000
# 2 38.4815 94.6181 36.2319 0.0000 0.0000 0.0000
# 3 38.7762 36.2319 134.7191 0.0000 0.0000 0.0000
# 4 0.0000 0.0000 0.0000 46.0948 0.0000 0.0000
# 5 0.0000 0.0000 0.0000 0.0000 37.4038 0.0000
# 6 0.0000 0.0000 0.0000 0.0000 0.0000 26.5094
#
#
#
# Elastic Compliance Matrix: (Units=1/GPa)
#
#
# Indices 1 2 3 4 5 6 
#
# 1 0.014261 -0.004714 -0.002837 0.000000 0.000000 0.000000
# 2 -0.004714 0.013340 -0.002231 0.000000 0.000000 0.000000
# 3 -0.002837 -0.002231 0.008839 0.000000 0.000000 0.000000
# 4 0.000000 0.000000 0.000000 0.021694 0.000000 0.000000
# 5 0.000000 0.000000 0.000000 0.000000 0.026735 0.000000
# 6 0.000000 0.000000 0.000000 0.000000 0.000000 0.037722
#
#
# Mechanical properties :
#
#
# Convention : Reuss Voigt Hill
#
# Bulk Modulus (GPa) = 59.25145 60.76346 60.00745
# Shear Modulus (GPa) = 33.83368 35.76176 34.79772
#
# Velocity S-wave (km/s) = 4.10270 4.21798 4.16074
# Velocity P-wave (km/s) = 7.20556 7.34516 7.27570
#
# Compressibility (1/GPa) = 0.01687722
#
# Stress axis : x y z
#
# Youngs Moduli (GPa) = 70.12163 74.96161 113.12904
#
# Poissons Ratio (x) = 0.35334 0.32095
# Poissons Ratio (y) = 0.33052 0.25240
# Poissons Ratio (z) = 0.19894 0.16724
#
# Static dielectric constant tensor:
#      x y z
#    x 3.648630 0.000000 0.000000 
#    y 0.000000 4.004960 0.000000 
#    z 0.000000 0.000000 3.807440 
# 
# 
# High freq. dielectric constant tensor:
#      x y z
#    x 1.784480 0.000000 0.000000 
#    y 0.000000 1.807470 0.000000 
#    z 0.000000 0.000000 1.805210 
# 
# From -- ./inp_files/6194.got.cif
#   From: 2010.03.12/outbox.cif.g09.slc.cpg/sg59_4_cif.got.tgz:6194.got - 2010.04.16 16:29:54.
