data_PCOD8245352
_publ_section_title
;
Structure prediction by ZEFSAII (Michael W. Deem and Ramdas Pophale) SiO2 
 PCOD8245352
Probable space group: P M M N
;
_chemical_formula_sum "Si O2"
_cell_formula_units_Z 64
_cell_length_a 18.209980
_cell_length_b 8.872176
_cell_length_c 21.329507
_cell_angle_alpha 90.000000
_cell_angle_beta 90.000000
_cell_angle_gamma 90.000000
_cell_volume 3446.040956
_symmetry_space_group_name_H-M "P M M N"
_symmetry_group_IT_number 59
_space_group.IT_coordinate_system_code '2'
_symmetry_cell_setting 'orthorhombic'
loop_
_space_group_symop_operation_xyz
x,y,z
1/2-x,1/2-y,z
1/2+x,-y,-z
-x,1/2+y,-z
-x,-y,-z
1/2+x,1/2+y,-z
1/2-x,y,z
x,1/2-y,z
loop_
_atom_site_type_symbol
_atom_site_label
_atom_site_fract_x
_atom_site_fract_y
_atom_site_fract_z
Si Si1 0.334740 0.573896 0.264760
Si Si2 0.335476 0.925326 0.630058
Si Si3 0.473012 0.575501 0.937408
Si Si4 0.336577 0.421367 0.393675
Si Si5 0.332276 0.575923 0.867446
Si Si6 0.099164 0.072378 0.751539
Si Si7 0.079115 0.572943 0.504807
Si Si8 0.959031 0.928265 0.806869
O O1 0.250000 0.540174 0.249619
O O2 0.349773 0.750000 0.272641
O O3 0.360921 0.491163 0.327679
O O4 0.381597 0.506372 0.207758
O O5 0.250000 0.960370 0.617974
O O6 0.347290 0.750000 0.646390
O O7 0.380903 0.974125 0.568908
O O8 0.365048 0.026698 0.686155
O O9 0.481085 0.750000 0.949461
O O10 0.388323 0.530694 0.922943
O O11 0.521810 0.525452 0.878046
O O12 0.500000 0.500000 0.000000
O O13 0.250000 0.430456 0.401753
O O14 0.365249 0.250000 0.396804
O O15 0.371429 0.518806 0.447969
O O16 0.250000 0.550258 0.892643
O O17 0.346261 0.750000 0.847901
O O18 0.344851 0.474942 0.806341
O O19 0.086161 0.250000 0.753306
O O20 0.021286 0.989633 0.759910
O O21 0.069876 0.750000 0.500191
O O22 0.000000 0.500000 0.500000
O O23 0.953216 0.750000 0.798415
#
# Coordination Sequence:
#
# PCOD8245352 Si02
#       8
#     8   8   8   8   8   8   8   8
#     4  10  21  37  59  87 115 144 184 235 286 333
#     4  10  22  40  59  78 106 147 187 224 276 339
#     4   9  19  35  56  82 111 148 188 228 275 327
#     4  10  21  38  60  83 109 145 185 228 283 343
#     4   9  18  35  57  80 110 148 189 229 274 332
#     4  11  22  34  54  85 116 144 180 228 281 331
#     4  11  24  40  58  80 109 145 188 236 284 335
#     4  10  21  38  59  82 113 151 189 227 273 330
#
# _framework density 18.572037999999999
#
# number of rings (size 3 to 8) (size 9 to 14) (size 15 to 20)
#    0.000    2.000    0.000    4.125    1.750    7.500 
#    0.000    0.625    0.000    2.250    0.000    0.000 
#    0.000    0.000    0.000    0.000    0.000    0.000 
#
# Total GULP energy -793784.397452 kJ/mol
# GULP energy per Si atom -12402.881210 kJ/mol
# Density = 1.852977 g / cm^3
# Si number density = 18.572038 Si / 1000 Ang^3
#
#
#
# Elastic Constant Matrix: (Units=GPa)
#
#
# Indices 1 2 3 4 5 6 
#
# 1 103.8407 52.3108 77.4445 0.0000 0.0000 0.0000
# 2 52.3108 69.0988 48.0246 0.0000 0.0000 0.0000
# 3 77.4445 48.0246 125.5714 0.0000 0.0000 0.0000
# 4 0.0000 0.0000 0.0000 35.3511 0.0000 0.0000
# 5 0.0000 0.0000 0.0000 0.0000 27.1929 0.0000
# 6 0.0000 0.0000 0.0000 0.0000 0.0000 32.7516
#
#
#
# Elastic Compliance Matrix: (Units=1/GPa)
#
#
# Indices 1 2 3 4 5 6 
#
# 1 0.021773 -0.009739 -0.009704 0.000000 0.000000 0.000000
# 2 -0.009739 0.024068 -0.003198 0.000000 0.000000 0.000000
# 3 -0.009704 -0.003198 0.015171 0.000000 0.000000 0.000000
# 4 0.000000 0.000000 0.000000 0.028288 0.000000 0.000000
# 5 0.000000 0.000000 0.000000 0.000000 0.036774 0.000000
# 6 0.000000 0.000000 0.000000 0.000000 0.000000 0.030533
#
#
# Mechanical properties :
#
#
# Convention : Reuss Voigt Hill
#
# Bulk Modulus (GPa) = 63.57119 72.67451 68.12285
# Shear Modulus (GPa) = 24.13908 27.10786 25.62347
#
# Velocity S-wave (km/s) = 3.60912 3.82462 3.71843
# Velocity P-wave (km/s) = 7.18829 7.66288 7.42938
#
# Compressibility (1/GPa) = 0.01573040
#
# Stress axis : x y z
#
# Youngs Moduli (GPa) = 45.92759 41.54929 65.91362
#
# Poissons Ratio (x) = 0.40466 0.63961
# Poissons Ratio (y) = 0.44730 0.21080
# Poissons Ratio (z) = 0.44567 0.13288
#
# Static dielectric constant tensor:
#      x y z
#    x 3.495420 0.000000 0.000000 
#    y 0.000000 3.472980 0.000000 
#    z 0.000000 0.000000 3.312800 
# 
# 
# High freq. dielectric constant tensor:
#      x y z
#    x 1.729570 0.000000 0.000000 
#    y 0.000000 1.727550 0.000000 
#    z 0.000000 0.000000 1.712580 
# 
# From -- ./inp_files/30697.got.cif
#   From: 2010.03.12/outbox.cif.g09.slc.cpg/sg59_16_cif.got.tgz:30697.got - 2010.04.16 16:29:54.
