data_PCOD8245652
_publ_section_title
;
Structure prediction by ZEFSAII (Michael W. Deem and Ramdas Pophale) SiO2 
 PCOD8245652
Probable space group: P M M N
;
_chemical_formula_sum "Si O2"
_cell_formula_units_Z 64
_cell_length_a 8.874548
_cell_length_b 18.639864
_cell_length_c 19.473374
_cell_angle_alpha 90.000000
_cell_angle_beta 90.000000
_cell_angle_gamma 90.000000
_cell_volume 3221.292689
_symmetry_space_group_name_H-M "P M M N"
_symmetry_group_IT_number 59
_space_group.IT_coordinate_system_code '2'
_symmetry_cell_setting 'orthorhombic'
loop_
_space_group_symop_operation_xyz
x,y,z
1/2-x,1/2-y,z
1/2+x,-y,-z
-x,1/2+y,-z
-x,-y,-z
1/2+x,1/2+y,-z
1/2-x,y,z
x,1/2-y,z
loop_
_atom_site_type_symbol
_atom_site_label
_atom_site_fract_x
_atom_site_fract_y
_atom_site_fract_z
Si Si1 0.927200 0.090370 0.844921
Si Si2 0.424277 0.332633 0.966199
Si Si3 0.573428 0.166843 0.459575
Si Si4 0.577207 0.564532 0.643480
Si Si5 0.426859 0.550485 0.789408
Si Si6 0.924360 0.667925 0.277494
Si Si7 0.922658 0.408900 0.598686
Si Si8 0.577928 0.833324 0.876303
O O1 0.750000 0.081697 0.838956
O O2 0.970950 0.116765 0.920583
O O3 0.982558 0.148585 0.790043
O O4 0.000503 0.013575 0.832258
O O5 0.250000 0.346039 0.947733
O O6 0.466057 0.250000 0.952341
O O7 0.456876 0.352839 0.044913
O O8 0.750000 0.156320 0.447215
O O9 0.529349 0.250000 0.466395
O O10 0.486809 0.133891 0.395019
O O11 0.520185 0.125772 0.528000
O O12 0.750000 0.579198 0.662761
O O13 0.486448 0.550531 0.712400
O O14 0.561036 0.494854 0.594584
O O15 0.250000 0.539247 0.787128
O O16 0.465979 0.624621 0.826682
O O17 0.750000 0.653447 0.261675
O O18 0.956149 0.750000 0.296769
O O19 0.973322 0.619268 0.340654
O O20 0.750000 0.386296 0.613526
O O21 0.750000 0.853609 0.858636
O O22 0.549067 0.750000 0.862893
#
# Coordination Sequence:
#
# PCOD8245652 Si02
#       8
#     8   8   8   8   8   8   8   8
#     4  12  24  38  58  86 122 162 204 249 299 357
#     4   9  19  38  63  90 122 160 201 247 302 360
#     4  10  22  40  62  90 123 159 201 248 300 359
#     4  11  23  40  63  90 120 158 203 250 304 362
#     4  12  25  41  63  89 121 160 202 252 305 358
#     4  11  23  37  57  87 122 161 203 246 295 353
#     4  10  21  39  63  89 119 159 201 247 299 355
#     4   9  20  41  67  92 120 156 199 250 305 361
#
# _framework density 19.867799999999999
#
# number of rings (size 3 to 8) (size 9 to 14) (size 15 to 20)
#    0.000    1.500    1.250    4.875    0.000    6.250 
#    0.000    1.250    0.000    0.000    0.000    0.000 
#    0.000    0.000    0.000    0.000    0.000    0.000 
#
# Total GULP energy -793981.325215 kJ/mol
# GULP energy per Si atom -12405.958206 kJ/mol
# Density = 1.982258 g / cm^3
# Si number density = 19.867800 Si / 1000 Ang^3
#
#
#
# Elastic Constant Matrix: (Units=GPa)
#
#
# Indices 1 2 3 4 5 6 
#
# 1 118.3559 52.0593 41.8297 0.0000 0.0000 0.0000
# 2 52.0593 96.8177 56.2214 0.0000 0.0000 0.0000
# 3 41.8297 56.2214 75.3845 0.0000 0.0000 0.0000
# 4 0.0000 0.0000 0.0000 40.5389 0.0000 0.0000
# 5 0.0000 0.0000 0.0000 0.0000 31.5801 0.0000
# 6 0.0000 0.0000 0.0000 0.0000 0.0000 26.1359
#
#
#
# Elastic Compliance Matrix: (Units=1/GPa)
#
#
# Indices 1 2 3 4 5 6 
#
# 1 0.011466 -0.004358 -0.003112 0.000000 0.000000 0.000000
# 2 -0.004358 0.019875 -0.012405 0.000000 0.000000 0.000000
# 3 -0.003112 -0.012405 0.024243 0.000000 0.000000 0.000000
# 4 0.000000 0.000000 0.000000 0.024668 0.000000 0.000000
# 5 0.000000 0.000000 0.000000 0.000000 0.031666 0.000000
# 6 0.000000 0.000000 0.000000 0.000000 0.000000 0.038262
#
#
# Mechanical properties :
#
#
# Convention : Reuss Voigt Hill
#
# Bulk Modulus (GPa) = 63.15071 65.64210 64.39640
# Shear Modulus (GPa) = 25.61375 29.01415 27.31395
#
# Velocity S-wave (km/s) = 3.59445 3.82561 3.71183
# Velocity P-wave (km/s) = 7.00580 7.25430 7.13113
#
# Compressibility (1/GPa) = 0.01583513
#
# Stress axis : x y z
#
# Youngs Moduli (GPa) = 87.21526 50.31334 41.24819
#
# Poissons Ratio (x) = 0.21927 0.12836
# Poissons Ratio (y) = 0.38010 0.51167
# Poissons Ratio (z) = 0.27141 0.62412
#
# Static dielectric constant tensor:
#      x y z
#    x 3.593350 0.000000 0.000000 
#    y 0.000000 3.681710 0.000000 
#    z 0.000000 0.000000 3.604930 
# 
# 
# High freq. dielectric constant tensor:
#      x y z
#    x 1.774930 0.000000 0.000000 
#    y 0.000000 1.782250 0.000000 
#    z 0.000000 0.000000 1.778760 
# 
# From -- ./inp_files/26255.got.cif
#   From: 2010.03.12/outbox.cif.g09.slc.cpg/sg59_14_cif.got.tgz:26255.got - 2010.04.16 16:29:54.
