data_PCOD8245442
_publ_section_title
;
Structure prediction by ZEFSAII (Michael W. Deem and Ramdas Pophale) SiO2 
 PCOD8245442
Probable space group: P M M N
;
_chemical_formula_sum "Si O2"
_cell_formula_units_Z 32
_cell_length_a 28.308331
_cell_length_b 8.911347
_cell_length_c 6.910880
_cell_angle_alpha 90.000000
_cell_angle_beta 90.000000
_cell_angle_gamma 90.000000
_cell_volume 1743.375635
_symmetry_space_group_name_H-M "P M M N"
_symmetry_group_IT_number 59
_space_group.IT_coordinate_system_code '2'
_symmetry_cell_setting 'orthorhombic'
loop_
_space_group_symop_operation_xyz
x,y,z
1/2-x,1/2-y,z
1/2+x,-y,-z
-x,1/2+y,-z
-x,-y,-z
1/2+x,1/2+y,-z
1/2-x,y,z
x,1/2-y,z
loop_
_atom_site_type_symbol
_atom_site_label
_atom_site_fract_x
_atom_site_fract_y
_atom_site_fract_z
Si Si1 0.949922 0.423734 0.521182
Si Si2 0.125094 0.579174 0.804521
Si Si3 0.376895 0.425949 0.205573
Si Si4 0.304201 0.575637 0.471723
O O1 0.956762 0.250000 0.569509
O O2 0.921522 0.447325 0.322870
O O3 0.922138 0.495820 0.699688
O O4 0.000000 0.500000 0.500000
O O5 0.127041 0.750000 0.881531
O O6 0.171228 0.542505 0.676735
O O7 0.124230 0.464036 0.979866
O O8 0.381947 0.250000 0.234271
O O9 0.328284 0.480912 0.301899
O O10 0.250000 0.526637 0.488009
O O11 0.310103 0.750000 0.417466
#
# Coordination Sequence:
#
# PCOD8245442 Si02
#       4
#     8   8   8   8
#     4  10  21  38  59  81 107 140 179 223 268 316
#     4   9  19  36  56  79 107 141 181 221 262 313
#     4  11  22  35  54  81 112 144 177 218 268 319
#     4   9  19  37  59  80 105 141 183 225 268 316
#
# _framework density 18.355195999999999
#
# number of rings (size 3 to 8) (size 9 to 14) (size 15 to 20)
#    0.000    2.250    0.000    4.500    0.000    7.500 
#    0.000    2.500    0.000    0.000    0.000    0.000 
#    0.000    0.000    0.000    0.000    0.000    0.000 
#
# Total GULP energy -396929.226973 kJ/mol
# GULP energy per Si atom -12404.038343 kJ/mol
# Density = 1.831342 g / cm^3
# Si number density = 18.355196 Si / 1000 Ang^3
#
#
#
# Elastic Constant Matrix: (Units=GPa)
#
#
# Indices 1 2 3 4 5 6 
#
# 1 165.4118 69.0322 55.0685 0.0000 0.0000 0.0000
# 2 69.0322 128.9109 62.4660 0.0000 0.0000 0.0000
# 3 55.0685 62.4660 107.8858 0.0000 0.0000 0.0000
# 4 0.0000 0.0000 0.0000 28.1334 0.0000 0.0000
# 5 0.0000 0.0000 0.0000 0.0000 11.7123 0.0000
# 6 0.0000 0.0000 0.0000 0.0000 0.0000 32.5327
#
#
#
# Elastic Compliance Matrix: (Units=1/GPa)
#
#
# Indices 1 2 3 4 5 6 
#
# 1 0.008168 -0.003272 -0.002275 0.000000 0.000000 0.000000
# 2 -0.003272 0.012093 -0.005332 0.000000 0.000000 0.000000
# 3 -0.002275 -0.005332 0.013517 0.000000 0.000000 0.000000
# 4 0.000000 0.000000 0.000000 0.035545 0.000000 0.000000
# 5 0.000000 0.000000 0.000000 0.000000 0.085380 0.000000
# 6 0.000000 0.000000 0.000000 0.000000 0.000000 0.030738
#
#
# Mechanical properties :
#
#
# Convention : Reuss Voigt Hill
#
# Bulk Modulus (GPa) = 83.18426 86.14908 84.66667
# Shear Modulus (GPa) = 23.67351 28.85181 26.26266
#
# Velocity S-wave (km/s) = 3.59520 3.96897 3.78670
# Velocity P-wave (km/s) = 7.91527 8.24863 8.08367
#
# Compressibility (1/GPa) = 0.01202150
#
# Stress axis : x y z
#
# Youngs Moduli (GPa) = 122.42388 82.69272 73.97845
#
# Poissons Ratio (x) = 0.27055 0.16830
# Poissons Ratio (y) = 0.40054 0.39444
# Poissons Ratio (z) = 0.27852 0.44090
#
# Static dielectric constant tensor:
#      x y z
#    x 3.538110 0.000000 0.000000 
#    y 0.000000 3.361450 0.000000 
#    z 0.000000 0.000000 3.281340 
# 
# 
# High freq. dielectric constant tensor:
#      x y z
#    x 1.717780 0.000000 0.000000 
#    y 0.000000 1.713550 0.000000 
#    z 0.000000 0.000000 1.709880 
# 
# From -- ./inp_files/560.got.cif
#   From: 2010.03.12/outbox.cif.g09.slc.cpg/sg59_1_cif.got.tgz:560.got - 2010.04.16 16:29:54.
