data_PCOD8245612
_publ_section_title
;
Structure prediction by ZEFSAII (Michael W. Deem and Ramdas Pophale) SiO2 
 PCOD8245612
Probable space group: P M M N
;
_chemical_formula_sum "Si O2"
_cell_formula_units_Z 56
_cell_length_a 19.617640
_cell_length_b 8.763142
_cell_length_c 16.677930
_cell_angle_alpha 90.000000
_cell_angle_beta 90.000000
_cell_angle_gamma 90.000000
_cell_volume 2867.139054
_symmetry_space_group_name_H-M "P M M N"
_symmetry_group_IT_number 59
_space_group.IT_coordinate_system_code '2'
_symmetry_cell_setting 'orthorhombic'
loop_
_space_group_symop_operation_xyz
x,y,z
1/2-x,1/2-y,z
1/2+x,-y,-z
-x,1/2+y,-z
-x,-y,-z
1/2+x,1/2+y,-z
1/2-x,y,z
x,1/2-y,z
loop_
_atom_site_type_symbol
_atom_site_label
_atom_site_fract_x
_atom_site_fract_y
_atom_site_fract_z
Si Si1 0.675631 0.429409 0.805146
Si Si2 0.828233 0.931236 0.366353
Si Si3 0.925300 0.071741 0.499480
Si Si4 0.061677 0.068986 0.755617
Si Si5 0.573455 0.071883 0.678365
Si Si6 0.170942 0.925319 0.014998
Si Si7 0.550965 0.927791 0.064657
O O1 0.750000 0.505178 0.794930
O O2 0.682399 0.250000 0.790285
O O3 0.625212 0.506751 0.741045
O O4 0.647403 0.458445 0.894132
O O5 0.750000 0.992515 0.365848
O O6 0.828972 0.750000 0.374157
O O7 0.866244 0.984341 0.283933
O O8 0.870306 0.995514 0.441559
O O9 0.931191 0.250000 0.479248
O O10 0.898617 0.041786 0.589617
O O11 0.000000 0.000000 0.500000
O O12 0.063196 0.250000 0.761813
O O13 0.045671 0.004006 0.844747
O O14 0.002832 0.008265 0.694884
O O15 0.569927 0.250000 0.697405
O O16 0.250000 0.962796 0.003076
O O17 0.155463 0.750000 0.992441
O O18 0.128654 0.038670 0.959458
O O19 0.535357 0.750000 0.065010
O O20 0.500000 0.000000 0.000000
#
# Coordination Sequence:
#
# PCOD8245612 Si02
#       7
#     8   8   8   8   8   8   8
#     4   8  14  26  47  75 103 134 174 218 263 314
#     4  10  21  39  61  83 111 148 192 240 287 334
#     4  11  21  35  58  84 113 147 184 228 280 338
#     4   9  18  34  55  78 103 142 191 232 274 330
#     4   9  16  28  51  77 102 134 177 224 264 315
#     4   9  18  34  55  77 106 144 182 224 277 332
#     4  11  22  35  56  83 112 144 186 238 284 334
#
# _framework density 19.531663999999999
#
# number of rings (size 3 to 8) (size 9 to 14) (size 15 to 20)
#    0.000    2.429    1.429    2.571    0.000    4.000 
#    0.000    4.286    0.000    0.857    0.000    0.000 
#    0.000    0.000    0.000    0.000    0.000    0.000 
#
# Total GULP energy -693937.364727 kJ/mol
# GULP energy per Si atom -12391.738656 kJ/mol
# Density = 1.948721 g / cm^3
# Si number density = 19.531664 Si / 1000 Ang^3
#
#
#
# Elastic Constant Matrix: (Units=GPa)
#
#
# Indices 1 2 3 4 5 6 
#
# 1 119.9809 20.9008 69.4400 0.0000 0.0000 0.0000
# 2 20.9008 30.1919 23.3544 0.0000 0.0000 0.0000
# 3 69.4400 23.3544 130.6112 0.0000 0.0000 0.0000
# 4 0.0000 0.0000 0.0000 24.3219 0.0000 0.0000
# 5 0.0000 0.0000 0.0000 0.0000 38.3000 0.0000
# 6 0.0000 0.0000 0.0000 0.0000 0.0000 24.8183
#
#
#
# Elastic Compliance Matrix: (Units=1/GPa)
#
#
# Indices 1 2 3 4 5 6 
#
# 1 0.012454 -0.004062 -0.005895 0.000000 0.000000 0.000000
# 2 -0.004062 0.039763 -0.004951 0.000000 0.000000 0.000000
# 3 -0.005895 -0.004951 0.011676 0.000000 0.000000 0.000000
# 4 0.000000 0.000000 0.000000 0.041115 0.000000 0.000000
# 5 0.000000 0.000000 0.000000 0.000000 0.026110 0.000000
# 6 0.000000 0.000000 0.000000 0.000000 0.000000 0.040293
#
#
# Mechanical properties :
#
#
# Convention : Reuss Voigt Hill
#
# Bulk Modulus (GPa) = 29.34440 56.46381 42.90411
# Shear Modulus (GPa) = 23.52019 28.62729 26.07374
#
# Velocity S-wave (km/s) = 3.47394 3.83258 3.65766
# Velocity P-wave (km/s) = 5.58100 6.96825 6.31285
#
# Compressibility (1/GPa) = 0.03407805
#
# Stress axis : x y z
#
# Youngs Moduli (GPa) = 80.29586 25.14928 85.64879
#
# Poissons Ratio (x) = 0.10214 0.50490
# Poissons Ratio (y) = 0.32612 0.42401
# Poissons Ratio (z) = 0.47334 0.12450
#
# Static dielectric constant tensor:
#      x y z
#    x 3.941200 0.000000 0.000000 
#    y 0.000000 3.121200 0.000000 
#    z 0.000000 0.000000 3.889800 
# 
# 
# High freq. dielectric constant tensor:
#      x y z
#    x 1.769960 0.000000 0.000000 
#    y 0.000000 1.709600 0.000000 
#    z 0.000000 0.000000 1.771750 
# 
# From -- ./inp_files/24277.got.cif
#   From: 2010.03.12/outbox.cif.g09.slc.cpg/sg59_13_cif.got.tgz:24277.got - 2010.04.16 16:29:54.
