data_PCOD8245011
_publ_section_title
;
Structure prediction by ZEFSAII (Michael W. Deem and Ramdas Pophale) SiO2 
 PCOD8245011
Probable space group: P M M N
;
_chemical_formula_sum "Si O2"
_cell_formula_units_Z 48
_cell_length_a 9.739450
_cell_length_b 8.709103
_cell_length_c 29.576054
_cell_angle_alpha 90.000000
_cell_angle_beta 90.000000
_cell_angle_gamma 90.000000
_cell_volume 2508.696303
_symmetry_space_group_name_H-M "P M M N"
_symmetry_group_IT_number 59
_space_group.IT_coordinate_system_code '2'
_symmetry_cell_setting 'orthorhombic'
loop_
_space_group_symop_operation_xyz
x,y,z
1/2-x,1/2-y,z
1/2+x,-y,-z
-x,1/2+y,-z
-x,-y,-z
1/2+x,1/2+y,-z
1/2-x,y,z
x,1/2-y,z
loop_
_atom_site_type_symbol
_atom_site_label
_atom_site_fract_x
_atom_site_fract_y
_atom_site_fract_z
Si Si1 0.094967 0.428720 0.195152
Si Si2 0.590906 0.067648 0.460021
Si Si3 0.250000 0.072904 0.952529
Si Si4 0.750000 0.067785 0.951469
Si Si5 0.912893 0.077496 0.714738
Si Si6 0.993608 0.069920 0.097662
Si Si7 0.905411 0.931128 0.622528
O O1 0.250000 0.488511 0.186670
O O2 0.096899 0.250000 0.205660
O O3 0.025736 0.509561 0.238681
O O4 0.007499 0.466727 0.150766
O O5 0.750000 0.008543 0.461206
O O6 0.589090 0.250000 0.463569
O O7 0.514600 0.010020 0.414531
O O8 0.500000 0.000000 0.500000
O O9 0.250000 0.250000 0.968415
O O10 0.377378 0.039428 0.920828
O O11 0.250000 0.958668 0.994951
O O12 0.750000 0.250000 0.941337
O O13 0.624742 0.978947 0.930066
O O14 0.750000 0.065071 0.717857
O O15 0.965417 0.250000 0.709392
O O16 0.963499 0.984803 0.670939
O O17 0.963168 0.250000 0.089720
O O18 0.750000 0.996195 0.613203
O O19 0.898530 0.750000 0.622321
#
# Coordination Sequence:
#
# PCOD8245011 Si02
#       7
#     8   8   4   4   8   8   8
#     4   9  17  32  55  82 110 142 181 226 275 329
#     4  10  21  36  55  80 110 145 187 232 278 329
#     4  12  26  42  58  82 116 152 188 232 287 344
#     4  12  24  40  62  88 114 148 188 234 285 338
#     4   9  17  28  47  78 110 138 174 225 276 323
#     4  11  22  40  62  86 114 148 190 236 282 339
#     4   9  17  31  51  74 103 140 180 222 271 328
#
# _framework density 19.133443
#
# number of rings (size 3 to 8) (size 9 to 14) (size 15 to 20)
#    0.000    2.000    0.833    3.500    0.000    5.000 
#    0.000    1.667    1.833    0.000    0.000    0.000 
#    0.000    0.000    0.000    0.000    0.000    0.000 
#
# Total GULP energy -595067.727434 kJ/mol
# GULP energy per Si atom -12397.244322 kJ/mol
# Density = 1.908989 g / cm^3
# Si number density = 19.133443 Si / 1000 Ang^3
#
#
#
# Elastic Constant Matrix: (Units=GPa)
#
#
# Indices 1 2 3 4 5 6 
#
# 1 97.2854 14.0677 49.7996 0.0000 0.0000 0.0000
# 2 14.0677 36.9826 28.8125 0.0000 0.0000 0.0000
# 3 49.7996 28.8125 149.4857 0.0000 0.0000 0.0000
# 4 0.0000 0.0000 0.0000 35.5283 0.0000 0.0000
# 5 0.0000 0.0000 0.0000 0.0000 169.5499 0.0000
# 6 0.0000 0.0000 0.0000 0.0000 0.0000 21.7228
#
#
#
# Elastic Compliance Matrix: (Units=1/GPa)
#
#
# Indices 1 2 3 4 5 6 
#
# 1 0.012491 -0.001776 -0.003819 0.000000 0.000000 0.000000
# 2 -0.001776 0.032070 -0.005590 0.000000 0.000000 0.000000
# 3 -0.003819 -0.005590 0.009039 0.000000 0.000000 0.000000
# 4 0.000000 0.000000 0.000000 0.028147 0.000000 0.000000
# 5 0.000000 0.000000 0.000000 0.000000 0.005898 0.000000
# 6 0.000000 0.000000 0.000000 0.000000 0.000000 0.046035
#
#
# Mechanical properties :
#
#
# Convention : Reuss Voigt Hill
#
# Bulk Modulus (GPa) = 32.01961 52.12370 42.07165
# Shear Modulus (GPa) = 30.03750 58.09844 44.06797
#
# Velocity S-wave (km/s) = 3.96649 5.51641 4.80436
# Velocity P-wave (km/s) = 6.14399 8.23867 7.26720
#
# Compressibility (1/GPa) = 0.03123086
#
# Stress axis : x y z
#
# Youngs Moduli (GPa) = 80.05970 31.18165 110.62970
#
# Poissons Ratio (x) = 0.05538 0.42247
# Poissons Ratio (y) = 0.14220 0.61838
# Poissons Ratio (z) = 0.30573 0.17429
#
# Static dielectric constant tensor:
#      x y z
#    x 3.357250 0.000000 0.000000 
#    y 0.000000 3.437370 0.000000 
#    z 0.000000 0.000000 3.752210 
# 
# 
# High freq. dielectric constant tensor:
#      x y z
#    x 1.716090 0.000000 0.000000 
#    y 0.000000 1.740710 0.000000 
#    z 0.000000 0.000000 1.761620 
# 
# From -- ./inp_files/32928.got.cif
#   From: 2010.03.12/outbox.cif.g09.slc.cpg/sg59_17_cif.got.tgz:32928.got - 2010.04.16 16:29:54.
