data_PCOD8245824
_publ_section_title
;
Structure prediction by ZEFSAII (Michael W. Deem and Ramdas Pophale) SiO2 
 PCOD8245824
Probable space group: P M M N
;
_chemical_formula_sum "Si O2"
_cell_formula_units_Z 56
_cell_length_a 19.394808
_cell_length_b 14.008738
_cell_length_c 10.029646
_cell_angle_alpha 90.000000
_cell_angle_beta 90.000000
_cell_angle_gamma 90.000000
_cell_volume 2725.022561
_symmetry_space_group_name_H-M "P M M N"
_symmetry_group_IT_number 59
_space_group.IT_coordinate_system_code '2'
_symmetry_cell_setting 'orthorhombic'
loop_
_space_group_symop_operation_xyz
x,y,z
1/2-x,1/2-y,z
1/2+x,-y,-z
-x,1/2+y,-z
-x,-y,-z
1/2+x,1/2+y,-z
1/2-x,y,z
x,1/2-y,z
loop_
_atom_site_type_symbol
_atom_site_label
_atom_site_fract_x
_atom_site_fract_y
_atom_site_fract_z
Si Si1 0.669919 0.639528 0.753766
Si Si2 0.393188 0.468497 0.002603
Si Si3 0.969431 0.089645 0.582651
Si Si4 0.826843 0.140825 0.464297
Si Si5 0.673664 0.522713 0.274535
Si Si6 0.977883 0.365838 0.887960
Si Si7 0.603471 0.851739 0.487424
O O1 0.750000 0.626898 0.721282
O O2 0.651289 0.750000 0.783550
O O3 0.626945 0.599283 0.626151
O O4 0.649832 0.574032 0.876300
O O5 0.341563 0.476115 0.880292
O O6 0.452847 0.392724 0.966984
O O7 0.417716 0.576447 0.035299
O O8 0.888260 0.107729 0.561892
O O9 0.981215 0.087831 0.741220
O O10 0.020996 0.169069 0.520913
O O11 0.000000 0.000000 0.500000
O O12 0.750000 0.123335 0.529234
O O13 0.837383 0.250000 0.427953
O O14 0.832486 0.085788 0.324941
O O15 0.750000 0.563924 0.297847
O O16 0.621664 0.586174 0.359329
O O17 0.966127 0.250000 0.887086
O O18 0.642216 0.750000 0.479703
#
# Coordination Sequence:
#
# PCOD8245824 Si02
#       7
#     8   8   8   8   8   8   8
#     4  10  22  40  62  92 129 170 216 265 323 393
#     4  11  23  41  63  90 124 173 215 263 327 393
#     4  12  21  40  66  98 129 167 214 272 332 385
#     4  10  22  40  63  91 127 170 215 267 323 382
#     4  11  23  40  62  93 128 165 213 265 323 391
#     4  11  24  41  62  91 128 167 218 278 327 388
#     4  11  22  38  63  94 127 163 207 268 329 385
#
# _framework density 20.550287999999998
#
# number of rings (size 3 to 8) (size 9 to 14) (size 15 to 20)
#    0.000    1.143    2.857    3.429    0.000    3.143 
#    0.000    0.714    0.000    2.143    0.000    0.000 
#    0.000    0.000    0.000    0.000    0.000    0.000 
#
# Total GULP energy -693852.305020 kJ/mol
# GULP energy per Si atom -12390.219733 kJ/mol
# Density = 2.050351 g / cm^3
# Si number density = 20.550288 Si / 1000 Ang^3
#
#
#
# Elastic Constant Matrix: (Units=GPa)
#
#
# Indices 1 2 3 4 5 6 
#
# 1 125.7555 28.7852 45.3516 0.0000 0.0000 0.0000
# 2 28.7852 111.7779 36.9580 0.0000 0.0000 0.0000
# 3 45.3516 36.9580 129.5676 0.0000 0.0000 0.0000
# 4 0.0000 0.0000 0.0000 21.3458 0.0000 0.0000
# 5 0.0000 0.0000 0.0000 0.0000 35.1496 0.0000
# 6 0.0000 0.0000 0.0000 0.0000 0.0000 20.4210
#
#
#
# Elastic Compliance Matrix: (Units=1/GPa)
#
#
# Indices 1 2 3 4 5 6 
#
# 1 0.009311 -0.001458 -0.002843 0.000000 0.000000 0.000000
# 2 -0.001458 0.010106 -0.002372 0.000000 0.000000 0.000000
# 3 -0.002843 -0.002372 0.009390 0.000000 0.000000 0.000000
# 4 0.000000 0.000000 0.000000 0.046848 0.000000 0.000000
# 5 0.000000 0.000000 0.000000 0.000000 0.028450 0.000000
# 6 0.000000 0.000000 0.000000 0.000000 0.000000 0.048969
#
#
# Mechanical properties :
#
#
# Convention : Reuss Voigt Hill
#
# Bulk Modulus (GPa) = 64.68224 65.47674 65.07949
# Shear Modulus (GPa) = 29.14198 32.45036 30.79617
#
# Velocity S-wave (km/s) = 3.76983 3.97806 3.87534
# Velocity P-wave (km/s) = 7.10579 7.28223 7.19455
#
# Compressibility (1/GPa) = 0.01546019
#
# Stress axis : x y z
#
# Youngs Moduli (GPa) = 107.40017 98.94994 106.49732
#
# Poissons Ratio (x) = 0.14424 0.30280
# Poissons Ratio (y) = 0.15656 0.25266
# Poissons Ratio (z) = 0.30537 0.23475
#
# Static dielectric constant tensor:
#      x y z
#    x 4.591160 0.000000 0.000000 
#    y 0.000000 3.973100 0.000000 
#    z 0.000000 0.000000 3.628620 
# 
# 
# High freq. dielectric constant tensor:
#      x y z
#    x 1.816040 0.000000 0.000000 
#    y 0.000000 1.809790 0.000000 
#    z 0.000000 0.000000 1.798650 
# 
# From -- ./inp_files/11455.got.cif
#   From: 2010.03.12/outbox.cif.g09.slc.cpg/sg59_6_cif.got.tgz:11455.got - 2010.04.16 16:29:54.
