data_PCOD8245049
_publ_section_title
;
Structure prediction by ZEFSAII (Michael W. Deem and Ramdas Pophale) SiO2 
 PCOD8245049
Probable space group: P M M N
;
_chemical_formula_sum "Si O2"
_cell_formula_units_Z 48
_cell_length_a 9.218105
_cell_length_b 16.881435
_cell_length_c 16.702685
_cell_angle_alpha 90.000000
_cell_angle_beta 90.000000
_cell_angle_gamma 90.000000
_cell_volume 2599.185660
_symmetry_space_group_name_H-M "P M M N"
_symmetry_group_IT_number 59
_space_group.IT_coordinate_system_code '2'
_symmetry_cell_setting 'orthorhombic'
loop_
_space_group_symop_operation_xyz
x,y,z
1/2-x,1/2-y,z
1/2+x,-y,-z
-x,1/2+y,-z
-x,-y,-z
1/2+x,1/2+y,-z
1/2-x,y,z
x,1/2-y,z
loop_
_atom_site_type_symbol
_atom_site_label
_atom_site_fract_x
_atom_site_fract_y
_atom_site_fract_z
Si Si1 0.077407 0.250000 0.841068
Si Si2 0.077544 0.250000 0.662011
Si Si3 0.080969 0.435413 0.106911
Si Si4 0.919118 0.072477 0.401231
Si Si5 0.081204 0.090608 0.922736
Si Si6 0.581596 0.157763 0.239724
Si Si7 0.919758 0.604320 0.442166
O O1 0.250000 0.250000 0.841052
O O2 0.013500 0.250000 0.751441
O O3 0.020691 0.172299 0.886670
O O4 0.250000 0.250000 0.665974
O O5 0.020965 0.171938 0.616836
O O6 0.250000 0.443830 0.125979
O O7 0.005899 0.520200 0.120051
O O8 0.011905 0.370256 0.164578
O O9 0.052285 0.405839 0.017114
O O10 0.750000 0.087738 0.414975
O O11 0.970997 0.109782 0.317781
O O12 0.002498 0.115457 0.472979
O O13 0.957264 0.979357 0.400865
O O14 0.250000 0.077328 0.903139
O O15 0.750000 0.140868 0.221680
O O16 0.552289 0.250000 0.254807
O O17 0.750000 0.613352 0.458134
#
# Coordination Sequence:
#
# PCOD8245049 Si02
#       7
#     4   4   8   8   8   8   8
#     4   9  18  32  57  84 105 140 184 223 261 315
#     4   9  18  30  51  82 105 128 170 217 263 313
#     4  10  21  36  56  82 112 144 180 225 277 323
#     4   9  19  35  55  76 102 139 179 217 261 319
#     4   9  19  36  59  82 108 144 185 223 266 324
#     4  10  22  37  55  80 108 143 186 226 269 322
#     4   9  18  33  53  78 105 133 169 217 268 317
#
# _framework density 18.467321999999999
#
# number of rings (size 3 to 8) (size 9 to 14) (size 15 to 20)
#    0.000    2.667    0.000    0.500    4.667    1.667 
#    0.000    0.417    0.000    1.000    0.000    0.000 
#    0.000    0.000    0.000    0.000    0.000    0.000 
#
# Total GULP energy -595335.810226 kJ/mol
# GULP energy per Si atom -12402.829380 kJ/mol
# Density = 1.842529 g / cm^3
# Si number density = 18.467322 Si / 1000 Ang^3
#
#
#
# Elastic Constant Matrix: (Units=GPa)
#
#
# Indices 1 2 3 4 5 6 
#
# 1 49.2447 38.4867 41.8311 0.0000 0.0000 0.0000
# 2 38.4867 129.4277 73.1224 0.0000 0.0000 0.0000
# 3 41.8311 73.1224 112.5022 0.0000 0.0000 0.0000
# 4 0.0000 0.0000 0.0000 37.0726 0.0000 0.0000
# 5 0.0000 0.0000 0.0000 0.0000 29.6312 0.0000
# 6 0.0000 0.0000 0.0000 0.0000 0.0000 23.3687
#
#
#
# Elastic Compliance Matrix: (Units=1/GPa)
#
#
# Indices 1 2 3 4 5 6 
#
# 1 0.031121 -0.004293 -0.008781 0.000000 0.000000 0.000000
# 2 -0.004293 0.012802 -0.006725 0.000000 0.000000 0.000000
# 3 -0.008781 -0.006725 0.016525 0.000000 0.000000 0.000000
# 4 0.000000 0.000000 0.000000 0.026974 0.000000 0.000000
# 5 0.000000 0.000000 0.000000 0.000000 0.033748 0.000000
# 6 0.000000 0.000000 0.000000 0.000000 0.000000 0.042792
#
#
# Mechanical properties :
#
#
# Convention : Reuss Voigt Hill
#
# Bulk Modulus (GPa) = 47.96183 66.45055 57.20619
# Shear Modulus (GPa) = 23.75176 27.19677 25.47426
#
# Velocity S-wave (km/s) = 3.59018 3.84174 3.71809
# Velocity P-wave (km/s) = 6.57370 7.46589 7.03395
#
# Compressibility (1/GPa) = 0.02084991
#
# Stress axis : x y z
#
# Youngs Moduli (GPa) = 32.13237 78.11205 60.51590
#
# Poissons Ratio (x) = 0.33534 0.53141
# Poissons Ratio (y) = 0.13795 0.40695
# Poissons Ratio (z) = 0.28216 0.52528
#
# Static dielectric constant tensor:
#      x y z
#    x 3.186580 0.000000 0.000000 
#    y 0.000000 3.534250 0.000000 
#    z 0.000000 0.000000 3.467960 
# 
# 
# High freq. dielectric constant tensor:
#      x y z
#    x 1.692370 0.000000 0.000000 
#    y 0.000000 1.726270 0.000000 
#    z 0.000000 0.000000 1.720930 
# 
# From -- ./inp_files/20511.got.cif
#   From: 2010.03.12/outbox.cif.g09.slc.cpg/sg59_11_cif.got.tgz:20511.got - 2010.04.16 16:29:54.
