data_PCOD8245129
_publ_section_title
;
Structure prediction by ZEFSAII (Michael W. Deem and Ramdas Pophale) SiO2 
 PCOD8245129
Probable space group: P M M N
;
_chemical_formula_sum "Si O2"
_cell_formula_units_Z 64
_cell_length_a 13.862999
_cell_length_b 9.105684
_cell_length_c 28.760168
_cell_angle_alpha 90.000000
_cell_angle_beta 90.000000
_cell_angle_gamma 90.000000
_cell_volume 3630.456063
_symmetry_space_group_name_H-M "P M M N"
_symmetry_group_IT_number 59
_space_group.IT_coordinate_system_code '2'
_symmetry_cell_setting 'orthorhombic'
loop_
_space_group_symop_operation_xyz
x,y,z
1/2-x,1/2-y,z
1/2+x,-y,-z
-x,1/2+y,-z
-x,-y,-z
1/2+x,1/2+y,-z
1/2-x,y,z
x,1/2-y,z
loop_
_atom_site_type_symbol
_atom_site_label
_atom_site_fract_x
_atom_site_fract_y
_atom_site_fract_z
Si Si1 0.364823 0.416370 0.480362
Si Si2 0.862337 0.078478 0.612457
Si Si3 0.859468 0.922205 0.978872
Si Si4 0.639086 0.079249 0.429377
Si Si5 0.976835 0.922570 0.069853
Si Si6 0.521326 0.422877 0.338650
Si Si7 0.356575 0.076568 0.844391
Si Si8 0.862590 0.919900 0.260495
O O1 0.250000 0.422456 0.482738
O O2 0.403342 0.250000 0.477221
O O3 0.400252 0.501986 0.434728
O O4 0.406922 0.493066 0.526747
O O5 0.750000 0.047998 0.620962
O O6 0.884944 0.250000 0.609067
O O7 0.919175 0.005793 0.655590
O O8 0.750000 0.979752 0.976531
O O9 0.864757 0.750000 0.970108
O O10 0.920603 0.000337 0.938431
O O11 0.902032 0.963946 0.029144
O O12 0.750000 0.035519 0.422400
O O13 0.626983 0.250000 0.440286
O O14 0.586674 0.031842 0.382407
O O15 0.995399 0.750000 0.072271
O O16 0.932380 0.985281 0.117964
O O17 0.503575 0.250000 0.335442
O O18 0.573284 0.475964 0.292262
O O19 0.250000 0.008928 0.853388
O O20 0.348491 0.250000 0.850571
O O21 0.391111 0.038863 0.792339
O O22 0.750000 0.951998 0.269222
O O23 0.885722 0.750000 0.271143
#
# Coordination Sequence:
#
# PCOD8245129 Si02
#       8
#     8   8   8   8   8   8   8   8
#     4   9  17  30  49  72  96 122 154 192 231 272
#     4  10  21  37  55  72  92 121 157 197 239 283
#     4   9  17  28  42  64  98 136 167 199 244 292
#     4   9  18  32  48  68  97 130 158 183 218 271
#     4   9  16  27  46  70  94 125 168 210 242 280
#     4  11  22  34  51  74  99 127 157 193 238 287
#     4   8  14  27  49  74  97 124 160 200 239 280
#     4   9  18  33  53  76 101 127 156 194 240 289
#
# _framework density 17.628640000000001
#
# number of rings (size 3 to 8) (size 9 to 14) (size 15 to 20)
#    0.000    2.750    0.000    2.625    0.000    6.250 
#    0.000    1.875    0.000    2.625    0.000    1.750 
#    0.000    0.000    0.000    0.000    0.000    0.000 
#
# Total GULP energy -793619.638714 kJ/mol
# GULP energy per Si atom -12400.306855 kJ/mol
# Density = 1.758852 g / cm^3
# Si number density = 17.628640 Si / 1000 Ang^3
#
#
#
# Elastic Constant Matrix: (Units=GPa)
#
#
# Indices 1 2 3 4 5 6 
#
# 1 93.5529 42.3906 61.8487 0.0000 0.0000 0.0000
# 2 42.3906 70.5915 48.1419 0.0000 0.0000 0.0000
# 3 61.8487 48.1419 117.9796 0.0000 0.0000 0.0000
# 4 0.0000 0.0000 0.0000 26.0407 0.0000 0.0000
# 5 0.0000 0.0000 0.0000 0.0000 30.5338 0.0000
# 6 0.0000 0.0000 0.0000 0.0000 0.0000 24.9582
#
#
#
# Elastic Compliance Matrix: (Units=1/GPa)
#
#
# Indices 1 2 3 4 5 6 
#
# 1 0.018065 -0.006082 -0.006989 0.000000 0.000000 0.000000
# 2 -0.006082 0.021676 -0.005656 0.000000 0.000000 0.000000
# 3 -0.006989 -0.005656 0.014448 0.000000 0.000000 0.000000
# 4 0.000000 0.000000 0.000000 0.038401 0.000000 0.000000
# 5 0.000000 0.000000 0.000000 0.000000 0.032751 0.000000
# 6 0.000000 0.000000 0.000000 0.000000 0.000000 0.040067
#
#
# Mechanical properties :
#
#
# Convention : Reuss Voigt Hill
#
# Bulk Modulus (GPa) = 59.75633 65.20957 62.48295
# Shear Modulus (GPa) = 23.98763 24.95607 24.47185
#
# Velocity S-wave (km/s) = 3.69279 3.76660 3.72988
# Velocity P-wave (km/s) = 7.22172 7.48247 7.35325
#
# Compressibility (1/GPa) = 0.01673463
#
# Stress axis : x y z
#
# Youngs Moduli (GPa) = 55.35469 46.13388 69.21484
#
# Poissons Ratio (x) = 0.28060 0.48371
# Poissons Ratio (y) = 0.33668 0.39151
# Poissons Ratio (z) = 0.38685 0.26095
#
# Static dielectric constant tensor:
#      x y z
#    x 3.321400 0.000000 0.000000 
#    y 0.000000 3.127740 0.000000 
#    z 0.000000 0.000000 3.277040 
# 
# 
# High freq. dielectric constant tensor:
#      x y z
#    x 1.679750 0.000000 0.000000 
#    y 0.000000 1.670150 0.000000 
#    z 0.000000 0.000000 1.667180 
# 
# From -- ./inp_files/33341.got.cif
#   From: 2010.03.12/outbox.cif.g09.slc.cpg/sg59_17_cif.got.tgz:33341.got - 2010.04.16 16:29:54.
