data_PCOD8245752
_publ_section_title
;
Structure prediction by ZEFSAII (Michael W. Deem and Ramdas Pophale) SiO2 
 PCOD8245752
Probable space group: P M M N
;
_chemical_formula_sum "Si O2"
_cell_formula_units_Z 64
_cell_length_a 8.820887
_cell_length_b 18.775871
_cell_length_c 20.083993
_cell_angle_alpha 90.000000
_cell_angle_beta 90.000000
_cell_angle_gamma 90.000000
_cell_volume 3326.307635
_symmetry_space_group_name_H-M "P M M N"
_symmetry_group_IT_number 59
_space_group.IT_coordinate_system_code '2'
_symmetry_cell_setting 'orthorhombic'
loop_
_space_group_symop_operation_xyz
x,y,z
1/2-x,1/2-y,z
1/2+x,-y,-z
-x,1/2+y,-z
-x,-y,-z
1/2+x,1/2+y,-z
1/2-x,y,z
x,1/2-y,z
loop_
_atom_site_type_symbol
_atom_site_label
_atom_site_fract_x
_atom_site_fract_y
_atom_site_fract_z
Si Si1 0.570620 0.928057 0.325315
Si Si2 0.070785 0.429077 0.915287
Si Si3 0.928584 0.921705 0.697408
Si Si4 0.572418 0.575495 0.935176
Si Si5 0.069731 0.330598 0.796299
Si Si6 0.076189 0.567892 0.465635
Si Si7 0.429147 0.172073 0.181969
Si Si8 0.076898 0.667981 0.585605
O O1 0.750000 0.929063 0.332182
O O2 0.516344 0.869373 0.271495
O O3 0.501317 0.909994 0.396777
O O4 0.516088 0.004533 0.300993
O O5 0.250000 0.431922 0.909297
O O6 0.005860 0.373490 0.860779
O O7 0.007813 0.507632 0.901997
O O8 0.018436 0.406631 0.989793
O O9 0.750000 0.936191 0.700794
O O10 0.992581 0.878613 0.760520
O O11 0.964925 0.876653 0.631834
O O12 0.750000 0.559412 0.933517
O O13 0.526991 0.642917 0.890660
O O14 0.250000 0.328880 0.799523
O O15 0.004650 0.250000 0.797385
O O16 0.250000 0.547276 0.451864
O O17 0.061559 0.637310 0.511469
O O18 0.000000 0.500000 0.500000
O O19 0.250000 0.177299 0.189901
O O20 0.503283 0.250000 0.189660
O O21 0.250000 0.659946 0.610850
O O22 0.025261 0.750000 0.584977
#
# Coordination Sequence:
#
# PCOD8245752 Si02
#       8
#     8   8   8   8   8   8   8   8
#     4  11  22  36  57  81 108 142 180 225 273 321
#     4   9  17  31  53  78 103 137 180 226 270 318
#     4  11  21  34  55  79 106 142 182 222 265 321
#     4   9  17  30  51  77 105 138 177 221 272 325
#     4   9  19  35  54  79 110 143 185 234 279 325
#     4  11  22  38  60  84 111 142 178 220 267 322
#     4   9  18  31  47  73 107 137 170 216 265 313
#     4  10  22  39  58  81 110 141 173 216 270 322
#
# _framework density 19.240555000000001
#
# number of rings (size 3 to 8) (size 9 to 14) (size 15 to 20)
#    0.000    2.125    1.250    2.250    0.000    2.250 
#    0.000    3.750    0.000    4.875    0.000    3.500 
#    0.000    0.000    0.000    0.000    0.000    0.000 
#
# Total GULP energy -793591.078853 kJ/mol
# GULP energy per Si atom -12399.860607 kJ/mol
# Density = 1.919676 g / cm^3
# Si number density = 19.240555 Si / 1000 Ang^3
#
#
#
# Elastic Constant Matrix: (Units=GPa)
#
#
# Indices 1 2 3 4 5 6 
#
# 1 45.9372 24.0219 29.2500 0.0000 0.0000 0.0000
# 2 24.0219 127.9469 67.7848 0.0000 0.0000 0.0000
# 3 29.2500 67.7848 139.7815 0.0000 0.0000 0.0000
# 4 0.0000 0.0000 0.0000 30.5466 0.0000 0.0000
# 5 0.0000 0.0000 0.0000 0.0000 22.4288 0.0000
# 6 0.0000 0.0000 0.0000 0.0000 0.0000 14.4849
#
#
#
# Elastic Compliance Matrix: (Units=1/GPa)
#
#
# Indices 1 2 3 4 5 6 
#
# 1 0.025774 -0.002667 -0.004100 0.000000 0.000000 0.000000
# 2 -0.002667 0.010794 -0.004676 0.000000 0.000000 0.000000
# 3 -0.004100 -0.004676 0.010280 0.000000 0.000000 0.000000
# 4 0.000000 0.000000 0.000000 0.032737 0.000000 0.000000
# 5 0.000000 0.000000 0.000000 0.000000 0.044586 0.000000
# 6 0.000000 0.000000 0.000000 0.000000 0.000000 0.069037
#
#
# Mechanical properties :
#
#
# Convention : Reuss Voigt Hill
#
# Bulk Modulus (GPa) = 41.73418 61.75320 51.74369
# Shear Modulus (GPa) = 22.31336 26.33266 24.32301
#
# Velocity S-wave (km/s) = 3.40914 3.70348 3.55935
# Velocity P-wave (km/s) = 6.10198 7.10300 6.62143
#
# Compressibility (1/GPa) = 0.02396118
#
# Stress axis : x y z
#
# Youngs Moduli (GPa) = 38.79864 92.64513 97.27942
#
# Poissons Ratio (x) = 0.24707 0.39886
# Poissons Ratio (y) = 0.10347 0.45490
# Poissons Ratio (z) = 0.15908 0.43323
#
# Static dielectric constant tensor:
#      x y z
#    x 3.309850 0.000000 0.000000 
#    y 0.000000 3.710710 0.000000 
#    z 0.000000 0.000000 3.774680 
# 
# 
# High freq. dielectric constant tensor:
#      x y z
#    x 1.723640 0.000000 0.000000 
#    y 0.000000 1.750380 0.000000 
#    z 0.000000 0.000000 1.763220 
# 
# From -- ./inp_files/29547.got.cif
#   From: 2010.03.12/outbox.cif.g09.slc.cpg/sg59_15_cif.got.tgz:29547.got - 2010.04.16 16:29:54.
