data_PCOD8245072
_publ_section_title
;
Structure prediction by ZEFSAII (Michael W. Deem and Ramdas Pophale) SiO2 
 PCOD8245072
Probable space group: P M M N
;
_chemical_formula_sum "Si O2"
_cell_formula_units_Z 48
_cell_length_a 9.647379
_cell_length_b 8.881474
_cell_length_c 28.657736
_cell_angle_alpha 90.000000
_cell_angle_beta 90.000000
_cell_angle_gamma 90.000000
_cell_volume 2455.479239
_symmetry_space_group_name_H-M "P M M N"
_symmetry_group_IT_number 59
_space_group.IT_coordinate_system_code '2'
_symmetry_cell_setting 'orthorhombic'
loop_
_space_group_symop_operation_xyz
x,y,z
1/2-x,1/2-y,z
1/2+x,-y,-z
-x,1/2+y,-z
-x,-y,-z
1/2+x,1/2+y,-z
1/2-x,y,z
x,1/2-y,z
loop_
_atom_site_type_symbol
_atom_site_label
_atom_site_fract_x
_atom_site_fract_y
_atom_site_fract_z
Si Si1 0.022587 0.928363 0.104635
Si Si2 0.595351 0.576525 0.801048
Si Si3 0.590965 0.926482 0.539682
Si Si4 0.250000 0.571540 0.928336
Si Si5 0.908690 0.425400 0.635604
Si Si6 0.911777 0.573672 0.276006
Si Si7 0.750000 0.071986 0.967086
O O1 0.001676 0.750000 0.105147
O O2 0.114591 0.982495 0.060755
O O3 0.878428 0.012367 0.100731
O O4 0.094579 0.978765 0.152140
O O5 0.750000 0.559038 0.779211
O O6 0.563179 0.750000 0.812794
O O7 0.478488 0.517409 0.766226
O O8 0.750000 0.972186 0.530867
O O9 0.568380 0.750000 0.538204
O O10 0.500000 0.000000 0.500000
O O11 0.542344 0.985374 0.589993
O O12 0.250000 0.750000 0.929584
O O13 0.250000 0.502947 0.980900
O O14 0.750000 0.465295 0.649211
O O15 0.924874 0.250000 0.624666
O O16 0.010236 0.476194 0.676957
O O17 0.750000 0.532188 0.280310
O O18 0.933267 0.750000 0.266404
O O19 0.750000 0.250000 0.969789
#
# Coordination Sequence:
#
# PCOD8245072 Si02
#       7
#     8   8   8   4   8   8   4
#     4  11  22  40  63  88 116 154 197 237 285 346
#     4  11  24  41  61  86 115 151 194 242 295 347
#     4  10  21  36  56  84 118 157 200 246 295 347
#     4  11  23  39  59  89 125 155 187 237 292 341
#     4   9  18  35  58  83 115 156 200 243 290 346
#     4  10  22  39  61  89 119 152 191 237 291 352
#     4   9  20  39  63  89 117 151 197 241 282 339
#
# _framework density 19.548117999999999
#
# number of rings (size 3 to 8) (size 9 to 14) (size 15 to 20)
#    0.000    1.833    0.833    2.750    1.167    4.333 
#    0.000    5.833    0.000    0.000    0.000    0.000 
#    0.000    0.000    0.000    0.000    0.000    0.000 
#
# Total GULP energy -595363.745685 kJ/mol
# GULP energy per Si atom -12403.411368 kJ/mol
# Density = 1.950363 g / cm^3
# Si number density = 19.548118 Si / 1000 Ang^3
#
#
#
# Elastic Constant Matrix: (Units=GPa)
#
#
# Indices 1 2 3 4 5 6 
#
# 1 119.5308 37.9395 50.3265 0.0000 0.0000 0.0000
# 2 37.9395 68.8845 39.8479 0.0000 0.0000 0.0000
# 3 50.3265 39.8479 109.8926 0.0000 0.0000 0.0000
# 4 0.0000 0.0000 0.0000 33.9409 0.0000 0.0000
# 5 0.0000 0.0000 0.0000 0.0000 37.9988 0.0000
# 6 0.0000 0.0000 0.0000 0.0000 0.0000 24.7120
#
#
#
# Elastic Compliance Matrix: (Units=1/GPa)
#
#
# Indices 1 2 3 4 5 6 
#
# 1 0.011191 -0.004048 -0.003657 0.000000 0.000000 0.000000
# 2 -0.004048 0.019835 -0.005338 0.000000 0.000000 0.000000
# 3 -0.003657 -0.005338 0.012710 0.000000 0.000000 0.000000
# 4 0.000000 0.000000 0.000000 0.029463 0.000000 0.000000
# 5 0.000000 0.000000 0.000000 0.000000 0.026317 0.000000
# 6 0.000000 0.000000 0.000000 0.000000 0.000000 0.040466
#
#
# Mechanical properties :
#
#
# Convention : Reuss Voigt Hill
#
# Bulk Modulus (GPa) = 56.66102 61.61509 59.13805
# Shear Modulus (GPa) = 29.07804 30.67661 29.87732
#
# Velocity S-wave (km/s) = 3.86101 3.96572 3.91372
# Velocity P-wave (km/s) = 6.99463 7.24965 7.12328
#
# Compressibility (1/GPa) = 0.01764882
#
# Stress axis : x y z
#
# Youngs Moduli (GPa) = 89.36054 50.41676 78.67622
#
# Poissons Ratio (x) = 0.20408 0.28772
# Poissons Ratio (y) = 0.36173 0.42000
# Poissons Ratio (z) = 0.32680 0.26914
#
# Static dielectric constant tensor:
#      x y z
#    x 3.634600 0.000000 0.000000 
#    y 0.000000 3.490870 0.000000 
#    z 0.000000 0.000000 3.640630 
# 
# 
# High freq. dielectric constant tensor:
#      x y z
#    x 1.769500 0.000000 0.000000 
#    y 0.000000 1.757740 0.000000 
#    z 0.000000 0.000000 1.766720 
# 
# From -- ./inp_files/33085.got.cif
#   From: 2010.03.12/outbox.cif.g09.slc.cpg/sg59_17_cif.got.tgz:33085.got - 2010.04.16 16:29:54.
