data_PCOD8245047
_publ_section_title
;
Structure prediction by ZEFSAII (Michael W. Deem and Ramdas Pophale) SiO2 
 PCOD8245047
Probable space group: P M M N
;
_chemical_formula_sum "Si O2"
_cell_formula_units_Z 56
_cell_length_a 9.152678
_cell_length_b 14.633540
_cell_length_c 21.252532
_cell_angle_alpha 90.000000
_cell_angle_beta 90.000000
_cell_angle_gamma 90.000000
_cell_volume 2846.480818
_symmetry_space_group_name_H-M "P M M N"
_symmetry_group_IT_number 59
_space_group.IT_coordinate_system_code '2'
_symmetry_cell_setting 'orthorhombic'
loop_
_space_group_symop_operation_xyz
x,y,z
1/2-x,1/2-y,z
1/2+x,-y,-z
-x,1/2+y,-z
-x,-y,-z
1/2+x,1/2+y,-z
1/2-x,y,z
x,1/2-y,z
loop_
_atom_site_type_symbol
_atom_site_label
_atom_site_fract_x
_atom_site_fract_y
_atom_site_fract_z
Si Si1 0.580196 0.643687 0.156272
Si Si2 0.919950 0.530922 0.411959
Si Si3 0.922340 0.646848 0.788868
Si Si4 0.080453 0.486213 0.730376
Si Si5 0.078168 0.854294 0.513097
Si Si6 0.076965 0.911703 0.030032
Si Si7 0.906845 0.649745 0.923433
O O1 0.750000 0.627517 0.139430
O O2 0.547651 0.750000 0.167597
O O3 0.532690 0.590917 0.219404
O O4 0.481874 0.607916 0.099045
O O5 0.750000 0.545609 0.425979
O O6 0.958015 0.548482 0.339177
O O7 0.964952 0.426759 0.431835
O O8 0.006119 0.609121 0.449112
O O9 0.750000 0.642143 0.779313
O O10 0.981406 0.750000 0.778187
O O11 0.964985 0.604322 0.858607
O O12 0.997753 0.581509 0.738900
O O13 0.250000 0.508058 0.737333
O O14 0.250000 0.853102 0.502311
O O15 0.024226 0.750000 0.528674
O O16 0.250000 0.917241 0.032073
O O17 0.023930 0.837545 0.979320
O O18 0.000000 0.000000 0.000000
O O19 0.750000 0.604189 0.945330
O O20 0.867749 0.750000 0.899223
#
# Coordination Sequence:
#
# PCOD8245047 Si02
#       7
#     8   8   8   8   8   8   8
#     4  10  22  40  58  78 110 149 187 230 280 332
#     4   9  19  35  55  82 114 145 181 225 270 318
#     4   9  19  35  54  78 109 145 183 225 278 337
#     4  10  21  36  56  82 110 145 187 227 270 322
#     4   9  18  34  56  82 113 147 181 219 266 319
#     4  12  24  36  53  77 103 133 176 228 281 334
#     4   9  18  34  54  74  99 131 166 210 268 325
#
# _framework density 19.673416
#
# number of rings (size 3 to 8) (size 9 to 14) (size 15 to 20)
#    0.000    2.286    0.000    3.429    0.000    8.000 
#    0.000    4.286    0.000    0.000    0.000    0.000 
#    0.000    0.000    0.000    0.000    0.000    0.000 
#
# Total GULP energy -693822.248192 kJ/mol
# GULP energy per Si atom -12389.683003 kJ/mol
# Density = 1.962864 g / cm^3
# Si number density = 19.673416 Si / 1000 Ang^3
#
#
#
# Elastic Constant Matrix: (Units=GPa)
#
#
# Indices 1 2 3 4 5 6 
#
# 1 67.5537 30.9504 39.6836 0.0000 0.0000 0.0000
# 2 30.9504 102.6622 31.8744 0.0000 0.0000 0.0000
# 3 39.6836 31.8744 98.4474 0.0000 0.0000 0.0000
# 4 0.0000 0.0000 0.0000 22.5864 0.0000 0.0000
# 5 0.0000 0.0000 0.0000 0.0000 28.3880 0.0000
# 6 0.0000 0.0000 0.0000 0.0000 0.0000 25.5042
#
#
#
# Elastic Compliance Matrix: (Units=1/GPa)
#
#
# Indices 1 2 3 4 5 6 
#
# 1 0.020829 -0.004083 -0.007074 0.000000 0.000000 0.000000
# 2 -0.004083 0.011630 -0.002119 0.000000 0.000000 0.000000
# 3 -0.007074 -0.002119 0.013695 0.000000 0.000000 0.000000
# 4 0.000000 0.000000 0.000000 0.044274 0.000000 0.000000
# 5 0.000000 0.000000 0.000000 0.000000 0.035226 0.000000
# 6 0.000000 0.000000 0.000000 0.000000 0.000000 0.039209
#
#
# Mechanical properties :
#
#
# Convention : Reuss Voigt Hill
#
# Bulk Modulus (GPa) = 51.01799 52.63112 51.82456
# Shear Modulus (GPa) = 25.25868 26.37273 25.81570
#
# Velocity S-wave (km/s) = 3.58704 3.66529 3.62638
# Velocity P-wave (km/s) = 6.56845 6.68752 6.62825
#
# Compressibility (1/GPa) = 0.01960093
#
# Stress axis : x y z
#
# Youngs Moduli (GPa) = 48.00898 85.98658 73.01669
#
# Poissons Ratio (x) = 0.35110 0.51653
# Poissons Ratio (y) = 0.19603 0.15476
# Poissons Ratio (z) = 0.33962 0.18224
#
# Static dielectric constant tensor:
#      x y z
#    x 3.210330 0.000000 0.000000 
#    y 0.000000 3.751290 0.000000 
#    z 0.000000 0.000000 3.185300 
# 
# 
# High freq. dielectric constant tensor:
#      x y z
#    x 1.755720 0.000000 0.000000 
#    y 0.000000 1.774830 0.000000 
#    z 0.000000 0.000000 1.763670 
# 
# From -- ./inp_files/29059.got.cif
#   From: 2010.03.12/outbox.cif.g09.slc.cpg/sg59_15_cif.got.tgz:29059.got - 2010.04.16 16:29:54.
