data_PCOD8245835
_publ_section_title
;
Structure prediction by ZEFSAII (Michael W. Deem and Ramdas Pophale) SiO2 
 PCOD8245835
Probable space group: P M M N
;
_chemical_formula_sum "Si O2"
_cell_formula_units_Z 40
_cell_length_a 16.194517
_cell_length_b 8.625547
_cell_length_c 13.832909
_cell_angle_alpha 90.000000
_cell_angle_beta 90.000000
_cell_angle_gamma 90.000000
_cell_volume 1932.271577
_symmetry_space_group_name_H-M "P M M N"
_symmetry_group_IT_number 59
_space_group.IT_coordinate_system_code '2'
_symmetry_cell_setting 'orthorhombic'
loop_
_space_group_symop_operation_xyz
x,y,z
1/2-x,1/2-y,z
1/2+x,-y,-z
-x,1/2+y,-z
-x,-y,-z
1/2+x,1/2+y,-z
1/2-x,y,z
x,1/2-y,z
loop_
_atom_site_type_symbol
_atom_site_label
_atom_site_fract_x
_atom_site_fract_y
_atom_site_fract_z
Si Si1 0.429361 0.068598 0.223487
Si Si2 0.250000 0.066243 0.753126
Si Si3 0.078426 0.066005 0.443249
Si Si4 0.590276 0.932054 0.133328
Si Si5 0.250000 0.434554 0.535829
Si Si6 0.844885 0.072669 0.947602
O O1 0.412106 0.250000 0.220738
O O2 0.426556 0.007133 0.333082
O O3 0.516384 0.029778 0.176413
O O4 0.358320 0.984241 0.161886
O O5 0.250000 0.250000 0.751503
O O6 0.169885 0.006357 0.809225
O O7 0.250000 0.999580 0.644753
O O8 0.074034 0.250000 0.450788
O O9 0.166055 0.004156 0.485095
O O10 0.000000 0.000000 0.500000
O O11 0.574059 0.750000 0.147244
O O12 0.600576 0.968970 0.020005
O O13 0.250000 0.250000 0.534327
O O14 0.750000 0.051525 0.975052
O O15 0.873599 0.250000 0.956939
#
# Coordination Sequence:
#
# PCOD8245835 Si02
#       6
#     8   4   8   8   4   8
#     4  11  24  39  60  89 122 163 205 248 302 361
#     4   9  18  32  58  89 114 150 199 247 300 357
#     4  10  22  40  64  91 124 162 207 258 309 363
#     4  11  21  38  62  89 120 158 202 252 303 361
#     4   9  18  36  60  87 118 158 203 249 302 365
#     4  11  24  41  61  88 122 160 199 249 305 363
#
# _framework density 20.701021999999998
#
# number of rings (size 3 to 8) (size 9 to 14) (size 15 to 20)
#    0.000    1.600    1.000    3.600    1.400    4.400 
#    0.000    0.500    0.000    3.600    0.000    0.000 
#    0.000    0.000    0.000    0.000    0.000    0.000 
#
# Total GULP energy -496116.346029 kJ/mol
# GULP energy per Si atom -12402.908651 kJ/mol
# Density = 2.065391 g / cm^3
# Si number density = 20.701022 Si / 1000 Ang^3
#
#
#
# Elastic Constant Matrix: (Units=GPa)
#
#
# Indices 1 2 3 4 5 6 
#
# 1 108.4552 16.5788 47.9674 0.0000 0.0000 0.0000
# 2 16.5788 36.7579 19.4916 0.0000 0.0000 0.0000
# 3 47.9674 19.4916 159.9524 0.0000 0.0000 0.0000
# 4 0.0000 0.0000 0.0000 26.1881 0.0000 0.0000
# 5 0.0000 0.0000 0.0000 0.0000 32.0675 0.0000
# 6 0.0000 0.0000 0.0000 0.0000 0.0000 18.7447
#
#
#
# Elastic Compliance Matrix: (Units=1/GPa)
#
#
# Indices 1 2 3 4 5 6 
#
# 1 0.011023 -0.003441 -0.002886 0.000000 0.000000 0.000000
# 2 -0.003441 0.030159 -0.002643 0.000000 0.000000 0.000000
# 3 -0.002886 -0.002643 0.007440 0.000000 0.000000 0.000000
# 4 0.000000 0.000000 0.000000 0.038185 0.000000 0.000000
# 5 0.000000 0.000000 0.000000 0.000000 0.031184 0.000000
# 6 0.000000 0.000000 0.000000 0.000000 0.000000 0.053348
#
#
# Mechanical properties :
#
#
# Convention : Reuss Voigt Hill
#
# Bulk Modulus (GPa) = 32.59454 52.58235 42.58844
# Shear Modulus (GPa) = 25.06178 30.14190 27.60184
#
# Velocity S-wave (km/s) = 3.48322 3.81997 3.65548
# Velocity P-wave (km/s) = 5.65302 6.70166 6.19955
#
# Compressibility (1/GPa) = 0.03067999
#
# Stress axis : x y z
#
# Youngs Moduli (GPa) = 90.71971 33.15790 134.41747
#
# Poissons Ratio (x) = 0.11410 0.38797
# Poissons Ratio (y) = 0.31218 0.35529
# Poissons Ratio (z) = 0.26184 0.08764
#
# Static dielectric constant tensor:
#      x y z
#    x 3.878960 0.000000 0.000000 
#    y 0.000000 3.471520 0.000000 
#    z 0.000000 0.000000 4.025170 
# 
# 
# High freq. dielectric constant tensor:
#      x y z
#    x 1.823510 0.000000 0.000000 
#    y 0.000000 1.788030 0.000000 
#    z 0.000000 0.000000 1.825410 
# 
# From -- ./inp_files/22997.got.cif
#   From: 2010.03.12/outbox.cif.g09.slc.cpg/sg59_12_cif.got.tgz:22997.got - 2010.04.16 16:29:54.
