data_PCOD8245461
_publ_section_title
;
Structure prediction by ZEFSAII (Michael W. Deem and Ramdas Pophale) SiO2 
 PCOD8245461
Probable space group: P M M N
;
_chemical_formula_sum "Si O2"
_cell_formula_units_Z 64
_cell_length_a 8.754261
_cell_length_b 15.099007
_cell_length_c 23.913988
_cell_angle_alpha 90.000000
_cell_angle_beta 90.000000
_cell_angle_gamma 90.000000
_cell_volume 3160.966433
_symmetry_space_group_name_H-M "P M M N"
_symmetry_group_IT_number 59
_space_group.IT_coordinate_system_code '2'
_symmetry_cell_setting 'orthorhombic'
loop_
_space_group_symop_operation_xyz
x,y,z
1/2-x,1/2-y,z
1/2+x,-y,-z
-x,1/2+y,-z
-x,-y,-z
1/2+x,1/2+y,-z
1/2-x,y,z
x,1/2-y,z
loop_
_atom_site_type_symbol
_atom_site_label
_atom_site_fract_x
_atom_site_fract_y
_atom_site_fract_z
Si Si1 0.570961 0.901694 0.883128
Si Si2 0.430658 0.147427 0.497264
Si Si3 0.572246 0.583817 0.105042
Si Si4 0.924250 0.347916 0.790413
Si Si5 0.422081 0.850404 0.995930
Si Si6 0.069912 0.512898 0.419509
Si Si7 0.922706 0.347444 0.224537
Si Si8 0.930784 0.000470 0.707618
O O1 0.750000 0.922283 0.882517
O O2 0.526969 0.857342 0.941583
O O3 0.524579 0.840006 0.831610
O O4 0.472990 0.989040 0.870907
O O5 0.250000 0.151447 0.501922
O O6 0.492242 0.250000 0.490509
O O7 0.480892 0.082199 0.446110
O O8 0.494678 0.099563 0.552573
O O9 0.750000 0.594937 0.093582
O O10 0.519918 0.653029 0.152030
O O11 0.486942 0.591104 0.045923
O O12 0.750000 0.371587 0.805920
O O13 0.937184 0.250000 0.764071
O O14 0.988048 0.416513 0.744679
O O15 0.250000 0.882547 0.981703
O O16 0.422793 0.750000 0.017101
O O17 0.250000 0.524377 0.425310
O O18 0.014676 0.514392 0.355630
O O19 0.750000 0.376430 0.209354
O O20 0.924452 0.250000 0.251764
O O21 0.992850 0.411941 0.270183
O O22 0.750000 0.989639 0.711139
#
# Coordination Sequence:
#
# PCOD8245461 Si02
#       8
#     8   8   8   8   8   8   8   8
#     4  12  24  40  62  86 114 149 193 243 298 358
#     4   9  18  34  56  84 121 163 202 245 297 348
#     4  12  24  39  60  85 114 149 193 243 297 359
#     4  10  21  38  59  84 116 154 196 245 301 358
#     4  11  24  41  60  84 115 149 188 239 298 359
#     4   9  19  35  57  87 120 156 202 251 295 344
#     4  11  24  41  61  87 120 157 196 243 299 356
#     4  10  21  38  61  88 119 158 202 247 295 350
#
# _framework density 20.246974000000002
#
# number of rings (size 3 to 8) (size 9 to 14) (size 15 to 20)
#    0.000    1.500    1.250    4.125    0.000    7.000 
#    0.000    2.500    0.000    0.000    0.000    0.000 
#    0.000    0.000    0.000    0.000    0.000    0.000 
#
# Total GULP energy -793606.749793 kJ/mol
# GULP energy per Si atom -12400.105466 kJ/mol
# Density = 2.020089 g / cm^3
# Si number density = 20.246974 Si / 1000 Ang^3
#
#
#
# Elastic Constant Matrix: (Units=GPa)
#
#
# Indices 1 2 3 4 5 6 
#
# 1 59.5144 24.8496 34.5234 0.0000 0.0000 0.0000
# 2 24.8496 118.1195 43.3243 0.0000 0.0000 0.0000
# 3 34.5234 43.3243 132.8668 0.0000 0.0000 0.0000
# 4 0.0000 0.0000 0.0000 14.3494 0.0000 0.0000
# 5 0.0000 0.0000 0.0000 0.0000 27.4066 0.0000
# 6 0.0000 0.0000 0.0000 0.0000 0.0000 29.4988
#
#
#
# Elastic Compliance Matrix: (Units=1/GPa)
#
#
# Indices 1 2 3 4 5 6 
#
# 1 0.020506 -0.002680 -0.004454 0.000000 0.000000 0.000000
# 2 -0.002680 0.009966 -0.002553 0.000000 0.000000 0.000000
# 3 -0.004454 -0.002553 0.009516 0.000000 0.000000 0.000000
# 4 0.000000 0.000000 0.000000 0.069689 0.000000 0.000000
# 5 0.000000 0.000000 0.000000 0.000000 0.036488 0.000000
# 6 0.000000 0.000000 0.000000 0.000000 0.000000 0.033900
#
#
# Mechanical properties :
#
#
# Convention : Reuss Voigt Hill
#
# Bulk Modulus (GPa) = 48.51350 57.32172 52.91761
# Shear Modulus (GPa) = 24.23527 28.10451 26.16989
#
# Velocity S-wave (km/s) = 3.46350 3.72974 3.59908
# Velocity P-wave (km/s) = 6.32513 6.84987 6.59272
#
# Compressibility (1/GPa) = 0.02061282
#
# Stress axis : x y z
#
# Youngs Moduli (GPa) = 48.76734 100.33727 105.08344
#
# Poissons Ratio (x) = 0.26892 0.46805
# Poissons Ratio (y) = 0.13071 0.26832
# Poissons Ratio (z) = 0.21722 0.25620
#
# Static dielectric constant tensor:
#      x y z
#    x 3.627000 0.000000 0.000000 
#    y 0.000000 3.807040 0.000000 
#    z 0.000000 0.000000 3.610940 
# 
# 
# High freq. dielectric constant tensor:
#      x y z
#    x 1.786470 0.000000 0.000000 
#    y 0.000000 1.801630 0.000000 
#    z 0.000000 0.000000 1.783410 
# 
# From -- ./inp_files/31457.got.cif
#   From: 2010.03.12/outbox.cif.g09.slc.cpg/sg59_16_cif.got.tgz:31457.got - 2010.04.16 16:29:54.
