data_PCOD8245042
_publ_section_title
;
Structure prediction by ZEFSAII (Michael W. Deem and Ramdas Pophale) SiO2 
 PCOD8245042
Probable space group: P M M N
;
_chemical_formula_sum "Si O2"
_cell_formula_units_Z 48
_cell_length_a 9.215512
_cell_length_b 16.870796
_cell_length_c 16.774579
_cell_angle_alpha 90.000000
_cell_angle_beta 90.000000
_cell_angle_gamma 90.000000
_cell_volume 2607.994506
_symmetry_space_group_name_H-M "P M M N"
_symmetry_group_IT_number 59
_space_group.IT_coordinate_system_code '2'
_symmetry_cell_setting 'orthorhombic'
loop_
_space_group_symop_operation_xyz
x,y,z
1/2-x,1/2-y,z
1/2+x,-y,-z
-x,1/2+y,-z
-x,-y,-z
1/2+x,1/2+y,-z
1/2-x,y,z
x,1/2-y,z
loop_
_atom_site_type_symbol
_atom_site_label
_atom_site_fract_x
_atom_site_fract_y
_atom_site_fract_z
Si Si1 0.076874 0.250000 0.839433
Si Si2 0.077985 0.250000 0.661233
Si Si3 0.082074 0.439044 0.103394
Si Si4 0.919566 0.073615 0.399195
Si Si5 0.079609 0.093169 0.924494
Si Si6 0.419054 0.158338 0.257667
Si Si7 0.919127 0.603888 0.443223
O O1 0.250000 0.250000 0.839703
O O2 0.013079 0.250000 0.750049
O O3 0.017708 0.172721 0.884720
O O4 0.250000 0.250000 0.665979
O O5 0.023626 0.171597 0.616015
O O6 0.250000 0.462362 0.105148
O O7 0.044534 0.373646 0.169578
O O8 0.992841 0.518859 0.119838
O O9 0.038281 0.403109 0.017746
O O10 0.750000 0.092875 0.400831
O O11 0.987598 0.108583 0.319641
O O12 0.992738 0.114378 0.475378
O O13 0.950249 0.979712 0.400797
O O14 0.250000 0.085097 0.911090
O O15 0.250000 0.147409 0.278039
O O16 0.464786 0.250000 0.261145
O O17 0.750000 0.613923 0.464012
#
# Coordination Sequence:
#
# PCOD8245042 Si02
#       7
#     4   4   8   8   8   8   8
#     4   9  18  30  53  84 107 134 176 221 257 303
#     4   9  18  32  53  80 105 134 176 215 253 309
#     4   9  19  35  54  78 107 141 178 218 265 314
#     4  10  21  36  56  81 109 137 174 222 270 315
#     4   9  18  33  56  81 107 139 177 219 264 312
#     4  10  22  37  55  77 106 143 183 221 262 316
#     4   9  19  36  57  78 105 142 177 212 261 321
#
# _framework density 18.404945999999999
#
# number of rings (size 3 to 8) (size 9 to 14) (size 15 to 20)
#    0.000    2.667    0.000    0.500    4.667    1.667 
#    0.000    0.417    0.000    1.000    0.000    0.000 
#    0.000    0.000    0.000    0.000    0.000    0.000 
#
# Total GULP energy -595301.405392 kJ/mol
# GULP energy per Si atom -12402.112612 kJ/mol
# Density = 1.836306 g / cm^3
# Si number density = 18.404946 Si / 1000 Ang^3
#
#
#
# Elastic Constant Matrix: (Units=GPa)
#
#
# Indices 1 2 3 4 5 6 
#
# 1 46.7642 37.2043 42.1739 0.0000 0.0000 0.0000
# 2 37.2043 126.0868 74.2603 0.0000 0.0000 0.0000
# 3 42.1739 74.2603 123.8064 0.0000 0.0000 0.0000
# 4 0.0000 0.0000 0.0000 35.2524 0.0000 0.0000
# 5 0.0000 0.0000 0.0000 0.0000 24.9321 0.0000
# 6 0.0000 0.0000 0.0000 0.0000 0.0000 25.7567
#
#
#
# Elastic Compliance Matrix: (Units=1/GPa)
#
#
# Indices 1 2 3 4 5 6 
#
# 1 0.032617 -0.004763 -0.008254 0.000000 0.000000 0.000000
# 2 -0.004763 0.012959 -0.006150 0.000000 0.000000 0.000000
# 3 -0.008254 -0.006150 0.014578 0.000000 0.000000 0.000000
# 4 0.000000 0.000000 0.000000 0.028367 0.000000 0.000000
# 5 0.000000 0.000000 0.000000 0.000000 0.040109 0.000000
# 6 0.000000 0.000000 0.000000 0.000000 0.000000 0.038825
#
#
# Mechanical properties :
#
#
# Convention : Reuss Voigt Hill
#
# Bulk Modulus (GPa) = 45.83149 67.10383 56.46766
# Shear Modulus (GPa) = 23.46745 26.72286 25.09515
#
# Velocity S-wave (km/s) = 3.57467 3.81457 3.69657
# Velocity P-wave (km/s) = 6.48024 7.47931 6.99763
#
# Compressibility (1/GPa) = 0.02181906
#
# Stress axis : x y z
#
# Youngs Moduli (GPa) = 30.65902 77.16793 68.59771
#
# Poissons Ratio (x) = 0.36755 0.56619
# Poissons Ratio (y) = 0.14603 0.42190
# Poissons Ratio (z) = 0.25305 0.47461
#
# Static dielectric constant tensor:
#      x y z
#    x 3.188280 0.000000 0.000000 
#    y 0.000000 3.524390 0.000000 
#    z 0.000000 0.000000 3.502200 
# 
# 
# High freq. dielectric constant tensor:
#      x y z
#    x 1.690490 0.000000 0.000000 
#    y 0.000000 1.721220 0.000000 
#    z 0.000000 0.000000 1.721170 
# 
# From -- ./inp_files/20588.got.cif
#   From: 2010.03.12/outbox.cif.g09.slc.cpg/sg59_11_cif.got.tgz:20588.got - 2010.04.16 16:29:54.
