data_PCOD8245833
_publ_section_title
;
Structure prediction by ZEFSAII (Michael W. Deem and Ramdas Pophale) SiO2 
 PCOD8245833
Probable space group: P M M N
;
_chemical_formula_sum "Si O2"
_cell_formula_units_Z 48
_cell_length_a 8.603837
_cell_length_b 14.633323
_cell_length_c 19.489257
_cell_angle_alpha 90.000000
_cell_angle_beta 90.000000
_cell_angle_gamma 90.000000
_cell_volume 2453.750581
_symmetry_space_group_name_H-M "P M M N"
_symmetry_group_IT_number 59
_space_group.IT_coordinate_system_code '2'
_symmetry_cell_setting 'orthorhombic'
loop_
_space_group_symop_operation_xyz
x,y,z
1/2-x,1/2-y,z
1/2+x,-y,-z
-x,1/2+y,-z
-x,-y,-z
1/2+x,1/2+y,-z
1/2-x,y,z
x,1/2-y,z
loop_
_atom_site_type_symbol
_atom_site_label
_atom_site_fract_x
_atom_site_fract_y
_atom_site_fract_z
Si Si1 0.570457 0.250000 0.619039
Si Si2 0.934575 0.350357 0.087695
Si Si3 0.431139 0.018905 0.824950
Si Si4 0.926193 0.142763 0.934964
Si Si5 0.431669 0.250000 0.471503
Si Si6 0.070270 0.556421 0.320012
Si Si7 0.068310 0.941372 0.561866
O O1 0.750000 0.250000 0.595621
O O2 0.464486 0.250000 0.552192
O O3 0.529574 0.338411 0.664037
O O4 0.750000 0.346238 0.084968
O O5 0.000790 0.250000 0.107386
O O6 0.991103 0.422630 0.144097
O O7 0.990286 0.379290 0.011441
O O8 0.250000 0.016006 0.805381
O O9 0.458370 0.096592 0.881224
O O10 0.533173 0.038706 0.758710
O O11 0.750000 0.106096 0.924987
O O12 0.930167 0.250000 0.921442
O O13 0.250000 0.250000 0.458786
O O14 0.501412 0.160496 0.435903
O O15 0.250000 0.535908 0.334975
O O16 0.967612 0.489642 0.366352
O O17 0.250000 0.934833 0.549852
O O18 0.000000 0.000000 0.500000
#
# Coordination Sequence:
#
# PCOD8245833 Si02
#       7
#     4   8   8   8   4   8   8
#     4  10  22  40  64  88 116 157 202 245 298 356
#     4   8  16  34  58  81 108 148 195 241 289 352
#     4  11  22  35  55  85 118 151 191 241 300 354
#     4   9  18  34  57  82 110 149 195 237 288 353
#     4  12  24  40  68  98 124 159 202 251 300 352
#     4  11  24  42  62  87 122 161 202 245 296 359
#     4  12  24  42  66  95 127 160 202 249 302 360
#
# _framework density 19.561889999999998
#
# number of rings (size 3 to 8) (size 9 to 14) (size 15 to 20)
#    0.000    1.667    1.667    4.750    1.167    1.000 
#    1.500    0.833    0.000    3.500    0.000    0.000 
#    0.000    0.000    0.000    0.000    0.000    0.000 
#
# Total GULP energy -595339.306150 kJ/mol
# GULP energy per Si atom -12402.902211 kJ/mol
# Density = 1.951737 g / cm^3
# Si number density = 19.561890 Si / 1000 Ang^3
#
#
#
# Elastic Constant Matrix: (Units=GPa)
#
#
# Indices 1 2 3 4 5 6 
#
# 1 87.5957 44.8259 24.5986 0.0000 0.0000 0.0000
# 2 44.8259 139.7099 66.2723 0.0000 0.0000 0.0000
# 3 24.5986 66.2723 106.5704 0.0000 0.0000 0.0000
# 4 0.0000 0.0000 0.0000 13.8474 0.0000 0.0000
# 5 0.0000 0.0000 0.0000 0.0000 26.9621 0.0000
# 6 0.0000 0.0000 0.0000 0.0000 0.0000 27.5589
#
#
#
# Elastic Compliance Matrix: (Units=1/GPa)
#
#
# Indices 1 2 3 4 5 6 
#
# 1 0.013686 -0.004103 -0.000608 0.000000 0.000000 0.000000
# 2 -0.004103 0.011383 -0.006131 0.000000 0.000000 0.000000
# 3 -0.000608 -0.006131 0.013337 0.000000 0.000000 0.000000
# 4 0.000000 0.000000 0.000000 0.072215 0.000000 0.000000
# 5 0.000000 0.000000 0.000000 0.000000 0.037089 0.000000
# 6 0.000000 0.000000 0.000000 0.000000 0.000000 0.036286
#
#
# Mechanical properties :
#
#
# Convention : Reuss Voigt Hill
#
# Bulk Modulus (GPa) = 59.80283 67.25218 63.52750
# Shear Modulus (GPa) = 23.66820 26.88564 25.27692
#
# Velocity S-wave (km/s) = 3.48216 3.71130 3.59855
# Velocity P-wave (km/s) = 6.84139 7.26765 7.05774
#
# Compressibility (1/GPa) = 0.01672162
#
# Stress axis : x y z
#
# Youngs Moduli (GPa) = 73.06526 87.85327 74.98177
#
# Poissons Ratio (x) = 0.36047 0.04555
# Poissons Ratio (y) = 0.29979 0.45974
# Poissons Ratio (z) = 0.04439 0.53866
#
# Static dielectric constant tensor:
#      x y z
#    x 3.493040 0.000000 0.000000 
#    y 0.000000 3.963260 0.000000 
#    z 0.000000 0.000000 3.502480 
# 
# 
# High freq. dielectric constant tensor:
#      x y z
#    x 1.752560 0.000000 0.000000 
#    y 0.000000 1.775610 0.000000 
#    z 0.000000 0.000000 1.757830 
# 
# From -- ./inp_files/25600.got.cif
#   From: 2010.03.12/outbox.cif.g09.slc.cpg/sg59_13_cif.got.tgz:25600.got - 2010.04.16 16:29:54.
