data_PCOD8245466
_publ_section_title
;
Structure prediction by ZEFSAII (Michael W. Deem and Ramdas Pophale) SiO2 
 PCOD8245466
Probable space group: P M M N
;
_chemical_formula_sum "Si O2"
_cell_formula_units_Z 48
_cell_length_a 8.681260
_cell_length_b 14.561562
_cell_length_c 20.212473
_cell_angle_alpha 90.000000
_cell_angle_beta 90.000000
_cell_angle_gamma 90.000000
_cell_volume 2555.113401
_symmetry_space_group_name_H-M "P M M N"
_symmetry_group_IT_number 59
_space_group.IT_coordinate_system_code '2'
_symmetry_cell_setting 'orthorhombic'
loop_
_space_group_symop_operation_xyz
x,y,z
1/2-x,1/2-y,z
1/2+x,-y,-z
-x,1/2+y,-z
-x,-y,-z
1/2+x,1/2+y,-z
1/2-x,y,z
x,1/2-y,z
loop_
_atom_site_type_symbol
_atom_site_label
_atom_site_fract_x
_atom_site_fract_y
_atom_site_fract_z
Si Si1 0.928814 0.060125 0.828476
Si Si2 0.932516 0.250000 0.479168
Si Si3 0.928106 0.056877 0.677023
Si Si4 0.431812 0.941295 0.940489
Si Si5 0.931689 0.750000 0.129147
Si Si6 0.568622 0.054020 0.438409
Si Si7 0.430950 0.250000 0.025363
Si Si8 0.932998 0.250000 0.627630
O O1 0.750000 0.058784 0.849112
O O2 0.952310 0.029357 0.752974
O O3 0.992988 0.161973 0.837465
O O4 0.023636 0.988065 0.871668
O O5 0.750000 0.250000 0.484199
O O6 0.990452 0.340636 0.441034
O O7 0.000236 0.250000 0.553473
O O8 0.750000 0.052744 0.656272
O O9 0.994028 0.159498 0.665211
O O10 0.018970 0.985371 0.632017
O O11 0.250000 0.939229 0.948446
O O12 0.496846 0.838800 0.940310
O O13 0.500000 0.000000 0.000000
O O14 0.750000 0.750000 0.141365
O O15 0.971539 0.750000 0.051788
O O16 0.750000 0.048708 0.445374
O O17 0.500000 0.000000 0.500000
O O18 0.250000 0.250000 0.037934
O O19 0.750000 0.250000 0.628276
#
# Coordination Sequence:
#
# PCOD8245466 Si02
#       8
#     8   4   8   8   4   8   4   4
#     4  11  23  39  61  88 122 162 202 244 301 364
#     4   9  18  33  56  82 112 148 188 231 284 343
#     4  10  21  38  59  85 116 155 195 236 289 350
#     4  12  24  40  63  90 121 159 202 248 298 355
#     4  11  22  36  60  91 125 157 194 248 301 356
#     4  11  21  36  58  83 113 152 194 240 289 346
#     4  11  23  40  63  93 122 154 198 251 300 353
#     4   9  15  31  57  82 115 151 186 228 283 348
#
# _framework density 18.78586
#
# number of rings (size 3 to 8) (size 9 to 14) (size 15 to 20)
#    0.000    1.333    3.333    3.500    0.000    3.333 
#    0.000    3.750    0.000    4.000    0.000    0.000 
#    0.000    0.000    0.000    0.000    0.000    0.000 
#
# Total GULP energy -595361.414237 kJ/mol
# GULP energy per Si atom -12403.362797 kJ/mol
# Density = 1.874310 g / cm^3
# Si number density = 18.785860 Si / 1000 Ang^3
#
#
#
# Elastic Constant Matrix: (Units=GPa)
#
#
# Indices 1 2 3 4 5 6 
#
# 1 87.0298 48.1795 38.8912 0.0000 0.0000 0.0000
# 2 48.1795 159.7646 59.9533 0.0000 0.0000 0.0000
# 3 38.8912 59.9533 102.1851 0.0000 0.0000 0.0000
# 4 0.0000 0.0000 0.0000 34.1100 0.0000 0.0000
# 5 0.0000 0.0000 0.0000 0.0000 31.0154 0.0000
# 6 0.0000 0.0000 0.0000 0.0000 0.0000 26.7532
#
#
#
# Elastic Compliance Matrix: (Units=1/GPa)
#
#
# Indices 1 2 3 4 5 6 
#
# 1 0.014911 -0.003035 -0.003894 0.000000 0.000000 0.000000
# 2 -0.003035 0.008644 -0.003916 0.000000 0.000000 0.000000
# 3 -0.003894 -0.003916 0.013566 0.000000 0.000000 0.000000
# 4 0.000000 0.000000 0.000000 0.029317 0.000000 0.000000
# 5 0.000000 0.000000 0.000000 0.000000 0.032242 0.000000
# 6 0.000000 0.000000 0.000000 0.000000 0.000000 0.037379
#
#
# Mechanical properties :
#
#
# Convention : Reuss Voigt Hill
#
# Bulk Modulus (GPa) = 64.81152 71.44753 68.12952
# Shear Modulus (GPa) = 30.69485 31.83942 31.26713
#
# Velocity S-wave (km/s) = 4.04658 4.12134 4.08413
# Velocity P-wave (km/s) = 7.51053 7.79502 7.65410
#
# Compressibility (1/GPa) = 0.01542936
#
# Stress axis : x y z
#
# Youngs Moduli (GPa) = 67.06535 115.68402 73.71310
#
# Poissons Ratio (x) = 0.35113 0.28705
# Poissons Ratio (y) = 0.20356 0.28870
# Poissons Ratio (z) = 0.26116 0.45307
#
# Static dielectric constant tensor:
#      x y z
#    x 3.423400 0.000000 0.000000 
#    y 0.000000 3.703090 0.000000 
#    z 0.000000 0.000000 3.439690 
# 
# 
# High freq. dielectric constant tensor:
#      x y z
#    x 1.725850 0.000000 0.000000 
#    y 0.000000 1.737760 0.000000 
#    z 0.000000 0.000000 1.728280 
# 
# From -- ./inp_files/25700.got.cif
#   From: 2010.03.12/outbox.cif.g09.slc.cpg/sg59_13_cif.got.tgz:25700.got - 2010.04.16 16:29:54.
