data_PCOD8245245
_publ_section_title
;
Structure prediction by ZEFSAII (Michael W. Deem and Ramdas Pophale) SiO2 
 PCOD8245245
Probable space group: P M M N
;
_chemical_formula_sum "Si O2"
_cell_formula_units_Z 64
_cell_length_a 15.203117
_cell_length_b 8.926684
_cell_length_c 23.973258
_cell_angle_alpha 90.000000
_cell_angle_beta 90.000000
_cell_angle_gamma 90.000000
_cell_volume 3253.492862
_symmetry_space_group_name_H-M "P M M N"
_symmetry_group_IT_number 59
_space_group.IT_coordinate_system_code '2'
_symmetry_cell_setting 'orthorhombic'
loop_
_space_group_symop_operation_xyz
x,y,z
1/2-x,1/2-y,z
1/2+x,-y,-z
-x,1/2+y,-z
-x,-y,-z
1/2+x,1/2+y,-z
1/2-x,y,z
x,1/2-y,z
loop_
_atom_site_type_symbol
_atom_site_label
_atom_site_fract_x
_atom_site_fract_y
_atom_site_fract_z
Si Si1 0.419310 0.426994 0.884014
Si Si2 0.652778 0.080939 0.774198
Si Si3 0.847587 0.928006 0.999408
Si Si4 0.146967 0.572921 0.494702
Si Si5 0.504143 0.926128 0.579572
Si Si6 0.502299 0.926715 0.706567
Si Si7 0.902926 0.572785 0.879131
Si Si8 0.346716 0.921220 0.785119
O O1 0.434318 0.250000 0.882815
O O2 0.501580 0.518649 0.860280
O O3 0.343973 0.475548 0.840819
O O4 0.401555 0.484439 0.947009
O O5 0.750000 0.079263 0.747515
O O6 0.619050 0.250000 0.783635
O O7 0.589486 0.998163 0.731643
O O8 0.661847 0.998994 0.834123
O O9 0.750000 0.992098 0.005960
O O10 0.846341 0.750000 0.998245
O O11 0.886140 0.990747 0.941474
O O12 0.250000 0.515680 0.499287
O O13 0.148936 0.750000 0.487051
O O14 0.093861 0.503173 0.442609
O O15 0.086880 0.526994 0.548300
O O16 0.519270 0.750000 0.573972
O O17 0.491359 0.978690 0.642998
O O18 0.512762 0.750000 0.711060
O O19 0.416392 0.982243 0.740067
O O20 0.892727 0.750000 0.877203
O O21 0.250000 0.932752 0.757797
O O22 0.368137 0.750000 0.802054
#
# Coordination Sequence:
#
# PCOD8245245 Si02
#       8
#     8   8   8   8   8   8   8   8
#     4  11  21  35  56  80 109 144 182 227 284 345
#     4  11  24  40  58  82 112 147 188 236 289 342
#     4   9  19  34  52  77 106 138 179 226 279 342
#     4   9  18  34  57  85 118 155 191 229 279 330
#     4   9  19  35  56  84 116 152 194 235 276 325
#     4  10  21  38  59  83 114 152 191 234 282 333
#     4  11  21  36  58  80 106 142 185 231 283 341
#     4  10  21  37  57  82 111 145 188 236 285 339
#
# _framework density 19.671164999999998
#
# number of rings (size 3 to 8) (size 9 to 14) (size 15 to 20)
#    0.000    2.000    1.250    2.250    0.000    4.000 
#    0.000    6.875    0.000    4.500    0.000    3.500 
#    0.000    0.000    0.000    0.000    0.000    0.000 
#
# Total GULP energy -793343.342018 kJ/mol
# GULP energy per Si atom -12395.989719 kJ/mol
# Density = 1.962639 g / cm^3
# Si number density = 19.671165 Si / 1000 Ang^3
#
#
#
# Elastic Constant Matrix: (Units=GPa)
#
#
# Indices 1 2 3 4 5 6 
#
# 1 124.8056 19.7622 49.8029 0.0000 0.0000 0.0000
# 2 19.7622 31.7938 37.1707 0.0000 0.0000 0.0000
# 3 49.8029 37.1707 144.0145 0.0000 0.0000 0.0000
# 4 0.0000 0.0000 0.0000 26.0928 0.0000 0.0000
# 5 0.0000 0.0000 0.0000 0.0000 18.0780 0.0000
# 6 0.0000 0.0000 0.0000 0.0000 0.0000 26.3847
#
#
#
# Elastic Compliance Matrix: (Units=1/GPa)
#
#
# Indices 1 2 3 4 5 6 
#
# 1 0.009485 -0.002951 -0.002518 0.000000 0.000000 0.000000
# 2 -0.002951 0.045964 -0.010843 0.000000 0.000000 0.000000
# 3 -0.002518 -0.010843 0.010613 0.000000 0.000000 0.000000
# 4 0.000000 0.000000 0.000000 0.038325 0.000000 0.000000
# 5 0.000000 0.000000 0.000000 0.000000 0.055316 0.000000
# 6 0.000000 0.000000 0.000000 0.000000 0.000000 0.037901
#
#
# Mechanical properties :
#
#
# Convention : Reuss Voigt Hill
#
# Bulk Modulus (GPa) = 29.90721 57.12064 43.51393
# Shear Modulus (GPa) = 20.71483 27.03629 23.87556
#
# Velocity S-wave (km/s) = 3.24860 3.71133 3.48765
# Velocity P-wave (km/s) = 5.41367 6.88956 6.19572
#
# Compressibility (1/GPa) = 0.03343675
#
# Stress axis : x y z
#
# Youngs Moduli (GPa) = 105.43331 21.75637 94.22268
#
# Poissons Ratio (x) = 0.06421 0.23727
# Poissons Ratio (y) = 0.31117 1.02163
# Poissons Ratio (z) = 0.26551 0.23590
#
# Static dielectric constant tensor:
#      x y z
#    x 3.698800 0.000000 0.000000 
#    y 0.000000 3.372420 0.000000 
#    z 0.000000 0.000000 3.695370 
# 
# 
# High freq. dielectric constant tensor:
#      x y z
#    x 1.776520 0.000000 0.000000 
#    y 0.000000 1.748410 0.000000 
#    z 0.000000 0.000000 1.764780 
# 
# From -- ./inp_files/32114.got.cif
#   From: 2010.03.12/outbox.cif.g09.slc.cpg/sg59_17_cif.got.tgz:32114.got - 2010.04.16 16:29:54.
