data_PCOD8245139
_publ_section_title
;
Structure prediction by ZEFSAII (Michael W. Deem and Ramdas Pophale) SiO2 
 PCOD8245139
Probable space group: P M M N
;
_chemical_formula_sum "Si O2"
_cell_formula_units_Z 56
_cell_length_a 8.664408
_cell_length_b 14.407524
_cell_length_c 23.818425
_cell_angle_alpha 90.000000
_cell_angle_beta 90.000000
_cell_angle_gamma 90.000000
_cell_volume 2973.317498
_symmetry_space_group_name_H-M "P M M N"
_symmetry_group_IT_number 59
_space_group.IT_coordinate_system_code '2'
_symmetry_cell_setting 'orthorhombic'
loop_
_space_group_symop_operation_xyz
x,y,z
1/2-x,1/2-y,z
1/2+x,-y,-z
-x,1/2+y,-z
-x,-y,-z
1/2+x,1/2+y,-z
1/2-x,y,z
x,1/2-y,z
loop_
_atom_site_type_symbol
_atom_site_label
_atom_site_fract_x
_atom_site_fract_y
_atom_site_fract_z
Si Si1 0.068280 0.994435 0.138957
Si Si2 0.928159 0.141996 0.063148
Si Si3 0.567965 0.143668 0.643445
Si Si4 0.431400 0.500654 0.264417
Si Si5 0.571293 0.643089 0.052965
Si Si6 0.932213 0.002028 0.438454
Si Si7 0.433414 0.143966 0.354402
O O1 0.250000 0.975800 0.138367
O O2 0.998245 0.996867 0.201991
O O3 0.982974 0.911640 0.107354
O O4 0.030843 0.091986 0.109798
O O5 0.750000 0.116489 0.072077
O O6 0.962220 0.250000 0.070224
O O7 0.976800 0.108265 0.001225
O O8 0.750000 0.135980 0.632831
O O9 0.512261 0.250000 0.646053
O O10 0.522663 0.094256 0.702153
O O11 0.483304 0.091892 0.592816
O O12 0.250000 0.492578 0.258226
O O13 0.491067 0.410277 0.298559
O O14 0.750000 0.624050 0.040902
O O15 0.536907 0.750000 0.065388
O O16 0.750000 0.006210 0.441168
O O17 0.993797 0.094704 0.408381
O O18 0.000000 0.000000 0.500000
O O19 0.250000 0.137833 0.360255
O O20 0.490914 0.250000 0.350906
#
# Coordination Sequence:
#
# PCOD8245139 Si02
#       7
#     8   8   8   8   8   8   8
#     4  11  21  33  54  81 108 138 173 215 261 313
#     4  10  21  37  55  75 102 136 174 217 265 318
#     4   9  18  36  60  81 105 140 180 221 263 306
#     4   8  17  33  53  80 108 137 176 217 258 307
#     4  10  21  37  55  75 102 136 174 217 265 318
#     4  11  22  36  55  81 114 145 177 218 260 310
#     4   9  18  36  60  81 105 140 180 221 263 306
#
# _framework density 18.834181000000001
#
# number of rings (size 3 to 8) (size 9 to 14) (size 15 to 20)
#    0.000    2.286    0.000    3.857    0.000    4.000 
#    0.000    8.571    0.000    0.000    0.000    0.000 
#    0.000    0.000    0.000    0.000    0.000    0.000 
#
# Total GULP energy -694457.830794 kJ/mol
# GULP energy per Si atom -12401.032693 kJ/mol
# Density = 1.879131 g / cm^3
# Si number density = 18.834181 Si / 1000 Ang^3
#
#
#
# Elastic Constant Matrix: (Units=GPa)
#
#
# Indices 1 2 3 4 5 6 
#
# 1 45.8306 27.9165 23.7321 0.0000 0.0000 0.0000
# 2 27.9165 141.5303 66.7206 0.0000 0.0000 0.0000
# 3 23.7321 66.7206 157.5222 0.0000 0.0000 0.0000
# 4 0.0000 0.0000 0.0000 -0.0394 0.0000 0.0000
# 5 0.0000 0.0000 0.0000 0.0000 26.8853 0.0000
# 6 0.0000 0.0000 0.0000 0.0000 0.0000 26.8776
#
#
#
# Elastic Compliance Matrix: (Units=1/GPa)
#
#
# Indices 1 2 3 4 5 6 
#
# 1 0.025356 -0.003999 -0.002126 0.000000 0.000000 0.000000
# 2 -0.003999 0.009459 -0.003404 0.000000 0.000000 0.000000
# 3 -0.002126 -0.003404 0.008110 0.000000 0.000000 0.000000
# 4 0.000000 0.000000 0.000000-25.389129 0.000000 0.000000
# 5 0.000000 0.000000 0.000000 0.000000 0.037195 0.000000
# 6 0.000000 0.000000 0.000000 0.000000 0.000000 0.037206
#
#
# Mechanical properties :
#
#
# Convention : Reuss Voigt Hill
#
# Bulk Modulus (GPa) = 41.89851 64.62463 53.26157
# Shear Modulus (GPa) = -0.19806 25.84564 12.82379
#
# Velocity S-wave (km/s) = -0.32464 3.70844 2.61220
# Velocity P-wave (km/s) = 4.70678 7.26110 6.11872
#
# Compressibility (1/GPa) = 0.02386720
#
# Stress axis : x y z
#
# Youngs Moduli (GPa) = 39.43767 105.71719 123.29705
#
# Poissons Ratio (x) = 0.42278 0.26217
# Poissons Ratio (y) = 0.15772 0.41971
# Poissons Ratio (z) = 0.08386 0.35987
#
# Static dielectric constant tensor:
#      x y z
#    x 3.242150 0.000000 0.000000 
#    y 0.000000 3.614350 0.000000 
#    z 0.000000 0.000000 3.647100 
# 
# 
# High freq. dielectric constant tensor:
#      x y z
#    x 1.720910 0.000000 0.000000 
#    y 0.000000 1.739810 0.000000 
#    z 0.000000 0.000000 1.733530 
# 
# From -- ./inp_files/28971.got.cif
#   From: 2010.03.12/outbox.cif.g09.slc.cpg/sg59_15_cif.got.tgz:28971.got - 2010.04.16 16:29:54.
