data_PCOD8245295
_publ_section_title
;
Structure prediction by ZEFSAII (Michael W. Deem and Ramdas Pophale) SiO2 
 PCOD8245295
Probable space group: P M M N
;
_chemical_formula_sum "Si O2"
_cell_formula_units_Z 48
_cell_length_a 8.988733
_cell_length_b 9.234341
_cell_length_c 30.286721
_cell_angle_alpha 90.000000
_cell_angle_beta 90.000000
_cell_angle_gamma 90.000000
_cell_volume 2513.950054
_symmetry_space_group_name_H-M "P M M N"
_symmetry_group_IT_number 59
_space_group.IT_coordinate_system_code '2'
_symmetry_cell_setting 'orthorhombic'
loop_
_space_group_symop_operation_xyz
x,y,z
1/2-x,1/2-y,z
1/2+x,-y,-z
-x,1/2+y,-z
-x,-y,-z
1/2+x,1/2+y,-z
1/2-x,y,z
x,1/2-y,z
loop_
_atom_site_type_symbol
_atom_site_label
_atom_site_fract_x
_atom_site_fract_y
_atom_site_fract_z
Si Si1 0.075179 0.583758 0.539744
Si Si2 0.078454 0.579998 0.792032
Si Si3 0.923935 0.082907 0.870567
Si Si4 0.078650 0.583724 0.385100
Si Si5 0.578129 0.580410 0.039717
Si Si6 0.920782 0.417161 0.716907
O O1 0.250000 0.566614 0.534945
O O2 0.025282 0.750000 0.537577
O O3 0.000000 0.500000 0.500000
O O4 0.025581 0.519356 0.586486
O O5 0.250000 0.541294 0.800631
O O6 0.050605 0.750000 0.791543
O O7 0.978529 0.511229 0.829918
O O8 0.029905 0.517042 0.744952
O O9 0.750000 0.058555 0.877529
O O10 0.961893 0.250000 0.860689
O O11 0.006023 0.028322 0.914526
O O12 0.250000 0.552107 0.396658
O O13 0.040709 0.750000 0.396069
O O14 0.046413 0.550090 0.334102
O O15 0.750000 0.537202 0.040670
O O16 0.553375 0.750000 0.032853
O O17 0.500000 0.500000 0.000000
O O18 0.750000 0.453898 0.728487
O O19 0.953171 0.250000 0.727974
#
# Coordination Sequence:
#
# PCOD8245295 Si02
#       6
#     8   8   8   8   8   8
#     4  11  24  39  56  81 112 145 183 227 273 323
#     4  11  24  38  53  79 114 148 183 226 274 323
#     4  10  21  38  60  83 107 140 184 230 275 326
#     4   9  19  37  60  85 112 142 180 225 271 323
#     4  10  21  37  58  84 113 146 183 223 271 326
#     4   9  19  37  60  84 110 143 183 225 270 323
#
# _framework density 19.093458999999999
#
# number of rings (size 3 to 8) (size 9 to 14) (size 15 to 20)
#    0.000    2.000    0.000    4.000    0.000   11.333 
#    0.000    5.000    0.000    0.000    0.000    0.000 
#    0.000    0.000    0.000    0.000    0.000    0.000 
#
# Total GULP energy -595439.151027 kJ/mol
# GULP energy per Si atom -12404.982313 kJ/mol
# Density = 1.905000 g / cm^3
# Si number density = 19.093459 Si / 1000 Ang^3
#
#
#
# Elastic Constant Matrix: (Units=GPa)
#
#
# Indices 1 2 3 4 5 6 
#
# 1 91.0955 58.8947 56.8562 0.0000 0.0000 0.0000
# 2 58.8947 95.9642 65.1557 0.0000 0.0000 0.0000
# 3 56.8562 65.1557 122.3664 0.0000 0.0000 0.0000
# 4 0.0000 0.0000 0.0000 39.4352 0.0000 0.0000
# 5 0.0000 0.0000 0.0000 0.0000 42.1550 0.0000
# 6 0.0000 0.0000 0.0000 0.0000 0.0000 34.4778
#
#
#
# Elastic Compliance Matrix: (Units=1/GPa)
#
#
# Indices 1 2 3 4 5 6 
#
# 1 0.019490 -0.009104 -0.004208 0.000000 0.000000 0.000000
# 2 -0.009104 0.020574 -0.006725 0.000000 0.000000 0.000000
# 3 -0.004208 -0.006725 0.013708 0.000000 0.000000 0.000000
# 4 0.000000 0.000000 0.000000 0.025358 0.000000 0.000000
# 5 0.000000 0.000000 0.000000 0.000000 0.023722 0.000000
# 6 0.000000 0.000000 0.000000 0.000000 0.000000 0.029004
#
#
# Mechanical properties :
#
#
# Convention : Reuss Voigt Hill
#
# Bulk Modulus (GPa) = 73.00402 74.58213 73.79307
# Shear Modulus (GPa) = 28.32936 31.78156 30.05546
#
# Velocity S-wave (km/s) = 3.85609 4.08429 3.97183
# Velocity P-wave (km/s) = 7.62522 7.83507 7.73086
#
# Compressibility (1/GPa) = 0.01369788
#
# Stress axis : x y z
#
# Youngs Moduli (GPa) = 51.30867 48.60605 72.94985
#
# Poissons Ratio (x) = 0.44251 0.30698
# Poissons Ratio (y) = 0.46712 0.49056
# Poissons Ratio (z) = 0.21592 0.32686
#
# Static dielectric constant tensor:
#      x y z
#    x 3.369500 0.000000 0.000000 
#    y 0.000000 3.504730 0.000000 
#    z 0.000000 0.000000 3.560520 
# 
# 
# High freq. dielectric constant tensor:
#      x y z
#    x 1.749930 0.000000 0.000000 
#    y 0.000000 1.739470 0.000000 
#    z 0.000000 0.000000 1.756900 
# 
# From -- ./inp_files/32821.got.cif
#   From: 2010.03.12/outbox.cif.g09.slc.cpg/sg59_17_cif.got.tgz:32821.got - 2010.04.16 16:29:54.
