data_PCOD8245538
_publ_section_title
;
Structure prediction by ZEFSAII (Michael W. Deem and Ramdas Pophale) SiO2 
 PCOD8245538
Probable space group: P M M N
;
_chemical_formula_sum "Si O2"
_cell_formula_units_Z 48
_cell_length_a 16.794589
_cell_length_b 8.983711
_cell_length_c 16.618143
_cell_angle_alpha 90.000000
_cell_angle_beta 90.000000
_cell_angle_gamma 90.000000
_cell_volume 2507.307758
_symmetry_space_group_name_H-M "P M M N"
_symmetry_group_IT_number 59
_space_group.IT_coordinate_system_code '2'
_symmetry_cell_setting 'orthorhombic'
loop_
_space_group_symop_operation_xyz
x,y,z
1/2-x,1/2-y,z
1/2+x,-y,-z
-x,1/2+y,-z
-x,-y,-z
1/2+x,1/2+y,-z
1/2-x,y,z
x,1/2-y,z
loop_
_atom_site_type_symbol
_atom_site_label
_atom_site_fract_x
_atom_site_fract_y
_atom_site_fract_z
Si Si1 0.396117 0.078222 0.055468
Si Si2 0.068965 0.576358 0.606327
Si Si3 0.341951 0.424695 0.747459
Si Si4 0.750000 0.576985 0.833005
Si Si5 0.591176 0.076151 0.578710
Si Si6 0.573331 0.076996 0.104884
Si Si7 0.750000 0.426079 0.663499
O O1 0.389786 0.250000 0.029161
O O2 0.327593 0.032730 0.116848
O O3 0.479359 0.044879 0.099185
O O4 0.384251 0.979706 0.976027
O O5 0.067157 0.750000 0.626388
O O6 0.132170 0.497809 0.663799
O O7 0.096843 0.542821 0.515872
O O8 0.980881 0.511735 0.620420
O O9 0.250000 0.463322 0.763438
O O10 0.356622 0.250000 0.741703
O O11 0.394465 0.488472 0.819293
O O12 0.750000 0.750000 0.809829
O O13 0.750000 0.479842 0.753976
O O14 0.577673 0.250000 0.595346
O O15 0.671940 0.014017 0.617947
O O16 0.592393 0.250000 0.116247
O O17 0.750000 0.250000 0.661541
#
# Coordination Sequence:
#
# PCOD8245538 Si02
#       7
#     8   8   8   4   8   8   4
#     4   9  20  39  60  84 117 155 190 233 291 344
#     4  10  21  38  63  88 116 153 196 243 293 347
#     4  11  25  41  59  85 119 156 195 239 293 349
#     4  10  22  38  58  85 118 153 194 239 284 341
#     4   9  20  39  61  86 119 156 193 239 295 348
#     4  10  21  38  61  88 116 150 195 239 288 346
#     4  10  22  38  58  87 118 153 196 239 286 341
#
# _framework density 19.144038999999999
#
# number of rings (size 3 to 8) (size 9 to 14) (size 15 to 20)
#    0.000    2.167    0.000    1.500    4.667    4.000 
#    0.000    0.000    0.000    0.000    0.000    0.000 
#    0.000    0.000    0.000    0.000    0.000    0.000 
#
# Total GULP energy -595446.357647 kJ/mol
# GULP energy per Si atom -12405.132451 kJ/mol
# Density = 1.910047 g / cm^3
# Si number density = 19.144039 Si / 1000 Ang^3
#
#
#
# Elastic Constant Matrix: (Units=GPa)
#
#
# Indices 1 2 3 4 5 6 
#
# 1 105.4317 40.1773 56.3678 0.0000 0.0000 0.0000
# 2 40.1773 70.7600 38.6943 0.0000 0.0000 0.0000
# 3 56.3678 38.6943 93.6497 0.0000 0.0000 0.0000
# 4 0.0000 0.0000 0.0000 39.3576 0.0000 0.0000
# 5 0.0000 0.0000 0.0000 0.0000 31.4889 0.0000
# 6 0.0000 0.0000 0.0000 0.0000 0.0000 29.6055
#
#
#
# Elastic Compliance Matrix: (Units=1/GPa)
#
#
# Indices 1 2 3 4 5 6 
#
# 1 0.015084 -0.004651 -0.007157 0.000000 0.000000 0.000000
# 2 -0.004651 0.019691 -0.005337 0.000000 0.000000 0.000000
# 3 -0.007157 -0.005337 0.017191 0.000000 0.000000 0.000000
# 4 0.000000 0.000000 0.000000 0.025408 0.000000 0.000000
# 5 0.000000 0.000000 0.000000 0.000000 0.031757 0.000000
# 6 0.000000 0.000000 0.000000 0.000000 0.000000 0.033777
#
#
# Mechanical properties :
#
#
# Convention : Reuss Voigt Hill
#
# Bulk Modulus (GPa) = 56.57210 60.03557 58.30383
# Shear Modulus (GPa) = 27.30889 29.06385 28.18637
#
# Velocity S-wave (km/s) = 3.78100 3.90059 3.84126
# Velocity P-wave (km/s) = 6.97683 7.19126 7.08485
#
# Compressibility (1/GPa) = 0.01767656
#
# Stress axis : x y z
#
# Youngs Moduli (GPa) = 66.29726 50.78391 58.16925
#
# Poissons Ratio (x) = 0.23617 0.41634
# Poissons Ratio (y) = 0.30832 0.31045
# Poissons Ratio (z) = 0.47451 0.27103
#
# Static dielectric constant tensor:
#      x y z
#    x 3.684430 0.000000 0.000000 
#    y 0.000000 3.523140 0.000000 
#    z 0.000000 0.000000 3.474510 
# 
# 
# High freq. dielectric constant tensor:
#      x y z
#    x 1.753900 0.000000 0.000000 
#    y 0.000000 1.747120 0.000000 
#    z 0.000000 0.000000 1.749590 
# 
# From -- ./inp_files/23716.got.cif
#   From: 2010.03.12/outbox.cif.g09.slc.cpg/sg59_12_cif.got.tgz:23716.got - 2010.04.16 16:29:54.
