data_PCOD8245994
_publ_section_title
;
Structure prediction by ZEFSAII (Michael W. Deem and Ramdas Pophale) SiO2 
 PCOD8245994
Probable space group: P M M N
;
_chemical_formula_sum "Si O2"
_cell_formula_units_Z 64
_cell_length_a 29.989511
_cell_length_b 13.894464
_cell_length_c 7.965414
_cell_angle_alpha 90.000000
_cell_angle_beta 90.000000
_cell_angle_gamma 90.000000
_cell_volume 3319.093870
_symmetry_space_group_name_H-M "P M M N"
_symmetry_group_IT_number 59
_space_group.IT_coordinate_system_code '2'
_symmetry_cell_setting 'orthorhombic'
loop_
_space_group_symop_operation_xyz
x,y,z
1/2-x,1/2-y,z
1/2+x,-y,-z
-x,1/2+y,-z
-x,-y,-z
1/2+x,1/2+y,-z
1/2-x,y,z
x,1/2-y,z
loop_
_atom_site_type_symbol
_atom_site_label
_atom_site_fract_x
_atom_site_fract_y
_atom_site_fract_z
Si Si1 0.697219 0.044191 0.143800
Si Si2 0.149496 0.862917 0.165109
Si Si3 0.998299 0.857498 0.335613
Si Si4 0.904970 0.858281 0.503707
Si Si5 0.698670 0.137665 0.491213
Si Si6 0.071780 0.991351 0.253287
Si Si7 0.143950 0.142789 0.833284
Si Si8 0.549589 0.856785 0.994791
O O1 0.750000 0.045658 0.136641
O O2 0.680382 0.083069 0.325113
O O3 0.680531 0.935329 0.114937
O O4 0.680076 0.111401 0.993523
O O5 0.139760 0.750000 0.161074
O O6 0.172022 0.893222 0.341900
O O7 0.102623 0.918787 0.147234
O O8 0.014561 0.750000 0.379956
O O9 0.954630 0.882889 0.440429
O O10 0.987046 0.865349 0.138973
O O11 0.038802 0.930321 0.373980
O O12 0.903223 0.750000 0.577581
O O13 0.867837 0.868892 0.362022
O O14 0.895078 0.937836 0.644327
O O15 0.750000 0.110839 0.523885
O O16 0.692825 0.250000 0.455023
O O17 0.040392 0.059437 0.138783
O O18 0.163401 0.250000 0.866045
O O19 0.099338 0.126970 0.937895
O O20 0.545897 0.750000 0.913317
#
# Coordination Sequence:
#
# PCOD8245994 Si02
#       8
#     8   8   8   8   8   8   8   8
#     4  11  21  36  59  83 107 143 186 224 271 334
#     4  11  23  36  53  82 115 144 179 228 277 325
#     4   9  19  34  50  73 105 144 180 220 270 321
#     4   9  19  34  55  78 104 140 185 226 269 328
#     4   9  19  36  56  77 104 140 180 220 265 323
#     4  12  19  31  52  80 106 139 180 225 274 318
#     4   9  18  36  54  75 105 137 174 222 272 322
#     4   9  18  33  52  71 100 137 178 217 261 323
#
# _framework density 19.282371000000001
#
# number of rings (size 3 to 8) (size 9 to 14) (size 15 to 20)
#    0.000    2.125    1.250    4.500    0.000    1.500 
#    0.000    0.000    0.000    0.000    0.000    1.750 
#    0.000    0.000    0.000    0.000    0.000    0.000 
#
# Total GULP energy -793431.278065 kJ/mol
# GULP energy per Si atom -12397.363720 kJ/mol
# Density = 1.923848 g / cm^3
# Si number density = 19.282371 Si / 1000 Ang^3
#
#
#
# Elastic Constant Matrix: (Units=GPa)
#
#
# Indices 1 2 3 4 5 6 
#
# 1 45.7526 30.0630 4.9189 0.0000 0.0000 0.0000
# 2 30.0630 116.2213 32.0857 0.0000 0.0000 0.0000
# 3 4.9189 32.0857 66.3033 0.0000 0.0000 0.0000
# 4 0.0000 0.0000 0.0000 29.2202 0.0000 0.0000
# 5 0.0000 0.0000 0.0000 0.0000 20.4976 0.0000
# 6 0.0000 0.0000 0.0000 0.0000 0.0000 21.5818
#
#
#
# Elastic Compliance Matrix: (Units=1/GPa)
#
#
# Indices 1 2 3 4 5 6 
#
# 1 0.026471 -0.007277 0.001558 0.000000 0.000000 0.000000
# 2 -0.007277 0.011932 -0.005234 0.000000 0.000000 0.000000
# 3 0.001558 -0.005234 0.017500 0.000000 0.000000 0.000000
# 4 0.000000 0.000000 0.000000 0.034223 0.000000 0.000000
# 5 0.000000 0.000000 0.000000 0.000000 0.048786 0.000000
# 6 0.000000 0.000000 0.000000 0.000000 0.000000 0.046335
#
#
# Mechanical properties :
#
#
# Convention : Reuss Voigt Hill
#
# Bulk Modulus (GPa) = 29.41609 40.26804 34.84207
# Shear Modulus (GPa) = 22.88480 25.00724 23.94602
#
# Velocity S-wave (km/s) = 3.44877 3.60515 3.52783
# Velocity P-wave (km/s) = 5.58097 6.18532 5.89090
#
# Compressibility (1/GPa) = 0.03399500
#
# Stress axis : x y z
#
# Youngs Moduli (GPa) = 37.77719 83.81020 57.14433
#
# Poissons Ratio (x) = 0.60992 -0.08902
# Poissons Ratio (y) = 0.27492 0.29910
# Poissons Ratio (z) = -0.05885 0.43867
#
# Static dielectric constant tensor:
#      x y z
#    x 3.183720 0.000000 0.000000 
#    y 0.000000 3.655580 0.000000 
#    z 0.000000 0.000000 3.488680 
# 
# 
# High freq. dielectric constant tensor:
#      x y z
#    x 1.723920 0.000000 0.000000 
#    y 0.000000 1.766410 0.000000 
#    z 0.000000 0.000000 1.742860 
# 
# From -- ./inp_files/8037.got.cif
#   From: 2010.03.12/outbox.cif.g09.slc.cpg/sg59_5_cif.got.tgz:8037.got - 2010.04.16 16:29:54.
