data_PCOD8245679
_publ_section_title
;
Structure prediction by ZEFSAII (Michael W. Deem and Ramdas Pophale) SiO2 
 PCOD8245679
Probable space group: P M M N
;
_chemical_formula_sum "Si O2"
_cell_formula_units_Z 64
_cell_length_a 30.605073
_cell_length_b 8.890378
_cell_length_c 11.880548
_cell_angle_alpha 90.000000
_cell_angle_beta 90.000000
_cell_angle_gamma 90.000000
_cell_volume 3232.586238
_symmetry_space_group_name_H-M "P M M N"
_symmetry_group_IT_number 59
_space_group.IT_coordinate_system_code '2'
_symmetry_cell_setting 'orthorhombic'
loop_
_space_group_symop_operation_xyz
x,y,z
1/2-x,1/2-y,z
1/2+x,-y,-z
-x,1/2+y,-z
-x,-y,-z
1/2+x,1/2+y,-z
1/2-x,y,z
x,1/2-y,z
loop_
_atom_site_type_symbol
_atom_site_label
_atom_site_fract_x
_atom_site_fract_y
_atom_site_fract_z
Si Si1 0.298575 0.071287 0.994256
Si Si2 0.081896 0.925291 0.242754
Si Si3 0.546930 0.075063 0.003297
Si Si4 0.173835 0.428459 0.239747
Si Si5 0.126648 0.074250 0.590211
Si Si6 0.798255 0.420716 0.545280
Si Si7 0.457895 0.427672 0.446410
Si Si8 0.380216 0.072479 0.849545
O O1 0.250000 0.013121 0.958965
O O2 0.298820 0.250000 0.994446
O O3 0.309150 0.011444 0.119595
O O4 0.335689 0.011222 0.908690
O O5 0.085274 0.750000 0.270767
O O6 0.069976 0.955744 0.114640
O O7 0.126817 0.006714 0.269732
O O8 0.045866 0.001430 0.322388
O O9 0.541036 0.250000 0.028700
O O10 0.500000 0.000000 0.000000
O O11 0.576916 0.003647 0.099378
O O12 0.171636 0.250000 0.241249
O O13 0.204856 0.486517 0.338481
O O14 0.135979 0.250000 0.577819
O O15 0.083669 0.026885 0.521971
O O16 0.120849 0.027341 0.719531
O O17 0.168428 0.988426 0.543901
O O18 0.750000 0.428097 0.490632
O O19 0.812035 0.250000 0.572442
O O20 0.500000 0.500000 0.500000
O O21 0.463615 0.250000 0.437531
O O22 0.384682 0.250000 0.867730
#
# Coordination Sequence:
#
# PCOD8245679 Si02
#       8
#     8   8   8   8   8   8   8   8
#     4   9  18  33  57  89 120 153 194 241 295 354
#     4  11  23  40  63  91 124 159 199 251 303 356
#     4  11  25  42  63  91 124 159 201 248 299 359
#     4  11  20  35  61  91 123 157 199 250 300 359
#     4  10  23  41  62  88 119 160 206 253 302 358
#     4  11  24  40  60  88 123 163 205 250 304 363
#     4  11  24  41  62  91 124 159 205 250 302 363
#     4  10  21  40  63  88 122 158 200 252 301 355
#
# _framework density 19.798390000000001
#
# number of rings (size 3 to 8) (size 9 to 14) (size 15 to 20)
#    0.000    1.500    2.500    2.250    1.750    4.500 
#    0.000    1.250    0.000    1.125    0.000    0.000 
#    0.000    0.000    0.000    0.000    0.000    0.000 
#
# Total GULP energy -793795.339095 kJ/mol
# GULP energy per Si atom -12403.052173 kJ/mol
# Density = 1.975333 g / cm^3
# Si number density = 19.798390 Si / 1000 Ang^3
#
#
#
# Elastic Constant Matrix: (Units=GPa)
#
#
# Indices 1 2 3 4 5 6 
#
# 1 117.9175 45.5849 37.2740 0.0000 0.0000 0.0000
# 2 45.5849 76.3460 48.7315 0.0000 0.0000 0.0000
# 3 37.2740 48.7315 105.4275 0.0000 0.0000 0.0000
# 4 0.0000 0.0000 0.0000 27.5504 0.0000 0.0000
# 5 0.0000 0.0000 0.0000 0.0000 30.3784 0.0000
# 6 0.0000 0.0000 0.0000 0.0000 0.0000 31.5654
#
#
#
# Elastic Compliance Matrix: (Units=1/GPa)
#
#
# Indices 1 2 3 4 5 6 
#
# 1 0.011136 -0.005867 -0.001225 0.000000 0.000000 0.000000
# 2 -0.005867 0.021671 -0.007943 0.000000 0.000000 0.000000
# 3 -0.001225 -0.007943 0.013590 0.000000 0.000000 0.000000
# 4 0.000000 0.000000 0.000000 0.036297 0.000000 0.000000
# 5 0.000000 0.000000 0.000000 0.000000 0.032918 0.000000
# 6 0.000000 0.000000 0.000000 0.000000 0.000000 0.031680
#
#
# Mechanical properties :
#
#
# Convention : Reuss Voigt Hill
#
# Bulk Modulus (GPa) = 61.24868 62.54134 61.89501
# Shear Modulus (GPa) = 27.35162 29.10554 28.22858
#
# Velocity S-wave (km/s) = 3.72090 3.83834 3.78008
# Velocity P-wave (km/s) = 7.03303 7.16251 7.09806
#
# Compressibility (1/GPa) = 0.01632688
#
# Stress axis : x y z
#
# Youngs Moduli (GPa) = 89.79982 46.14422 73.58494
#
# Poissons Ratio (x) = 0.27073 0.09016
# Poissons Ratio (y) = 0.52685 0.58447
# Poissons Ratio (z) = 0.11002 0.36651
#
# Static dielectric constant tensor:
#      x y z
#    x 3.245220 0.000000 0.000000 
#    y 0.000000 3.626790 0.000000 
#    z 0.000000 0.000000 3.720620 
# 
# 
# High freq. dielectric constant tensor:
#      x y z
#    x 1.785400 0.000000 0.000000 
#    y 0.000000 1.763980 0.000000 
#    z 0.000000 0.000000 1.777260 
# 
# From -- ./inp_files/19366.got.cif
#   From: 2010.03.12/outbox.cif.g09.slc.cpg/sg59_10_cif.got.tgz:19366.got - 2010.04.16 16:29:54.
