data_PCOD8245540
_publ_section_title
;
Structure prediction by ZEFSAII (Michael W. Deem and Ramdas Pophale) SiO2 
 PCOD8245540
Probable space group: P M M N
;
_chemical_formula_sum "Si O2"
_cell_formula_units_Z 48
_cell_length_a 9.314654
_cell_length_b 9.614788
_cell_length_c 27.438400
_cell_angle_alpha 90.000000
_cell_angle_beta 90.000000
_cell_angle_gamma 90.000000
_cell_volume 2457.339847
_symmetry_space_group_name_H-M "P M M N"
_symmetry_group_IT_number 59
_space_group.IT_coordinate_system_code '2'
_symmetry_cell_setting 'orthorhombic'
loop_
_space_group_symop_operation_xyz
x,y,z
1/2-x,1/2-y,z
1/2+x,-y,-z
-x,1/2+y,-z
-x,-y,-z
1/2+x,1/2+y,-z
1/2-x,y,z
x,1/2-y,z
loop_
_atom_site_type_symbol
_atom_site_label
_atom_site_fract_x
_atom_site_fract_y
_atom_site_fract_z
Si Si1 0.415044 0.587240 0.294401
Si Si2 0.409647 0.092785 0.799768
Si Si3 0.577719 0.750000 0.559843
Si Si4 0.484712 0.583201 0.889470
Si Si5 0.416962 0.250000 0.549412
Si Si6 0.250000 0.918196 0.075901
Si Si7 0.078794 0.508101 0.613934
Si Si8 0.750000 0.088733 0.033303
O O1 0.250000 0.536221 0.298441
O O2 0.427065 0.750000 0.305260
O O3 0.472742 0.552773 0.240575
O O4 0.518222 0.507440 0.331707
O O5 0.250000 0.090464 0.776483
O O6 0.440850 0.250000 0.819987
O O7 0.410069 0.973749 0.840931
O O8 0.750000 0.750000 0.562515
O O9 0.515086 0.750000 0.504605
O O10 0.511843 0.623242 0.587925
O O11 0.513683 0.750000 0.885427
O O12 0.620970 0.486453 0.895177
O O13 0.389468 0.546088 0.936450
O O14 0.250000 0.250000 0.540521
O O15 0.465315 0.120959 0.581068
O O16 0.250000 0.750000 0.080074
O O17 0.250000 0.978121 0.020489
O O18 0.250000 0.536533 0.615832
O O19 0.750000 0.250000 0.023725
#
# Coordination Sequence:
#
# PCOD8245540 Si02
#       8
#     8   8   4   8   4   4   8   4
#     4  10  21  38  62  91 119 155 203 257 311 363
#     4  10  21  38  61  88 116 155 204 255 307 369
#     4  11  23  39  57  89 131 165 203 257 308 365
#     4  11  22  40  62  90 126 162 203 253 312 367
#     4   9  20  37  63  91 121 161 209 253 306 365
#     4  11  23  39  61  91 125 167 209 251 302 357
#     4  11  21  39  63  89 122 163 208 255 308 369
#     4   9  20  39  63  89 125 163 205 253 300 367
#
# _framework density 19.533318999999999
#
# number of rings (size 3 to 8) (size 9 to 14) (size 15 to 20)
#    0.000    1.667    1.667    3.000    1.167    0.667 
#    1.500    5.000    0.000    0.000    0.000    0.000 
#    0.000    0.000    0.000    0.000    0.000    0.000 
#
# Total GULP energy -594912.462221 kJ/mol
# GULP energy per Si atom -12394.009630 kJ/mol
# Density = 1.948886 g / cm^3
# Si number density = 19.533319 Si / 1000 Ang^3
#
#
#
# Elastic Constant Matrix: (Units=GPa)
#
#
# Indices 1 2 3 4 5 6 
#
# 1 118.6214 40.8828 34.9560 0.0000 0.0000 0.0000
# 2 40.8828 104.8555 38.9592 0.0000 0.0000 0.0000
# 3 34.9560 38.9592 99.1905 0.0000 0.0000 0.0000
# 4 0.0000 0.0000 0.0000 7.7331 0.0000 0.0000
# 5 0.0000 0.0000 0.0000 0.0000 36.3204 0.0000
# 6 0.0000 0.0000 0.0000 0.0000 0.0000 18.5370
#
#
#
# Elastic Compliance Matrix: (Units=1/GPa)
#
#
# Indices 1 2 3 4 5 6 
#
# 1 0.010197 -0.003092 -0.002379 0.000000 0.000000 0.000000
# 2 -0.003092 0.012104 -0.003665 0.000000 0.000000 0.000000
# 3 -0.002379 -0.003665 0.012359 0.000000 0.000000 0.000000
# 4 0.000000 0.000000 0.000000 0.129315 0.000000 0.000000
# 5 0.000000 0.000000 0.000000 0.000000 0.027533 0.000000
# 6 0.000000 0.000000 0.000000 0.000000 0.000000 0.053946
#
#
# Mechanical properties :
#
#
# Convention : Reuss Voigt Hill
#
# Bulk Modulus (GPa) = 61.01524 61.36262 61.18893
# Shear Modulus (GPa) = 18.57439 26.37607 22.47523
#
# Velocity S-wave (km/s) = 3.08702 3.67865 3.39574
# Velocity P-wave (km/s) = 6.63405 7.03746 6.83873
#
# Compressibility (1/GPa) = 0.01638935
#
# Stress axis : x y z
#
# Youngs Moduli (GPa) = 98.06951 82.61772 80.91031
#
# Poissons Ratio (x) = 0.25543 0.19250
# Poissons Ratio (y) = 0.30321 0.29650
# Poissons Ratio (z) = 0.23332 0.30275
#
# Static dielectric constant tensor:
#      x y z
#    x 3.608980 0.000000 0.000000 
#    y 0.000000 3.417800 0.000000 
#    z 0.000000 0.000000 3.697680 
# 
# 
# High freq. dielectric constant tensor:
#      x y z
#    x 1.768740 0.000000 0.000000 
#    y 0.000000 1.751890 0.000000 
#    z 0.000000 0.000000 1.769480 
# 
# From -- ./inp_files/33117.got.cif
#   From: 2010.03.12/outbox.cif.g09.slc.cpg/sg59_17_cif.got.tgz:33117.got - 2010.04.16 16:29:54.
