data_PCOD8245241
_publ_section_title
;
Structure prediction by ZEFSAII (Michael W. Deem and Ramdas Pophale) SiO2 
 PCOD8245241
Probable space group: P M M N
;
_chemical_formula_sum "Si O2"
_cell_formula_units_Z 64
_cell_length_a 28.953115
_cell_length_b 9.051076
_cell_length_c 12.635333
_cell_angle_alpha 90.000000
_cell_angle_beta 90.000000
_cell_angle_gamma 90.000000
_cell_volume 3311.175493
_symmetry_space_group_name_H-M "P M M N"
_symmetry_group_IT_number 59
_space_group.IT_coordinate_system_code '2'
_symmetry_cell_setting 'orthorhombic'
loop_
_space_group_symop_operation_xyz
x,y,z
1/2-x,1/2-y,z
1/2+x,-y,-z
-x,1/2+y,-z
-x,-y,-z
1/2+x,1/2+y,-z
1/2-x,y,z
x,1/2-y,z
loop_
_atom_site_type_symbol
_atom_site_label
_atom_site_fract_x
_atom_site_fract_y
_atom_site_fract_z
Si Si1 0.043678 0.576668 0.553332
Si Si2 0.602890 0.076319 0.042542
Si Si3 0.555549 0.074966 0.829291
Si Si4 0.301842 0.425293 0.445812
Si Si5 0.195671 0.088915 0.678639
Si Si6 0.546840 0.573855 0.223127
Si Si7 0.199103 0.921167 0.883525
Si Si8 0.886715 0.421035 0.632714
O O1 0.033191 0.750000 0.569454
O O2 0.056197 0.499662 0.663637
O O3 0.087170 0.551784 0.477158
O O4 0.000000 0.500000 0.500000
O O5 0.592751 0.250000 0.060180
O O6 0.658484 0.047633 0.031278
O O7 0.584778 0.983902 0.141736
O O8 0.578464 0.014636 0.937056
O O9 0.557886 0.250000 0.827532
O O10 0.502866 0.021448 0.821162
O O11 0.583169 0.011527 0.728624
O O12 0.250000 0.479701 0.418240
O O13 0.304382 0.250000 0.438741
O O14 0.316952 0.477742 0.563841
O O15 0.337497 0.497421 0.364451
O O16 0.250000 0.110367 0.681915
O O17 0.172060 0.250000 0.694709
O O18 0.179812 0.982753 0.772426
O O19 0.549547 0.750000 0.235176
O O20 0.250000 0.987644 0.916562
O O21 0.205651 0.750000 0.865278
O O22 0.877044 0.250000 0.652630
#
# Coordination Sequence:
#
# PCOD8245241 Si02
#       8
#     8   8   8   8   8   8   8   8
#     4  11  22  38  59  86 119 150 185 229 282 341
#     4  10  21  37  58  82 110 144 188 236 284 332
#     4   9  19  39  59  78 110 149 185 235 287 329
#     4   9  19  35  53  78 112 148 187 230 278 332
#     4   8  15  29  48  69  98 137 174 212 264 321
#     4  11  22  38  59  83 115 149 188 233 283 341
#     4   9  18  32  50  75 106 138 174 220 275 330
#     4  10  21  37  57  81 112 149 190 233 278 333
#
# _framework density 19.328482999999999
#
# number of rings (size 3 to 8) (size 9 to 14) (size 15 to 20)
#    0.000    2.375    1.250    1.875    1.750    2.250 
#    0.000    3.125    0.000    2.250    0.000    1.750 
#    0.000    0.000    0.000    0.000    0.000    0.000 
#
# Total GULP energy -793322.321356 kJ/mol
# GULP energy per Si atom -12395.661271 kJ/mol
# Density = 1.928449 g / cm^3
# Si number density = 19.328483 Si / 1000 Ang^3
#
#
#
# Elastic Constant Matrix: (Units=GPa)
#
#
# Indices 1 2 3 4 5 6 
#
# 1 119.5503 36.6707 46.3288 0.0000 0.0000 0.0000
# 2 36.6707 51.9256 31.8172 0.0000 0.0000 0.0000
# 3 46.3288 31.8172 105.9873 0.0000 0.0000 0.0000
# 4 0.0000 0.0000 0.0000 23.1802 0.0000 0.0000
# 5 0.0000 0.0000 0.0000 0.0000 25.2830 0.0000
# 6 0.0000 0.0000 0.0000 0.0000 0.0000 27.6909
#
#
#
# Elastic Compliance Matrix: (Units=1/GPa)
#
#
# Indices 1 2 3 4 5 6 
#
# 1 0.011485 -0.006170 -0.003168 0.000000 0.000000 0.000000
# 2 -0.006170 0.026913 -0.005383 0.000000 0.000000 0.000000
# 3 -0.003168 -0.005383 0.012436 0.000000 0.000000 0.000000
# 4 0.000000 0.000000 0.000000 0.043140 0.000000 0.000000
# 5 0.000000 0.000000 0.000000 0.000000 0.039552 0.000000
# 6 0.000000 0.000000 0.000000 0.000000 0.000000 0.036113
#
#
# Mechanical properties :
#
#
# Convention : Reuss Voigt Hill
#
# Bulk Modulus (GPa) = 46.74287 56.34405 51.54346
# Shear Modulus (GPa) = 24.24701 26.07395 25.16048
#
# Velocity S-wave (km/s) = 3.54569 3.67685 3.61186
# Velocity P-wave (km/s) = 6.40301 6.87311 6.64222
#
# Compressibility (1/GPa) = 0.02139364
#
# Stress axis : x y z
#
# Youngs Moduli (GPa) = 87.07133 37.15616 80.41317
#
# Poissons Ratio (x) = 0.22923 0.25476
# Poissons Ratio (y) = 0.53719 0.43283
# Poissons Ratio (z) = 0.27585 0.20000
#
# Static dielectric constant tensor:
#      x y z
#    x 3.702580 0.000000 0.000000 
#    y 0.000000 3.422370 0.000000 
#    z 0.000000 0.000000 3.694590 
# 
# 
# High freq. dielectric constant tensor:
#      x y z
#    x 1.763080 0.000000 0.000000 
#    y 0.000000 1.733540 0.000000 
#    z 0.000000 0.000000 1.738210 
# 
# From -- ./inp_files/19332.got.cif
#   From: 2010.03.12/outbox.cif.g09.slc.cpg/sg59_10_cif.got.tgz:19332.got - 2010.04.16 16:29:54.
