data_PCOD8245821
_publ_section_title
;
Structure prediction by ZEFSAII (Michael W. Deem and Ramdas Pophale) SiO2 
 PCOD8245821
Probable space group: P M M N
;
_chemical_formula_sum "Si O2"
_cell_formula_units_Z 48
_cell_length_a 8.743327
_cell_length_b 19.042722
_cell_length_c 14.804238
_cell_angle_alpha 90.000000
_cell_angle_beta 90.000000
_cell_angle_gamma 90.000000
_cell_volume 2464.857445
_symmetry_space_group_name_H-M "P M M N"
_symmetry_group_IT_number 59
_space_group.IT_coordinate_system_code '2'
_symmetry_cell_setting 'orthorhombic'
loop_
_space_group_symop_operation_xyz
x,y,z
1/2-x,1/2-y,z
1/2+x,-y,-z
-x,1/2+y,-z
-x,-y,-z
1/2+x,1/2+y,-z
1/2-x,y,z
x,1/2-y,z
loop_
_atom_site_type_symbol
_atom_site_label
_atom_site_fract_x
_atom_site_fract_y
_atom_site_fract_z
Si Si1 0.070393 0.929654 0.539918
Si Si2 0.575183 0.168569 0.134912
Si Si3 0.572316 0.935921 0.732066
Si Si4 0.926006 0.330792 0.926808
Si Si5 0.928155 0.919122 0.224448
Si Si6 0.070951 0.169391 0.601101
O O1 0.250000 0.937846 0.534835
O O2 0.021850 0.918536 0.642573
O O3 0.018627 0.862126 0.483581
O O4 0.000000 0.000000 0.500000
O O5 0.750000 0.149540 0.159406
O O6 0.543468 0.250000 0.154001
O O7 0.459753 0.124097 0.195021
O O8 0.543135 0.150515 0.030753
O O9 0.750000 0.937051 0.707767
O O10 0.524753 0.010102 0.773836
O O11 0.750000 0.345558 0.901472
O O12 0.967093 0.250000 0.907895
O O13 0.036805 0.378759 0.867799
O O14 0.750000 0.938000 0.228520
O O15 0.977898 0.870916 0.308402
O O16 0.250000 0.161413 0.582299
O O17 0.022261 0.250000 0.612565
#
# Coordination Sequence:
#
# PCOD8245821 Si02
#       6
#     8   8   8   8   8   8
#     4  12  24  41  64  88 118 159 201 244 299 359
#     4   9  20  41  65  88 118 158 203 252 303 357
#     4  12  25  40  62  90 120 158 200 250 305 358
#     4   9  19  37  61  88 121 160 201 248 302 358
#     4  11  22  37  60  89 123 162 201 246 299 358
#     4  10  22  40  62  90 123 159 201 249 297 351
#
# _framework density 19.473742000000001
#
# number of rings (size 3 to 8) (size 9 to 14) (size 15 to 20)
#    0.000    1.500    1.667    5.000    0.000    4.333 
#    0.000    1.667    0.000    0.000    0.000    0.000 
#    0.000    0.000    0.000    0.000    0.000    0.000 
#
# Total GULP energy -595499.078186 kJ/mol
# GULP energy per Si atom -12406.230796 kJ/mol
# Density = 1.942942 g / cm^3
# Si number density = 19.473742 Si / 1000 Ang^3
#
#
#
# Elastic Constant Matrix: (Units=GPa)
#
#
# Indices 1 2 3 4 5 6 
#
# 1 71.8173 41.1690 29.4452 0.0000 0.0000 0.0000
# 2 41.1690 106.5641 55.5250 0.0000 0.0000 0.0000
# 3 29.4452 55.5250 104.0253 0.0000 0.0000 0.0000
# 4 0.0000 0.0000 0.0000 40.0414 0.0000 0.0000
# 5 0.0000 0.0000 0.0000 0.0000 35.9890 0.0000
# 6 0.0000 0.0000 0.0000 0.0000 0.0000 24.1843
#
#
#
# Elastic Compliance Matrix: (Units=1/GPa)
#
#
# Indices 1 2 3 4 5 6 
#
# 1 0.018162 -0.006009 -0.001933 0.000000 0.000000 0.000000
# 2 -0.006009 0.014988 -0.006299 0.000000 0.000000 0.000000
# 3 -0.001933 -0.006299 0.013522 0.000000 0.000000 0.000000
# 4 0.000000 0.000000 0.000000 0.024974 0.000000 0.000000
# 5 0.000000 0.000000 0.000000 0.000000 0.027786 0.000000
# 6 0.000000 0.000000 0.000000 0.000000 0.000000 0.041349
#
#
# Mechanical properties :
#
#
# Convention : Reuss Voigt Hill
#
# Bulk Modulus (GPa) = 54.97847 59.40944 57.19396
# Shear Modulus (GPa) = 28.51820 30.46076 29.48948
#
# Velocity S-wave (km/s) = 3.83096 3.95928 3.89565
# Velocity P-wave (km/s) = 6.91821 7.17460 7.04757
#
# Compressibility (1/GPa) = 0.01818894
#
# Stress axis : x y z
#
# Youngs Moduli (GPa) = 55.06142 66.72219 73.95115
#
# Poissons Ratio (x) = 0.40093 0.14298
# Poissons Ratio (y) = 0.33086 0.46581
# Poissons Ratio (z) = 0.10645 0.42028
#
# Static dielectric constant tensor:
#      x y z
#    x 3.541180 0.000000 0.000000 
#    y 0.000000 3.586030 0.000000 
#    z 0.000000 0.000000 3.646880 
# 
# 
# High freq. dielectric constant tensor:
#      x y z
#    x 1.758880 0.000000 0.000000 
#    y 0.000000 1.763530 0.000000 
#    z 0.000000 0.000000 1.767120 
# 
# From -- ./inp_files/20325.got.cif
#   From: 2010.03.12/outbox.cif.g09.slc.cpg/sg59_11_cif.got.tgz:20325.got - 2010.04.16 16:29:54.
