data_PCOD8245142
_publ_section_title
;
Structure prediction by ZEFSAII (Michael W. Deem and Ramdas Pophale) SiO2 
 PCOD8245142
Probable space group: P M M N
;
_chemical_formula_sum "Si O2"
_cell_formula_units_Z 56
_cell_length_a 13.735468
_cell_length_b 13.947362
_cell_length_c 13.907540
_cell_angle_alpha 90.000000
_cell_angle_beta 90.000000
_cell_angle_gamma 90.000000
_cell_volume 2664.316732
_symmetry_space_group_name_H-M "P M M N"
_symmetry_group_IT_number 59
_space_group.IT_coordinate_system_code '2'
_symmetry_cell_setting 'orthorhombic'
loop_
_space_group_symop_operation_xyz
x,y,z
1/2-x,1/2-y,z
1/2+x,-y,-z
-x,1/2+y,-z
-x,-y,-z
1/2+x,1/2+y,-z
1/2-x,y,z
x,1/2-y,z
loop_
_atom_site_type_symbol
_atom_site_label
_atom_site_fract_x
_atom_site_fract_y
_atom_site_fract_z
Si Si1 0.137594 0.042891 0.305470
Si Si2 0.133963 0.644774 0.976050
Si Si3 0.133875 0.033197 0.090613
Si Si4 0.360704 0.857461 0.421962
Si Si5 0.135078 0.536734 0.789353
Si Si6 0.464373 0.860384 0.617894
Si Si7 0.865893 0.643516 0.093766
O O1 0.250000 0.072669 0.311961
O O2 0.094296 0.054896 0.197394
O O3 0.079364 0.116268 0.374119
O O4 0.121145 0.932585 0.336593
O O5 0.250000 0.646122 0.974546
O O6 0.090991 0.750000 0.997448
O O7 0.097402 0.608667 0.872181
O O8 0.097272 0.572737 0.059149
O O9 0.250000 0.034385 0.094300
O O10 0.094693 0.109639 0.011695
O O11 0.250000 0.864905 0.459989
O O12 0.381711 0.750000 0.382681
O O13 0.431238 0.882560 0.510079
O O14 0.250000 0.542907 0.777201
O O15 0.089312 0.565628 0.688234
O O16 0.102378 0.429338 0.821397
O O17 0.442270 0.750000 0.645170
O O18 0.750000 0.642620 0.087003
O O19 0.905676 0.750000 0.116458
#
# Coordination Sequence:
#
# PCOD8245142 Si02
#       7
#     8   8   8   8   8   8   8
#     4  10  21  37  55  76 105 139 175 214 256 307
#     4   8  13  23  42  69 101 135 169 209 259 309
#     4   8  15  27  45  70  97 131 175 215 252 300
#     4   9  19  37  61  85 105 129 165 211 265 320
#     4   9  17  30  50  77 107 138 175 219 266 312
#     4  11  22  35  54  80 108 138 174 217 263 311
#     4   8  14  27  48  73 104 143 182 218 257 303
#
# _framework density 21.018522000000001
#
# number of rings (size 3 to 8) (size 9 to 14) (size 15 to 20)
#    0.000    3.000    0.000    3.000    0.000    2.857 
#    0.000    7.857    0.000    2.571    0.000    2.000 
#    0.000    0.000    0.000    0.000    0.000    0.857 
#
# Total GULP energy -694217.610458 kJ/mol
# GULP energy per Si atom -12396.743044 kJ/mol
# Density = 2.097068 g / cm^3
# Si number density = 21.018522 Si / 1000 Ang^3
#
#
#
# Elastic Constant Matrix: (Units=GPa)
#
#
# Indices 1 2 3 4 5 6 
#
# 1 38.8493 16.2225 25.0508 0.0000 0.0000 0.0000
# 2 16.2225 127.5033 30.5631 0.0000 0.0000 0.0000
# 3 25.0508 30.5631 71.7389 0.0000 0.0000 0.0000
# 4 0.0000 0.0000 0.0000 26.3264 0.0000 0.0000
# 5 0.0000 0.0000 0.0000 0.0000 26.6623 0.0000
# 6 0.0000 0.0000 0.0000 0.0000 0.0000 19.4838
#
#
#
# Elastic Compliance Matrix: (Units=1/GPa)
#
#
# Indices 1 2 3 4 5 6 
#
# 1 0.033520 -0.001625 -0.011013 0.000000 0.000000 0.000000
# 2 -0.001625 0.008814 -0.003187 0.000000 0.000000 0.000000
# 3 -0.011013 -0.003187 0.019143 0.000000 0.000000 0.000000
# 4 0.000000 0.000000 0.000000 0.037985 0.000000 0.000000
# 5 0.000000 0.000000 0.000000 0.000000 0.037506 0.000000
# 6 0.000000 0.000000 0.000000 0.000000 0.000000 0.051325
#
#
# Mechanical properties :
#
#
# Convention : Reuss Voigt Hill
#
# Bulk Modulus (GPa) = 33.52728 42.41826 37.97277
# Shear Modulus (GPa) = 21.74998 25.57818 23.66408
#
# Velocity S-wave (km/s) = 3.22032 3.49224 3.35904
# Velocity P-wave (km/s) = 5.46015 6.04038 5.75758
#
# Compressibility (1/GPa) = 0.02982646
#
# Stress axis : x y z
#
# Youngs Moduli (GPa) = 29.83269 113.45914 52.23838
#
# Poissons Ratio (x) = 0.18437 0.57529
# Poissons Ratio (y) = 0.04848 0.16651
# Poissons Ratio (z) = 0.32854 0.36165
#
# Static dielectric constant tensor:
#      x y z
#    x 3.703910 0.000000 0.000000 
#    y 0.000000 4.055920 0.000000 
#    z 0.000000 0.000000 3.627070 
# 
# 
# High freq. dielectric constant tensor:
#      x y z
#    x 1.825690 0.000000 0.000000 
#    y 0.000000 1.820740 0.000000 
#    z 0.000000 0.000000 1.801440 
# 
# From -- ./inp_files/16985.got.cif
#   From: 2010.03.12/outbox.cif.g09.slc.cpg/sg59_9_cif.got.tgz:16985.got - 2010.04.16 16:29:54.
