data_PCOD8245521
_publ_section_title
;
Structure prediction by ZEFSAII (Michael W. Deem and Ramdas Pophale) SiO2 
 PCOD8245521
Probable space group: P M M N
;
_chemical_formula_sum "Si O2"
_cell_formula_units_Z 48
_cell_length_a 13.617095
_cell_length_b 13.661103
_cell_length_c 11.175345
_cell_angle_alpha 90.000000
_cell_angle_beta 90.000000
_cell_angle_gamma 90.000000
_cell_volume 2078.888383
_symmetry_space_group_name_H-M "P M M N"
_symmetry_group_IT_number 59
_space_group.IT_coordinate_system_code '2'
_symmetry_cell_setting 'orthorhombic'
loop_
_space_group_symop_operation_xyz
x,y,z
1/2-x,1/2-y,z
1/2+x,-y,-z
-x,1/2+y,-z
-x,-y,-z
1/2+x,1/2+y,-z
1/2-x,y,z
x,1/2-y,z
loop_
_atom_site_type_symbol
_atom_site_label
_atom_site_fract_x
_atom_site_fract_y
_atom_site_fract_z
Si Si1 0.860911 0.860250 0.597535
Si Si2 0.635530 0.644355 0.144124
Si Si3 0.865381 0.040948 0.015090
Si Si4 0.860668 0.463619 0.748700
Si Si5 0.446542 0.050636 0.633279
Si Si6 0.364989 0.861274 0.744807
O O1 0.750000 0.856075 0.547771
O O2 0.902019 0.750000 0.615263
O O3 0.862194 0.918396 0.724211
O O4 0.925748 0.924155 0.504516
O O5 0.750000 0.651059 0.117594
O O6 0.585963 0.750000 0.119419
O O7 0.586244 0.562161 0.058539
O O8 0.623980 0.614644 0.282847
O O9 0.750000 0.025123 0.006031
O O10 0.890249 0.123301 0.113843
O O11 0.900999 0.063551 0.880867
O O12 0.750000 0.422354 0.725442
O O13 0.940536 0.416636 0.659578
O O14 0.428313 0.934704 0.661887
O O15 0.250000 0.882965 0.722951
O O16 0.392255 0.750000 0.710814
#
# Coordination Sequence:
#
# PCOD8245521 Si02
#       6
#     8   8   8   8   8   8
#     4  10  21  38  61  85 107 135 175 226 284 339
#     4   9  17  30  53  85 114 140 176 227 283 329
#     4   8  16  33  53  75 110 149 183 223 270 320
#     4  10  22  38  54  75 108 150 188 222 265 321
#     4  11  20  34  56  82 110 142 181 228 275 322
#     4   9  18  33  55  83 113 147 186 227 272 320
#
# _framework density 23.089262000000002
#
# number of rings (size 3 to 8) (size 9 to 14) (size 15 to 20)
#    0.000    2.500    0.000    3.500    0.000    5.333 
#    0.000    6.667    0.000    5.000    0.000    7.000 
#    0.000    0.000    0.000    0.000    0.000    0.000 
#
# Total GULP energy -594782.947556 kJ/mol
# GULP energy per Si atom -12391.311407 kJ/mol
# Density = 2.303671 g / cm^3
# Si number density = 23.089262 Si / 1000 Ang^3
#
#
#
# Elastic Constant Matrix: (Units=GPa)
#
#
# Indices 1 2 3 4 5 6 
#
# 1 75.4523 6.8898 15.2966 0.0000 0.0000 0.0000
# 2 6.8898 78.7302 -5.3084 0.0000 0.0000 0.0000
# 3 15.2966 -5.3084 81.5996 0.0000 0.0000 0.0000
# 4 0.0000 0.0000 0.0000 21.8513 0.0000 0.0000
# 5 0.0000 0.0000 0.0000 0.0000 11.4890 0.0000
# 6 0.0000 0.0000 0.0000 0.0000 0.0000 10.3036
#
#
#
# Elastic Compliance Matrix: (Units=1/GPa)
#
#
# Indices 1 2 3 4 5 6 
#
# 1 0.013929 -0.001401 -0.002702 0.000000 0.000000 0.000000
# 2 -0.001401 0.012899 0.001102 0.000000 0.000000 0.000000
# 3 -0.002702 0.001102 0.012833 0.000000 0.000000 0.000000
# 4 0.000000 0.000000 0.000000 0.045764 0.000000 0.000000
# 5 0.000000 0.000000 0.000000 0.000000 0.087040 0.000000
# 6 0.000000 0.000000 0.000000 0.000000 0.000000 0.097053
#
#
# Mechanical properties :
#
#
# Convention : Reuss Voigt Hill
#
# Bulk Modulus (GPa) = 29.71108 29.94869 29.82988
# Shear Modulus (GPa) = 17.43738 23.32239 20.37988
#
# Velocity S-wave (km/s) = 2.75110 3.18165 2.97418
# Velocity P-wave (km/s) = 4.79450 5.14744 4.97411
#
# Compressibility (1/GPa) = 0.03365748
#
# Stress axis : x y z
#
# Youngs Moduli (GPa) = 71.79164 77.52830 77.92284
#
# Poissons Ratio (x) = 0.10863 0.21057
# Poissons Ratio (y) = 0.10059 -0.08585
# Poissons Ratio (z) = 0.19400 -0.08542
#
# Static dielectric constant tensor:
#      x y z
#    x 4.203100 0.000000 0.000000 
#    y 0.000000 4.158810 0.000000 
#    z 0.000000 0.000000 4.117560 
# 
# 
# High freq. dielectric constant tensor:
#      x y z
#    x 1.925390 0.000000 0.000000 
#    y 0.000000 1.887940 0.000000 
#    z 0.000000 0.000000 1.898310 
# 
# From -- ./inp_files/16835.got.cif
#   From: 2010.03.12/outbox.cif.g09.slc.cpg/sg59_9_cif.got.tgz:16835.got - 2010.04.16 16:29:54.
