data_PCOD8245255
_publ_section_title
;
Structure prediction by ZEFSAII (Michael W. Deem and Ramdas Pophale) SiO2 
 PCOD8245255
Probable space group: P M M N
;
_chemical_formula_sum "Si O2"
_cell_formula_units_Z 64
_cell_length_a 8.800817
_cell_length_b 31.002951
_cell_length_c 11.987106
_cell_angle_alpha 90.000000
_cell_angle_beta 90.000000
_cell_angle_gamma 90.000000
_cell_volume 3270.697434
_symmetry_space_group_name_H-M "P M M N"
_symmetry_group_IT_number 59
_space_group.IT_coordinate_system_code '2'
_symmetry_cell_setting 'orthorhombic'
loop_
_space_group_symop_operation_xyz
x,y,z
1/2-x,1/2-y,z
1/2+x,-y,-z
-x,1/2+y,-z
-x,-y,-z
1/2+x,1/2+y,-z
1/2-x,y,z
x,1/2-y,z
loop_
_atom_site_type_symbol
_atom_site_label
_atom_site_fract_x
_atom_site_fract_y
_atom_site_fract_z
Si Si1 0.929755 0.372667 0.634406
Si Si2 0.925315 0.453250 0.490705
Si Si3 0.571876 0.017373 0.887741
Si Si4 0.574921 0.445190 0.239397
Si Si5 0.429289 0.109472 0.860878
Si Si6 0.420559 0.200247 0.234064
Si Si7 0.426568 0.299453 0.490641
Si Si8 0.573322 0.134068 0.084593
O O1 0.750000 0.374794 0.652831
O O2 0.989071 0.417321 0.576849
O O3 0.014868 0.365374 0.751370
O O4 0.967752 0.331240 0.560234
O O5 0.750000 0.460916 0.515409
O O6 0.951478 0.432947 0.368041
O O7 0.000000 0.500000 0.500000
O O8 0.750000 0.020561 0.904141
O O9 0.509144 0.063659 0.858714
O O10 0.530101 0.986219 0.785914
O O11 0.500000 0.000000 0.000000
O O12 0.750000 0.457288 0.216464
O O13 0.522414 0.406358 0.160123
O O14 0.250000 0.103960 0.859257
O O15 0.477944 0.135516 0.970865
O O16 0.250000 0.182326 0.214695
O O17 0.426909 0.250000 0.201919
O O18 0.468668 0.193281 0.361718
O O19 0.539380 0.176795 0.154174
O O20 0.250000 0.309982 0.512084
O O21 0.461430 0.250000 0.524904
O O22 0.750000 0.131763 0.054674
#
# Coordination Sequence:
#
# PCOD8245255 Si02
#       8
#     8   8   8   8   8   8   8   8
#     4  11  23  40  61  88 121 158 201 251 305 361
#     4  10  22  38  56  82 116 155 195 240 293 350
#     4  12  23  37  57  83 114 153 198 244 291 345
#     4  10  21  37  57  82 114 150 191 240 291 343
#     4  12  25  41  60  83 115 157 200 246 296 354
#     4   9  19  37  61  89 122 156 190 234 290 352
#     4   9  19  38  64  93 123 157 198 243 295 358
#     4  11  22  37  59  86 116 149 191 243 291 346
#
# _framework density 19.567691
#
# number of rings (size 3 to 8) (size 9 to 14) (size 15 to 20)
#    0.000    1.500    1.250    5.250    0.000    6.000 
#    0.000    1.875    0.000    3.750    0.000    0.000 
#    0.000    0.000    0.000    0.000    0.000    0.000 
#
# Total GULP energy -793815.787303 kJ/mol
# GULP energy per Si atom -12403.371677 kJ/mol
# Density = 1.952315 g / cm^3
# Si number density = 19.567691 Si / 1000 Ang^3
#
#
#
# Elastic Constant Matrix: (Units=GPa)
#
#
# Indices 1 2 3 4 5 6 
#
# 1 102.0690 34.1224 43.9019 0.0000 0.0000 0.0000
# 2 34.1224 86.2837 41.8078 0.0000 0.0000 0.0000
# 3 43.9019 41.8078 108.6929 0.0000 0.0000 0.0000
# 4 0.0000 0.0000 0.0000 32.1450 0.0000 0.0000
# 5 0.0000 0.0000 0.0000 0.0000 31.5806 0.0000
# 6 0.0000 0.0000 0.0000 0.0000 0.0000 34.7110
#
#
#
# Elastic Compliance Matrix: (Units=1/GPa)
#
#
# Indices 1 2 3 4 5 6 
#
# 1 0.012484 -0.003065 -0.003863 0.000000 0.000000 0.000000
# 2 -0.003065 0.014997 -0.004531 0.000000 0.000000 0.000000
# 3 -0.003863 -0.004531 0.012503 0.000000 0.000000 0.000000
# 4 0.000000 0.000000 0.000000 0.031109 0.000000 0.000000
# 5 0.000000 0.000000 0.000000 0.000000 0.031665 0.000000
# 6 0.000000 0.000000 0.000000 0.000000 0.000000 0.028809
#
#
# Mechanical properties :
#
#
# Convention : Reuss Voigt Hill
#
# Bulk Modulus (GPa) = 58.59491 59.63442 59.11466
# Shear Modulus (GPa) = 31.21616 31.50157 31.35886
#
# Velocity S-wave (km/s) = 3.99844 4.01668 4.00757
# Velocity P-wave (km/s) = 7.16425 7.21483 7.18958
#
# Compressibility (1/GPa) = 0.01706633
#
# Stress axis : x y z
#
# Youngs Moduli (GPa) = 80.10500 66.68017 79.97899
#
# Poissons Ratio (x) = 0.20437 0.30898
# Poissons Ratio (y) = 0.24552 0.36235
# Poissons Ratio (z) = 0.30947 0.30210
#
# Static dielectric constant tensor:
#      x y z
#    x 3.559390 0.000000 0.000000 
#    y 0.000000 3.479110 0.000000 
#    z 0.000000 0.000000 3.530350 
# 
# 
# High freq. dielectric constant tensor:
#      x y z
#    x 1.762850 0.000000 0.000000 
#    y 0.000000 1.755470 0.000000 
#    z 0.000000 0.000000 1.771470 
# 
# From -- ./inp_files/14953.got.cif
#   From: 2010.03.12/outbox.cif.g09.slc.cpg/sg59_8_cif.got.tgz:14953.got - 2010.04.16 16:29:54.
