data_PCOD8245530
_publ_section_title
;
Structure prediction by ZEFSAII (Michael W. Deem and Ramdas Pophale) SiO2 
 PCOD8245530
Probable space group: P M M N
;
_chemical_formula_sum "Si O2"
_cell_formula_units_Z 48
_cell_length_a 14.925760
_cell_length_b 8.922263
_cell_length_c 18.891883
_cell_angle_alpha 90.000000
_cell_angle_beta 90.000000
_cell_angle_gamma 90.000000
_cell_volume 2515.861459
_symmetry_space_group_name_H-M "P M M N"
_symmetry_group_IT_number 59
_space_group.IT_coordinate_system_code '2'
_symmetry_cell_setting 'orthorhombic'
loop_
_space_group_symop_operation_xyz
x,y,z
1/2-x,1/2-y,z
1/2+x,-y,-z
-x,1/2+y,-z
-x,-y,-z
1/2+x,1/2+y,-z
1/2-x,y,z
x,1/2-y,z
loop_
_atom_site_type_symbol
_atom_site_label
_atom_site_fract_x
_atom_site_fract_y
_atom_site_fract_z
Si Si1 0.145867 0.576586 0.171358
Si Si2 0.998100 0.926950 0.923776
Si Si3 0.352208 0.423178 0.316786
Si Si4 0.496995 0.574876 0.575573
Si Si5 0.353298 0.076615 0.832188
Si Si6 0.146371 0.421722 0.669564
O O1 0.250000 0.548640 0.155550
O O2 0.119383 0.750000 0.164574
O O3 0.091300 0.481245 0.114991
O O4 0.120658 0.523269 0.249894
O O5 0.995281 0.750000 0.931877
O O6 0.086621 0.972171 0.880999
O O7 0.000000 0.000000 0.000000
O O8 0.250000 0.452642 0.339803
O O9 0.367870 0.250000 0.296198
O O10 0.414044 0.473163 0.381843
O O11 0.500000 0.500000 0.500000
O O12 0.493677 0.750000 0.563397
O O13 0.409439 0.527761 0.618583
O O14 0.250000 0.044262 0.850429
O O15 0.376451 0.250000 0.846631
O O16 0.373584 0.036104 0.750817
O O17 0.250000 0.448206 0.652029
O O18 0.119808 0.250000 0.655179
#
# Coordination Sequence:
#
# PCOD8245530 Si02
#       6
#     8   8   8   8   8   8
#     4  10  21  38  61  87 113 143 183 231 280 332
#     4  12  25  39  57  82 115 153 189 229 277 329
#     4   9  19  37  59  82 109 143 184 228 276 331
#     4  11  23  36  53  80 113 150 188 228 276 328
#     4   9  19  38  63  88 114 146 184 227 277 332
#     4   9  19  37  60  83 109 144 183 225 276 331
#
# _framework density 19.078952999999998
#
# number of rings (size 3 to 8) (size 9 to 14) (size 15 to 20)
#    0.000    2.000    0.000    4.500    0.000    7.667 
#    0.000    3.333    0.000    0.000    0.000    0.000 
#    0.000    0.000    0.000    0.000    0.000    0.000 
#
# Total GULP energy -595402.189109 kJ/mol
# GULP energy per Si atom -12404.212273 kJ/mol
# Density = 1.903553 g / cm^3
# Si number density = 19.078953 Si / 1000 Ang^3
#
#
#
# Elastic Constant Matrix: (Units=GPa)
#
#
# Indices 1 2 3 4 5 6 
#
# 1 109.0416 62.6597 82.8054 0.0000 0.0000 0.0000
# 2 62.6597 119.7849 80.5418 0.0000 0.0000 0.0000
# 3 82.8054 80.5418 149.0271 0.0000 0.0000 0.0000
# 4 0.0000 0.0000 0.0000 38.4754 0.0000 0.0000
# 5 0.0000 0.0000 0.0000 0.0000 4.3942 0.0000
# 6 0.0000 0.0000 0.0000 0.0000 0.0000 35.3108
#
#
#
# Elastic Compliance Matrix: (Units=1/GPa)
#
#
# Indices 1 2 3 4 5 6 
#
# 1 0.016999 -0.003992 -0.007288 0.000000 0.000000 0.000000
# 2 -0.003992 0.014051 -0.005376 0.000000 0.000000 0.000000
# 3 -0.007288 -0.005376 0.013665 0.000000 0.000000 0.000000
# 4 0.000000 0.000000 0.000000 0.025991 0.000000 0.000000
# 5 0.000000 0.000000 0.000000 0.000000 0.227572 0.000000
# 6 0.000000 0.000000 0.000000 0.000000 0.000000 0.028320
#
#
# Mechanical properties :
#
#
# Convention : Reuss Voigt Hill
#
# Bulk Modulus (GPa) = 87.68994 92.20747 89.94871
# Shear Modulus (GPa) = 13.74717 25.75920 19.75319
#
# Velocity S-wave (km/s) = 2.68720 3.67841 3.22116
# Velocity P-wave (km/s) = 7.46254 8.15324 7.81552
#
# Compressibility (1/GPa) = 0.01140382
#
# Stress axis : x y z
#
# Youngs Moduli (GPa) = 58.82641 71.16848 73.17940
#
# Poissons Ratio (x) = 0.28410 0.53333
# Poissons Ratio (y) = 0.23483 0.39340
# Poissons Ratio (z) = 0.42872 0.38259
#
# Static dielectric constant tensor:
#      x y z
#    x 3.616200 0.000000 0.000000 
#    y 0.000000 3.408250 0.000000 
#    z 0.000000 0.000000 3.534780 
# 
# 
# High freq. dielectric constant tensor:
#      x y z
#    x 1.755340 0.000000 0.000000 
#    y 0.000000 1.744630 0.000000 
#    z 0.000000 0.000000 1.740810 
# 
# From -- ./inp_files/25424.got.cif
#   From: 2010.03.12/outbox.cif.g09.slc.cpg/sg59_13_cif.got.tgz:25424.got - 2010.04.16 16:29:54.
