data_PCOD8245432
_publ_section_title
;
Structure prediction by ZEFSAII (Michael W. Deem and Ramdas Pophale) SiO2 
 PCOD8245432
Probable space group: P M M N
;
_chemical_formula_sum "Si O2"
_cell_formula_units_Z 48
_cell_length_a 27.943448
_cell_length_b 13.862473
_cell_length_c 6.742296
_cell_angle_alpha 90.000000
_cell_angle_beta 90.000000
_cell_angle_gamma 90.000000
_cell_volume 2611.731468
_symmetry_space_group_name_H-M "P M M N"
_symmetry_group_IT_number 59
_space_group.IT_coordinate_system_code '2'
_symmetry_cell_setting 'orthorhombic'
loop_
_space_group_symop_operation_xyz
x,y,z
1/2-x,1/2-y,z
1/2+x,-y,-z
-x,1/2+y,-z
-x,-y,-z
1/2+x,1/2+y,-z
1/2-x,y,z
x,1/2-y,z
loop_
_atom_site_type_symbol
_atom_site_label
_atom_site_fract_x
_atom_site_fract_y
_atom_site_fract_z
Si Si1 0.635967 0.987360 0.421721
Si Si2 0.469594 0.015652 0.695882
Si Si3 0.467354 0.637631 0.025992
Si Si4 0.868176 0.361846 0.760051
Si Si5 0.804830 0.639233 0.710242
Si Si6 0.805185 0.017229 0.029835
O O1 0.661054 0.900544 0.538757
O O2 0.583782 0.951265 0.357911
O O3 0.631431 0.083399 0.552012
O O4 0.667020 0.015609 0.233894
O O5 0.500000 0.000000 0.500000
O O6 0.491045 0.101085 0.828911
O O7 0.469879 0.915119 0.814933
O O8 0.474805 0.750000 0.985725
O O9 0.416645 0.613891 0.124224
O O10 0.862777 0.250000 0.711223
O O11 0.823731 0.395350 0.893695
O O12 0.750000 0.626164 0.639823
O O13 0.817709 0.750000 0.749840
O O14 0.813671 0.583603 0.916005
O O15 0.750000 0.036339 0.075668
#
# Coordination Sequence:
#
# PCOD8245432 Si02
#       6
#     8   8   8   8   8   8
#     4  11  21  36  60  88 115 151 190 240 289 337
#     4  11  22  38  59  86 117 150 193 240 284 339
#     4  10  22  39  60  84 115 155 193 232 284 343
#     4  10  21  38  59  84 114 152 193 234 284 343
#     4   9  20  38  59  84 115 151 190 234 286 343
#     4  10  21  38  58  83 116 152 189 234 286 340
#
# _framework density 18.378612
#
# number of rings (size 3 to 8) (size 9 to 14) (size 15 to 20)
#    0.000    1.833    3.333    0.500    0.000    4.333 
#    0.000    3.333    0.000    0.000    0.000    0.000 
#    0.000    0.000    0.000    0.000    0.000    0.000 
#
# Total GULP energy -595437.052000 kJ/mol
# GULP energy per Si atom -12404.938583 kJ/mol
# Density = 1.833678 g / cm^3
# Si number density = 18.378612 Si / 1000 Ang^3
#
#
#
# Elastic Constant Matrix: (Units=GPa)
#
#
# Indices 1 2 3 4 5 6 
#
# 1 133.6522 52.3327 61.8818 0.0000 0.0000 0.0000
# 2 52.3327 119.3945 52.8674 0.0000 0.0000 0.0000
# 3 61.8818 52.8674 117.6430 0.0000 0.0000 0.0000
# 4 0.0000 0.0000 0.0000 16.0288 0.0000 0.0000
# 5 0.0000 0.0000 0.0000 0.0000 42.0287 0.0000
# 6 0.0000 0.0000 0.0000 0.0000 0.0000 26.1390
#
#
#
# Elastic Compliance Matrix: (Units=1/GPa)
#
#
# Indices 1 2 3 4 5 6 
#
# 1 0.010547 -0.002705 -0.004333 0.000000 0.000000 0.000000
# 2 -0.002705 0.011150 -0.003588 0.000000 0.000000 0.000000
# 3 -0.004333 -0.003588 0.012392 0.000000 0.000000 0.000000
# 4 0.000000 0.000000 0.000000 0.062388 0.000000 0.000000
# 5 0.000000 0.000000 0.000000 0.000000 0.023793 0.000000
# 6 0.000000 0.000000 0.000000 0.000000 0.000000 0.038257
#
#
# Mechanical properties :
#
#
# Convention : Reuss Voigt Hill
#
# Bulk Modulus (GPa) = 77.89093 78.31706 78.10399
# Shear Modulus (GPa) = 27.16562 30.41315 28.78939
#
# Velocity S-wave (km/s) = 3.84879 4.07235 3.96215
# Velocity P-wave (km/s) = 7.88823 8.05095 7.97000
#
# Compressibility (1/GPa) = 0.01283847
#
# Stress axis : x y z
#
# Youngs Moduli (GPa) = 94.81298 89.68798 80.69963
#
# Poissons Ratio (x) = 0.24257 0.34963
# Poissons Ratio (y) = 0.25643 0.28955
# Poissons Ratio (z) = 0.41078 0.32180
#
# Static dielectric constant tensor:
#      x y z
#    x 3.777690 0.000000 0.000000 
#    y 0.000000 3.292250 0.000000 
#    z 0.000000 0.000000 3.520370 
# 
# 
# High freq. dielectric constant tensor:
#      x y z
#    x 1.726500 0.000000 0.000000 
#    y 0.000000 1.706750 0.000000 
#    z 0.000000 0.000000 1.723320 
# 
# From -- ./inp_files/2153.got.cif
#   From: 2010.03.12/outbox.cif.g09.slc.cpg/sg59_2_cif.got.tgz:2153.got - 2010.04.16 16:29:54.
