data_PCOD8245768
_publ_section_title
;
Structure prediction by ZEFSAII (Michael W. Deem and Ramdas Pophale) SiO2 
 PCOD8245768
Probable space group: P M M N
;
_chemical_formula_sum "Si O2"
_cell_formula_units_Z 64
_cell_length_a 17.711542
_cell_length_b 14.552589
_cell_length_c 12.166437
_cell_angle_alpha 90.000000
_cell_angle_beta 90.000000
_cell_angle_gamma 90.000000
_cell_volume 3135.884431
_symmetry_space_group_name_H-M "P M M N"
_symmetry_group_IT_number 59
_space_group.IT_coordinate_system_code '2'
_symmetry_cell_setting 'orthorhombic'
loop_
_space_group_symop_operation_xyz
x,y,z
1/2-x,1/2-y,z
1/2+x,-y,-z
-x,1/2+y,-z
-x,-y,-z
1/2+x,1/2+y,-z
1/2-x,y,z
x,1/2-y,z
loop_
_atom_site_type_symbol
_atom_site_label
_atom_site_fract_x
_atom_site_fract_y
_atom_site_fract_z
Si Si1 0.435413 0.556738 0.440977
Si Si2 0.164283 0.648104 0.823811
Si Si3 0.335683 0.502499 0.245089
Si Si4 0.665565 0.854424 0.928538
Si Si5 0.159809 0.517010 0.635104
Si Si6 0.870547 0.350432 0.937886
Si Si7 0.055059 0.142677 0.691995
Si Si8 0.527839 0.589426 0.067490
O O1 0.500000 0.500000 0.500000
O O2 0.393443 0.501143 0.345013
O O3 0.371043 0.577765 0.531750
O O4 0.479497 0.642740 0.385168
O O5 0.250000 0.660458 0.788295
O O6 0.125082 0.750000 0.817619
O O7 0.129350 0.573565 0.741068
O O8 0.158907 0.606823 0.947094
O O9 0.250000 0.502521 0.289668
O O10 0.355435 0.410692 0.179459
O O11 0.345770 0.588167 0.163646
O O12 0.750000 0.879305 0.971119
O O13 0.660197 0.750000 0.891619
O O14 0.607721 0.874755 0.025560
O O15 0.250000 0.507222 0.629149
O O16 0.124126 0.413816 0.635260
O O17 0.834271 0.250000 0.920313
O O18 0.960666 0.337980 0.948832
O O19 0.077130 0.250000 0.713438
O O20 0.037031 0.082815 0.801111
O O21 0.500000 0.500000 0.000000
#
# Coordination Sequence:
#
# PCOD8245768 Si02
#       8
#     8   8   8   8   8   8   8   8
#     4  10  22  42  62  84 117 160 212 262 315 365
#     4   9  19  36  57  86 122 158 202 257 318 382
#     4  11  22  38  62  90 122 161 206 259 318 381
#     4  10  22  39  59  88 126 165 205 252 310 379
#     4  10  22  40  64  89 119 162 214 265 319 379
#     4  11  21  35  58  89 124 161 200 251 313 382
#     4  11  23  39  60  89 128 167 207 262 321 383
#     4  12  21  37  60  89 125 168 209 251 305 373
#
# _framework density 20.408916000000001
#
# number of rings (size 3 to 8) (size 9 to 14) (size 15 to 20)
#    0.000    1.500    2.500    2.625    0.000    3.000 
#    0.000    2.500    0.000    5.250    0.000    0.000 
#    0.000    0.000    0.000    0.000    0.000    0.000 
#
# Total GULP energy -792932.382842 kJ/mol
# GULP energy per Si atom -12389.568482 kJ/mol
# Density = 2.036246 g / cm^3
# Si number density = 20.408916 Si / 1000 Ang^3
#
#
#
# Elastic Constant Matrix: (Units=GPa)
#
#
# Indices 1 2 3 4 5 6 
#
# 1 99.4274 27.7325 42.1914 0.0000 0.0000 0.0000
# 2 27.7325 75.4074 43.8181 0.0000 0.0000 0.0000
# 3 42.1914 43.8181 124.5412 0.0000 0.0000 0.0000
# 4 0.0000 0.0000 0.0000 11.9038 0.0000 0.0000
# 5 0.0000 0.0000 0.0000 0.0000 39.7606 0.0000
# 6 0.0000 0.0000 0.0000 0.0000 0.0000 24.7608
#
#
#
# Elastic Compliance Matrix: (Units=1/GPa)
#
#
# Indices 1 2 3 4 5 6 
#
# 1 0.012141 -0.002608 -0.003195 0.000000 0.000000 0.000000
# 2 -0.002608 0.017230 -0.005178 0.000000 0.000000 0.000000
# 3 -0.003195 -0.005178 0.010934 0.000000 0.000000 0.000000
# 4 0.000000 0.000000 0.000000 0.084007 0.000000 0.000000
# 5 0.000000 0.000000 0.000000 0.000000 0.025151 0.000000
# 6 0.000000 0.000000 0.000000 0.000000 0.000000 0.040386
#
#
# Mechanical properties :
#
#
# Convention : Reuss Voigt Hill
#
# Bulk Modulus (GPa) = 54.52424 58.54000 56.53212
# Shear Modulus (GPa) = 22.94358 27.66064 25.30211
#
# Velocity S-wave (km/s) = 3.35654 3.68546 3.52484
# Velocity P-wave (km/s) = 6.46496 6.84514 6.65777
#
# Compressibility (1/GPa) = 0.01834046
#
# Stress axis : x y z
#
# Youngs Moduli (GPa) = 82.36523 58.03955 91.45854
#
# Poissons Ratio (x) = 0.15139 0.29224
# Poissons Ratio (y) = 0.21483 0.47361
# Poissons Ratio (z) = 0.26319 0.30055
#
# Static dielectric constant tensor:
#      x y z
#    x 4.102960 0.000000 0.000000 
#    y 0.000000 3.702910 0.000000 
#    z 0.000000 0.000000 3.853300 
# 
# 
# High freq. dielectric constant tensor:
#      x y z
#    x 1.808390 0.000000 0.000000 
#    y 0.000000 1.783310 0.000000 
#    z 0.000000 0.000000 1.796650 
# 
# From -- ./inp_files/17856.got.cif
#   From: 2010.03.12/outbox.cif.g09.slc.cpg/sg59_9_cif.got.tgz:17856.got - 2010.04.16 16:29:54.
