data_PCOD8245604
_publ_section_title
;
Structure prediction by ZEFSAII (Michael W. Deem and Ramdas Pophale) SiO2 
 PCOD8245604
Probable space group: P M M N
;
_chemical_formula_sum "Si O2"
_cell_formula_units_Z 48
_cell_length_a 9.119443
_cell_length_b 28.619386
_cell_length_c 9.814970
_cell_angle_alpha 90.000000
_cell_angle_beta 90.000000
_cell_angle_gamma 90.000000
_cell_volume 2561.637084
_symmetry_space_group_name_H-M "P M M N"
_symmetry_group_IT_number 59
_space_group.IT_coordinate_system_code '2'
_symmetry_cell_setting 'orthorhombic'
loop_
_space_group_symop_operation_xyz
x,y,z
1/2-x,1/2-y,z
1/2+x,-y,-z
-x,1/2+y,-z
-x,-y,-z
1/2+x,1/2+y,-z
1/2-x,y,z
x,1/2-y,z
loop_
_atom_site_type_symbol
_atom_site_label
_atom_site_fract_x
_atom_site_fract_y
_atom_site_fract_z
Si Si1 0.421253 0.025787 0.878293
Si Si2 0.075349 0.879195 0.208468
Si Si3 0.921990 0.370190 0.479361
Si Si4 0.578648 0.804405 0.024957
Si Si5 0.917744 0.469653 0.392103
Si Si6 0.085806 0.195193 0.282957
O O1 0.250000 0.034617 0.909296
O O2 0.498404 0.074877 0.850267
O O3 0.444041 0.989962 0.755821
O O4 0.500000 0.000000 0.000000
O O5 0.250000 0.884785 0.195093
O O6 0.024532 0.872109 0.364349
O O7 0.022228 0.834294 0.125023
O O8 0.750000 0.363903 0.474969
O O9 0.975445 0.416582 0.399915
O O10 0.987219 0.326529 0.400216
O O11 0.750000 0.815863 0.047940
O O12 0.548551 0.750000 0.055159
O O13 0.531875 0.816954 0.869992
O O14 0.750000 0.470645 0.437071
O O15 0.000000 0.500000 0.500000
O O16 0.250000 0.176154 0.301672
O O17 0.080593 0.250000 0.305210
#
# Coordination Sequence:
#
# PCOD8245604 Si02
#       6
#     8   8   8   8   8   8
#     4  11  24  40  60  87 118 154 195 239 288 343
#     4  11  23  39  59  85 119 154 193 239 287 342
#     4  10  22  38  57  85 118 151 188 235 286 337
#     4   9  20  40  62  85 116 152 192 240 291 344
#     4  10  21  39  60  83 115 153 192 232 280 338
#     4   9  20  39  61  86 114 147 190 236 285 342
#
# _framework density 18.738016999999999
#
# number of rings (size 3 to 8) (size 9 to 14) (size 15 to 20)
#    0.000    2.000    1.667    2.000    2.333    4.667 
#    0.000    5.000    0.000    0.000    0.000    0.000 
#    0.000    0.000    0.000    0.000    0.000    0.000 
#
# Total GULP energy -595225.915263 kJ/mol
# GULP energy per Si atom -12400.539901 kJ/mol
# Density = 1.869537 g / cm^3
# Si number density = 18.738017 Si / 1000 Ang^3
#
#
#
# Elastic Constant Matrix: (Units=GPa)
#
#
# Indices 1 2 3 4 5 6 
#
# 1 75.9673 48.9839 68.5814 0.0000 0.0000 0.0000
# 2 48.9839 95.1754 72.8532 0.0000 0.0000 0.0000
# 3 68.5814 72.8532 126.3268 0.0000 0.0000 0.0000
# 4 0.0000 0.0000 0.0000 42.5355 0.0000 0.0000
# 5 0.0000 0.0000 0.0000 0.0000 35.6010 0.0000
# 6 0.0000 0.0000 0.0000 0.0000 0.0000 37.4338
#
#
#
# Elastic Compliance Matrix: (Units=1/GPa)
#
#
# Indices 1 2 3 4 5 6 
#
# 1 0.026982 -0.004788 -0.011887 0.000000 0.000000 0.000000
# 2 -0.004788 0.019660 -0.008739 0.000000 0.000000 0.000000
# 3 -0.011887 -0.008739 0.019409 0.000000 0.000000 0.000000
# 4 0.000000 0.000000 0.000000 0.023510 0.000000 0.000000
# 5 0.000000 0.000000 0.000000 0.000000 0.028089 0.000000
# 6 0.000000 0.000000 0.000000 0.000000 0.000000 0.026714
#
#
# Mechanical properties :
#
#
# Convention : Reuss Voigt Hill
#
# Bulk Modulus (GPa) = 65.68620 75.36738 70.52679
# Shear Modulus (GPa) = 24.96663 30.25079 27.60871
#
# Velocity S-wave (km/s) = 3.65417 4.02233 3.84266
# Velocity P-wave (km/s) = 7.27565 7.86646 7.57681
#
# Compressibility (1/GPa) = 0.01522390
#
# Stress axis : x y z
#
# Youngs Moduli (GPa) = 37.06147 50.86360 51.52171
#
# Poissons Ratio (x) = 0.24352 0.61245
# Poissons Ratio (y) = 0.17744 0.45025
# Poissons Ratio (z) = 0.44056 0.44450
#
# Static dielectric constant tensor:
#      x y z
#    x 3.353250 0.000000 0.000000 
#    y 0.000000 3.501160 0.000000 
#    z 0.000000 0.000000 3.551010 
# 
# 
# High freq. dielectric constant tensor:
#      x y z
#    x 1.727450 0.000000 0.000000 
#    y 0.000000 1.736940 0.000000 
#    z 0.000000 0.000000 1.737030 
# 
# From -- ./inp_files/6215.got.cif
#   From: 2010.03.12/outbox.cif.g09.slc.cpg/sg59_4_cif.got.tgz:6215.got - 2010.04.16 16:29:54.
