data_PCOD8245542
_publ_section_title
;
Structure prediction by ZEFSAII (Michael W. Deem and Ramdas Pophale) SiO2 
 PCOD8245542
Probable space group: P M M N
;
_chemical_formula_sum "Si O2"
_cell_formula_units_Z 40
_cell_length_a 8.541467
_cell_length_b 17.981788
_cell_length_c 12.618605
_cell_angle_alpha 90.000000
_cell_angle_beta 90.000000
_cell_angle_gamma 90.000000
_cell_volume 1938.102253
_symmetry_space_group_name_H-M "P M M N"
_symmetry_group_IT_number 59
_space_group.IT_coordinate_system_code '2'
_symmetry_cell_setting 'orthorhombic'
loop_
_space_group_symop_operation_xyz
x,y,z
1/2-x,1/2-y,z
1/2+x,-y,-z
-x,1/2+y,-z
-x,-y,-z
1/2+x,1/2+y,-z
1/2-x,y,z
x,1/2-y,z
loop_
_atom_site_type_symbol
_atom_site_label
_atom_site_fract_x
_atom_site_fract_y
_atom_site_fract_z
Si Si1 0.931901 0.664162 0.104631
Si Si2 0.569257 0.408051 0.695620
Si Si3 0.432090 0.932127 0.683331
Si Si4 0.932789 0.334880 0.117456
Si Si5 0.569145 0.835792 0.502595
O O1 0.750000 0.650979 0.125822
O O2 0.979984 0.750000 0.120747
O O3 0.029740 0.613333 0.184155
O O4 0.972844 0.638626 0.985757
O O5 0.750000 0.392886 0.672159
O O6 0.534052 0.494154 0.676134
O O7 0.465986 0.356977 0.618535
O O8 0.250000 0.953144 0.690508
O O9 0.487566 0.885499 0.785172
O O10 0.459839 0.884100 0.578505
O O11 0.750000 0.343847 0.093714
O O12 0.974840 0.250000 0.146740
O O13 0.750000 0.852077 0.527646
O O14 0.527727 0.750000 0.520404
#
# Coordination Sequence:
#
# PCOD8245542 Si02
#       5
#     8   8   8   8   8
#     4  10  21  38  61  88 118 153 195 243 293 346
#     4  12  25  40  60  86 119 157 197 242 293 349
#     4  11  23  40  62  88 121 157 195 241 292 347
#     4   9  19  37  61  88 117 152 195 240 287 343
#     4  11  24  42  64  89 118 152 193 241 292 349
#
# _framework density 20.638745
#
# number of rings (size 3 to 8) (size 9 to 14) (size 15 to 20)
#    0.000    1.400    0.000    5.400    0.000    8.400 
#    0.000    2.000    0.000    0.000    0.000    0.000 
#    0.000    0.000    0.000    0.000    0.000    0.000 
#
# Total GULP energy -496335.359078 kJ/mol
# GULP energy per Si atom -12408.383977 kJ/mol
# Density = 2.059177 g / cm^3
# Si number density = 20.638745 Si / 1000 Ang^3
#
#
#
# Elastic Constant Matrix: (Units=GPa)
#
#
# Indices 1 2 3 4 5 6 
#
# 1 55.7953 34.4047 24.6378 0.0000 0.0000 0.0000
# 2 34.4047 69.4350 25.4569 0.0000 0.0000 0.0000
# 3 24.6378 25.4569 95.0545 0.0000 0.0000 0.0000
# 4 0.0000 0.0000 0.0000 17.0838 0.0000 0.0000
# 5 0.0000 0.0000 0.0000 0.0000 36.8130 0.0000
# 6 0.0000 0.0000 0.0000 0.0000 0.0000 22.8151
#
#
#
# Elastic Compliance Matrix: (Units=1/GPa)
#
#
# Indices 1 2 3 4 5 6 
#
# 1 0.026982 -0.011982 -0.003785 0.000000 0.000000 0.000000
# 2 -0.011982 0.021291 -0.002596 0.000000 0.000000 0.000000
# 3 -0.003785 -0.002596 0.012197 0.000000 0.000000 0.000000
# 4 0.000000 0.000000 0.000000 0.058535 0.000000 0.000000
# 5 0.000000 0.000000 0.000000 0.000000 0.027164 0.000000
# 6 0.000000 0.000000 0.000000 0.000000 0.000000 0.043831
#
#
# Mechanical properties :
#
#
# Convention : Reuss Voigt Hill
#
# Bulk Modulus (GPa) = 42.11656 43.25375 42.68515
# Shear Modulus (GPa) = 21.30922 24.39474 22.85198
#
# Velocity S-wave (km/s) = 3.21672 3.44173 3.33113
# Velocity P-wave (km/s) = 5.85211 6.06606 5.96005
#
# Compressibility (1/GPa) = 0.02374363
#
# Stress axis : x y z
#
# Youngs Moduli (GPa) = 37.06132 46.96855 81.99003
#
# Poissons Ratio (x) = 0.56278 0.31032
# Poissons Ratio (y) = 0.44407 0.21287
# Poissons Ratio (z) = 0.14027 0.12194
#
# Static dielectric constant tensor:
#      x y z
#    x 3.643920 0.000000 0.000000 
#    y 0.000000 3.728380 0.000000 
#    z 0.000000 0.000000 3.767790 
# 
# 
# High freq. dielectric constant tensor:
#      x y z
#    x 1.810340 0.000000 0.000000 
#    y 0.000000 1.808170 0.000000 
#    z 0.000000 0.000000 1.819170 
# 
# From -- ./inp_files/13833.got.cif
#   From: 2010.03.12/outbox.cif.g09.slc.cpg/sg59_7_cif.got.tgz:13833.got - 2010.04.16 16:29:54.
