data_PCOD8245683
_publ_section_title
;
Structure prediction by ZEFSAII (Michael W. Deem and Ramdas Pophale) SiO2 
 PCOD8245683
Probable space group: P M M N
;
_chemical_formula_sum "Si O2"
_cell_formula_units_Z 32
_cell_length_a 12.658810
_cell_length_b 16.856444
_cell_length_c 7.632251
_cell_angle_alpha 90.000000
_cell_angle_beta 90.000000
_cell_angle_gamma 90.000000
_cell_volume 1628.588966
_symmetry_space_group_name_H-M "P M M N"
_symmetry_group_IT_number 59
_space_group.IT_coordinate_system_code '2'
_symmetry_cell_setting 'orthorhombic'
loop_
_space_group_symop_operation_xyz
x,y,z
1/2-x,1/2-y,z
1/2+x,-y,-z
-x,1/2+y,-z
-x,-y,-z
1/2+x,1/2+y,-z
1/2-x,y,z
x,1/2-y,z
loop_
_atom_site_type_symbol
_atom_site_label
_atom_site_fract_x
_atom_site_fract_y
_atom_site_fract_z
Si Si1 0.502976 0.399716 0.683898
Si Si2 0.943482 0.161786 0.043172
Si Si3 0.130047 0.250000 0.168862
Si Si4 0.370666 0.942760 0.647462
Si Si5 0.630755 0.750000 0.415938
O O1 0.587645 0.400691 0.528093
O O2 0.438203 0.480414 0.692773
O O3 0.424237 0.326887 0.662022
O O4 0.565543 0.389190 0.866059
O O5 0.894325 0.250000 0.015940
O O6 0.067617 0.171498 0.100798
O O7 0.877626 0.118533 0.193210
O O8 0.250000 0.250000 0.097937
O O9 0.126714 0.250000 0.376580
O O10 0.250000 0.967874 0.617159
O O11 0.750000 0.750000 0.347105
#
# Coordination Sequence:
#
# PCOD8245683 Si02
#       5
#     8   8   4   8   4
#     4  11  22  42  65  91 121 161 210 254 305 361
#     4  10  21  40  64  91 123 159 203 251 297 366
#     4   9  19  35  61  93 121 154 199 258 308 350
#     4  11  25  42  60  90 129 163 198 252 310 364
#     4  11  19  37  67  93 119 160 211 262 310 352
#
# _framework density 19.648910999999998
#
# number of rings (size 3 to 8) (size 9 to 14) (size 15 to 20)
#    0.750    0.750    3.750    1.500    0.000    4.500 
#    0.000    0.000    0.000    0.000    0.000    0.000 
#    0.000    0.000    0.000    0.000    0.000    0.000 
#
# Total GULP energy -396811.912028 kJ/mol
# GULP energy per Si atom -12400.372251 kJ/mol
# Density = 1.960419 g / cm^3
# Si number density = 19.648911 Si / 1000 Ang^3
#
#
#
# Elastic Constant Matrix: (Units=GPa)
#
#
# Indices 1 2 3 4 5 6 
#
# 1 62.3717 19.7199 37.9148 0.0000 0.0000 0.0000
# 2 19.7199 78.7313 35.3427 0.0000 0.0000 0.0000
# 3 37.9148 35.3427 137.0751 0.0000 0.0000 0.0000
# 4 0.0000 0.0000 0.0000 36.0012 0.0000 0.0000
# 5 0.0000 0.0000 0.0000 0.0000 2.0220 0.0000
# 6 0.0000 0.0000 0.0000 0.0000 0.0000 100.9331
#
#
#
# Elastic Compliance Matrix: (Units=1/GPa)
#
#
# Indices 1 2 3 4 5 6 
#
# 1 0.019816 -0.002830 -0.004751 0.000000 0.000000 0.000000
# 2 -0.002830 0.014768 -0.003025 0.000000 0.000000 0.000000
# 3 -0.004751 -0.003025 0.009389 0.000000 0.000000 0.000000
# 4 0.000000 0.000000 0.000000 0.027777 0.000000 0.000000
# 5 0.000000 0.000000 0.000000 0.000000 0.494567 0.000000
# 6 0.000000 0.000000 0.000000 0.000000 0.000000 0.009908
#
#
# Mechanical properties :
#
#
# Convention : Reuss Voigt Hill
#
# Bulk Modulus (GPa) = 43.93592 51.57033 47.75312
# Shear Modulus (GPa) = 8.26412 40.13796 24.20104
#
# Velocity S-wave (km/s) = 2.05305 4.52459 3.51333
# Velocity P-wave (km/s) = 5.29425 7.32112 6.38858
#
# Compressibility (1/GPa) = 0.02276042
#
# Stress axis : x y z
#
# Youngs Moduli (GPa) = 50.46414 67.71281 106.50322
#
# Poissons Ratio (x) = 0.19166 0.50603
# Poissons Ratio (y) = 0.14284 0.32216
# Poissons Ratio (z) = 0.23977 0.20482
#
# Static dielectric constant tensor:
#      x y z
#    x 3.426870 0.000000 0.000000 
#    y 0.000000 1.549850 0.000000 
#    z 0.000000 0.000000 3.695810 
# 
# 
# High freq. dielectric constant tensor:
#      x y z
#    x 1.749940 0.000000 0.000000 
#    y 0.000000 1.764650 0.000000 
#    z 0.000000 0.000000 1.782870 
# 
# From -- ./inp_files/7051.got.cif
#   From: 2010.03.12/outbox.cif.g09.slc.cpg/sg59_4_cif.got.tgz:7051.got - 2010.04.16 16:29:54.
