data_PCOD8245847
_publ_section_title
;
Structure prediction by ZEFSAII (Michael W. Deem and Ramdas Pophale) SiO2 
 PCOD8245847
Probable space group: P M M N
;
_chemical_formula_sum "Si O2"
_cell_formula_units_Z 48
_cell_length_a 27.759888
_cell_length_b 9.991822
_cell_length_c 9.044286
_cell_angle_alpha 90.000000
_cell_angle_beta 90.000000
_cell_angle_gamma 90.000000
_cell_volume 2508.630427
_symmetry_space_group_name_H-M "P M M N"
_symmetry_group_IT_number 59
_space_group.IT_coordinate_system_code '2'
_symmetry_cell_setting 'orthorhombic'
loop_
_space_group_symop_operation_xyz
x,y,z
1/2-x,1/2-y,z
1/2+x,-y,-z
-x,1/2+y,-z
-x,-y,-z
1/2+x,1/2+y,-z
1/2-x,y,z
x,1/2-y,z
loop_
_atom_site_type_symbol
_atom_site_label
_atom_site_fract_x
_atom_site_fract_y
_atom_site_fract_z
Si Si1 0.859265 0.014453 0.171384
Si Si2 0.944751 0.405939 0.361349
Si Si3 0.859841 0.005457 0.821872
Si Si4 0.192501 0.750000 0.330071
Si Si5 0.195344 0.250000 0.824946
Si Si6 0.194200 0.750000 0.674174
Si Si7 0.802711 0.750000 0.825221
Si Si8 0.055769 0.406557 0.359930
O O1 0.913862 0.036890 0.225168
O O2 0.825426 0.121324 0.245745
O O3 0.836414 0.875593 0.226352
O O4 0.859086 0.030225 0.995858
O O5 0.931447 0.250000 0.397385
O O6 0.933062 0.502962 0.497693
O O7 0.000138 0.417545 0.313922
O O8 0.833784 0.125191 0.741047
O O9 0.829834 0.878965 0.767289
O O10 0.914550 0.975325 0.772700
O O11 0.250000 0.750000 0.297593
O O12 0.180529 0.750000 0.502637
O O13 0.250000 0.250000 0.756894
O O14 0.200373 0.250000 0.999448
O O15 0.250000 0.750000 0.699430
O O16 0.750000 0.750000 0.753582
O O17 0.069386 0.250000 0.387522
#
# Coordination Sequence:
#
# PCOD8245847 Si02
#       8
#     8   8   8   4   4   4   4   8
#     4  11  22  38  62  90 120 159 200 249 304 353
#     4  10  22  41  63  89 121 160 200 246 299 362
#     4  11  22  38  62  91 121 157 200 250 305 354
#     4  11  25  41  60  89 124 161 202 249 298 361
#     4   9  20  36  56  85 120 155 192 237 288 351
#     4  11  23  41  60  85 122 161 204 249 300 361
#     4   9  18  36  58  83 118 153 192 239 294 353
#     4  10  22  41  64  89 120 159 201 247 301 361
#
# _framework density 19.133946000000002
#
# number of rings (size 3 to 8) (size 9 to 14) (size 15 to 20)
#    0.000    1.667    1.667    2.500    2.333    3.333 
#    0.000    0.000    0.000    4.000    0.000    0.000 
#    0.000    0.000    0.000    0.000    0.000    0.000 
#
# Total GULP energy -595076.735034 kJ/mol
# GULP energy per Si atom -12397.431980 kJ/mol
# Density = 1.909040 g / cm^3
# Si number density = 19.133946 Si / 1000 Ang^3
#
#
#
# Elastic Constant Matrix: (Units=GPa)
#
#
# Indices 1 2 3 4 5 6 
#
# 1 121.5070 82.7640 85.5430 0.0000 0.0000 0.0000
# 2 82.7640 178.0525 66.5915 0.0000 0.0000 0.0000
# 3 85.5430 66.5915 92.1716 0.0000 0.0000 0.0000
# 4 0.0000 0.0000 0.0000 33.1512 0.0000 0.0000
# 5 0.0000 0.0000 0.0000 0.0000 29.5142 0.0000
# 6 0.0000 0.0000 0.0000 0.0000 0.0000 42.9954
#
#
#
# Elastic Compliance Matrix: (Units=1/GPa)
#
#
# Indices 1 2 3 4 5 6 
#
# 1 0.025817 -0.004165 -0.020951 0.000000 0.000000 0.000000
# 2 -0.004165 0.008368 -0.002180 0.000000 0.000000 0.000000
# 3 -0.020951 -0.002180 0.031869 0.000000 0.000000 0.000000
# 4 0.000000 0.000000 0.000000 0.030165 0.000000 0.000000
# 5 0.000000 0.000000 0.000000 0.000000 0.033882 0.000000
# 6 0.000000 0.000000 0.000000 0.000000 0.000000 0.023258
#
#
# Mechanical properties :
#
#
# Convention : Reuss Voigt Hill
#
# Bulk Modulus (GPa) = 87.25172 95.72536 91.48854
# Shear Modulus (GPa) = 23.61039 31.58767 27.59903
#
# Velocity S-wave (km/s) = 3.51658 4.06750 3.80203
# Velocity P-wave (km/s) = 7.88593 8.49689 8.19710
#
# Compressibility (1/GPa) = 0.01146109
#
# Stress axis : x y z
#
# Youngs Moduli (GPa) = 38.73452 119.50921 31.37839
#
# Poissons Ratio (x) = 0.49771 0.65742
# Poissons Ratio (y) = 0.16131 0.06841
# Poissons Ratio (z) = 0.81154 0.26056
#
# Static dielectric constant tensor:
#      x y z
#    x 3.752770 0.000000 0.000000 
#    y 0.000000 3.634730 0.000000 
#    z 0.000000 0.000000 3.319850 
# 
# 
# High freq. dielectric constant tensor:
#      x y z
#    x 1.762430 0.000000 0.000000 
#    y 0.000000 1.764890 0.000000 
#    z 0.000000 0.000000 1.728000 
# 
# From -- ./inp_files/13087.got.cif
#   From: 2010.03.12/outbox.cif.g09.slc.cpg/sg59_7_cif.got.tgz:13087.got - 2010.04.16 16:29:54.
