data_PCOD8245220
_publ_section_title
;
Structure prediction by ZEFSAII (Michael W. Deem and Ramdas Pophale) SiO2 
 PCOD8245220
Probable space group: P M M N
;
_chemical_formula_sum "Si O2"
_cell_formula_units_Z 48
_cell_length_a 9.040485
_cell_length_b 13.755547
_cell_length_c 18.608339
_cell_angle_alpha 90.000000
_cell_angle_beta 90.000000
_cell_angle_gamma 90.000000
_cell_volume 2314.073795
_symmetry_space_group_name_H-M "P M M N"
_symmetry_group_IT_number 59
_space_group.IT_coordinate_system_code '2'
_symmetry_cell_setting 'orthorhombic'
loop_
_space_group_symop_operation_xyz
x,y,z
1/2-x,1/2-y,z
1/2+x,-y,-z
-x,1/2+y,-z
-x,-y,-z
1/2+x,1/2+y,-z
1/2-x,y,z
x,1/2-y,z
loop_
_atom_site_type_symbol
_atom_site_label
_atom_site_fract_x
_atom_site_fract_y
_atom_site_fract_z
Si Si1 0.915641 0.365427 0.117422
Si Si2 0.923299 0.639522 0.179605
Si Si3 0.921250 0.138240 0.534898
Si Si4 0.074980 0.033889 0.245762
Si Si5 0.585754 0.865996 0.019482
Si Si6 0.078061 0.530851 0.610437
O O1 0.750000 0.405897 0.129631
O O2 0.917303 0.250000 0.114305
O O3 0.019661 0.397145 0.182207
O O4 0.973406 0.407119 0.040658
O O5 0.750000 0.631188 0.197055
O O6 0.977680 0.750000 0.187467
O O7 0.956393 0.597270 0.099497
O O8 0.017734 0.576086 0.234875
O O9 0.750000 0.120601 0.554070
O O10 0.966959 0.250000 0.543798
O O11 0.019830 0.075987 0.589341
O O12 0.953073 0.106742 0.453179
O O13 0.250000 0.036714 0.248824
O O14 0.009050 0.072188 0.320801
O O15 0.750000 0.901209 0.998512
O O16 0.582495 0.750000 0.022447
O O17 0.250000 0.522912 0.629432
#
# Coordination Sequence:
#
# PCOD8245220 Si02
#       6
#     8   8   8   8   8   8
#     4  10  21  37  57  80 108 145 189 236 285 337
#     4   9  19  37  59  81 108 145 189 237 287 337
#     4   9  19  38  64  90 114 143 179 219 267 323
#     4  12  25  38  55  81 115 153 189 230 279 330
#     4   8  15  31  55  80 106 138 181 235 288 336
#     4  10  21  38  59  85 117 148 182 225 269 320
#
# _framework density 20.742640000000002
#
# number of rings (size 3 to 8) (size 9 to 14) (size 15 to 20)
#    0.000    2.333    0.000    3.500    0.000    5.000 
#    0.000    3.333    0.000    0.000    0.000    0.000 
#    0.000    0.000    0.000    0.000    0.000    0.000 
#
# Total GULP energy -595315.815439 kJ/mol
# GULP energy per Si atom -12402.412822 kJ/mol
# Density = 2.069543 g / cm^3
# Si number density = 20.742640 Si / 1000 Ang^3
#
#
#
# Elastic Constant Matrix: (Units=GPa)
#
#
# Indices 1 2 3 4 5 6 
#
# 1 114.8005 6.9476 40.2761 0.0000 0.0000 0.0000
# 2 6.9476 21.4685 -12.7333 0.0000 0.0000 0.0000
# 3 40.2761 -12.7333 81.8152 0.0000 0.0000 0.0000
# 4 0.0000 0.0000 0.0000 21.1671 0.0000 0.0000
# 5 0.0000 0.0000 0.0000 0.0000 40.7034 0.0000
# 6 0.0000 0.0000 0.0000 0.0000 0.0000 29.9273
#
#
#
# Elastic Compliance Matrix: (Units=1/GPa)
#
#
# Indices 1 2 3 4 5 6 
#
# 1 0.011627 -0.007885 -0.006951 0.000000 0.000000 0.000000
# 2 -0.007885 0.056665 0.012701 0.000000 0.000000 0.000000
# 3 -0.006951 0.012701 0.017621 0.000000 0.000000 0.000000
# 4 0.000000 0.000000 0.000000 0.047243 0.000000 0.000000
# 5 0.000000 0.000000 0.000000 0.000000 0.024568 0.000000
# 6 0.000000 0.000000 0.000000 0.000000 0.000000 0.033414
#
#
# Mechanical properties :
#
#
# Convention : Reuss Voigt Hill
#
# Bulk Modulus (GPa) = 12.24860 31.89610 22.07235
# Shear Modulus (GPa) = 22.45961 30.59916 26.52938
#
# Velocity S-wave (km/s) = 3.29412 3.84498 3.58016
# Velocity P-wave (km/s) = 4.51511 5.92640 5.26823
#
# Compressibility (1/GPa) = 0.08164199
#
# Stress axis : x y z
#
# Youngs Moduli (GPa) = 86.01025 17.64767 56.75034
#
# Poissons Ratio (x) = 0.13915 0.39446
# Poissons Ratio (y) = 0.67820 -0.72077
# Poissons Ratio (z) = 0.59783 -0.22414
#
# Static dielectric constant tensor:
#      x y z
#    x 3.760290 0.000000 0.000000 
#    y 0.000000 3.633130 0.000000 
#    z 0.000000 0.000000 3.808410 
# 
# 
# High freq. dielectric constant tensor:
#      x y z
#    x 1.807720 0.000000 0.000000 
#    y 0.000000 1.811380 0.000000 
#    z 0.000000 0.000000 1.813610 
# 
# From -- ./inp_files/25483.got.cif
#   From: 2010.03.12/outbox.cif.g09.slc.cpg/sg59_13_cif.got.tgz:25483.got - 2010.04.16 16:29:54.
