data_PCOD8245643
_publ_section_title
;
Structure prediction by ZEFSAII (Michael W. Deem and Ramdas Pophale) SiO2 
 PCOD8245643
Probable space group: P M M N
;
_chemical_formula_sum "Si O2"
_cell_formula_units_Z 48
_cell_length_a 15.065937
_cell_length_b 8.704621
_cell_length_c 18.647472
_cell_angle_alpha 90.000000
_cell_angle_beta 90.000000
_cell_angle_gamma 90.000000
_cell_volume 2445.490485
_symmetry_space_group_name_H-M "P M M N"
_symmetry_group_IT_number 59
_space_group.IT_coordinate_system_code '2'
_symmetry_cell_setting 'orthorhombic'
loop_
_space_group_symop_operation_xyz
x,y,z
1/2-x,1/2-y,z
1/2+x,-y,-z
-x,1/2+y,-z
-x,-y,-z
1/2+x,1/2+y,-z
1/2-x,y,z
x,1/2-y,z
loop_
_atom_site_type_symbol
_atom_site_label
_atom_site_fract_x
_atom_site_fract_y
_atom_site_fract_z
Si Si1 0.898563 0.569961 0.827318
Si Si2 0.409203 0.928450 0.667354
Si Si3 0.750000 0.926069 0.585336
Si Si4 0.750000 0.572518 0.076131
Si Si5 0.402264 0.569012 0.324998
Si Si6 0.750000 0.069905 0.923124
Si Si7 0.750000 0.926344 0.415916
Si Si8 0.397538 0.574185 0.831440
O O1 0.881901 0.750000 0.821530
O O2 0.872143 0.498484 0.751271
O O3 0.838460 0.500400 0.889281
O O4 0.000241 0.533118 0.846987
O O5 0.428777 0.750000 0.653364
O O6 0.375035 0.953875 0.748214
O O7 0.499052 0.020553 0.653323
O O8 0.336644 0.989070 0.612818
O O9 0.750000 0.750000 0.610421
O O10 0.750000 0.941005 0.500520
O O11 0.662466 0.008521 0.613888
O O12 0.750000 0.750000 0.053385
O O13 0.837650 0.538606 0.122101
O O14 0.750000 0.466297 0.006759
O O15 0.395679 0.750000 0.320208
O O16 0.750000 0.250000 0.910309
O O17 0.750000 0.750000 0.390298
O O18 0.376624 0.750000 0.852520
#
# Coordination Sequence:
#
# PCOD8245643 Si02
#       8
#     8   8   4   4   8   4   4   8
#     4  10  21  40  64  88 116 150 191 238 289 343
#     4  10  21  39  63  88 117 154 193 237 292 348
#     4  11  24  41  58  81 118 159 196 237 292 351
#     4  12  25  38  57  85 118 155 191 234 287 340
#     4  11  22  38  62  90 117 149 195 243 287 340
#     4  12  25  40  59  84 118 156 193 236 285 342
#     4  11  24  39  58  86 118 154 196 243 292 345
#     4   9  20  39  62  86 113 149 190 233 282 339
#
# _framework density 19.627963999999999
#
# number of rings (size 3 to 8) (size 9 to 14) (size 15 to 20)
#    0.000    1.500    0.000    6.500    0.000    8.667 
#    0.000    0.000    0.000    0.000    0.000    0.000 
#    0.000    0.000    0.000    0.000    0.000    0.000 
#
# Total GULP energy -595504.947845 kJ/mol
# GULP energy per Si atom -12406.353080 kJ/mol
# Density = 1.958329 g / cm^3
# Si number density = 19.627964 Si / 1000 Ang^3
#
#
#
# Elastic Constant Matrix: (Units=GPa)
#
#
# Indices 1 2 3 4 5 6 
#
# 1 105.7835 49.9347 55.8999 0.0000 0.0000 0.0000
# 2 49.9347 140.5010 48.4240 0.0000 0.0000 0.0000
# 3 55.8999 48.4240 88.9417 0.0000 0.0000 0.0000
# 4 0.0000 0.0000 0.0000 34.2887 0.0000 0.0000
# 5 0.0000 0.0000 0.0000 0.0000 14.7535 0.0000
# 6 0.0000 0.0000 0.0000 0.0000 0.0000 25.9888
#
#
#
# Elastic Compliance Matrix: (Units=1/GPa)
#
#
# Indices 1 2 3 4 5 6 
#
# 1 0.014855 -0.002538 -0.007954 0.000000 0.000000 0.000000
# 2 -0.002538 0.009195 -0.003411 0.000000 0.000000 0.000000
# 3 -0.007954 -0.003411 0.018100 0.000000 0.000000 0.000000
# 4 0.000000 0.000000 0.000000 0.029164 0.000000 0.000000
# 5 0.000000 0.000000 0.000000 0.000000 0.067781 0.000000
# 6 0.000000 0.000000 0.000000 0.000000 0.000000 0.038478
#
#
# Mechanical properties :
#
#
# Convention : Reuss Voigt Hill
#
# Bulk Modulus (GPa) = 69.72208 71.52704 70.62456
# Shear Modulus (GPa) = 23.79136 27.07070 25.43103
#
# Velocity S-wave (km/s) = 3.48532 3.71777 3.60342
# Velocity P-wave (km/s) = 7.19691 7.41280 7.30565
#
# Compressibility (1/GPa) = 0.01434266
#
# Stress axis : x y z
#
# Youngs Moduli (GPa) = 67.31878 108.75448 55.24908
#
# Poissons Ratio (x) = 0.27601 0.43947
# Poissons Ratio (y) = 0.17085 0.18846
# Poissons Ratio (z) = 0.53548 0.37097
#
# Static dielectric constant tensor:
#      x y z
#    x 3.658160 0.000000 0.000000 
#    y 0.000000 3.694950 0.000000 
#    z 0.000000 0.000000 3.492560 
# 
# 
# High freq. dielectric constant tensor:
#      x y z
#    x 1.778940 0.000000 0.000000 
#    y 0.000000 1.778870 0.000000 
#    z 0.000000 0.000000 1.761080 
# 
# From -- ./inp_files/27512.got.cif
#   From: 2010.03.12/outbox.cif.g09.slc.cpg/sg59_14_cif.got.tgz:27512.got - 2010.04.16 16:29:54.
