data_PCOD8245478
_publ_section_title
;
Structure prediction by ZEFSAII (Michael W. Deem and Ramdas Pophale) SiO2 
 PCOD8245478
Probable space group: P M M N
;
_chemical_formula_sum "Si O2"
_cell_formula_units_Z 40
_cell_length_a 9.300913
_cell_length_b 15.851793
_cell_length_c 14.696652
_cell_angle_alpha 90.000000
_cell_angle_beta 90.000000
_cell_angle_gamma 90.000000
_cell_volume 2166.817753
_symmetry_space_group_name_H-M "P M M N"
_symmetry_group_IT_number 59
_space_group.IT_coordinate_system_code '2'
_symmetry_cell_setting 'orthorhombic'
loop_
_space_group_symop_operation_xyz
x,y,z
1/2-x,1/2-y,z
1/2+x,-y,-z
-x,1/2+y,-z
-x,-y,-z
1/2+x,1/2+y,-z
1/2-x,y,z
x,1/2-y,z
loop_
_atom_site_type_symbol
_atom_site_label
_atom_site_fract_x
_atom_site_fract_y
_atom_site_fract_z
Si Si1 0.080129 0.585577 0.523577
Si Si2 0.916172 0.609928 0.073833
Si Si3 0.420791 0.656712 0.712926
Si Si4 0.417563 0.584147 0.900484
Si Si5 0.918858 0.750000 0.216330
Si Si6 0.419909 0.750000 0.407166
O O1 0.250000 0.571225 0.515487
O O2 0.030366 0.602587 0.626703
O O3 0.033188 0.665480 0.461561
O O4 0.000000 0.500000 0.500000
O O5 0.750000 0.625045 0.051123
O O6 0.950662 0.514704 0.101077
O O7 0.963988 0.668125 0.157899
O O8 0.004161 0.632488 0.982899
O O9 0.250000 0.659655 0.716744
O O10 0.484548 0.750000 0.701859
O O11 0.481832 0.617542 0.805790
O O12 0.250000 0.603772 0.910770
O O13 0.750000 0.750000 0.238867
O O14 0.004244 0.750000 0.309949
O O15 0.250000 0.750000 0.392519
#
# Coordination Sequence:
#
# PCOD8245478 Si02
#       6
#     8   8   8   8   4   4
#     4  10  21  38  60  83 111 146 183 228 279 328
#     4   9  19  35  50  74 108 138 171 215 264 315
#     4   9  17  32  55  80 105 137 177 219 264 320
#     4   9  18  32  54  78 101 134 177 217 257 312
#     4  10  22  36  55  78 106 144 181 218 271 328
#     4  10  22  40  57  82 114 144 185 234 277 322
#
# _framework density 18.460251
#
# number of rings (size 3 to 8) (size 9 to 14) (size 15 to 20)
#    0.000    2.600    1.000    0.000    4.200    1.600 
#    0.000    1.000    0.000    1.200    0.000    0.000 
#    0.000    0.000    0.000    0.000    0.000    0.000 
#
# Total GULP energy -495922.309720 kJ/mol
# GULP energy per Si atom -12398.057743 kJ/mol
# Density = 1.841823 g / cm^3
# Si number density = 18.460251 Si / 1000 Ang^3
#
#
#
# Elastic Constant Matrix: (Units=GPa)
#
#
# Indices 1 2 3 4 5 6 
#
# 1 35.8868 40.7117 51.4799 0.0000 0.0000 0.0000
# 2 40.7117 123.7867 80.2425 0.0000 0.0000 0.0000
# 3 51.4799 80.2425 186.8406 0.0000 0.0000 0.0000
# 4 0.0000 0.0000 0.0000 35.0266 0.0000 0.0000
# 5 0.0000 0.0000 0.0000 0.0000 30.5192 0.0000
# 6 0.0000 0.0000 0.0000 0.0000 0.0000 25.7401
#
#
#
# Elastic Compliance Matrix: (Units=1/GPa)
#
#
# Indices 1 2 3 4 5 6 
#
# 1 0.056090 -0.011681 -0.010438 0.000000 0.000000 0.000000
# 2 -0.011681 0.013628 -0.002634 0.000000 0.000000 0.000000
# 3 -0.010438 -0.002634 0.009359 0.000000 0.000000 0.000000
# 4 0.000000 0.000000 0.000000 0.028550 0.000000 0.000000
# 5 0.000000 0.000000 0.000000 0.000000 0.032766 0.000000
# 6 0.000000 0.000000 0.000000 0.000000 0.000000 0.038850
#
#
# Mechanical properties :
#
#
# Convention : Reuss Voigt Hill
#
# Bulk Modulus (GPa) = 33.81697 76.82025 55.31861
# Shear Modulus (GPa) = 20.95504 29.86251 25.40877
#
# Velocity S-wave (km/s) = 3.37284 4.02638 3.71402
# Velocity P-wave (km/s) = 5.79022 7.95738 6.95868
#
# Compressibility (1/GPa) = 0.02957095
#
# Stress axis : x y z
#
# Youngs Moduli (GPa) = 17.82850 73.37942 106.84506
#
# Poissons Ratio (x) = 0.85716 1.11521
# Poissons Ratio (y) = 0.20826 0.28145
# Poissons Ratio (z) = 0.18609 0.19330
#
# Static dielectric constant tensor:
#      x y z
#    x 3.113100 0.000000 0.000000 
#    y 0.000000 3.513100 0.000000 
#    z 0.000000 0.000000 3.673360 
# 
# 
# High freq. dielectric constant tensor:
#      x y z
#    x 1.682910 0.000000 0.000000 
#    y 0.000000 1.726340 0.000000 
#    z 0.000000 0.000000 1.730700 
# 
# From -- ./inp_files/19912.got.cif
#   From: 2010.03.12/outbox.cif.g09.slc.cpg/sg59_10_cif.got.tgz:19912.got - 2010.04.16 16:29:54.
