data_PCOD8245680
_publ_section_title
;
Structure prediction by ZEFSAII (Michael W. Deem and Ramdas Pophale) SiO2 
 PCOD8245680
Probable space group: P M M N
;
_chemical_formula_sum "Si O2"
_cell_formula_units_Z 40
_cell_length_a 8.312619
_cell_length_b 25.567262
_cell_length_c 9.607697
_cell_angle_alpha 90.000000
_cell_angle_beta 90.000000
_cell_angle_gamma 90.000000
_cell_volume 2041.932566
_symmetry_space_group_name_H-M "P M M N"
_symmetry_group_IT_number 59
_space_group.IT_coordinate_system_code '2'
_symmetry_cell_setting 'orthorhombic'
loop_
_space_group_symop_operation_xyz
x,y,z
1/2-x,1/2-y,z
1/2+x,-y,-z
-x,1/2+y,-z
-x,-y,-z
1/2+x,1/2+y,-z
1/2-x,y,z
x,1/2-y,z
loop_
_atom_site_type_symbol
_atom_site_label
_atom_site_fract_x
_atom_site_fract_y
_atom_site_fract_z
Si Si1 0.938383 0.690039 0.247594
Si Si2 0.563037 0.109381 0.545518
Si Si3 0.436184 0.027904 0.752958
Si Si4 0.564390 0.585825 0.746933
Si Si5 0.937212 0.110676 0.962659
O O1 0.750000 0.683638 0.219612
O O2 0.991017 0.750000 0.260489
O O3 0.983990 0.661556 0.391401
O O4 0.033314 0.664765 0.118357
O O5 0.750000 0.108820 0.583836
O O6 0.481641 0.058009 0.611641
O O7 0.537526 0.108579 0.381019
O O8 0.250000 0.012063 0.748131
O O9 0.469326 0.063895 0.886205
O O10 0.540158 0.975853 0.766048
O O11 0.750000 0.597911 0.719794
O O12 0.504920 0.616760 0.882523
O O13 0.750000 0.096860 0.965865
#
# Coordination Sequence:
#
# PCOD8245680 Si02
#       5
#     8   8   8   8   8
#     4  10  21  40  64  86 109 142 183 226 276 333
#     4  11  22  37  57  84 114 146 187 230 275 326
#     4  11  21  36  56  81 114 153 192 225 268 326
#     4  12  23  37  55  80 116 152 186 228 278 326
#     4  11  22  37  57  84 114 146 187 230 275 326
#
# _framework density 19.589286000000001
#
# number of rings (size 3 to 8) (size 9 to 14) (size 15 to 20)
#    0.000    1.000    0.000   11.400    0.000    1.600 
#    0.000    1.000    0.000    6.000    0.000    0.000 
#    0.000    0.000    0.000    0.000    0.000    0.000 
#
# Total GULP energy -496303.379780 kJ/mol
# GULP energy per Si atom -12407.584495 kJ/mol
# Density = 1.954470 g / cm^3
# Si number density = 19.589286 Si / 1000 Ang^3
#
#
#
# Elastic Constant Matrix: (Units=GPa)
#
#
# Indices 1 2 3 4 5 6 
#
# 1 85.7419 6.3233 4.0532 0.0000 0.0000 0.0000
# 2 6.3233 100.9851 32.0371 0.0000 0.0000 0.0000
# 3 4.0532 32.0371 121.4069 0.0000 0.0000 0.0000
# 4 0.0000 0.0000 0.0000 9.1223 0.0000 0.0000
# 5 0.0000 0.0000 0.0000 0.0000 34.5717 0.0000
# 6 0.0000 0.0000 0.0000 0.0000 0.0000 28.7498
#
#
#
# Elastic Compliance Matrix: (Units=1/GPa)
#
#
# Indices 1 2 3 4 5 6 
#
# 1 0.011722 -0.000666 -0.000216 0.000000 0.000000 0.000000
# 2 -0.000666 0.010845 -0.002840 0.000000 0.000000 0.000000
# 3 -0.000216 -0.002840 0.008993 0.000000 0.000000 0.000000
# 4 0.000000 0.000000 0.000000 0.109621 0.000000 0.000000
# 5 0.000000 0.000000 0.000000 0.000000 0.028925 0.000000
# 6 0.000000 0.000000 0.000000 0.000000 0.000000 0.034783
#
#
# Mechanical properties :
#
#
# Convention : Reuss Voigt Hill
#
# Bulk Modulus (GPa) = 41.46156 43.66234 42.56195
# Shear Modulus (GPa) = 22.68900 32.20346 27.44623
#
# Velocity S-wave (km/s) = 3.40698 4.05894 3.74717
# Velocity P-wave (km/s) = 6.05706 6.65612 6.36365
#
# Compressibility (1/GPa) = 0.02411873
#
# Stress axis : x y z
#
# Youngs Moduli (GPa) = 85.30829 92.20871 111.19417
#
# Poissons Ratio (x) = 0.06137 0.02399
# Poissons Ratio (y) = 0.05678 0.31574
# Poissons Ratio (z) = 0.01840 0.26183
#
# Static dielectric constant tensor:
#      x y z
#    x 3.701700 0.000000 0.000000 
#    y 0.000000 3.449470 0.000000 
#    z 0.000000 0.000000 3.651810 
# 
# 
# High freq. dielectric constant tensor:
#      x y z
#    x 1.783760 0.000000 0.000000 
#    y 0.000000 1.740900 0.000000 
#    z 0.000000 0.000000 1.769990 
# 
# From -- ./inp_files/5693.got.cif
#   From: 2010.03.12/outbox.cif.g09.slc.cpg/sg59_3_cif.got.tgz:5693.got - 2010.04.16 16:29:54.
