data_PCOD8245527
_publ_section_title
;
Structure prediction by ZEFSAII (Michael W. Deem and Ramdas Pophale) SiO2 
 PCOD8245527
Probable space group: P M M N
;
_chemical_formula_sum "Si O2"
_cell_formula_units_Z 48
_cell_length_a 8.867452
_cell_length_b 9.270036
_cell_length_c 30.473905
_cell_angle_alpha 90.000000
_cell_angle_beta 90.000000
_cell_angle_gamma 90.000000
_cell_volume 2505.003727
_symmetry_space_group_name_H-M "P M M N"
_symmetry_group_IT_number 59
_space_group.IT_coordinate_system_code '2'
_symmetry_cell_setting 'orthorhombic'
loop_
_space_group_symop_operation_xyz
x,y,z
1/2-x,1/2-y,z
1/2+x,-y,-z
-x,1/2+y,-z
-x,-y,-z
1/2+x,1/2+y,-z
1/2-x,y,z
x,1/2-y,z
loop_
_atom_site_type_symbol
_atom_site_label
_atom_site_fract_x
_atom_site_fract_y
_atom_site_fract_z
Si Si1 0.926240 0.090073 0.037912
Si Si2 0.923463 0.080238 0.136109
Si Si3 0.075749 0.581539 0.213002
Si Si4 0.074002 0.083429 0.381829
Si Si5 0.427842 0.083879 0.540100
Si Si6 0.924435 0.415391 0.290638
O O1 0.750000 0.093313 0.029586
O O2 0.994181 0.250000 0.034888
O O3 0.959729 0.028217 0.086524
O O4 0.000000 0.000000 0.000000
O O5 0.750000 0.046319 0.148259
O O6 0.954104 0.250000 0.141220
O O7 0.034046 0.992118 0.167207
O O8 0.250000 0.550587 0.223561
O O9 0.041446 0.750000 0.209289
O O10 0.973525 0.517082 0.251253
O O11 0.250000 0.050607 0.386705
O O12 0.037578 0.250000 0.392676
O O13 0.022682 0.044119 0.332935
O O14 0.982568 0.982644 0.414443
O O15 0.250000 0.068066 0.536728
O O16 0.478383 0.250000 0.537902
O O17 0.500000 0.000000 0.500000
O O18 0.750000 0.442550 0.301811
O O19 0.952634 0.250000 0.276555
#
# Coordination Sequence:
#
# PCOD8245527 Si02
#       6
#     8   8   8   8   8   8
#     4   9  19  35  54  78 108 140 176 220 268 320
#     4   9  19  37  58  78 103 139 182 224 268 321
#     4  11  24  38  53  79 113 145 179 223 274 324
#     4  10  21  38  61  88 116 147 185 228 275 328
#     4  11  24  40  59  85 116 151 191 233 279 330
#     4  10  21  38  61  86 111 144 185 226 271 325
#
# _framework density 19.161649000000001
#
# number of rings (size 3 to 8) (size 9 to 14) (size 15 to 20)
#    0.000    2.000    0.000    4.000    0.000   11.333 
#    0.000    5.000    0.000    0.000    0.000    0.000 
#    0.000    0.000    0.000    0.000    0.000    0.000 
#
# Total GULP energy -595349.313274 kJ/mol
# GULP energy per Si atom -12403.110693 kJ/mol
# Density = 1.911804 g / cm^3
# Si number density = 19.161649 Si / 1000 Ang^3
#
#
#
# Elastic Constant Matrix: (Units=GPa)
#
#
# Indices 1 2 3 4 5 6 
#
# 1 54.0775 43.0721 34.0900 0.0000 0.0000 0.0000
# 2 43.0721 97.8324 64.4558 0.0000 0.0000 0.0000
# 3 34.0900 64.4558 115.0940 0.0000 0.0000 0.0000
# 4 0.0000 0.0000 0.0000 39.5299 0.0000 0.0000
# 5 0.0000 0.0000 0.0000 0.0000 42.7499 0.0000
# 6 0.0000 0.0000 0.0000 0.0000 0.0000 33.1540
#
#
#
# Elastic Compliance Matrix: (Units=1/GPa)
#
#
# Indices 1 2 3 4 5 6 
#
# 1 0.028847 -0.011206 -0.002269 0.000000 0.000000 0.000000
# 2 -0.011206 0.020551 -0.008190 0.000000 0.000000 0.000000
# 3 -0.002269 -0.008190 0.013947 0.000000 0.000000 0.000000
# 4 0.000000 0.000000 0.000000 0.025297 0.000000 0.000000
# 5 0.000000 0.000000 0.000000 0.000000 0.023392 0.000000
# 6 0.000000 0.000000 0.000000 0.000000 0.000000 0.030162
#
#
# Mechanical properties :
#
#
# Convention : Reuss Voigt Hill
#
# Bulk Modulus (GPa) = 49.95910 61.13775 55.54843
# Shear Modulus (GPa) = 26.01476 31.44581 28.73029
#
# Velocity S-wave (km/s) = 3.68862 4.05542 3.87636
# Velocity P-wave (km/s) = 6.65359 7.34194 7.00623
#
# Compressibility (1/GPa) = 0.02001637
#
# Stress axis : x y z
#
# Youngs Moduli (GPa) = 34.66510 48.65958 71.69873
#
# Poissons Ratio (x) = 0.54526 0.16268
# Poissons Ratio (y) = 0.38844 0.58722
# Poissons Ratio (z) = 0.07865 0.39853
#
# Static dielectric constant tensor:
#      x y z
#    x 3.557830 0.000000 0.000000 
#    y 0.000000 3.462150 0.000000 
#    z 0.000000 0.000000 3.581970 
# 
# 
# High freq. dielectric constant tensor:
#      x y z
#    x 1.750960 0.000000 0.000000 
#    y 0.000000 1.742410 0.000000 
#    z 0.000000 0.000000 1.759490 
# 
# From -- ./inp_files/32892.got.cif
#   From: 2010.03.12/outbox.cif.g09.slc.cpg/sg59_17_cif.got.tgz:32892.got - 2010.04.16 16:29:54.
