data_PCOD8245440
_publ_section_title
;
Structure prediction by ZEFSAII (Michael W. Deem and Ramdas Pophale) SiO2 
 PCOD8245440
Probable space group: P M M N
;
_chemical_formula_sum "Si O2"
_cell_formula_units_Z 64
_cell_length_a 14.608198
_cell_length_b 8.919352
_cell_length_c 24.270612
_cell_angle_alpha 90.000000
_cell_angle_beta 90.000000
_cell_angle_gamma 90.000000
_cell_volume 3162.355410
_symmetry_space_group_name_H-M "P M M N"
_symmetry_group_IT_number 59
_space_group.IT_coordinate_system_code '2'
_symmetry_cell_setting 'orthorhombic'
loop_
_space_group_symop_operation_xyz
x,y,z
1/2-x,1/2-y,z
1/2+x,-y,-z
-x,1/2+y,-z
-x,-y,-z
1/2+x,1/2+y,-z
1/2-x,y,z
x,1/2-y,z
loop_
_atom_site_type_symbol
_atom_site_label
_atom_site_fract_x
_atom_site_fract_y
_atom_site_fract_z
Si Si1 0.857946 0.422765 0.656328
Si Si2 0.518613 0.573119 0.746812
Si Si3 0.143174 0.425502 0.690039
Si Si4 0.350342 0.072719 0.570274
Si Si5 0.976635 0.073396 0.861497
Si Si6 0.149534 0.428034 0.927422
Si Si7 0.859383 0.918449 0.547024
Si Si8 0.357476 0.419315 0.050340
O O1 0.750000 0.451362 0.662411
O O2 0.884175 0.250000 0.663731
O O3 0.908205 0.517475 0.702562
O O4 0.892824 0.473277 0.595788
O O5 0.520007 0.750000 0.747967
O O6 0.415965 0.516975 0.733828
O O7 0.548960 0.511338 0.805776
O O8 0.250000 0.468692 0.695833
O O9 0.129832 0.250000 0.701687
O O10 0.102499 0.468286 0.628824
O O11 0.250000 0.998470 0.572959
O O12 0.339101 0.250000 0.566974
O O13 0.399141 0.021901 0.512721
O O14 0.975638 0.250000 0.850520
O O15 0.075908 0.016588 0.882821
O O16 0.902046 0.033841 0.907136
O O17 0.250000 0.492596 0.911442
O O18 0.154300 0.250000 0.928683
O O19 0.120684 0.480213 0.988805
O O20 0.750000 0.918997 0.542322
O O21 0.894202 0.750000 0.559890
O O22 0.250000 0.420159 0.060746
O O23 0.395607 0.250000 0.058728
#
# Coordination Sequence:
#
# PCOD8245440 Si02
#       8
#     8   8   8   8   8   8   8   8
#     4  10  21  38  59  81 106 138 180 232 285 335
#     4  12  26  41  56  77 109 148 192 236 277 328
#     4   9  18  36  61  84 109 144 184 228 278 328
#     4   7  11  23  48  80 108 136 172 214 265 328
#     4  11  22  36  57  83 111 145 186 231 274 316
#     4   8  16  33  58  87 116 146 180 216 260 319
#     4   8  13  25  49  80 110 138 170 211 267 335
#     4   9  18  35  59  86 117 150 180 214 263 322
#
# _framework density 20.23808
#
# number of rings (size 3 to 8) (size 9 to 14) (size 15 to 20)
#    0.000    2.750    0.000    4.500    0.000    2.250 
#    0.000    3.125    0.000    4.875    0.000    0.000 
#    0.000    0.000    0.000    0.000    0.000    0.000 
#
# Total GULP energy -793142.567974 kJ/mol
# GULP energy per Si atom -12392.852625 kJ/mol
# Density = 2.019202 g / cm^3
# Si number density = 20.238080 Si / 1000 Ang^3
#
#
#
# Elastic Constant Matrix: (Units=GPa)
#
#
# Indices 1 2 3 4 5 6 
#
# 1 24.1135 16.2458 2.6790 0.0000 0.0000 0.0000
# 2 16.2458 80.6685 25.9256 0.0000 0.0000 0.0000
# 3 2.6790 25.9256 79.3708 0.0000 0.0000 0.0000
# 4 0.0000 0.0000 0.0000 30.8553 0.0000 0.0000
# 5 0.0000 0.0000 0.0000 0.0000 23.5453 0.0000
# 6 0.0000 0.0000 0.0000 0.0000 0.0000 24.1270
#
#
#
# Elastic Compliance Matrix: (Units=1/GPa)
#
#
# Indices 1 2 3 4 5 6 
#
# 1 0.048191 -0.010259 0.001725 0.000000 0.000000 0.000000
# 2 -0.010259 0.016035 -0.004891 0.000000 0.000000 0.000000
# 3 0.001725 -0.004891 0.014139 0.000000 0.000000 0.000000
# 4 0.000000 0.000000 0.000000 0.032409 0.000000 0.000000
# 5 0.000000 0.000000 0.000000 0.000000 0.042471 0.000000
# 6 0.000000 0.000000 0.000000 0.000000 0.000000 0.041447
#
#
# Mechanical properties :
#
#
# Convention : Reuss Voigt Hill
#
# Bulk Modulus (GPa) = 19.41302 30.42817 24.92059
# Shear Modulus (GPa) = 20.94550 24.99234 22.96892
#
# Velocity S-wave (km/s) = 3.22056 3.51795 3.37254
# Velocity P-wave (km/s) = 4.84175 5.61863 5.24459
#
# Compressibility (1/GPa) = 0.05151183
#
# Stress axis : x y z
#
# Youngs Moduli (GPa) = 20.75080 62.36550 70.72866
#
# Poissons Ratio (x) = 0.63983 -0.12198
# Poissons Ratio (y) = 0.21289 0.34595
# Poissons Ratio (z) = -0.03579 0.30504
#
# Static dielectric constant tensor:
#      x y z
#    x 3.603580 0.000000 0.000000 
#    y 0.000000 3.379410 0.000000 
#    z 0.000000 0.000000 3.926800 
# 
# 
# High freq. dielectric constant tensor:
#      x y z
#    x 1.779360 0.000000 0.000000 
#    y 0.000000 1.758740 0.000000 
#    z 0.000000 0.000000 1.801250 
# 
# From -- ./inp_files/32244.got.cif
#   From: 2010.03.12/outbox.cif.g09.slc.cpg/sg59_17_cif.got.tgz:32244.got - 2010.04.16 16:29:54.
