data_PCOD8245132
_publ_section_title
;
Structure prediction by ZEFSAII (Michael W. Deem and Ramdas Pophale) SiO2 
 PCOD8245132
Probable space group: P M M N
;
_chemical_formula_sum "Si O2"
_cell_formula_units_Z 56
_cell_length_a 14.217795
_cell_length_b 9.120895
_cell_length_c 22.980911
_cell_angle_alpha 90.000000
_cell_angle_beta 90.000000
_cell_angle_gamma 90.000000
_cell_volume 2980.141910
_symmetry_space_group_name_H-M "P M M N"
_symmetry_group_IT_number 59
_space_group.IT_coordinate_system_code '2'
_symmetry_cell_setting 'orthorhombic'
loop_
_space_group_symop_operation_xyz
x,y,z
1/2-x,1/2-y,z
1/2+x,-y,-z
-x,1/2+y,-z
-x,-y,-z
1/2+x,1/2+y,-z
1/2-x,y,z
x,1/2-y,z
loop_
_atom_site_type_symbol
_atom_site_label
_atom_site_fract_x
_atom_site_fract_y
_atom_site_fract_z
Si Si1 0.354456 0.578511 0.587693
Si Si2 0.646760 0.423735 0.970368
Si Si3 0.360392 0.078125 0.241681
Si Si4 0.531799 0.075911 0.860603
Si Si5 0.959171 0.921974 0.642815
Si Si6 0.359984 0.417795 0.471321
Si Si7 0.357935 0.578337 0.899123
O O1 0.250000 0.521276 0.605597
O O2 0.351915 0.750000 0.575343
O O3 0.428762 0.542379 0.639246
O O4 0.391206 0.505269 0.528525
O O5 0.750000 0.484960 0.953215
O O6 0.651122 0.250000 0.971538
O O7 0.572255 0.478372 0.922881
O O8 0.620939 0.478098 0.035205
O O9 0.250000 0.047511 0.248741
O O10 0.380828 0.250000 0.232216
O O11 0.414016 0.013672 0.298480
O O12 0.399818 0.987919 0.187855
O O13 0.528640 0.250000 0.854555
O O14 0.426535 0.010301 0.855662
O O15 0.938711 0.750000 0.643334
O O16 0.909964 0.987806 0.585248
O O17 0.250000 0.432958 0.460548
O O18 0.390722 0.250000 0.480627
O O19 0.250000 0.544341 0.882063
O O20 0.378934 0.750000 0.892492
#
# Coordination Sequence:
#
# PCOD8245132 Si02
#       7
#     8   8   8   8   8   8   8
#     4   9  17  29  46  70  98 124 152 192 243 298
#     4   8  15  29  50  76 105 136 168 204 250 302
#     4  10  21  37  55  73  95 128 173 218 252 292
#     4  11  21  33  52  77 107 139 167 204 257 310
#     4   9  17  31  50  69  92 126 167 206 242 285
#     4   9  16  27  46  71  96 123 156 195 242 293
#     4   9  18  34  55  77 102 134 173 213 249 293
#
# _framework density 18.791051
#
# number of rings (size 3 to 8) (size 9 to 14) (size 15 to 20)
#    0.000    2.714    0.000    3.000    0.000    2.857 
#    0.000    2.857    0.000    6.000    0.000    0.000 
#    0.000    0.000    0.000    0.000    0.000    0.000 
#
# Total GULP energy -694166.908707 kJ/mol
# GULP energy per Si atom -12395.837655 kJ/mol
# Density = 1.874828 g / cm^3
# Si number density = 18.791051 Si / 1000 Ang^3
#
#
#
# Elastic Constant Matrix: (Units=GPa)
#
#
# Indices 1 2 3 4 5 6 
#
# 1 110.5735 37.4722 54.9818 0.0000 0.0000 0.0000
# 2 37.4722 43.4499 28.4079 0.0000 0.0000 0.0000
# 3 54.9818 28.4079 72.5832 0.0000 0.0000 0.0000
# 4 0.0000 0.0000 0.0000 23.6606 0.0000 0.0000
# 5 0.0000 0.0000 0.0000 0.0000 33.9934 0.0000
# 6 0.0000 0.0000 0.0000 0.0000 0.0000 22.2529
#
#
#
# Elastic Compliance Matrix: (Units=1/GPa)
#
#
# Indices 1 2 3 4 5 6 
#
# 1 0.016379 -0.008082 -0.009244 0.000000 0.000000 0.000000
# 2 -0.008082 0.034917 -0.007544 0.000000 0.000000 0.000000
# 3 -0.009244 -0.007544 0.023732 0.000000 0.000000 0.000000
# 4 0.000000 0.000000 0.000000 0.042264 0.000000 0.000000
# 5 0.000000 0.000000 0.000000 0.000000 0.029417 0.000000
# 6 0.000000 0.000000 0.000000 0.000000 0.000000 0.044938
#
#
# Mechanical properties :
#
#
# Convention : Reuss Voigt Hill
#
# Bulk Modulus (GPa) = 39.54329 52.03673 45.79001
# Shear Modulus (GPa) = 20.01453 23.03102 21.52277
#
# Velocity S-wave (km/s) = 3.26714 3.50471 3.38801
# Velocity P-wave (km/s) = 5.94320 6.64302 6.30283
#
# Compressibility (1/GPa) = 0.02528874
#
# Stress axis : x y z
#
# Youngs Moduli (GPa) = 61.05308 28.63904 42.13651
#
# Poissons Ratio (x) = 0.23146 0.38952
# Poissons Ratio (y) = 0.49342 0.31788
# Poissons Ratio (z) = 0.56438 0.21606
#
# Static dielectric constant tensor:
#      x y z
#    x 3.690470 0.000000 0.000000 
#    y 0.000000 3.104580 0.000000 
#    z 0.000000 0.000000 3.439840 
# 
# 
# High freq. dielectric constant tensor:
#      x y z
#    x 1.747760 0.000000 0.000000 
#    y 0.000000 1.693710 0.000000 
#    z 0.000000 0.000000 1.712740 
# 
# From -- ./inp_files/30372.got.cif
#   From: 2010.03.12/outbox.cif.g09.slc.cpg/sg59_16_cif.got.tgz:30372.got - 2010.04.16 16:29:54.
