data_PCOD8245377
_publ_section_title
;
Structure prediction by ZEFSAII (Michael W. Deem and Ramdas Pophale) SiO2 
 PCOD8245377
Probable space group: P M M N
;
_chemical_formula_sum "Si O2"
_cell_formula_units_Z 40
_cell_length_a 8.532623
_cell_length_b 22.750339
_cell_length_c 10.166328
_cell_angle_alpha 90.000000
_cell_angle_beta 90.000000
_cell_angle_gamma 90.000000
_cell_volume 1973.488260
_symmetry_space_group_name_H-M "P M M N"
_symmetry_group_IT_number 59
_space_group.IT_coordinate_system_code '2'
_symmetry_cell_setting 'orthorhombic'
loop_
_space_group_symop_operation_xyz
x,y,z
1/2-x,1/2-y,z
1/2+x,-y,-z
-x,1/2+y,-z
-x,-y,-z
1/2+x,1/2+y,-z
1/2-x,y,z
x,1/2-y,z
loop_
_atom_site_type_symbol
_atom_site_label
_atom_site_fract_x
_atom_site_fract_y
_atom_site_fract_z
Si Si1 0.433626 0.001839 0.353078
Si Si2 0.070631 0.317195 0.489883
Si Si3 0.067572 0.878796 0.746100
Si Si4 0.934791 0.316046 0.991340
Si Si5 0.433665 0.385974 0.748204
O O1 0.250000 0.990042 0.360559
O O2 0.466456 0.063854 0.285209
O O3 0.500000 0.000000 0.500000
O O4 0.513593 0.953461 0.259651
O O5 0.250000 0.331910 0.451770
O O6 0.050476 0.250000 0.531501
O O7 0.015589 0.355963 0.612315
O O8 0.958288 0.331053 0.368097
O O9 0.250000 0.895572 0.755110
O O10 0.002660 0.850342 0.880455
O O11 0.750000 0.310936 0.000763
O O12 0.007311 0.250000 0.985409
O O13 0.979548 0.352974 0.864510
O O14 0.250000 0.381487 0.773770
#
# Coordination Sequence:
#
# PCOD8245377 Si02
#       5
#     8   8   8   8   8
#     4  12  24  41  65  94 127 164 207 261 317 374
#     4  10  21  37  59  89 123 160 207 261 313 370
#     4  11  23  40  64  92 124 167 212 259 314 372
#     4  10  23  43  64  91 129 169 211 258 310 372
#     4  11  23  40  64  93 125 166 211 259 314 371
#
# _framework density 20.26868
#
# number of rings (size 3 to 8) (size 9 to 14) (size 15 to 20)
#    0.000    1.200    2.000    4.200    0.000    5.600 
#    0.000    0.000    0.000    0.000    0.000    0.000 
#    0.000    0.000    0.000    0.000    0.000    0.000 
#
# Total GULP energy -496231.558452 kJ/mol
# GULP energy per Si atom -12405.788961 kJ/mol
# Density = 2.022255 g / cm^3
# Si number density = 20.268680 Si / 1000 Ang^3
#
#
#
# Elastic Constant Matrix: (Units=GPa)
#
#
# Indices 1 2 3 4 5 6 
#
# 1 19.3231 4.4684 13.1510 0.0000 0.0000 0.0000
# 2 4.4684 122.7328 50.4645 0.0000 0.0000 0.0000
# 3 13.1510 50.4645 112.4484 0.0000 0.0000 0.0000
# 4 0.0000 0.0000 0.0000 38.0967 0.0000 0.0000
# 5 0.0000 0.0000 0.0000 0.0000 33.2948 0.0000
# 6 0.0000 0.0000 0.0000 0.0000 0.0000 30.8206
#
#
#
# Elastic Compliance Matrix: (Units=1/GPa)
#
#
# Indices 1 2 3 4 5 6 
#
# 1 0.056292 0.000806 -0.006945 0.000000 0.000000 0.000000
# 2 0.000806 0.010003 -0.004583 0.000000 0.000000 0.000000
# 3 -0.006945 -0.004583 0.011762 0.000000 0.000000 0.000000
# 4 0.000000 0.000000 0.000000 0.026249 0.000000 0.000000
# 5 0.000000 0.000000 0.000000 0.000000 0.030035 0.000000
# 6 0.000000 0.000000 0.000000 0.000000 0.000000 0.032446
#
#
# Mechanical properties :
#
#
# Convention : Reuss Voigt Hill
#
# Bulk Modulus (GPa) = 17.66407 43.40802 30.53604
# Shear Modulus (GPa) = 24.14268 32.87044 28.50656
#
# Velocity S-wave (km/s) = 3.45502 4.03145 3.75431
# Velocity P-wave (km/s) = 4.96489 6.56756 5.82164
#
# Compressibility (1/GPa) = 0.05661211
#
# Stress axis : x y z
#
# Youngs Moduli (GPa) = 17.76458 99.96985 85.01832
#
# Poissons Ratio (x) = -0.08060 0.59047
# Poissons Ratio (y) = -0.01432 0.38968
# Poissons Ratio (z) = 0.12338 0.45821
#
# Static dielectric constant tensor:
#      x y z
#    x 3.634650 0.000000 0.000000 
#    y 0.000000 3.895170 0.000000 
#    z 0.000000 0.000000 3.711330 
# 
# 
# High freq. dielectric constant tensor:
#      x y z
#    x 1.789160 0.000000 0.000000 
#    y 0.000000 1.810150 0.000000 
#    z 0.000000 0.000000 1.793650 
# 
# From -- ./inp_files/5654.got.cif
#   From: 2010.03.12/outbox.cif.g09.slc.cpg/sg59_3_cif.got.tgz:5654.got - 2010.04.16 16:29:54.
