data_PCOD8245190
_publ_section_title
;
Structure prediction by ZEFSAII (Michael W. Deem and Ramdas Pophale) SiO2 
 PCOD8245190
Probable space group: P M M N
;
_chemical_formula_sum "Si O2"
_cell_formula_units_Z 40
_cell_length_a 18.166158
_cell_length_b 9.038611
_cell_length_c 12.849501
_cell_angle_alpha 90.000000
_cell_angle_beta 90.000000
_cell_angle_gamma 90.000000
_cell_volume 2109.847402
_symmetry_space_group_name_H-M "P M M N"
_symmetry_group_IT_number 59
_space_group.IT_coordinate_system_code '2'
_symmetry_cell_setting 'orthorhombic'
loop_
_space_group_symop_operation_xyz
x,y,z
1/2-x,1/2-y,z
1/2+x,-y,-z
-x,1/2+y,-z
-x,-y,-z
1/2+x,1/2+y,-z
1/2-x,y,z
x,1/2-y,z
loop_
_atom_site_type_symbol
_atom_site_label
_atom_site_fract_x
_atom_site_fract_y
_atom_site_fract_z
Si Si1 0.832549 0.574045 0.189928
Si Si2 0.919538 0.924188 0.388889
Si Si3 0.078526 0.074362 0.010697
Si Si4 0.335665 0.921773 0.192264
Si Si5 0.587393 0.422105 0.596620
O O1 0.750000 0.509749 0.189980
O O2 0.831671 0.750000 0.192707
O O3 0.875213 0.511342 0.290470
O O4 0.872755 0.518797 0.086082
O O5 0.910017 0.750000 0.396301
O O6 0.004492 0.970463 0.373739
O O7 0.885775 0.992520 0.493967
O O8 0.069147 0.250000 0.011823
O O9 0.117915 0.023339 0.115577
O O10 0.000000 0.000000 0.000000
O O11 0.250000 0.956608 0.177596
O O12 0.353852 0.750000 0.170282
O O13 0.358688 0.964362 0.309315
O O14 0.590700 0.250000 0.570656
#
# Coordination Sequence:
#
# PCOD8245190 Si02
#       5
#     8   8   8   8   8
#     4   9  18  33  53  77 105 136 170 213 266 317
#     4   9  17  31  52  75 100 134 178 221 257 305
#     4  11  22  37  58  81 107 140 180 223 268 322
#     4  10  21  37  56  79 110 145 179 219 269 322
#     4   9  18  33  51  73 105 142 177 215 263 314
#
# _framework density 18.958718000000001
#
# number of rings (size 3 to 8) (size 9 to 14) (size 15 to 20)
#    0.000    2.400    0.000    2.400    0.000    6.000 
#    0.000    6.000    0.000    2.400    0.000    0.000 
#    0.000    0.000    0.000    0.000    0.000    0.000 
#
# Total GULP energy -496096.956560 kJ/mol
# GULP energy per Si atom -12402.423914 kJ/mol
# Density = 1.891557 g / cm^3
# Si number density = 18.958718 Si / 1000 Ang^3
#
#
#
# Elastic Constant Matrix: (Units=GPa)
#
#
# Indices 1 2 3 4 5 6 
#
# 1 101.7326 30.6718 45.1703 0.0000 0.0000 0.0000
# 2 30.6718 42.4747 34.8258 0.0000 0.0000 0.0000
# 3 45.1703 34.8258 110.8411 0.0000 0.0000 0.0000
# 4 0.0000 0.0000 0.0000 33.4444 0.0000 0.0000
# 5 0.0000 0.0000 0.0000 0.0000 30.9882 0.0000
# 6 0.0000 0.0000 0.0000 0.0000 0.0000 24.1117
#
#
#
# Elastic Compliance Matrix: (Units=1/GPa)
#
#
# Indices 1 2 3 4 5 6 
#
# 1 0.013385 -0.006995 -0.003257 0.000000 0.000000 0.000000
# 2 -0.006995 0.035369 -0.008262 0.000000 0.000000 0.000000
# 3 -0.003257 -0.008262 0.012945 0.000000 0.000000 0.000000
# 4 0.000000 0.000000 0.000000 0.029900 0.000000 0.000000
# 5 0.000000 0.000000 0.000000 0.000000 0.032270 0.000000
# 6 0.000000 0.000000 0.000000 0.000000 0.000000 0.041474
#
#
# Mechanical properties :
#
#
# Convention : Reuss Voigt Hill
#
# Bulk Modulus (GPa) = 40.53370 52.93158 46.73264
# Shear Modulus (GPa) = 23.74229 27.33423 25.53826
#
# Velocity S-wave (km/s) = 3.54265 3.80119 3.67419
# Velocity P-wave (km/s) = 6.17739 6.87353 6.53474
#
# Compressibility (1/GPa) = 0.02467083
#
# Stress axis : x y z
#
# Youngs Moduli (GPa) = 74.71221 28.27334 77.24958
#
# Poissons Ratio (x) = 0.19777 0.25158
# Poissons Ratio (y) = 0.52262 0.63825
# Poissons Ratio (z) = 0.24332 0.23360
#
# Static dielectric constant tensor:
#      x y z
#    x 3.539780 0.000000 0.000000 
#    y 0.000000 3.227260 0.000000 
#    z 0.000000 0.000000 3.653630 
# 
# 
# High freq. dielectric constant tensor:
#      x y z
#    x 1.741710 0.000000 0.000000 
#    y 0.000000 1.710530 0.000000 
#    z 0.000000 0.000000 1.751520 
# 
# From -- ./inp_files/7141.got.cif
#   From: 2010.03.12/outbox.cif.g09.slc.cpg/sg59_4_cif.got.tgz:7141.got - 2010.04.16 16:29:54.
