data_PCOD8245104
_publ_section_title
;
Structure prediction by ZEFSAII (Michael W. Deem and Ramdas Pophale) SiO2 
 PCOD8245104
Probable space group: P M M N
;
_chemical_formula_sum "Si O2"
_cell_formula_units_Z 64
_cell_length_a 17.711512
_cell_length_b 16.591920
_cell_length_c 10.283933
_cell_angle_alpha 90.000000
_cell_angle_beta 90.000000
_cell_angle_gamma 90.000000
_cell_volume 3022.118722
_symmetry_space_group_name_H-M "P M M N"
_symmetry_group_IT_number 59
_space_group.IT_coordinate_system_code '2'
_symmetry_cell_setting 'orthorhombic'
loop_
_space_group_symop_operation_xyz
x,y,z
1/2-x,1/2-y,z
1/2+x,-y,-z
-x,1/2+y,-z
-x,-y,-z
1/2+x,1/2+y,-z
1/2-x,y,z
x,1/2-y,z
loop_
_atom_site_type_symbol
_atom_site_label
_atom_site_fract_x
_atom_site_fract_y
_atom_site_fract_z
Si Si1 0.117213 0.155870 0.613095
Si Si2 0.334345 0.660180 0.395977
Si Si3 0.978357 0.056321 0.622276
Si Si4 0.333038 0.345532 0.332515
Si Si5 0.569093 0.842024 0.908501
Si Si6 0.163686 0.414440 0.880943
Si Si7 0.446181 0.547051 0.834363
Si Si8 0.332353 0.661020 0.701636
O O1 0.133117 0.250000 0.628885
O O2 0.148046 0.120969 0.476089
O O3 0.159460 0.109198 0.729219
O O4 0.028352 0.137715 0.615577
O O5 0.250000 0.636709 0.344426
O O6 0.356516 0.750000 0.340735
O O7 0.392557 0.587868 0.362256
O O8 0.331970 0.667679 0.548872
O O9 0.000000 0.000000 0.500000
O O10 0.997940 0.009560 0.753608
O O11 0.250000 0.376428 0.292465
O O12 0.335227 0.250000 0.338232
O O13 0.392611 0.374892 0.224856
O O14 0.542558 0.750000 0.893404
O O15 0.495902 0.898634 0.933368
O O16 0.627767 0.845320 0.028038
O O17 0.250000 0.428417 0.920559
O O18 0.115588 0.494959 0.912660
O O19 0.401084 0.604462 0.737714
O O20 0.250000 0.627767 0.749039
O O21 0.345372 0.750000 0.761827
#
# Coordination Sequence:
#
# PCOD8245104 Si02
#       8
#     8   8   8   8   8   8   8   8
#     4  10  21  36  58  87 118 155 198 245 297 352
#     4   9  18  33  54  78 109 155 204 244 286 346
#     4  11  20  33  51  81 119 156 189 237 297 357
#     4   9  18  33  54  82 114 147 190 242 289 337
#     4  11  23  40  63  87 115 157 203 247 294 353
#     4  11  24  41  63  87 118 158 197 245 300 358
#     4  11  22  37  56  84 120 150 195 242 301 353
#     4   9  17  31  54  82 114 154 198 242 285 339
#
# _framework density 21.177195999999999
#
# number of rings (size 3 to 8) (size 9 to 14) (size 15 to 20)
#    0.000    1.875    1.250    4.125    0.000    2.000 
#    0.000    3.125    0.000    0.000    0.000    0.000 
#    0.000    4.000    0.000    0.000    0.000    0.000 
#
# Total GULP energy -793268.498598 kJ/mol
# GULP energy per Si atom -12394.820291 kJ/mol
# Density = 2.112900 g / cm^3
# Si number density = 21.177196 Si / 1000 Ang^3
#
#
#
# Elastic Constant Matrix: (Units=GPa)
#
#
# Indices 1 2 3 4 5 6 
#
# 1 142.6997 61.9944 14.1773 0.0000 0.0000 0.0000
# 2 61.9944 86.3826 10.6401 0.0000 0.0000 0.0000
# 3 14.1773 10.6401 59.2625 0.0000 0.0000 0.0000
# 4 0.0000 0.0000 0.0000 20.6301 0.0000 0.0000
# 5 0.0000 0.0000 0.0000 0.0000 27.0416 0.0000
# 6 0.0000 0.0000 0.0000 0.0000 0.0000 31.3893
#
#
#
# Elastic Compliance Matrix: (Units=1/GPa)
#
#
# Indices 1 2 3 4 5 6 
#
# 1 0.010260 -0.007220 -0.001158 0.000000 0.000000 0.000000
# 2 -0.007220 0.016920 -0.001310 0.000000 0.000000 0.000000
# 3 -0.001158 -0.001310 0.017386 0.000000 0.000000 0.000000
# 4 0.000000 0.000000 0.000000 0.048473 0.000000 0.000000
# 5 0.000000 0.000000 0.000000 0.000000 0.036980 0.000000
# 6 0.000000 0.000000 0.000000 0.000000 0.000000 0.031858
#
#
# Mechanical properties :
#
#
# Convention : Reuss Voigt Hill
#
# Bulk Modulus (GPa) = 39.70158 51.32981 45.51569
# Shear Modulus (GPa) = 26.36431 29.24775 27.80603
#
# Velocity S-wave (km/s) = 3.53220 3.72034 3.62749
# Velocity P-wave (km/s) = 5.95174 6.53800 6.25175
#
# Compressibility (1/GPa) = 0.02518792
#
# Stress axis : x y z
#
# Youngs Moduli (GPa) = 97.46962 59.10263 57.51628
#
# Poissons Ratio (x) = 0.42675 0.06661
# Poissons Ratio (y) = 0.70377 0.07537
# Poissons Ratio (z) = 0.11287 0.07745
#
# Static dielectric constant tensor:
#      x y z
#    x 4.174230 0.000000 0.000000 
#    y 0.000000 3.893940 0.000000 
#    z 0.000000 0.000000 3.530170 
# 
# 
# High freq. dielectric constant tensor:
#      x y z
#    x 1.840090 0.000000 0.000000 
#    y 0.000000 1.828030 0.000000 
#    z 0.000000 0.000000 1.798300 
# 
# From -- ./inp_files/17259.got.cif
#   From: 2010.03.12/outbox.cif.g09.slc.cpg/sg59_9_cif.got.tgz:17259.got - 2010.04.16 16:29:54.
