data_PCOD8245317
_publ_section_title
;
Structure prediction by ZEFSAII (Michael W. Deem and Ramdas Pophale) SiO2 
 PCOD8245317
Probable space group: P M M N
;
_chemical_formula_sum "Si O2"
_cell_formula_units_Z 48
_cell_length_a 19.147357
_cell_length_b 8.731604
_cell_length_c 15.013085
_cell_angle_alpha 90.000000
_cell_angle_beta 90.000000
_cell_angle_gamma 90.000000
_cell_volume 2509.994728
_symmetry_space_group_name_H-M "P M M N"
_symmetry_group_IT_number 59
_space_group.IT_coordinate_system_code '2'
_symmetry_cell_setting 'orthorhombic'
loop_
_space_group_symop_operation_xyz
x,y,z
1/2-x,1/2-y,z
1/2+x,-y,-z
-x,1/2+y,-z
-x,-y,-z
1/2+x,1/2+y,-z
1/2-x,y,z
x,1/2-y,z
loop_
_atom_site_type_symbol
_atom_site_label
_atom_site_fract_x
_atom_site_fract_y
_atom_site_fract_z
Si Si1 0.330918 0.428085 0.598959
Si Si2 0.930225 0.070283 0.539954
Si Si3 0.064289 0.429756 0.270195
Si Si4 0.172728 0.431966 0.125032
Si Si5 0.095155 0.572426 0.763906
Si Si6 0.831322 0.573335 0.075167
O O1 0.250000 0.470479 0.603070
O O2 0.343457 0.250000 0.579872
O O3 0.364394 0.524743 0.519611
O O4 0.364744 0.469241 0.693031
O O5 0.939811 0.250000 0.538868
O O6 0.916383 0.014177 0.639237
O O7 0.000000 0.000000 0.500000
O O8 0.075203 0.250000 0.285140
O O9 0.116166 0.495741 0.194630
O O10 0.986292 0.468235 0.239754
O O11 0.250000 0.493765 0.150783
O O12 0.173731 0.250000 0.126275
O O13 0.153163 0.484313 0.025108
O O14 0.108327 0.750000 0.742006
O O15 0.122679 0.533531 0.861726
O O16 0.750000 0.552724 0.098440
O O17 0.853301 0.750000 0.087970
#
# Coordination Sequence:
#
# PCOD8245317 Si02
#       6
#     8   8   8   8   8   8
#     4  11  24  41  62  87 115 151 196 242 288 345
#     4  12  24  40  62  86 116 154 193 237 290 349
#     4  10  21  37  58  85 115 150 192 238 289 348
#     4   8  16  34  59  83 109 147 195 241 284 337
#     4  11  22  34  53  83 119 154 188 236 292 346
#     4   9  18  34  56  80 109 149 195 241 286 337
#
# _framework density 19.123545
#
# number of rings (size 3 to 8) (size 9 to 14) (size 15 to 20)
#    0.000    1.833    1.667    4.000    0.000    5.667 
#    0.000    2.500    0.000    1.000    0.000    0.000 
#    0.000    0.000    0.000    0.000    0.000    0.000 
#
# Total GULP energy -595359.224983 kJ/mol
# GULP energy per Si atom -12403.317187 kJ/mol
# Density = 1.908002 g / cm^3
# Si number density = 19.123545 Si / 1000 Ang^3
#
#
#
# Elastic Constant Matrix: (Units=GPa)
#
#
# Indices 1 2 3 4 5 6 
#
# 1 126.5549 39.8401 80.4383 0.0000 0.0000 0.0000
# 2 39.8401 52.0002 38.5673 0.0000 0.0000 0.0000
# 3 80.4383 38.5673 152.2411 0.0000 0.0000 0.0000
# 4 0.0000 0.0000 0.0000 30.1218 0.0000 0.0000
# 5 0.0000 0.0000 0.0000 0.0000 32.7610 0.0000
# 6 0.0000 0.0000 0.0000 0.0000 0.0000 23.7813
#
#
#
# Elastic Compliance Matrix: (Units=1/GPa)
#
#
# Indices 1 2 3 4 5 6 
#
# 1 0.013318 -0.006138 -0.005482 0.000000 0.000000 0.000000
# 2 -0.006138 0.026509 -0.003472 0.000000 0.000000 0.000000
# 3 -0.005482 -0.003472 0.010345 0.000000 0.000000 0.000000
# 4 0.000000 0.000000 0.000000 0.033199 0.000000 0.000000
# 5 0.000000 0.000000 0.000000 0.000000 0.030524 0.000000
# 6 0.000000 0.000000 0.000000 0.000000 0.000000 0.042050
#
#
# Mechanical properties :
#
#
# Convention : Reuss Voigt Hill
#
# Bulk Modulus (GPa) = 50.03250 72.05418 61.04334
# Shear Modulus (GPa) = 25.93480 28.79619 27.36549
#
# Velocity S-wave (km/s) = 3.68662 3.88467 3.78694
# Velocity P-wave (km/s) = 6.65891 7.60795 7.14920
#
# Compressibility (1/GPa) = 0.01998701
#
# Stress axis : x y z
#
# Youngs Moduli (GPa) = 75.08462 37.72340 96.66855
#
# Poissons Ratio (x) = 0.23155 0.52993
# Poissons Ratio (y) = 0.46087 0.33567
# Poissons Ratio (z) = 0.41161 0.13099
#
# Static dielectric constant tensor:
#      x y z
#    x 3.672900 0.000000 0.000000 
#    y 0.000000 3.343940 0.000000 
#    z 0.000000 0.000000 3.560410 
# 
# 
# High freq. dielectric constant tensor:
#      x y z
#    x 1.748430 0.000000 0.000000 
#    y 0.000000 1.728850 0.000000 
#    z 0.000000 0.000000 1.755610 
# 
# From -- ./inp_files/20395.got.cif
#   From: 2010.03.12/outbox.cif.g09.slc.cpg/sg59_11_cif.got.tgz:20395.got - 2010.04.16 16:29:54.
