data_PCOD8245563
_publ_section_title
;
Structure prediction by ZEFSAII (Michael W. Deem and Ramdas Pophale) SiO2 
 PCOD8245563
Probable space group: P M M N
;
_chemical_formula_sum "Si O2"
_cell_formula_units_Z 40
_cell_length_a 8.752216
_cell_length_b 15.670159
_cell_length_c 14.563838
_cell_angle_alpha 90.000000
_cell_angle_beta 90.000000
_cell_angle_gamma 90.000000
_cell_volume 1997.410230
_symmetry_space_group_name_H-M "P M M N"
_symmetry_group_IT_number 59
_space_group.IT_coordinate_system_code '2'
_symmetry_cell_setting 'orthorhombic'
loop_
_space_group_symop_operation_xyz
x,y,z
1/2-x,1/2-y,z
1/2+x,-y,-z
-x,1/2+y,-z
-x,-y,-z
1/2+x,1/2+y,-z
1/2-x,y,z
x,1/2-y,z
loop_
_atom_site_type_symbol
_atom_site_label
_atom_site_fract_x
_atom_site_fract_y
_atom_site_fract_z
Si Si1 0.570599 0.105083 0.584946
Si Si2 0.569119 0.250000 0.723971
Si Si3 0.431064 0.250000 0.923414
Si Si4 0.570112 0.089472 0.028320
Si Si5 0.075876 0.348725 0.204527
Si Si6 0.929747 0.587842 0.601081
O O1 0.750000 0.110164 0.573845
O O2 0.517544 0.167130 0.666338
O O3 0.501257 0.134192 0.487382
O O4 0.513656 0.009989 0.608923
O O5 0.750000 0.250000 0.744861
O O6 0.475168 0.250000 0.817154
O O7 0.250000 0.250000 0.935567
O O8 0.496650 0.165240 0.969766
O O9 0.750000 0.089299 0.011277
O O10 0.533770 0.100975 0.135716
O O11 0.500000 0.000000 0.000000
O O12 0.250000 0.382677 0.194630
O O13 0.067769 0.250000 0.179244
O O14 0.015416 0.363631 0.307587
O O15 0.750000 0.593249 0.589952
#
# Coordination Sequence:
#
# PCOD8245563 Si02
#       6
#     8   4   4   8   8   8
#     4   9  19  36  55  82 118 157 200 249 302 363
#     4  10  22  38  59  86 119 160 203 250 310 368
#     4  12  26  46  67  96 129 164 213 266 318 380
#     4  12  26  45  69  96 127 167 211 262 321 380
#     4  10  21  38  61  90 124 161 205 258 314 373
#     4   9  19  35  57  84 116 157 201 249 305 361
#
# _framework density 20.025929999999999
#
# number of rings (size 3 to 8) (size 9 to 14) (size 15 to 20)
#    0.000    1.800    1.000    2.700    4.200    1.600 
#    0.000    0.000    0.000    0.000    0.000    0.000 
#    0.000    0.000    0.000    0.000    0.000    0.000 
#
# Total GULP energy -496102.666495 kJ/mol
# GULP energy per Si atom -12402.566662 kJ/mol
# Density = 1.998035 g / cm^3
# Si number density = 20.025930 Si / 1000 Ang^3
#
#
#
# Elastic Constant Matrix: (Units=GPa)
#
#
# Indices 1 2 3 4 5 6 
#
# 1 99.0168 49.9681 55.8691 0.0000 0.0000 0.0000
# 2 49.9681 105.2277 51.6189 0.0000 0.0000 0.0000
# 3 55.8691 51.6189 142.6196 0.0000 0.0000 0.0000
# 4 0.0000 0.0000 0.0000 37.7171 0.0000 0.0000
# 5 0.0000 0.0000 0.0000 0.0000 41.0384 0.0000
# 6 0.0000 0.0000 0.0000 0.0000 0.0000 26.7745
#
#
#
# Elastic Compliance Matrix: (Units=1/GPa)
#
#
# Indices 1 2 3 4 5 6 
#
# 1 0.014946 -0.005137 -0.003996 0.000000 0.000000 0.000000
# 2 -0.005137 0.013320 -0.002809 0.000000 0.000000 0.000000
# 3 -0.003996 -0.002809 0.009593 0.000000 0.000000 0.000000
# 4 0.000000 0.000000 0.000000 0.026513 0.000000 0.000000
# 5 0.000000 0.000000 0.000000 0.000000 0.024367 0.000000
# 6 0.000000 0.000000 0.000000 0.000000 0.000000 0.037349
#
#
# Mechanical properties :
#
#
# Convention : Reuss Voigt Hill
#
# Bulk Modulus (GPa) = 71.54615 73.53071 72.53843
# Shear Modulus (GPa) = 32.33486 33.73321 33.03403
#
# Velocity S-wave (km/s) = 4.02263 4.10869 4.06589
# Velocity P-wave (km/s) = 7.57494 7.70103 7.63825
#
# Compressibility (1/GPa) = 0.01397699
#
# Stress axis : x y z
#
# Youngs Moduli (GPa) = 66.90623 75.07240 104.23796
#
# Poissons Ratio (x) = 0.38567 0.41649
# Poissons Ratio (y) = 0.34372 0.29277
# Poissons Ratio (z) = 0.26733 0.21085
#
# Static dielectric constant tensor:
#      x y z
#    x 3.620000 0.000000 0.000000 
#    y 0.000000 3.853620 0.000000 
#    z 0.000000 0.000000 3.831740 
# 
# 
# High freq. dielectric constant tensor:
#      x y z
#    x 1.770470 0.000000 0.000000 
#    y 0.000000 1.786220 0.000000 
#    z 0.000000 0.000000 1.796340 
# 
# From -- ./inp_files/20011.got.cif
#   From: 2010.03.12/outbox.cif.g09.slc.cpg/sg59_11_cif.got.tgz:20011.got - 2010.04.16 16:29:54.
