data_PCOD8245067
_publ_section_title
;
Structure prediction by ZEFSAII (Michael W. Deem and Ramdas Pophale) SiO2 
 PCOD8245067
Probable space group: P M M N
;
_chemical_formula_sum "Si O2"
_cell_formula_units_Z 56
_cell_length_a 21.979308
_cell_length_b 9.367556
_cell_length_c 14.493107
_cell_angle_alpha 90.000000
_cell_angle_beta 90.000000
_cell_angle_gamma 90.000000
_cell_volume 2984.020562
_symmetry_space_group_name_H-M "P M M N"
_symmetry_group_IT_number 59
_space_group.IT_coordinate_system_code '2'
_symmetry_cell_setting 'orthorhombic'
loop_
_space_group_symop_operation_xyz
x,y,z
1/2-x,1/2-y,z
1/2+x,-y,-z
-x,1/2+y,-z
-x,-y,-z
1/2+x,1/2+y,-z
1/2-x,y,z
x,1/2-y,z
loop_
_atom_site_type_symbol
_atom_site_label
_atom_site_fract_x
_atom_site_fract_y
_atom_site_fract_z
Si Si1 0.442351 0.592147 0.978237
Si Si2 0.750000 0.587182 0.196148
Si Si3 0.872405 0.081669 0.203157
Si Si4 0.750000 0.589983 0.978946
Si Si5 0.950834 0.415518 0.379133
Si Si6 0.154644 0.909295 0.124903
Si Si7 0.418869 0.414332 0.447585
Si Si8 0.179285 0.085733 0.299939
O O1 0.463296 0.750000 0.946775
O O2 0.399713 0.530766 0.895700
O O3 0.500000 0.500000 0.000000
O O4 0.410371 0.600214 0.077334
O O5 0.750000 0.750000 0.235747
O O6 0.689232 0.503983 0.228184
O O7 0.750000 0.592982 0.087215
O O8 0.856557 0.250000 0.200990
O O9 0.923270 0.043401 0.279791
O O10 0.750000 0.750000 0.937322
O O11 0.807773 0.506013 0.944167
O O12 0.940976 0.250000 0.398633
O O13 0.914500 0.497201 0.458764
O O14 0.022476 0.456914 0.384733
O O15 0.182559 0.750000 0.136048
O O16 0.150449 0.983699 0.223487
O O17 0.423549 0.250000 0.475865
O O18 0.356929 0.447053 0.393198
O O19 0.250000 0.049519 0.315385
O O20 0.170239 0.250000 0.269741
#
# Coordination Sequence:
#
# PCOD8245067 Si02
#       8
#     8   4   8   4   8   8   8   8
#     4  10  23  38  55  82 115 152 189 230 281 330
#     4  11  23  37  57  84 111 148 195 237 282 332
#     4  10  21  39  60  82 115 153 189 231 286 346
#     4  11  21  35  55  78 107 148 191 229 270 326
#     4   9  19  37  61  85 107 144 192 233 284 342
#     4  11  22  36  55  81 112 148 188 230 275 325
#     4   9  19  37  60  83 112 147 185 236 287 337
#     4  10  21  36  56  84 116 153 191 229 285 344
#
# _framework density 18.766627
#
# number of rings (size 3 to 8) (size 9 to 14) (size 15 to 20)
#    0.000    2.000    2.143    0.857    2.000    3.429 
#    1.286    0.000    0.000    0.000    0.000    0.000 
#    0.000    0.000    0.000    0.000    0.000    0.000 
#
# Total GULP energy -694267.507935 kJ/mol
# GULP energy per Si atom -12397.634070 kJ/mol
# Density = 1.872391 g / cm^3
# Si number density = 18.766627 Si / 1000 Ang^3
#
#
#
# Elastic Constant Matrix: (Units=GPa)
#
#
# Indices 1 2 3 4 5 6 
#
# 1 94.1729 47.2976 45.0567 0.0000 0.0000 0.0000
# 2 47.2976 90.0554 40.9927 0.0000 0.0000 0.0000
# 3 45.0567 40.9927 95.9721 0.0000 0.0000 0.0000
# 4 0.0000 0.0000 0.0000 33.2026 0.0000 0.0000
# 5 0.0000 0.0000 0.0000 0.0000 30.2354 0.0000
# 6 0.0000 0.0000 0.0000 0.0000 0.0000 33.5514
#
#
#
# Elastic Compliance Matrix: (Units=1/GPa)
#
#
# Indices 1 2 3 4 5 6 
#
# 1 0.016084 -0.006220 -0.004895 0.000000 0.000000 0.000000
# 2 -0.006220 0.016189 -0.003995 0.000000 0.000000 0.000000
# 3 -0.004895 -0.003995 0.014424 0.000000 0.000000 0.000000
# 4 0.000000 0.000000 0.000000 0.030118 0.000000 0.000000
# 5 0.000000 0.000000 0.000000 0.000000 0.033074 0.000000
# 6 0.000000 0.000000 0.000000 0.000000 0.000000 0.029805
#
#
# Mechanical properties :
#
#
# Convention : Reuss Voigt Hill
#
# Bulk Modulus (GPa) = 60.68256 60.76603 60.72430
# Shear Modulus (GPa) = 28.50527 29.18811 28.84669
#
# Velocity S-wave (km/s) = 3.90158 3.94803 3.92487
# Velocity P-wave (km/s) = 7.25961 7.29608 7.27787
#
# Compressibility (1/GPa) = 0.01647920
#
# Stress axis : x y z
#
# Youngs Moduli (GPa) = 62.17233 61.76908 69.32875
#
# Poissons Ratio (x) = 0.38418 0.33934
# Poissons Ratio (y) = 0.38668 0.27697
# Poissons Ratio (z) = 0.30431 0.24677
#
# Static dielectric constant tensor:
#      x y z
#    x 3.451270 0.000000 0.000000 
#    y 0.000000 3.620480 0.000000 
#    z 0.000000 0.000000 3.385180 
# 
# 
# High freq. dielectric constant tensor:
#      x y z
#    x 1.728150 0.000000 0.000000 
#    y 0.000000 1.731250 0.000000 
#    z 0.000000 0.000000 1.720910 
# 
# From -- ./inp_files/24395.got.cif
#   From: 2010.03.12/outbox.cif.g09.slc.cpg/sg59_13_cif.got.tgz:24395.got - 2010.04.16 16:29:54.
