data_PCOD8245351
_publ_section_title
;
Structure prediction by ZEFSAII (Michael W. Deem and Ramdas Pophale) SiO2 
 PCOD8245351
Probable space group: P M M N
;
_chemical_formula_sum "Si O2"
_cell_formula_units_Z 40
_cell_length_a 9.023092
_cell_length_b 17.825369
_cell_length_c 12.678451
_cell_angle_alpha 90.000000
_cell_angle_beta 90.000000
_cell_angle_gamma 90.000000
_cell_volume 2039.201354
_symmetry_space_group_name_H-M "P M M N"
_symmetry_group_IT_number 59
_space_group.IT_coordinate_system_code '2'
_symmetry_cell_setting 'orthorhombic'
loop_
_space_group_symop_operation_xyz
x,y,z
1/2-x,1/2-y,z
1/2+x,-y,-z
-x,1/2+y,-z
-x,-y,-z
1/2+x,1/2+y,-z
1/2-x,y,z
x,1/2-y,z
loop_
_atom_site_type_symbol
_atom_site_label
_atom_site_fract_x
_atom_site_fract_y
_atom_site_fract_z
Si Si1 0.079473 0.837229 0.495120
Si Si2 0.080748 0.907992 0.714180
Si Si3 0.420797 0.418092 0.690248
Si Si4 0.576150 0.336394 0.879683
Si Si5 0.576568 0.664009 0.906087
O O1 0.250000 0.859087 0.472056
O O2 0.051690 0.750000 0.474727
O O3 0.037517 0.856449 0.615079
O O4 0.973181 0.883685 0.419595
O O5 0.250000 0.893205 0.748579
O O6 0.974999 0.887503 0.810403
O O7 0.054614 0.993505 0.682274
O O8 0.250000 0.397092 0.709136
O O9 0.516830 0.386165 0.785162
O O10 0.750000 0.348477 0.889826
O O11 0.535394 0.250000 0.856689
O O12 0.502330 0.364240 0.987795
O O13 0.750000 0.653952 0.922608
O O14 0.532920 0.750000 0.882097
#
# Coordination Sequence:
#
# PCOD8245351 Si02
#       5
#     8   8   8   8   8
#     4  10  21  38  60  83 109 146 190 231 275 333
#     4  10  22  39  58  82 114 152 189 225 274 336
#     4  11  23  37  56  84 116 148 185 232 282 329
#     4  10  21  38  60  83 110 149 192 230 275 334
#     4  10  21  37  59  87 115 144 184 234 282 327
#
# _framework density 19.615521999999999
#
# number of rings (size 3 to 8) (size 9 to 14) (size 15 to 20)
#    0.000    1.800    0.000    3.600    0.000    9.200 
#    0.000    0.000    0.000    0.000    0.000    0.000 
#    0.000    0.000    0.000    0.000    0.000    0.000 
#
# Total GULP energy -496270.283950 kJ/mol
# GULP energy per Si atom -12406.757099 kJ/mol
# Density = 1.957088 g / cm^3
# Si number density = 19.615522 Si / 1000 Ang^3
#
#
#
# Elastic Constant Matrix: (Units=GPa)
#
#
# Indices 1 2 3 4 5 6 
#
# 1 76.9535 25.1576 35.6570 0.0000 0.0000 0.0000
# 2 25.1576 47.1230 15.6972 0.0000 0.0000 0.0000
# 3 35.6570 15.6972 84.3641 0.0000 0.0000 0.0000
# 4 0.0000 0.0000 0.0000 85.8577 0.0000 0.0000
# 5 0.0000 0.0000 0.0000 0.0000 38.3183 0.0000
# 6 0.0000 0.0000 0.0000 0.0000 0.0000 29.8335
#
#
#
# Elastic Compliance Matrix: (Units=1/GPa)
#
#
# Indices 1 2 3 4 5 6 
#
# 1 0.018477 -0.007743 -0.006369 0.000000 0.000000 0.000000
# 2 -0.007743 0.025868 -0.001541 0.000000 0.000000 0.000000
# 3 -0.006369 -0.001541 0.014832 0.000000 0.000000 0.000000
# 4 0.000000 0.000000 0.000000 0.011647 0.000000 0.000000
# 5 0.000000 0.000000 0.000000 0.000000 0.026097 0.000000
# 6 0.000000 0.000000 0.000000 0.000000 0.000000 0.033519
#
#
# Mechanical properties :
#
#
# Convention : Reuss Voigt Hill
#
# Bulk Modulus (GPa) = 35.87771 40.16269 38.02020
# Shear Modulus (GPa) = 29.23359 39.59715 34.41537
#
# Velocity S-wave (km/s) = 3.86467 4.49783 4.19322
# Velocity P-wave (km/s) = 6.18420 6.89154 6.54743
#
# Compressibility (1/GPa) = 0.02787246
#
# Stress axis : x y z
#
# Youngs Moduli (GPa) = 54.12071 38.65786 67.42249
#
# Poissons Ratio (x) = 0.29933 0.42940
# Poissons Ratio (y) = 0.41905 0.10387
# Poissons Ratio (z) = 0.34468 0.05955
#
# Static dielectric constant tensor:
#      x y z
#    x 3.645280 0.000000 0.000000 
#    y 0.000000 3.599730 0.000000 
#    z 0.000000 0.000000 3.611280 
# 
# 
# High freq. dielectric constant tensor:
#      x y z
#    x 1.769930 0.000000 0.000000 
#    y 0.000000 1.765410 0.000000 
#    z 0.000000 0.000000 1.775780 
# 
# From -- ./inp_files/13821.got.cif
#   From: 2010.03.12/outbox.cif.g09.slc.cpg/sg59_7_cif.got.tgz:13821.got - 2010.04.16 16:29:54.
