data_PCOD8245265
_publ_section_title
;
Structure prediction by ZEFSAII (Michael W. Deem and Ramdas Pophale) SiO2 
 PCOD8245265
Probable space group: P M M N
;
_chemical_formula_sum "Si O2"
_cell_formula_units_Z 48
_cell_length_a 7.701072
_cell_length_b 9.141308
_cell_length_c 34.648231
_cell_angle_alpha 90.000000
_cell_angle_beta 90.000000
_cell_angle_gamma 90.000000
_cell_volume 2439.161699
_symmetry_space_group_name_H-M "P M M N"
_symmetry_group_IT_number 59
_space_group.IT_coordinate_system_code '2'
_symmetry_cell_setting 'orthorhombic'
loop_
_space_group_symop_operation_xyz
x,y,z
1/2-x,1/2-y,z
1/2+x,-y,-z
-x,1/2+y,-z
-x,-y,-z
1/2+x,1/2+y,-z
1/2-x,y,z
x,1/2-y,z
loop_
_atom_site_type_symbol
_atom_site_label
_atom_site_fract_x
_atom_site_fract_y
_atom_site_fract_z
Si Si1 0.750000 0.422717 0.255923
Si Si2 0.952687 0.407643 0.963256
Si Si3 0.549660 0.577991 0.688013
Si Si4 0.550204 0.089005 0.613248
Si Si5 0.953126 0.414569 0.461604
Si Si6 0.548960 0.076188 0.878428
Si Si7 0.750000 0.424899 0.168514
O O1 0.750000 0.250000 0.255095
O O2 0.574048 0.476556 0.277236
O O3 0.750000 0.481993 0.212476
O O4 0.750000 0.384811 0.961182
O O5 0.043521 0.250000 0.968608
O O6 0.007942 0.474640 0.921827
O O7 0.000000 0.500000 0.000000
O O8 0.750000 0.537203 0.697778
O O9 0.531185 0.750000 0.680665
O O10 0.475038 0.499985 0.649582
O O11 0.750000 0.112253 0.621737
O O12 0.460891 0.250000 0.609597
O O13 0.532747 0.998792 0.574252
O O14 0.750000 0.408117 0.455971
O O15 0.030100 0.250000 0.463711
O O16 0.000000 0.500000 0.500000
O O17 0.750000 0.035292 0.869727
O O18 0.521160 0.250000 0.874010
O O19 0.425513 0.988016 0.849865
O O20 0.750000 0.250000 0.164861
#
# Coordination Sequence:
#
# PCOD8245265 Si02
#       7
#     4   8   8   8   8   8   4
#     4   9  20  37  57  85 117 147 189 239 291 353
#     4   9  19  34  52  77 108 143 186 235 287 342
#     4   9  18  35  59  83 111 149 188 230 283 341
#     4  10  21  37  57  83 114 145 180 226 279 333
#     4  11  24  39  56  80 110 146 188 232 275 325
#     4   9  20  40  60  79 113 159 201 240 291 358
#     4  11  23  37  59  91 121 153 195 251 305 353
#
# _framework density 19.678892999999999
#
# number of rings (size 3 to 8) (size 9 to 14) (size 15 to 20)
#    0.000    2.333    0.000    2.750    2.333    6.333 
#    0.000    5.000    0.000    2.000    0.000    0.000 
#    0.000    0.000    0.000    0.000    0.000    0.000 
#
# Total GULP energy -594928.554131 kJ/mol
# GULP energy per Si atom -12394.344878 kJ/mol
# Density = 1.963410 g / cm^3
# Si number density = 19.678893 Si / 1000 Ang^3
#
#
#
# Elastic Constant Matrix: (Units=GPa)
#
#
# Indices 1 2 3 4 5 6 
#
# 1 79.8873 36.2588 58.6643 0.0000 0.0000 0.0000
# 2 36.2588 103.9638 71.5313 0.0000 0.0000 0.0000
# 3 58.6643 71.5313 193.0354 0.0000 0.0000 0.0000
# 4 0.0000 0.0000 0.0000 32.4233 0.0000 0.0000
# 5 0.0000 0.0000 0.0000 0.0000 36.4950 0.0000
# 6 0.0000 0.0000 0.0000 0.0000 0.0000 24.1755
#
#
#
# Elastic Compliance Matrix: (Units=1/GPa)
#
#
# Indices 1 2 3 4 5 6 
#
# 1 0.016853 -0.003159 -0.003951 0.000000 0.000000 0.000000
# 2 -0.003159 0.013503 -0.004043 0.000000 0.000000 0.000000
# 3 -0.003951 -0.004043 0.007879 0.000000 0.000000 0.000000
# 4 0.000000 0.000000 0.000000 0.030842 0.000000 0.000000
# 5 0.000000 0.000000 0.000000 0.000000 0.027401 0.000000
# 6 0.000000 0.000000 0.000000 0.000000 0.000000 0.041364
#
#
# Mechanical properties :
#
#
# Convention : Reuss Voigt Hill
#
# Bulk Modulus (GPa) = 62.78392 78.86616 70.82504
# Shear Modulus (GPa) = 30.21904 32.64757 31.43330
#
# Velocity S-wave (km/s) = 3.92293 4.07752 4.00097
# Velocity P-wave (km/s) = 7.24518 7.89505 7.57708
#
# Compressibility (1/GPa) = 0.01592764
#
# Stress axis : x y z
#
# Youngs Moduli (GPa) = 59.33703 74.05978 126.91250
#
# Poissons Ratio (x) = 0.23397 0.50143
# Poissons Ratio (y) = 0.18746 0.51316
# Poissons Ratio (z) = 0.23444 0.29946
#
# Static dielectric constant tensor:
#      x y z
#    x 4.527530 0.000000 0.000000 
#    y 0.000000 3.683720 0.000000 
#    z 0.000000 0.000000 3.587160 
# 
# 
# High freq. dielectric constant tensor:
#      x y z
#    x 1.769250 0.000000 0.000000 
#    y 0.000000 1.759690 0.000000 
#    z 0.000000 0.000000 1.770500 
# 
# From -- ./inp_files/33006.got.cif
#   From: 2010.03.12/outbox.cif.g09.slc.cpg/sg59_17_cif.got.tgz:33006.got - 2010.04.16 16:29:54.
