data_PCOD8245592
_publ_section_title
;
Structure prediction by ZEFSAII (Michael W. Deem and Ramdas Pophale) SiO2 
 PCOD8245592
Probable space group: P M M N
;
_chemical_formula_sum "Si O2"
_cell_formula_units_Z 56
_cell_length_a 8.667216
_cell_length_b 22.219355
_cell_length_c 14.650268
_cell_angle_alpha 90.000000
_cell_angle_beta 90.000000
_cell_angle_gamma 90.000000
_cell_volume 2821.347867
_symmetry_space_group_name_H-M "P M M N"
_symmetry_group_IT_number 59
_space_group.IT_coordinate_system_code '2'
_symmetry_cell_setting 'orthorhombic'
loop_
_space_group_symop_operation_xyz
x,y,z
1/2-x,1/2-y,z
1/2+x,-y,-z
-x,1/2+y,-z
-x,-y,-z
1/2+x,1/2+y,-z
1/2-x,y,z
x,1/2-y,z
loop_
_atom_site_type_symbol
_atom_site_label
_atom_site_fract_x
_atom_site_fract_y
_atom_site_fract_z
Si Si1 0.574135 0.519205 0.594343
Si Si2 0.929517 0.556470 0.114796
Si Si3 0.925919 0.680926 0.438904
Si Si4 0.430473 0.921664 0.924760
Si Si5 0.429830 0.641843 0.625016
Si Si6 0.575805 0.099843 0.707335
Si Si7 0.571514 0.817951 0.804008
O O1 0.500000 0.500000 0.500000
O O2 0.750000 0.539681 0.576750
O O3 0.476427 0.572690 0.638519
O O4 0.564351 0.465961 0.665454
O O5 0.750000 0.565880 0.132179
O O6 0.974176 0.485677 0.121333
O O7 0.020937 0.595332 0.188913
O O8 0.973687 0.584602 0.017514
O O9 0.750000 0.666997 0.466138
O O10 0.952275 0.750000 0.415202
O O11 0.033895 0.662190 0.522505
O O12 0.967917 0.644866 0.348149
O O13 0.250000 0.919976 0.947916
O O14 0.471322 0.866151 0.859373
O O15 0.250000 0.649895 0.643831
O O16 0.522685 0.681570 0.697869
O O17 0.750000 0.124470 0.704275
O O18 0.750000 0.835850 0.812493
O O19 0.543280 0.750000 0.840972
#
# Coordination Sequence:
#
# PCOD8245592 Si02
#       7
#     8   8   8   8   8   8   8
#     4  11  22  36  57  86 120 156 195 242 296 350
#     4  10  21  38  63  92 122 156 192 238 297 357
#     4  11  24  41  60  81 111 154 200 246 295 349
#     4  10  21  39  64  93 122 153 193 242 297 356
#     4  12  24  38  59  87 119 158 201 245 296 352
#     4  11  23  38  59  88 119 154 195 242 293 347
#     4  11  24  41  61  87 121 161 203 248 300 358
#
# _framework density 19.848669999999998
#
# number of rings (size 3 to 8) (size 9 to 14) (size 15 to 20)
#    0.000    1.143    1.429    5.143    0.000    9.714 
#    0.000    0.714    0.000    4.286    0.000    0.000 
#    0.000    0.000    0.000    0.000    0.000    0.000 
#
# Total GULP energy -694718.545138 kJ/mol
# GULP energy per Si atom -12405.688306 kJ/mol
# Density = 1.980349 g / cm^3
# Si number density = 19.848670 Si / 1000 Ang^3
#
#
#
# Elastic Constant Matrix: (Units=GPa)
#
#
# Indices 1 2 3 4 5 6 
#
# 1 74.2914 29.1537 12.5193 0.0000 0.0000 0.0000
# 2 29.1537 91.6481 29.4262 0.0000 0.0000 0.0000
# 3 12.5193 29.4262 87.4590 0.0000 0.0000 0.0000
# 4 0.0000 0.0000 0.0000 24.1186 0.0000 0.0000
# 5 0.0000 0.0000 0.0000 0.0000 37.0922 0.0000
# 6 0.0000 0.0000 0.0000 0.0000 0.0000 28.7409
#
#
#
# Elastic Compliance Matrix: (Units=1/GPa)
#
#
# Indices 1 2 3 4 5 6 
#
# 1 0.015411 -0.004702 -0.000624 0.000000 0.000000 0.000000
# 2 -0.004702 0.013667 -0.003925 0.000000 0.000000 0.000000
# 3 -0.000624 -0.003925 0.012844 0.000000 0.000000 0.000000
# 4 0.000000 0.000000 0.000000 0.041462 0.000000 0.000000
# 5 0.000000 0.000000 0.000000 0.000000 0.026960 0.000000
# 6 0.000000 0.000000 0.000000 0.000000 0.000000 0.034794
#
#
# Mechanical properties :
#
#
# Convention : Reuss Voigt Hill
#
# Bulk Modulus (GPa) = 42.69944 43.95521 43.32732
# Shear Modulus (GPa) = 29.16359 30.14360 29.65359
#
# Velocity S-wave (km/s) = 3.83730 3.90124 3.86940
# Velocity P-wave (km/s) = 6.41813 6.51814 6.46833
#
# Compressibility (1/GPa) = 0.02341951
#
# Stress axis : x y z
#
# Youngs Moduli (GPa) = 64.88959 73.16697 77.85741
#
# Poissons Ratio (x) = 0.34402 0.04858
# Poissons Ratio (y) = 0.30510 0.30562
# Poissons Ratio (z) = 0.04049 0.28721
#
# Static dielectric constant tensor:
#      x y z
#    x 3.761170 0.000000 0.000000 
#    y 0.000000 3.607020 0.000000 
#    z 0.000000 0.000000 3.550440 
# 
# 
# High freq. dielectric constant tensor:
#      x y z
#    x 1.789510 0.000000 0.000000 
#    y 0.000000 1.770250 0.000000 
#    z 0.000000 0.000000 1.772060 
# 
# From -- ./inp_files/21028.got.cif
#   From: 2010.03.12/outbox.cif.g09.slc.cpg/sg59_11_cif.got.tgz:21028.got - 2010.04.16 16:29:54.
