data_PCOD8245620
_publ_section_title
;
Structure prediction by ZEFSAII (Michael W. Deem and Ramdas Pophale) SiO2 
 PCOD8245620
Probable space group: P M M N
;
_chemical_formula_sum "Si O2"
_cell_formula_units_Z 48
_cell_length_a 8.576464
_cell_length_b 15.901800
_cell_length_c 16.955728
_cell_angle_alpha 90.000000
_cell_angle_beta 90.000000
_cell_angle_gamma 90.000000
_cell_volume 2312.442790
_symmetry_space_group_name_H-M "P M M N"
_symmetry_group_IT_number 59
_space_group.IT_coordinate_system_code '2'
_symmetry_cell_setting 'orthorhombic'
loop_
_space_group_symop_operation_xyz
x,y,z
1/2-x,1/2-y,z
1/2+x,-y,-z
-x,1/2+y,-z
-x,-y,-z
1/2+x,1/2+y,-z
1/2-x,y,z
x,1/2-y,z
loop_
_atom_site_type_symbol
_atom_site_label
_atom_site_fract_x
_atom_site_fract_y
_atom_site_fract_z
Si Si1 0.429681 0.090777 0.160881
Si Si2 0.434856 0.000921 0.586983
Si Si3 0.572824 0.346068 0.004828
Si Si4 0.435088 0.156940 0.688343
Si Si5 0.430776 0.656838 0.688820
Si Si6 0.569511 0.915983 0.148869
O O1 0.250000 0.063827 0.165507
O O2 0.471620 0.155389 0.230262
O O3 0.541816 0.011463 0.174745
O O4 0.459856 0.133263 0.076779
O O5 0.250000 0.004154 0.584081
O O6 0.503048 0.083557 0.631916
O O7 0.500000 0.000000 0.500000
O O8 0.492239 0.915414 0.629682
O O9 0.750000 0.366379 0.029868
O O10 0.550099 0.250000 0.980306
O O11 0.531244 0.400768 0.928853
O O12 0.250000 0.152354 0.684383
O O13 0.494582 0.250000 0.661943
O O14 0.487350 0.142288 0.778813
O O15 0.250000 0.641751 0.708864
O O16 0.455887 0.750000 0.651164
O O17 0.750000 0.900157 0.129384
#
# Coordination Sequence:
#
# PCOD8245620 Si02
#       6
#     8   8   8   8   8   8
#     4  12  24  38  59  87 120 157 204 254 303 356
#     4  10  21  39  61  89 122 156 195 241 297 361
#     4  11  24  40  57  83 121 161 203 251 304 358
#     4   9  18  35  61  89 117 153 196 242 294 354
#     4  10  21  40  64  88 119 161 204 246 300 362
#     4  11  21  38  62  86 117 157 205 251 301 360
#
# _framework density 20.757269999999998
#
# number of rings (size 3 to 8) (size 9 to 14) (size 15 to 20)
#    0.000    1.500    1.667    4.000    0.000    5.667 
#    0.000    0.000    0.000    2.000    0.000    0.000 
#    0.000    0.000    0.000    0.000    0.000    0.000 
#
# Total GULP energy -595299.791774 kJ/mol
# GULP energy per Si atom -12402.078995 kJ/mol
# Density = 2.071003 g / cm^3
# Si number density = 20.757270 Si / 1000 Ang^3
#
#
#
# Elastic Constant Matrix: (Units=GPa)
#
#
# Indices 1 2 3 4 5 6 
#
# 1 44.0203 24.3147 25.4225 0.0000 0.0000 0.0000
# 2 24.3147 148.3289 66.2409 0.0000 0.0000 0.0000
# 3 25.4225 66.2409 141.7056 0.0000 0.0000 0.0000
# 4 0.0000 0.0000 0.0000 25.8932 0.0000 0.0000
# 5 0.0000 0.0000 0.0000 0.0000 34.4337 0.0000
# 6 0.0000 0.0000 0.0000 0.0000 0.0000 14.4240
#
#
#
# Elastic Compliance Matrix: (Units=1/GPa)
#
#
# Indices 1 2 3 4 5 6 
#
# 1 0.026217 -0.002777 -0.003405 0.000000 0.000000 0.000000
# 2 -0.002777 0.008815 -0.003622 0.000000 0.000000 0.000000
# 3 -0.003405 -0.003622 0.009361 0.000000 0.000000 0.000000
# 4 0.000000 0.000000 0.000000 0.038620 0.000000 0.000000
# 5 0.000000 0.000000 0.000000 0.000000 0.029041 0.000000
# 6 0.000000 0.000000 0.000000 0.000000 0.000000 0.069329
#
#
# Mechanical properties :
#
#
# Convention : Reuss Voigt Hill
#
# Bulk Modulus (GPa) = 40.34875 62.89010 51.61942
# Shear Modulus (GPa) = 23.89443 29.48861 26.69152
#
# Velocity S-wave (km/s) = 3.39652 3.77323 3.58982
# Velocity P-wave (km/s) = 5.90444 7.02472 6.48880
#
# Compressibility (1/GPa) = 0.02478392
#
# Stress axis : x y z
#
# Youngs Moduli (GPa) = 38.14275 113.44819 106.82553
#
# Poissons Ratio (x) = 0.31503 0.36379
# Poissons Ratio (y) = 0.10592 0.38695
# Poissons Ratio (z) = 0.12989 0.41094
#
# Static dielectric constant tensor:
#      x y z
#    x 3.401760 0.000000 0.000000 
#    y 0.000000 4.078550 0.000000 
#    z 0.000000 0.000000 3.719490 
# 
# 
# High freq. dielectric constant tensor:
#      x y z
#    x 1.788760 0.000000 0.000000 
#    y 0.000000 1.828000 0.000000 
#    z 0.000000 0.000000 1.807760 
# 
# From -- ./inp_files/25450.got.cif
#   From: 2010.03.12/outbox.cif.g09.slc.cpg/sg59_13_cif.got.tgz:25450.got - 2010.04.16 16:29:54.
