data_PCOD8245297
_publ_section_title
;
Structure prediction by ZEFSAII (Michael W. Deem and Ramdas Pophale) SiO2 
 PCOD8245297
Probable space group: P M M N
;
_chemical_formula_sum "Si O2"
_cell_formula_units_Z 48
_cell_length_a 9.109773
_cell_length_b 8.831846
_cell_length_c 30.691817
_cell_angle_alpha 90.000000
_cell_angle_beta 90.000000
_cell_angle_gamma 90.000000
_cell_volume 2469.344273
_symmetry_space_group_name_H-M "P M M N"
_symmetry_group_IT_number 59
_space_group.IT_coordinate_system_code '2'
_symmetry_cell_setting 'orthorhombic'
loop_
_space_group_symop_operation_xyz
x,y,z
1/2-x,1/2-y,z
1/2+x,-y,-z
-x,1/2+y,-z
-x,-y,-z
1/2+x,1/2+y,-z
1/2-x,y,z
x,1/2-y,z
loop_
_atom_site_type_symbol
_atom_site_label
_atom_site_fract_x
_atom_site_fract_y
_atom_site_fract_z
Si Si1 0.422571 0.923711 0.291589
Si Si2 0.922971 0.925547 0.958984
Si Si3 0.578601 0.574879 0.459638
Si Si4 0.918787 0.926421 0.120865
Si Si5 0.920537 0.424912 0.212442
Si Si6 0.417611 0.927662 0.629065
O O1 0.250000 0.946715 0.290283
O O2 0.466891 0.750000 0.299304
O O3 0.486240 0.977783 0.245900
O O4 0.485916 0.023778 0.330303
O O5 0.750000 0.946169 0.964044
O O6 0.967582 0.750000 0.956128
O O7 0.975281 0.011010 0.916036
O O8 0.000000 0.000000 0.000000
O O9 0.500000 0.500000 0.500000
O O10 0.750000 0.542517 0.464488
O O11 0.539445 0.750000 0.459139
O O12 0.519582 0.504544 0.414604
O O13 0.750000 0.954001 0.107085
O O14 0.950031 0.750000 0.128488
O O15 0.957672 0.016045 0.164536
O O16 0.750000 0.447536 0.223567
O O17 0.966280 0.250000 0.215756
O O18 0.250000 0.978365 0.637607
O O19 0.430175 0.750000 0.622709
#
# Coordination Sequence:
#
# PCOD8245297 Si02
#       6
#     8   8   8   8   8   8
#     4  11  24  39  56  82 115 150 188 231 280 332
#     4  11  24  40  59  85 116 151 191 234 282 335
#     4  10  21  37  58  84 113 147 186 228 277 332
#     4  10  21  38  61  88 116 148 188 232 279 333
#     4  10  21  38  61  87 114 148 189 231 279 335
#     4  10  21  38  60  84 110 144 187 232 279 333
#
# _framework density 19.438358999999998
#
# number of rings (size 3 to 8) (size 9 to 14) (size 15 to 20)
#    0.000    1.667    0.000    4.000    0.000   12.000 
#    0.000    0.000    0.000    0.000    0.000    0.000 
#    0.000    0.000    0.000    0.000    0.000    0.000 
#
# Total GULP energy -595490.548154 kJ/mol
# GULP energy per Si atom -12406.053087 kJ/mol
# Density = 1.939412 g / cm^3
# Si number density = 19.438359 Si / 1000 Ang^3
#
#
#
# Elastic Constant Matrix: (Units=GPa)
#
#
# Indices 1 2 3 4 5 6 
#
# 1 61.5772 38.3222 44.1995 0.0000 0.0000 0.0000
# 2 38.3222 69.7966 29.0937 0.0000 0.0000 0.0000
# 3 44.1995 29.0937 110.3324 0.0000 0.0000 0.0000
# 4 0.0000 0.0000 0.0000 45.0941 0.0000 0.0000
# 5 0.0000 0.0000 0.0000 0.0000 40.3401 0.0000
# 6 0.0000 0.0000 0.0000 0.0000 0.0000 32.0242
#
#
#
# Elastic Compliance Matrix: (Units=1/GPa)
#
#
# Indices 1 2 3 4 5 6 
#
# 1 0.030842 -0.013239 -0.008864 0.000000 0.000000 0.000000
# 2 -0.013239 0.021779 -0.000440 0.000000 0.000000 0.000000
# 3 -0.008864 -0.000440 0.012730 0.000000 0.000000 0.000000
# 4 0.000000 0.000000 0.000000 0.022176 0.000000 0.000000
# 5 0.000000 0.000000 0.000000 0.000000 0.024789 0.000000
# 6 0.000000 0.000000 0.000000 0.000000 0.000000 0.031226
#
#
# Mechanical properties :
#
#
# Convention : Reuss Voigt Hill
#
# Bulk Modulus (GPa) = 49.34313 51.65964 50.50139
# Shear Modulus (GPa) = 25.59071 32.16440 28.87756
#
# Velocity S-wave (km/s) = 3.63231 4.07220 3.85853
# Velocity P-wave (km/s) = 6.55980 6.98171 6.77404
#
# Compressibility (1/GPa) = 0.02026624
#
# Stress axis : x y z
#
# Youngs Moduli (GPa) = 32.42383 45.91500 78.55168
#
# Poissons Ratio (x) = 0.60786 0.69630
# Poissons Ratio (y) = 0.42925 0.03453
# Poissons Ratio (z) = 0.28741 0.02018
#
# Static dielectric constant tensor:
#      x y z
#    x 3.500630 0.000000 0.000000 
#    y 0.000000 3.780910 0.000000 
#    z 0.000000 0.000000 3.649630 
# 
# 
# High freq. dielectric constant tensor:
#      x y z
#    x 1.751140 0.000000 0.000000 
#    y 0.000000 1.776720 0.000000 
#    z 0.000000 0.000000 1.773290 
# 
# From -- ./inp_files/32846.got.cif
#   From: 2010.03.12/outbox.cif.g09.slc.cpg/sg59_17_cif.got.tgz:32846.got - 2010.04.16 16:29:54.
