data_PCOD8245947
_publ_section_title
;
Structure prediction by ZEFSAII (Michael W. Deem and Ramdas Pophale) SiO2 
 PCOD8245947
Probable space group: P M M N
;
_chemical_formula_sum "Si O2"
_cell_formula_units_Z 64
_cell_length_a 30.248958
_cell_length_b 8.715818
_cell_length_c 14.280040
_cell_angle_alpha 90.000000
_cell_angle_beta 90.000000
_cell_angle_gamma 90.000000
_cell_volume 3764.852758
_symmetry_space_group_name_H-M "P M M N"
_symmetry_group_IT_number 59
_space_group.IT_coordinate_system_code '2'
_symmetry_cell_setting 'orthorhombic'
loop_
_space_group_symop_operation_xyz
x,y,z
1/2-x,1/2-y,z
1/2+x,-y,-z
-x,1/2+y,-z
-x,-y,-z
1/2+x,1/2+y,-z
1/2-x,y,z
x,1/2-y,z
loop_
_atom_site_type_symbol
_atom_site_label
_atom_site_fract_x
_atom_site_fract_y
_atom_site_fract_z
Si Si1 0.543366 0.569130 0.548473
Si Si2 0.388343 0.070420 0.934282
Si Si3 0.570569 0.076718 0.241068
Si Si4 0.300109 0.072670 0.639671
Si Si5 0.298366 0.067503 0.851468
Si Si6 0.020219 0.930897 0.267243
Si Si7 0.540750 0.070438 0.942948
Si Si8 0.881539 0.077069 0.430702
O O1 0.500000 0.500000 0.500000
O O2 0.536891 0.750000 0.557571
O O3 0.551790 0.493748 0.650635
O O4 0.587078 0.533740 0.489452
O O5 0.388780 0.250000 0.954666
O O6 0.338048 0.007833 0.918747
O O7 0.416740 0.037887 0.841821
O O8 0.411531 0.986425 0.021080
O O9 0.565283 0.250000 0.201842
O O10 0.606738 0.070649 0.321472
O O11 0.525486 0.017475 0.285814
O O12 0.250000 0.049813 0.605082
O O13 0.313962 0.250000 0.637832
O O14 0.305258 0.007503 0.745630
O O15 0.331056 0.981832 0.566415
O O16 0.250000 0.011956 0.889070
O O17 0.299522 0.250000 0.848563
O O18 0.013471 0.750000 0.277068
O O19 0.039057 0.976643 0.165759
O O20 0.537034 0.250000 0.956547
O O21 0.500000 0.000000 0.000000
O O22 0.885039 0.250000 0.470204
#
# Coordination Sequence:
#
# PCOD8245947 Si02
#       8
#     8   8   8   8   8   8   8   8
#     4  12  24  37  55  76 102 135 173 215 257 309
#     4  11  20  31  51  75 102 137 176 214 256 303
#     4  11  21  31  48  72 104 140 174 213 252 299
#     4   9  17  31  51  74 103 138 174 212 255 304
#     4   8  15  28  47  72 101 133 169 208 250 299
#     4  11  23  38  54  72  99 136 175 217 260 302
#     4  11  23  36  52  73 102 136 173 212 255 306
#     4  11  22  34  50  75 106 140 175 211 256 307
#
# _framework density 16.999337000000001
#
# number of rings (size 3 to 8) (size 9 to 14) (size 15 to 20)
#    0.000    1.500    3.750    3.750    0.000    2.750 
#    0.000    0.000    0.000    1.500    0.000    0.875 
#    0.000    3.000    0.000    0.000    0.000    0.000 
#
# Total GULP energy -793540.302754 kJ/mol
# GULP energy per Si atom -12399.067231 kJ/mol
# Density = 1.696065 g / cm^3
# Si number density = 16.999337 Si / 1000 Ang^3
#
#
#
# Elastic Constant Matrix: (Units=GPa)
#
#
# Indices 1 2 3 4 5 6 
#
# 1 113.0338 29.9009 40.7840 0.0000 0.0000 0.0000
# 2 29.9009 71.2162 35.9348 0.0000 0.0000 0.0000
# 3 40.7840 35.9348 85.9000 0.0000 0.0000 0.0000
# 4 0.0000 0.0000 0.0000 25.2971 0.0000 0.0000
# 5 0.0000 0.0000 0.0000 0.0000 22.5396 0.0000
# 6 0.0000 0.0000 0.0000 0.0000 0.0000 24.8657
#
#
#
# Elastic Compliance Matrix: (Units=1/GPa)
#
#
# Indices 1 2 3 4 5 6 
#
# 1 0.011021 -0.002519 -0.004179 0.000000 0.000000 0.000000
# 2 -0.002519 0.018374 -0.006491 0.000000 0.000000 0.000000
# 3 -0.004179 -0.006491 0.016341 0.000000 0.000000 0.000000
# 4 0.000000 0.000000 0.000000 0.039530 0.000000 0.000000
# 5 0.000000 0.000000 0.000000 0.000000 0.044366 0.000000
# 6 0.000000 0.000000 0.000000 0.000000 0.000000 0.040216
#
#
# Mechanical properties :
#
#
# Convention : Reuss Voigt Hill
#
# Bulk Modulus (GPa) = 51.65437 53.70992 52.68215
# Shear Modulus (GPa) = 24.66958 25.44251 25.05604
#
# Velocity S-wave (km/s) = 3.81361 3.87289 3.84336
# Velocity P-wave (km/s) = 7.05999 7.18769 7.12413
#
# Compressibility (1/GPa) = 0.01935945
#
# Stress axis : x y z
#
# Youngs Moduli (GPa) = 90.73593 54.42359 61.19632
#
# Poissons Ratio (x) = 0.13707 0.25574
# Poissons Ratio (y) = 0.22853 0.39721
# Poissons Ratio (z) = 0.37918 0.35325
#
# Static dielectric constant tensor:
#      x y z
#    x 3.363820 0.000000 0.000000 
#    y 0.000000 3.170590 0.000000 
#    z 0.000000 0.000000 3.081830 
# 
# 
# High freq. dielectric constant tensor:
#      x y z
#    x 1.649760 0.000000 0.000000 
#    y 0.000000 1.659320 0.000000 
#    z 0.000000 0.000000 1.627180 
# 
# From -- ./inp_files/25034.got.cif
#   From: 2010.03.12/outbox.cif.g09.slc.cpg/sg59_13_cif.got.tgz:25034.got - 2010.04.16 16:29:54.
