data_PCOD8245867
_publ_section_title
;
Structure prediction by ZEFSAII (Michael W. Deem and Ramdas Pophale) SiO2 
 PCOD8245867
Probable space group: P M M N
;
_chemical_formula_sum "Si O2"
_cell_formula_units_Z 38
_cell_length_a 11.304057
_cell_length_b 9.536376
_cell_length_c 17.984609
_cell_angle_alpha 90.000000
_cell_angle_beta 90.000000
_cell_angle_gamma 90.000000
_cell_volume 1938.736136
_symmetry_space_group_name_H-M "P M M N"
_symmetry_group_IT_number 59
_space_group.IT_coordinate_system_code '2'
_symmetry_cell_setting 'orthorhombic'
loop_
_space_group_symop_operation_xyz
x,y,z
1/2-x,1/2-y,z
1/2+x,-y,-z
-x,1/2+y,-z
-x,-y,-z
1/2+x,1/2+y,-z
1/2-x,y,z
x,1/2-y,z
loop_
_atom_site_type_symbol
_atom_site_label
_atom_site_fract_x
_atom_site_fract_y
_atom_site_fract_z
Si Si1 0.612071 0.250000 0.606332
Si Si2 0.391330 0.581990 0.041960
Si Si3 0.994325 0.750000 0.550156
Si Si4 0.992408 0.019985 0.328660
Si Si5 0.116390 0.097067 0.181747
Si Si6 0.250000 0.250000 0.528935
Si Si7 0.750000 0.903163 0.327064
O O1 0.750000 0.250000 0.616095
O O2 0.581400 0.250000 0.519627
O O3 0.560972 0.118387 0.649150
O O4 0.250000 0.547192 0.019296
O O5 0.410749 0.750000 0.035961
O O6 0.412734 0.530413 0.126194
O O7 0.500000 0.500000 0.000000
O O8 0.860247 0.750000 0.524593
O O9 0.016773 0.613663 0.598500
O O10 0.862051 0.987609 0.299743
O O11 0.047476 0.095316 0.258576
O O12 0.250000 0.084903 0.207195
O O13 0.091277 0.250000 0.143748
O O14 0.250000 0.113107 0.582356
O O15 0.750000 0.750000 0.288920
#
# Coordination Sequence:
#
# PCOD8245867 Si02
#       7
#     4   8   4   8   8   2   4
#     4  12  26  38  62  88 117 157 212 270 318 391
#     4  10  22  42  73 107 141 175 213 260 311 378
#     4  12  26  38  64  86 117 157 212 267 325 378
#     4  12  24  42  60  90 119 163 212 263 321 380
#     4  10  22  42  65  95 131 168 211 264 316 368
#     4  10  22  42  60  82 118 160 200 264 338 382
#     4  10  22  43  57  76 122 162 198 262 329 378
#
# _framework density 19.600398999999999
#
# number of rings (size 3 to 8) (size 9 to 14) (size 15 to 20)
#    0.316    0.842    4.211    1.895    5.895    1.263 
#    1.895    0.000    0.000    0.000    0.000    0.000 
#    0.000    0.000    0.000    0.000    0.000    0.000 
#
# Total GULP energy -470760.581050 kJ/mol
# GULP energy per Si atom -12388.436343 kJ/mol
# Density = 1.955579 g / cm^3
# Si number density = 19.600399 Si / 1000 Ang^3
#
#
#
# Elastic Constant Matrix: (Units=GPa)
#
#
# Indices 1 2 3 4 5 6 
#
# 1 127.5958 56.6227 38.9916 0.0000 0.0000 0.0000
# 2 56.6227 114.4337 27.3115 0.0000 0.0000 0.0000
# 3 38.9916 27.3115 71.5875 0.0000 0.0000 0.0000
# 4 0.0000 0.0000 0.0000 45.7122 0.0000 0.0000
# 5 0.0000 0.0000 0.0000 0.0000 35.7091 0.0000
# 6 0.0000 0.0000 0.0000 0.0000 0.0000 25.9614
#
#
#
# Elastic Compliance Matrix: (Units=1/GPa)
#
#
# Indices 1 2 3 4 5 6 
#
# 1 0.011160 -0.004479 -0.004370 0.000000 0.000000 0.000000
# 2 -0.004479 0.011412 -0.001914 0.000000 0.000000 0.000000
# 3 -0.004370 -0.001914 0.017079 0.000000 0.000000 0.000000
# 4 0.000000 0.000000 0.000000 0.021876 0.000000 0.000000
# 5 0.000000 0.000000 0.000000 0.000000 0.028004 0.000000
# 6 0.000000 0.000000 0.000000 0.000000 0.000000 0.038519
#
#
# Mechanical properties :
#
#
# Convention : Reuss Voigt Hill
#
# Bulk Modulus (GPa) = 55.17175 62.16317 58.66746
# Shear Modulus (GPa) = 32.12988 34.18928 33.15958
#
# Velocity S-wave (km/s) = 4.05315 4.18103 4.11759
# Velocity P-wave (km/s) = 7.07909 7.42241 7.25278
#
# Compressibility (1/GPa) = 0.01812522
#
# Stress axis : x y z
#
# Youngs Moduli (GPa) = 89.60266 87.62785 58.55055
#
# Poissons Ratio (x) = 0.39251 0.25586
# Poissons Ratio (y) = 0.40136 0.11207
# Poissons Ratio (z) = 0.39155 0.16772
#
# Static dielectric constant tensor:
#      x y z
#    x 3.899780 0.000000 0.000000 
#    y 0.000000 3.818450 0.000000 
#    z 0.000000 0.000000 3.323860 
# 
# 
# High freq. dielectric constant tensor:
#      x y z
#    x 1.778510 0.000000 0.000000 
#    y 0.000000 1.778290 0.000000 
#    z 0.000000 0.000000 1.743490 
# 
# From -- ./inp_files/26780.got.cif
#   From: 2010.03.12/outbox.cif.g09.slc.cpg/sg59_14_cif.got.tgz:26780.got - 2010.04.16 16:29:54.
