data_PCOD8245673
_publ_section_title
;
Structure prediction by ZEFSAII (Michael W. Deem and Ramdas Pophale) SiO2 
 PCOD8245673
Probable space group: P M M N
;
_chemical_formula_sum "Si O2"
_cell_formula_units_Z 64
_cell_length_a 20.801697
_cell_length_b 8.798791
_cell_length_c 17.189564
_cell_angle_alpha 90.000000
_cell_angle_beta 90.000000
_cell_angle_gamma 90.000000
_cell_volume 3146.202192
_symmetry_space_group_name_H-M "P M M N"
_symmetry_group_IT_number 59
_space_group.IT_coordinate_system_code '2'
_symmetry_cell_setting 'orthorhombic'
loop_
_space_group_symop_operation_xyz
x,y,z
1/2-x,1/2-y,z
1/2+x,-y,-z
-x,1/2+y,-z
-x,-y,-z
1/2+x,1/2+y,-z
1/2-x,y,z
x,1/2-y,z
loop_
_atom_site_type_symbol
_atom_site_label
_atom_site_fract_x
_atom_site_fract_y
_atom_site_fract_z
Si Si1 0.571016 0.572493 0.921338
Si Si2 0.074454 0.927313 0.914230
Si Si3 0.379317 0.578398 0.650168
Si Si4 0.140418 0.928431 0.362153
Si Si5 0.322925 0.075435 0.204605
Si Si6 0.823109 0.571334 0.201513
Si Si7 0.679237 0.582097 0.488783
Si Si8 0.012795 0.074345 0.416136
O O1 0.574512 0.750000 0.942396
O O2 0.499234 0.531196 0.889946
O O3 0.625248 0.525304 0.859758
O O4 0.587088 0.477996 0.998002
O O5 0.086336 0.750000 0.906577
O O6 0.126511 0.004834 0.859240
O O7 0.357751 0.750000 0.669210
O O8 0.346458 0.468291 0.711912
O O9 0.359954 0.534977 0.562950
O O10 0.455926 0.562888 0.647234
O O11 0.145683 0.750000 0.376130
O O12 0.167404 0.967256 0.277724
O O13 0.183636 0.016623 0.424580
O O14 0.067865 0.983504 0.372039
O O15 0.250000 0.054961 0.172432
O O16 0.335256 0.250000 0.229032
O O17 0.750000 0.510201 0.187812
O O18 0.823597 0.750000 0.192180
O O19 0.750000 0.595086 0.453682
O O20 0.646936 0.750000 0.488646
O O21 0.031099 0.250000 0.430258
O O22 0.000000 0.000000 0.500000
#
# Coordination Sequence:
#
# PCOD8245673 Si02
#       8
#     8   8   8   8   8   8   8   8
#     4   9  20  40  65  94 128 165 205 248 303 371
#     4  10  21  39  65  96 128 163 206 254 304 361
#     4  11  24  40  61  89 120 155 200 255 311 367
#     4  12  25  39  58  87 121 159 203 255 308 361
#     4  10  22  41  64  90 123 164 208 255 308 369
#     4  11  25  43  63  90 126 167 210 254 305 370
#     4  11  23  39  60  83 113 158 205 250 306 369
#     4  11  23  40  62  88 118 155 202 254 311 372
#
# _framework density 20.341985000000001
#
# number of rings (size 3 to 8) (size 9 to 14) (size 15 to 20)
#    0.000    1.375    1.250    3.750    1.750    8.250 
#    0.000    1.250    0.000    0.000    0.000    0.000 
#    0.000    0.000    0.000    0.000    0.000    0.000 
#
# Total GULP energy -793579.040162 kJ/mol
# GULP energy per Si atom -12399.672503 kJ/mol
# Density = 2.029569 g / cm^3
# Si number density = 20.341985 Si / 1000 Ang^3
#
#
#
# Elastic Constant Matrix: (Units=GPa)
#
#
# Indices 1 2 3 4 5 6 
#
# 1 135.8429 36.8445 59.5275 0.0000 0.0000 0.0000
# 2 36.8445 83.0804 31.6481 0.0000 0.0000 0.0000
# 3 59.5275 31.6481 94.8038 0.0000 0.0000 0.0000
# 4 0.0000 0.0000 0.0000 37.7515 0.0000 0.0000
# 5 0.0000 0.0000 0.0000 0.0000 29.1898 0.0000
# 6 0.0000 0.0000 0.0000 0.0000 0.0000 29.0697
#
#
#
# Elastic Compliance Matrix: (Units=1/GPa)
#
#
# Indices 1 2 3 4 5 6 
#
# 1 0.010583 -0.002477 -0.005818 0.000000 0.000000 0.000000
# 2 -0.002477 0.014370 -0.003242 0.000000 0.000000 0.000000
# 3 -0.005818 -0.003242 0.015283 0.000000 0.000000 0.000000
# 4 0.000000 0.000000 0.000000 0.026489 0.000000 0.000000
# 5 0.000000 0.000000 0.000000 0.000000 0.034258 0.000000
# 6 0.000000 0.000000 0.000000 0.000000 0.000000 0.034400
#
#
# Mechanical properties :
#
#
# Convention : Reuss Voigt Hill
#
# Bulk Modulus (GPa) = 58.26641 63.30749 60.78695
# Shear Modulus (GPa) = 30.45471 31.58269 31.01870
#
# Velocity S-wave (km/s) = 3.87348 3.94456 3.90918
# Velocity P-wave (km/s) = 6.97931 7.20661 7.09387
#
# Compressibility (1/GPa) = 0.01716255
#
# Stress axis : x y z
#
# Youngs Moduli (GPa) = 94.49293 69.58979 65.43011
#
# Poissons Ratio (x) = 0.17237 0.38068
# Poissons Ratio (y) = 0.23406 0.21211
# Poissons Ratio (z) = 0.54977 0.22560
#
# Static dielectric constant tensor:
#      x y z
#    x 3.981120 0.000000 0.000000 
#    y 0.000000 3.702460 0.000000 
#    z 0.000000 0.000000 3.527290 
# 
# 
# High freq. dielectric constant tensor:
#      x y z
#    x 1.813690 0.000000 0.000000 
#    y 0.000000 1.800800 0.000000 
#    z 0.000000 0.000000 1.785420 
# 
# From -- ./inp_files/28158.got.cif
#   From: 2010.03.12/outbox.cif.g09.slc.cpg/sg59_15_cif.got.tgz:28158.got - 2010.04.16 16:29:54.
