data_PCOD8245249
_publ_section_title
;
Structure prediction by ZEFSAII (Michael W. Deem and Ramdas Pophale) SiO2 
 PCOD8245249
Probable space group: P M M N
;
_chemical_formula_sum "Si O2"
_cell_formula_units_Z 64
_cell_length_a 19.097613
_cell_length_b 9.102615
_cell_length_c 19.876196
_cell_angle_alpha 90.000000
_cell_angle_beta 90.000000
_cell_angle_gamma 90.000000
_cell_volume 3455.242504
_symmetry_space_group_name_H-M "P M M N"
_symmetry_group_IT_number 59
_space_group.IT_coordinate_system_code '2'
_symmetry_cell_setting 'orthorhombic'
loop_
_space_group_symop_operation_xyz
x,y,z
1/2-x,1/2-y,z
1/2+x,-y,-z
-x,1/2+y,-z
-x,-y,-z
1/2+x,1/2+y,-z
1/2-x,y,z
x,1/2-y,z
loop_
_atom_site_type_symbol
_atom_site_label
_atom_site_fract_x
_atom_site_fract_y
_atom_site_fract_z
Si Si1 0.066219 0.579898 0.803356
Si Si2 0.669340 0.077189 0.963487
Si Si3 0.544425 0.419168 0.348861
Si Si4 0.829703 0.083290 0.731431
Si Si5 0.431571 0.420040 0.525638
Si Si6 0.883840 0.916242 0.614448
Si Si7 0.668936 0.579643 0.100698
Si Si8 0.589981 0.920457 0.844954
O O1 0.088215 0.750000 0.807350
O O2 0.061323 0.526998 0.726236
O O3 0.125066 0.480554 0.837043
O O4 0.992989 0.555421 0.841534
O O5 0.750000 0.039462 0.946411
O O6 0.656979 0.250000 0.967941
O O7 0.619730 0.012633 0.906586
O O8 0.646611 0.006820 0.033845
O O9 0.563906 0.250000 0.358056
O O10 0.591555 0.509878 0.402885
O O11 0.463194 0.447884 0.363161
O O12 0.750000 0.075371 0.756488
O O13 0.857417 0.250000 0.737092
O O14 0.834146 0.028612 0.654260
O O15 0.876542 0.976168 0.775936
O O16 0.500000 0.500000 0.500000
O O17 0.448950 0.250000 0.536531
O O18 0.374008 0.440297 0.466166
O O19 0.862957 0.750000 0.633669
O O20 0.750000 0.552788 0.117560
O O21 0.652272 0.750000 0.089106
O O22 0.609206 0.750000 0.854099
#
# Coordination Sequence:
#
# PCOD8245249 Si02
#       8
#     8   8   8   8   8   8   8   8
#     4  10  21  37  57  82 113 145 178 222 273 325
#     4  10  21  38  59  82 110 145 185 226 267 317
#     4   9  17  32  51  76 108 137 172 218 266 318
#     4  11  23  35  49  74 108 146 188 230 272 323
#     4   9  17  28  46  73 102 133 172 216 264 316
#     4   9  17  32  50  71 102 138 178 223 265 315
#     4  10  22  40  61  85 109 137 178 222 269 329
#     4  11  22  37  56  80 111 145 182 225 270 321
#
# _framework density 18.522576999999998
#
# number of rings (size 3 to 8) (size 9 to 14) (size 15 to 20)
#    0.000    2.125    1.250    3.000    0.000    8.500 
#    0.000    0.000    0.000    0.750    0.000    0.000 
#    0.000    0.000    0.000    0.000    0.000    0.000 
#
# Total GULP energy -793586.609311 kJ/mol
# GULP energy per Si atom -12399.790770 kJ/mol
# Density = 1.848042 g / cm^3
# Si number density = 18.522577 Si / 1000 Ang^3
#
#
#
# Elastic Constant Matrix: (Units=GPa)
#
#
# Indices 1 2 3 4 5 6 
#
# 1 47.2078 35.7524 39.2561 0.0000 0.0000 0.0000
# 2 35.7524 99.6507 62.0312 0.0000 0.0000 0.0000
# 3 39.2561 62.0312 137.9085 0.0000 0.0000 0.0000
# 4 0.0000 0.0000 0.0000 41.7500 0.0000 0.0000
# 5 0.0000 0.0000 0.0000 0.0000 18.3746 0.0000
# 6 0.0000 0.0000 0.0000 0.0000 0.0000 27.3669
#
#
#
# Elastic Compliance Matrix: (Units=1/GPa)
#
#
# Indices 1 2 3 4 5 6 
#
# 1 0.031776 -0.008014 -0.005441 0.000000 0.000000 0.000000
# 2 -0.008014 0.015959 -0.004897 0.000000 0.000000 0.000000
# 3 -0.005441 -0.004897 0.011002 0.000000 0.000000 0.000000
# 4 0.000000 0.000000 0.000000 0.023952 0.000000 0.000000
# 5 0.000000 0.000000 0.000000 0.000000 0.054423 0.000000
# 6 0.000000 0.000000 0.000000 0.000000 0.000000 0.036540
#
#
# Mechanical properties :
#
#
# Convention : Reuss Voigt Hill
#
# Bulk Modulus (GPa) = 45.38344 62.09405 53.73874
# Shear Modulus (GPa) = 22.96730 27.34679 25.15704
#
# Velocity S-wave (km/s) = 3.52513 3.84657 3.68935
# Velocity P-wave (km/s) = 6.41277 7.30235 6.87197
#
# Compressibility (1/GPa) = 0.02203447
#
# Stress axis : x y z
#
# Youngs Moduli (GPa) = 31.46993 62.66228 90.88844
#
# Poissons Ratio (x) = 0.50217 0.49448
# Poissons Ratio (y) = 0.25220 0.44508
# Poissons Ratio (z) = 0.17121 0.30685
#
# Static dielectric constant tensor:
#      x y z
#    x 3.110870 0.000000 0.000000 
#    y 0.000000 3.533330 0.000000 
#    z 0.000000 0.000000 3.812110 
# 
# 
# High freq. dielectric constant tensor:
#      x y z
#    x 1.680850 0.000000 0.000000 
#    y 0.000000 1.728820 0.000000 
#    z 0.000000 0.000000 1.731590 
# 
# From -- ./inp_files/28246.got.cif
#   From: 2010.03.12/outbox.cif.g09.slc.cpg/sg59_15_cif.got.tgz:28246.got - 2010.04.16 16:29:54.
