data_PCOD8245191
_publ_section_title
;
Structure prediction by ZEFSAII (Michael W. Deem and Ramdas Pophale) SiO2 
 PCOD8245191
Probable space group: P M M N
;
_chemical_formula_sum "Si O2"
_cell_formula_units_Z 64
_cell_length_a 24.445028
_cell_length_b 9.028769
_cell_length_c 15.022508
_cell_angle_alpha 90.000000
_cell_angle_beta 90.000000
_cell_angle_gamma 90.000000
_cell_volume 3315.595372
_symmetry_space_group_name_H-M "P M M N"
_symmetry_group_IT_number 59
_space_group.IT_coordinate_system_code '2'
_symmetry_cell_setting 'orthorhombic'
loop_
_space_group_symop_operation_xyz
x,y,z
1/2-x,1/2-y,z
1/2+x,-y,-z
-x,1/2+y,-z
-x,-y,-z
1/2+x,1/2+y,-z
1/2-x,y,z
x,1/2-y,z
loop_
_atom_site_type_symbol
_atom_site_label
_atom_site_fract_x
_atom_site_fract_y
_atom_site_fract_z
Si Si1 0.187423 0.922275 0.874240
Si Si2 0.811666 0.419067 0.618372
Si Si3 0.356438 0.086539 0.539741
Si Si4 0.876335 0.079271 0.790928
Si Si5 0.605882 0.425476 0.280906
Si Si6 0.992795 0.079927 0.735719
Si Si7 0.187563 0.424263 0.054250
Si Si8 0.464159 0.087439 0.432549
O O1 0.250000 0.961722 0.850201
O O2 0.180128 0.750000 0.894905
O O3 0.150842 0.972308 0.791187
O O4 0.167074 0.009732 0.960753
O O5 0.750000 0.435849 0.655306
O O6 0.826949 0.250000 0.597328
O O7 0.813094 0.501871 0.522415
O O8 0.852817 0.479366 0.695435
O O9 0.334638 0.250000 0.569009
O O10 0.405551 0.110402 0.472801
O O11 0.375755 0.995356 0.625792
O O12 0.858340 0.250000 0.801607
O O13 0.942529 0.065180 0.805520
O O14 0.850324 0.982274 0.867777
O O15 0.602046 0.250000 0.292554
O O16 0.547341 0.485596 0.245313
O O17 0.010897 0.250000 0.722395
O O18 0.961342 0.018684 0.650873
O O19 0.250000 0.473510 0.072242
O O20 0.181615 0.250000 0.048655
O O21 0.489448 0.250000 0.409422
O O22 0.500000 0.000000 0.500000
#
# Coordination Sequence:
#
# PCOD8245191 Si02
#       8
#     8   8   8   8   8   8   8   8
#     4   9  20  41  66  88 111 144 188 235 283 341
#     4  10  21  37  56  79 111 152 197 242 288 340
#     4  11  23  36  53  79 113 151 191 237 286 337
#     4  10  21  37  59  84 114 153 193 233 280 340
#     4  11  23  38  60  87 116 150 192 240 289 341
#     4  11  22  36  56  83 116 153 195 237 283 339
#     4  10  21  37  61  92 119 145 182 233 290 343
#     4  11  21  33  53  78 108 148 193 238 282 329
#
# _framework density 19.302717000000001
#
# number of rings (size 3 to 8) (size 9 to 14) (size 15 to 20)
#    0.000    1.625    2.500    2.250    0.000    5.500 
#    0.000    1.875    0.000    0.000    0.000    0.000 
#    0.000    0.000    0.000    0.000    0.000    0.000 
#
# Total GULP energy -793207.466998 kJ/mol
# GULP energy per Si atom -12393.866672 kJ/mol
# Density = 1.925878 g / cm^3
# Si number density = 19.302717 Si / 1000 Ang^3
#
#
#
# Elastic Constant Matrix: (Units=GPa)
#
#
# Indices 1 2 3 4 5 6 
#
# 1 97.2494 40.7647 55.2805 0.0000 0.0000 0.0000
# 2 40.7647 89.5971 49.5917 0.0000 0.0000 0.0000
# 3 55.2805 49.5917 100.4963 0.0000 0.0000 0.0000
# 4 0.0000 0.0000 0.0000 25.4015 0.0000 0.0000
# 5 0.0000 0.0000 0.0000 0.0000 27.9064 0.0000
# 6 0.0000 0.0000 0.0000 0.0000 0.0000 29.7192
#
#
#
# Elastic Compliance Matrix: (Units=1/GPa)
#
#
# Indices 1 2 3 4 5 6 
#
# 1 0.015613 -0.003233 -0.006993 0.000000 0.000000 0.000000
# 2 -0.003233 0.016025 -0.006129 0.000000 0.000000 0.000000
# 3 -0.006993 -0.006129 0.016822 0.000000 0.000000 0.000000
# 4 0.000000 0.000000 0.000000 0.039368 0.000000 0.000000
# 5 0.000000 0.000000 0.000000 0.000000 0.035834 0.000000
# 6 0.000000 0.000000 0.000000 0.000000 0.000000 0.033648
#
#
# Mechanical properties :
#
#
# Convention : Reuss Voigt Hill
#
# Bulk Modulus (GPa) = 63.49575 64.29073 63.89324
# Shear Modulus (GPa) = 25.60561 26.05249 25.82905
#
# Velocity S-wave (km/s) = 3.64611 3.67778 3.66198
# Velocity P-wave (km/s) = 7.11980 7.17033 7.14511
#
# Compressibility (1/GPa) = 0.01574909
#
# Stress axis : x y z
#
# Youngs Moduli (GPa) = 64.04845 62.40443 59.44652
#
# Poissons Ratio (x) = 0.20176 0.41571
# Poissons Ratio (y) = 0.20707 0.36436
# Poissons Ratio (z) = 0.44789 0.38249
#
# Static dielectric constant tensor:
#      x y z
#    x 3.581870 0.000000 0.000000 
#    y 0.000000 3.706420 0.000000 
#    z 0.000000 0.000000 3.403360 
# 
# 
# High freq. dielectric constant tensor:
#      x y z
#    x 1.753240 0.000000 0.000000 
#    y 0.000000 1.760610 0.000000 
#    z 0.000000 0.000000 1.734590 
# 
# From -- ./inp_files/24793.got.cif
#   From: 2010.03.12/outbox.cif.g09.slc.cpg/sg59_13_cif.got.tgz:24793.got - 2010.04.16 16:29:54.
