data_PCOD8245185
_publ_section_title
;
Structure prediction by ZEFSAII (Michael W. Deem and Ramdas Pophale) SiO2 
 PCOD8245185
Probable space group: P M M N
;
_chemical_formula_sum "Si O2"
_cell_formula_units_Z 48
_cell_length_a 17.278427
_cell_length_b 9.289975
_cell_length_c 15.221160
_cell_angle_alpha 90.000000
_cell_angle_beta 90.000000
_cell_angle_gamma 90.000000
_cell_volume 2443.242076
_symmetry_space_group_name_H-M "P M M N"
_symmetry_group_IT_number 59
_space_group.IT_coordinate_system_code '2'
_symmetry_cell_setting 'orthorhombic'
loop_
_space_group_symop_operation_xyz
x,y,z
1/2-x,1/2-y,z
1/2+x,-y,-z
-x,1/2+y,-z
-x,-y,-z
1/2+x,1/2+y,-z
1/2-x,y,z
x,1/2-y,z
loop_
_atom_site_type_symbol
_atom_site_label
_atom_site_fract_x
_atom_site_fract_y
_atom_site_fract_z
Si Si1 0.572944 0.580845 0.115778
Si Si2 0.579387 0.915111 0.921186
Si Si3 0.162310 0.420388 0.713627
Si Si4 0.839563 0.592910 0.752302
Si Si5 0.659819 0.407550 0.599041
Si Si6 0.076319 0.421022 0.537371
O O1 0.561758 0.750000 0.128796
O O2 0.489465 0.508713 0.118937
O O3 0.628354 0.521073 0.193364
O O4 0.607755 0.542002 0.019207
O O5 0.551640 0.750000 0.922400
O O6 0.649994 0.944360 0.854923
O O7 0.250000 0.483182 0.699861
O O8 0.169002 0.250000 0.715985
O O9 0.101754 0.464991 0.636527
O O10 0.750000 0.599429 0.730613
O O11 0.876999 0.750000 0.732365
O O12 0.877667 0.473914 0.688280
O O13 0.750000 0.384794 0.610445
O O14 0.620777 0.250000 0.582880
O O15 0.646504 0.520141 0.521137
O O16 0.066963 0.250000 0.527490
O O17 0.000000 0.500000 0.500000
#
# Coordination Sequence:
#
# PCOD8245185 Si02
#       6
#     8   8   8   8   8   8
#     4   9  18  33  54  79 106 141 180 221 269 322
#     4   9  18  32  51  78 111 143 178 221 269 321
#     4   9  19  36  58  83 109 141 184 230 276 327
#     4   9  18  32  51  77 107 141 179 220 269 322
#     4  10  21  37  56  79 108 143 183 227 276 330
#     4  11  23  38  57  83 112 145 185 231 281 335
#
# _framework density 19.646028000000001
#
# number of rings (size 3 to 8) (size 9 to 14) (size 15 to 20)
#    0.000    2.500    0.000    1.500    2.333    3.000 
#    0.000    4.167    0.000    2.500    0.000    4.667 
#    0.000    0.000    0.000    0.000    0.000    0.000 
#
# Total GULP energy -594665.534434 kJ/mol
# GULP energy per Si atom -12388.865301 kJ/mol
# Density = 1.960131 g / cm^3
# Si number density = 19.646028 Si / 1000 Ang^3
#
#
#
# Elastic Constant Matrix: (Units=GPa)
#
#
# Indices 1 2 3 4 5 6 
#
# 1 64.0561 28.6208 54.9932 0.0000 0.0000 0.0000
# 2 28.6208 72.7468 51.3076 0.0000 0.0000 0.0000
# 3 54.9932 51.3076 161.0977 0.0000 0.0000 0.0000
# 4 0.0000 0.0000 0.0000 23.0549 0.0000 0.0000
# 5 0.0000 0.0000 0.0000 0.0000 36.5943 0.0000
# 6 0.0000 0.0000 0.0000 0.0000 0.0000 24.2147
#
#
#
# Elastic Compliance Matrix: (Units=1/GPa)
#
#
# Indices 1 2 3 4 5 6 
#
# 1 0.023204 -0.004569 -0.006466 0.000000 0.000000 0.000000
# 2 -0.004569 0.018628 -0.004373 0.000000 0.000000 0.000000
# 3 -0.006466 -0.004373 0.009807 0.000000 0.000000 0.000000
# 4 0.000000 0.000000 0.000000 0.043375 0.000000 0.000000
# 5 0.000000 0.000000 0.000000 0.000000 0.027327 0.000000
# 6 0.000000 0.000000 0.000000 0.000000 0.000000 0.041297
#
#
# Mechanical properties :
#
#
# Convention : Reuss Voigt Hill
#
# Bulk Modulus (GPa) = 48.02224 63.08265 55.55244
# Shear Modulus (GPa) = 24.82685 27.63805 26.23245
#
# Velocity S-wave (km/s) = 3.55872 3.75480 3.65808
# Velocity P-wave (km/s) = 6.43295 7.13985 6.79559
#
# Compressibility (1/GPa) = 0.02082369
#
# Stress axis : x y z
#
# Youngs Moduli (GPa) = 43.09658 53.68208 101.96320
#
# Poissons Ratio (x) = 0.24526 0.65928
# Poissons Ratio (y) = 0.19690 0.44591
# Poissons Ratio (z) = 0.27866 0.23476
#
# Static dielectric constant tensor:
#      x y z
#    x 3.420250 0.000000 0.000000 
#    y 0.000000 3.749590 0.000000 
#    z 0.000000 0.000000 3.966360 
# 
# 
# High freq. dielectric constant tensor:
#      x y z
#    x 1.744190 0.000000 0.000000 
#    y 0.000000 1.750170 0.000000 
#    z 0.000000 0.000000 1.782170 
# 
# From -- ./inp_files/23673.got.cif
#   From: 2010.03.12/outbox.cif.g09.slc.cpg/sg59_12_cif.got.tgz:23673.got - 2010.04.16 16:29:54.
