data_PCOD8245275
_publ_section_title
;
Structure prediction by ZEFSAII (Michael W. Deem and Ramdas Pophale) SiO2 
 PCOD8245275
Probable space group: P M M N
;
_chemical_formula_sum "Si O2"
_cell_formula_units_Z 64
_cell_length_a 8.794199
_cell_length_b 25.512255
_cell_length_c 14.303491
_cell_angle_alpha 90.000000
_cell_angle_beta 90.000000
_cell_angle_gamma 90.000000
_cell_volume 3209.129058
_symmetry_space_group_name_H-M "P M M N"
_symmetry_group_IT_number 59
_space_group.IT_coordinate_system_code '2'
_symmetry_cell_setting 'orthorhombic'
loop_
_space_group_symop_operation_xyz
x,y,z
1/2-x,1/2-y,z
1/2+x,-y,-z
-x,1/2+y,-z
-x,-y,-z
1/2+x,1/2+y,-z
1/2-x,y,z
x,1/2-y,z
loop_
_atom_site_type_symbol
_atom_site_label
_atom_site_fract_x
_atom_site_fract_y
_atom_site_fract_z
Si Si1 0.929956 0.597091 0.093512
Si Si2 0.074491 0.502178 0.792124
Si Si3 0.073945 0.810318 0.762717
Si Si4 0.425129 0.528151 0.587510
Si Si5 0.926895 0.809460 0.221142
Si Si6 0.429069 0.139160 0.410815
Si Si7 0.925015 0.310701 0.583896
Si Si8 0.569877 0.898462 0.883306
O O1 0.750000 0.593992 0.092464
O O2 0.992948 0.548393 0.154281
O O3 0.982215 0.651975 0.139091
O O4 0.994144 0.594040 0.988445
O O5 0.250000 0.512310 0.818719
O O6 0.058250 0.492541 0.680651
O O7 0.978476 0.552551 0.821190
O O8 0.250000 0.825391 0.754695
O O9 0.050342 0.750000 0.790817
O O10 0.998700 0.819795 0.662050
O O11 0.997641 0.845000 0.842802
O O12 0.500000 0.500000 0.500000
O O13 0.250000 0.538922 0.563432
O O14 0.507374 0.582094 0.610944
O O15 0.750000 0.817730 0.245814
O O16 0.958264 0.750000 0.187923
O O17 0.024702 0.823833 0.311517
O O18 0.250000 0.138308 0.398739
O O19 0.471854 0.155333 0.515404
O O20 0.750000 0.326572 0.570773
O O21 0.952221 0.250000 0.561155
O O22 0.750000 0.893369 0.882249
#
# Coordination Sequence:
#
# PCOD8245275 Si02
#       8
#     8   8   8   8   8   8   8   8
#     4   9  20  37  60  90 119 155 204 254 302 358
#     4  10  21  40  63  85 120 164 201 244 303 363
#     4  11  24  42  63  88 122 163 205 252 310 373
#     4  11  24  40  61  90 126 164 200 245 302 359
#     4   9  18  35  59  86 118 156 198 247 303 359
#     4  12  24  39  62  89 120 156 201 251 300 363
#     4  10  21  37  57  84 119 155 193 240 294 355
#     4  11  22  38  62  91 122 155 200 256 307 360
#
# _framework density 19.943104999999999
#
# number of rings (size 3 to 8) (size 9 to 14) (size 15 to 20)
#    0.000    1.625    1.250    3.375    1.750    4.250 
#    0.000    3.750    0.000    1.500    0.000    0.000 
#    0.000    0.000    0.000    0.000    0.000    0.000 
#
# Total GULP energy -793868.954307 kJ/mol
# GULP energy per Si atom -12404.202411 kJ/mol
# Density = 1.989771 g / cm^3
# Si number density = 19.943105 Si / 1000 Ang^3
#
#
#
# Elastic Constant Matrix: (Units=GPa)
#
#
# Indices 1 2 3 4 5 6 
#
# 1 99.9501 41.7566 44.5211 0.0000 0.0000 0.0000
# 2 41.7566 107.2946 57.8555 0.0000 0.0000 0.0000
# 3 44.5211 57.8555 130.3313 0.0000 0.0000 0.0000
# 4 0.0000 0.0000 0.0000 37.2665 0.0000 0.0000
# 5 0.0000 0.0000 0.0000 0.0000 26.7090 0.0000
# 6 0.0000 0.0000 0.0000 0.0000 0.0000 22.0252
#
#
#
# Elastic Compliance Matrix: (Units=1/GPa)
#
#
# Indices 1 2 3 4 5 6 
#
# 1 0.012688 -0.003419 -0.002816 0.000000 0.000000 0.000000
# 2 -0.003419 0.013175 -0.004680 0.000000 0.000000 0.000000
# 3 -0.002816 -0.004680 0.010712 0.000000 0.000000 0.000000
# 4 0.000000 0.000000 0.000000 0.026834 0.000000 0.000000
# 5 0.000000 0.000000 0.000000 0.000000 0.037441 0.000000
# 6 0.000000 0.000000 0.000000 0.000000 0.000000 0.045403
#
#
# Mechanical properties :
#
#
# Convention : Reuss Voigt Hill
#
# Bulk Modulus (GPa) = 67.82808 69.53803 68.68305
# Shear Modulus (GPa) = 28.90206 30.09632 29.49919
#
# Velocity S-wave (km/s) = 3.81100 3.88894 3.85017
# Velocity P-wave (km/s) = 7.31092 7.42355 7.36745
#
# Compressibility (1/GPa) = 0.01474316
#
# Stress axis : x y z
#
# Youngs Moduli (GPa) = 78.81490 75.90402 93.34911
#
# Poissons Ratio (x) = 0.25953 0.26291
# Poissons Ratio (y) = 0.26948 0.43690
# Poissons Ratio (z) = 0.22197 0.35526
#
# Static dielectric constant tensor:
#      x y z
#    x 3.579610 0.000000 0.000000 
#    y 0.000000 3.700800 0.000000 
#    z 0.000000 0.000000 3.772700 
# 
# 
# High freq. dielectric constant tensor:
#      x y z
#    x 1.771720 0.000000 0.000000 
#    y 0.000000 1.782400 0.000000 
#    z 0.000000 0.000000 1.786470 
# 
# From -- ./inp_files/21611.got.cif
#   From: 2010.03.12/outbox.cif.g09.slc.cpg/sg59_11_cif.got.tgz:21611.got - 2010.04.16 16:29:54.
