data_PCOD8245008
_publ_section_title
;
Structure prediction by ZEFSAII (Michael W. Deem and Ramdas Pophale) SiO2 
 PCOD8245008
Probable space group: P M M N
;
_chemical_formula_sum "Si O2"
_cell_formula_units_Z 32
_cell_length_a 8.980466
_cell_length_b 9.137262
_cell_length_c 20.456498
_cell_angle_alpha 90.000000
_cell_angle_beta 90.000000
_cell_angle_gamma 90.000000
_cell_volume 1678.596212
_symmetry_space_group_name_H-M "P M M N"
_symmetry_group_IT_number 59
_space_group.IT_coordinate_system_code '2'
_symmetry_cell_setting 'orthorhombic'
loop_
_space_group_symop_operation_xyz
x,y,z
1/2-x,1/2-y,z
1/2+x,-y,-z
-x,1/2+y,-z
-x,-y,-z
1/2+x,1/2+y,-z
1/2-x,y,z
x,1/2-y,z
loop_
_atom_site_type_symbol
_atom_site_label
_atom_site_fract_x
_atom_site_fract_y
_atom_site_fract_z
Si Si1 0.925465 0.082597 0.059313
Si Si2 0.076090 0.580474 0.322058
Si Si3 0.924152 0.079166 0.439766
Si Si4 0.078733 0.419136 0.811441
O O1 0.750000 0.065583 0.051877
O O2 0.977183 0.250000 0.058296
O O3 0.979084 0.012841 0.127443
O O4 0.000000 0.000000 0.000000
O O5 0.250000 0.547618 0.328199
O O6 0.040250 0.750000 0.336806
O O7 0.988312 0.480801 0.372436
O O8 0.022027 0.536912 0.249977
O O9 0.750000 0.046428 0.442277
O O10 0.959254 0.250000 0.444694
O O11 0.000000 0.000000 0.500000
O O12 0.250000 0.454932 0.794277
O O13 0.058348 0.250000 0.830020
#
# Coordination Sequence:
#
# PCOD8245008 Si02
#       4
#     8   8   8   8
#     4  10  21  36  55  80 110 144 183 228 276 327
#     4  10  21  37  58  85 115 146 182 224 271 325
#     4  11  24  40  59  84 113 146 185 228 273 323
#     4   9  18  34  55  78 108 147 186 224 270 324
#
# _framework density 19.063548999999998
#
# number of rings (size 3 to 8) (size 9 to 14) (size 15 to 20)
#    0.000    2.000    0.000    3.000    0.000   10.000 
#    0.000    5.000    0.000    0.000    0.000    0.000 
#    0.000    0.000    0.000    0.000    0.000    0.000 
#
# Total GULP energy -396959.685253 kJ/mol
# GULP energy per Si atom -12404.990164 kJ/mol
# Density = 1.902016 g / cm^3
# Si number density = 19.063549 Si / 1000 Ang^3
#
#
#
# Elastic Constant Matrix: (Units=GPa)
#
#
# Indices 1 2 3 4 5 6 
#
# 1 84.9691 77.2999 73.0265 0.0000 0.0000 0.0000
# 2 77.2999 126.4628 103.4843 0.0000 0.0000 0.0000
# 3 73.0265 103.4843 164.0241 0.0000 0.0000 0.0000
# 4 0.0000 0.0000 0.0000 43.7692 0.0000 0.0000
# 5 0.0000 0.0000 0.0000 0.0000 42.6406 0.0000
# 6 0.0000 0.0000 0.0000 0.0000 0.0000 29.5697
#
#
#
# Elastic Compliance Matrix: (Units=1/GPa)
#
#
# Indices 1 2 3 4 5 6 
#
# 1 0.027385 -0.013979 -0.003373 0.000000 0.000000 0.000000
# 2 -0.013979 0.023483 -0.008592 0.000000 0.000000 0.000000
# 3 -0.003373 -0.008592 0.013019 0.000000 0.000000 0.000000
# 4 0.000000 0.000000 0.000000 0.022847 0.000000 0.000000
# 5 0.000000 0.000000 0.000000 0.000000 0.023452 0.000000
# 6 0.000000 0.000000 0.000000 0.000000 0.000000 0.033818
#
#
# Mechanical properties :
#
#
# Convention : Reuss Voigt Hill
#
# Bulk Modulus (GPa) = 83.33691 98.11970 90.72831
# Shear Modulus (GPa) = 25.01364 31.30558 28.15961
#
# Velocity S-wave (km/s) = 3.62625 4.05677 3.84753
# Velocity P-wave (km/s) = 7.83218 8.57465 8.21181
#
# Compressibility (1/GPa) = 0.01199948
#
# Stress axis : x y z
#
# Youngs Moduli (GPa) = 36.51629 42.58460 76.81137
#
# Poissons Ratio (x) = 0.59529 0.25907
# Poissons Ratio (y) = 0.51046 0.65994
# Poissons Ratio (z) = 0.12316 0.36587
#
# Static dielectric constant tensor:
#      x y z
#    x 3.520420 0.000000 0.000000 
#    y 0.000000 3.653430 0.000000 
#    z 0.000000 0.000000 3.621490 
# 
# 
# High freq. dielectric constant tensor:
#      x y z
#    x 1.742810 0.000000 0.000000 
#    y 0.000000 1.745120 0.000000 
#    z 0.000000 0.000000 1.756320 
# 
# From -- ./inp_files/28569.got.cif
#   From: 2010.03.12/outbox.cif.g09.slc.cpg/sg59_15_cif.got.tgz:28569.got - 2010.04.16 16:29:54.
