data_PCOD8245149
_publ_section_title
;
Structure prediction by ZEFSAII (Michael W. Deem and Ramdas Pophale) SiO2 
 PCOD8245149
Probable space group: P M M N
;
_chemical_formula_sum "Si O2"
_cell_formula_units_Z 48
_cell_length_a 8.813573
_cell_length_b 29.619073
_cell_length_c 10.010913
_cell_angle_alpha 90.000000
_cell_angle_beta 90.000000
_cell_angle_gamma 90.000000
_cell_volume 2613.347458
_symmetry_space_group_name_H-M "P M M N"
_symmetry_group_IT_number 59
_space_group.IT_coordinate_system_code '2'
_symmetry_cell_setting 'orthorhombic'
loop_
_space_group_symop_operation_xyz
x,y,z
1/2-x,1/2-y,z
1/2+x,-y,-z
-x,1/2+y,-z
-x,-y,-z
1/2+x,1/2+y,-z
1/2-x,y,z
x,1/2-y,z
loop_
_atom_site_type_symbol
_atom_site_label
_atom_site_fract_x
_atom_site_fract_y
_atom_site_fract_z
Si Si1 0.571239 0.200454 0.394875
Si Si2 0.575529 0.302661 0.095893
Si Si3 0.570101 0.465393 0.896586
Si Si4 0.927610 0.870774 0.099977
Si Si5 0.577759 0.634489 0.401781
Si Si6 0.073983 0.469379 0.611651
O O1 0.750000 0.204091 0.391632
O O2 0.504375 0.250000 0.432936
O O3 0.517693 0.186820 0.246006
O O4 0.525633 0.163282 0.501007
O O5 0.750000 0.317570 0.075889
O O6 0.556669 0.250000 0.063181
O O7 0.467891 0.330158 0.997531
O O8 0.750000 0.468985 0.898517
O O9 0.520096 0.415304 0.940231
O O10 0.510227 0.478190 0.750392
O O11 0.500000 0.500000 0.000000
O O12 0.750000 0.882642 0.092888
O O13 0.971430 0.855638 0.249755
O O14 0.750000 0.649343 0.426367
O O15 0.553848 0.582073 0.435122
O O16 0.250000 0.481695 0.630437
O O17 0.000000 0.500000 0.500000
#
# Coordination Sequence:
#
# PCOD8245149 Si02
#       6
#     8   8   8   8   8   8
#     4   9  19  35  54  77 105 137 176 220 263 312
#     4   9  19  36  55  77 107 142 181 224 269 319
#     4  11  22  38  59  82 109 143 182 225 274 327
#     4  10  21  37  55  79 110 141 178 223 270 323
#     4   9  20  36  53  76 107 139 173 216 262 312
#     4  10  21  38  57  81 112 145 182 224 271 323
#
# _framework density 18.367246999999999
#
# number of rings (size 3 to 8) (size 9 to 14) (size 15 to 20)
#    0.000    2.333    0.000    4.500    0.000    7.333 
#    0.000    8.333    0.000    0.000    0.000    0.000 
#    0.000    0.000    0.000    0.000    0.000    0.000 
#
# Total GULP energy -595258.471072 kJ/mol
# GULP energy per Si atom -12401.218147 kJ/mol
# Density = 1.832544 g / cm^3
# Si number density = 18.367247 Si / 1000 Ang^3
#
#
#
# Elastic Constant Matrix: (Units=GPa)
#
#
# Indices 1 2 3 4 5 6 
#
# 1 95.9538 45.5582 49.8871 0.0000 0.0000 0.0000
# 2 45.5582 92.3183 78.8487 0.0000 0.0000 0.0000
# 3 49.8871 78.8487 115.3305 0.0000 0.0000 0.0000
# 4 0.0000 0.0000 0.0000 34.6926 0.0000 0.0000
# 5 0.0000 0.0000 0.0000 0.0000 34.6722 0.0000
# 6 0.0000 0.0000 0.0000 0.0000 0.0000 34.5207
#
#
#
# Elastic Compliance Matrix: (Units=1/GPa)
#
#
# Indices 1 2 3 4 5 6 
#
# 1 0.014092 -0.004201 -0.003223 0.000000 0.000000 0.000000
# 2 -0.004201 0.027287 -0.016838 0.000000 0.000000 0.000000
# 3 -0.003223 -0.016838 0.021577 0.000000 0.000000 0.000000
# 4 0.000000 0.000000 0.000000 0.028825 0.000000 0.000000
# 5 0.000000 0.000000 0.000000 0.000000 0.028842 0.000000
# 6 0.000000 0.000000 0.000000 0.000000 0.000000 0.028968
#
#
# Mechanical properties :
#
#
# Convention : Reuss Voigt Hill
#
# Bulk Modulus (GPa) = 69.29821 72.46565 70.88193
# Shear Modulus (GPa) = 24.63965 29.39767 27.01866
#
# Velocity S-wave (km/s) = 3.66662 4.00503 3.83955
# Velocity P-wave (km/s) = 7.46570 7.80553 7.63751
#
# Compressibility (1/GPa) = 0.01443039
#
# Stress axis : x y z
#
# Youngs Moduli (GPa) = 70.96068 36.64815 46.34642
#
# Poissons Ratio (x) = 0.15397 0.14939
# Poissons Ratio (y) = 0.29813 0.78037
# Poissons Ratio (z) = 0.22873 0.61707
#
# Static dielectric constant tensor:
#      x y z
#    x 3.376850 0.000000 0.000000 
#    y 0.000000 3.421450 0.000000 
#    z 0.000000 0.000000 3.455920 
# 
# 
# High freq. dielectric constant tensor:
#      x y z
#    x 1.715670 0.000000 0.000000 
#    y 0.000000 1.713980 0.000000 
#    z 0.000000 0.000000 1.717630 
# 
# From -- ./inp_files/6212.got.cif
#   From: 2010.03.12/outbox.cif.g09.slc.cpg/sg59_4_cif.got.tgz:6212.got - 2010.04.16 16:29:54.
