data_PCOD8245742
_publ_section_title
;
Structure prediction by ZEFSAII (Michael W. Deem and Ramdas Pophale) SiO2 
 PCOD8245742
Probable space group: P M M N
;
_chemical_formula_sum "Si O2"
_cell_formula_units_Z 64
_cell_length_a 22.345447
_cell_length_b 13.890368
_cell_length_c 9.955507
_cell_angle_alpha 90.000000
_cell_angle_beta 90.000000
_cell_angle_gamma 90.000000
_cell_volume 3090.054794
_symmetry_space_group_name_H-M "P M M N"
_symmetry_group_IT_number 59
_space_group.IT_coordinate_system_code '2'
_symmetry_cell_setting 'orthorhombic'
loop_
_space_group_symop_operation_xyz
x,y,z
1/2-x,1/2-y,z
1/2+x,-y,-z
-x,1/2+y,-z
-x,-y,-z
1/2+x,1/2+y,-z
1/2-x,y,z
x,1/2-y,z
loop_
_atom_site_type_symbol
_atom_site_label
_atom_site_fract_x
_atom_site_fract_y
_atom_site_fract_z
Si Si1 0.498680 0.639357 0.588678
Si Si2 0.899502 0.640377 0.805678
Si Si3 0.394482 0.863899 0.048610
Si Si4 0.817217 0.359235 0.194242
Si Si5 0.563768 0.948560 0.349432
Si Si6 0.681737 0.472618 0.744577
Si Si7 0.316168 0.502297 0.561320
Si Si8 0.530387 0.864120 0.070605
O O1 0.475044 0.750000 0.597411
O O2 0.555973 0.624691 0.682188
O O3 0.448042 0.563939 0.636209
O O4 0.516935 0.614011 0.435973
O O5 0.879012 0.750000 0.818614
O O6 0.839531 0.580128 0.781525
O O7 0.931701 0.604660 0.941139
O O8 0.391410 0.750000 0.044520
O O9 0.462610 0.900805 0.049235
O O10 0.361036 0.896506 0.183216
O O11 0.361438 0.906289 0.916518
O O12 0.750000 0.367152 0.136173
O O13 0.835855 0.250000 0.221426
O O14 0.822521 0.410704 0.335810
O O15 0.559406 0.916958 0.196574
O O16 0.631227 0.926606 0.402739
O O17 0.750000 0.460132 0.792411
O O18 0.675010 0.453999 0.586360
O O19 0.250000 0.453211 0.572584
O O20 0.531893 0.750000 0.092609
#
# Coordination Sequence:
#
# PCOD8245742 Si02
#       8
#     8   8   8   8   8   8   8   8
#     4  10  22  38  61  90 120 155 202 248 301 364
#     4  10  22  42  62  87 119 155 202 253 302 353
#     4  10  22  39  61  92 125 161 199 239 300 366
#     4   9  19  37  58  82 118 161 203 245 290 352
#     4  11  22  39  62  88 120 163 198 248 305 357
#     4  11  23  40  62  88 121 159 202 251 300 353
#     4  10  23  40  57  85 119 158 206 247 296 353
#     4  10  23  40  62  90 123 157 196 250 305 363
#
# _framework density 20.711607000000001
#
# number of rings (size 3 to 8) (size 9 to 14) (size 15 to 20)
#    0.000    1.875    1.250    1.500    5.250    3.000 
#    0.000    1.250    0.000    2.250    0.000    0.000 
#    0.000    0.000    0.000    0.000    0.000    0.000 
#
# Total GULP energy -793685.608898 kJ/mol
# GULP energy per Si atom -12401.337639 kJ/mol
# Density = 2.066447 g / cm^3
# Si number density = 20.711607 Si / 1000 Ang^3
#
#
#
# Elastic Constant Matrix: (Units=GPa)
#
#
# Indices 1 2 3 4 5 6 
#
# 1 98.0411 14.2345 39.1911 0.0000 0.0000 0.0000
# 2 14.2345 49.7603 25.7805 0.0000 0.0000 0.0000
# 3 39.1911 25.7805 128.8506 0.0000 0.0000 0.0000
# 4 0.0000 0.0000 0.0000 29.8823 0.0000 0.0000
# 5 0.0000 0.0000 0.0000 0.0000 34.5392 0.0000
# 6 0.0000 0.0000 0.0000 0.0000 0.0000 22.8007
#
#
#
# Elastic Compliance Matrix: (Units=1/GPa)
#
#
# Indices 1 2 3 4 5 6 
#
# 1 0.011736 -0.001682 -0.003233 0.000000 0.000000 0.000000
# 2 -0.001682 0.022662 -0.004022 0.000000 0.000000 0.000000
# 3 -0.003233 -0.004022 0.009549 0.000000 0.000000 0.000000
# 4 0.000000 0.000000 0.000000 0.033465 0.000000 0.000000
# 5 0.000000 0.000000 0.000000 0.000000 0.028953 0.000000
# 6 0.000000 0.000000 0.000000 0.000000 0.000000 0.043858
#
#
# Mechanical properties :
#
#
# Convention : Reuss Voigt Hill
#
# Bulk Modulus (GPa) = 38.35618 48.34046 43.34832
# Shear Modulus (GPa) = 28.28229 30.60751 29.44490
#
# Velocity S-wave (km/s) = 3.69931 3.84838 3.77458
# Velocity P-wave (km/s) = 6.06679 6.56789 6.32231
#
# Compressibility (1/GPa) = 0.02607142
#
# Stress axis : x y z
#
# Youngs Moduli (GPa) = 85.20438 44.12749 104.72149
#
# Poissons Ratio (x) = 0.07423 0.33858
# Poissons Ratio (y) = 0.14334 0.42124
# Poissons Ratio (z) = 0.27548 0.17750
#
# Static dielectric constant tensor:
#      x y z
#    x 3.984320 0.000000 0.000000 
#    y 0.000000 3.582880 0.000000 
#    z 0.000000 0.000000 3.832190 
# 
# 
# High freq. dielectric constant tensor:
#      x y z
#    x 1.813620 0.000000 0.000000 
#    y 0.000000 1.793910 0.000000 
#    z 0.000000 0.000000 1.825800 
# 
# From -- ./inp_files/12193.got.cif
#   From: 2010.03.12/outbox.cif.g09.slc.cpg/sg59_7_cif.got.tgz:12193.got - 2010.04.16 16:29:54.
