data_PCOD8245183
_publ_section_title
;
Structure prediction by ZEFSAII (Michael W. Deem and Ramdas Pophale) SiO2 
 PCOD8245183
Probable space group: P M M N
;
_chemical_formula_sum "Si O2"
_cell_formula_units_Z 56
_cell_length_a 8.960342
_cell_length_b 15.122423
_cell_length_c 21.142627
_cell_angle_alpha 90.000000
_cell_angle_beta 90.000000
_cell_angle_gamma 90.000000
_cell_volume 2864.869976
_symmetry_space_group_name_H-M "P M M N"
_symmetry_group_IT_number 59
_space_group.IT_coordinate_system_code '2'
_symmetry_cell_setting 'orthorhombic'
loop_
_space_group_symop_operation_xyz
x,y,z
1/2-x,1/2-y,z
1/2+x,-y,-z
-x,1/2+y,-z
-x,-y,-z
1/2+x,1/2+y,-z
1/2-x,y,z
x,1/2-y,z
loop_
_atom_site_type_symbol
_atom_site_label
_atom_site_fract_x
_atom_site_fract_y
_atom_site_fract_z
Si Si1 0.421808 0.907187 0.009178
Si Si2 0.080475 0.849244 0.870218
Si Si3 0.425857 0.002370 0.207551
Si Si4 0.924851 0.350237 0.444197
Si Si5 0.921053 0.850082 0.132880
Si Si6 0.075501 0.150427 0.573365
Si Si7 0.574514 0.490539 0.340289
O O1 0.250000 0.922745 0.027639
O O2 0.500489 0.854134 0.065091
O O3 0.438270 0.850628 0.945678
O O4 0.500000 0.000000 0.000000
O O5 0.250000 0.875474 0.851694
O O6 0.044103 0.750000 0.846820
O O7 0.967122 0.916906 0.838321
O O8 0.250000 0.989976 0.207514
O O9 0.500039 0.912040 0.183936
O O10 0.482359 0.024571 0.277140
O O11 0.750000 0.358298 0.454570
O O12 0.973105 0.250000 0.427497
O O13 0.977246 0.413275 0.387657
O O14 0.998989 0.382256 0.509124
O O15 0.750000 0.880902 0.125356
O O16 0.930972 0.750000 0.158417
O O17 0.250000 0.145506 0.560541
O O18 0.024564 0.250000 0.591534
O O19 0.030676 0.085518 0.630318
O O20 0.750000 0.484834 0.325313
#
# Coordination Sequence:
#
# PCOD8245183 Si02
#       7
#     8   8   8   8   8   8   8
#     4  11  21  36  63  94 123 154 191 239 296 351
#     4  10  22  41  64  87 116 156 197 238 290 352
#     4  12  26  41  59  85 118 156 198 249 298 348
#     4   9  18  33  55  83 112 144 183 229 281 336
#     4  11  24  42  64  88 117 156 199 244 297 355
#     4   9  18  33  55  83 112 143 181 229 284 338
#     4  10  21  37  56  78 111 152 193 233 280 344
#
# _framework density 19.547135000000001
#
# number of rings (size 3 to 8) (size 9 to 14) (size 15 to 20)
#    0.000    1.714    1.429    3.000    0.000    4.857 
#    0.000    2.857    0.000    0.000    0.000    0.000 
#    0.000    0.000    0.000    0.000    0.000    0.000 
#
# Total GULP energy -694611.719453 kJ/mol
# GULP energy per Si atom -12403.780705 kJ/mol
# Density = 1.950264 g / cm^3
# Si number density = 19.547135 Si / 1000 Ang^3
#
#
#
# Elastic Constant Matrix: (Units=GPa)
#
#
# Indices 1 2 3 4 5 6 
#
# 1 93.8346 28.7424 29.3272 0.0000 0.0000 0.0000
# 2 28.7424 85.4841 14.5171 0.0000 0.0000 0.0000
# 3 29.3272 14.5171 71.3436 0.0000 0.0000 0.0000
# 4 0.0000 0.0000 0.0000 14.4724 0.0000 0.0000
# 5 0.0000 0.0000 0.0000 0.0000 34.9112 0.0000
# 6 0.0000 0.0000 0.0000 0.0000 0.0000 21.3530
#
#
#
# Elastic Compliance Matrix: (Units=1/GPa)
#
#
# Indices 1 2 3 4 5 6 
#
# 1 0.013246 -0.003655 -0.004701 0.000000 0.000000 0.000000
# 2 -0.003655 0.013126 -0.001168 0.000000 0.000000 0.000000
# 3 -0.004701 -0.001168 0.016187 0.000000 0.000000 0.000000
# 4 0.000000 0.000000 0.000000 0.069097 0.000000 0.000000
# 5 0.000000 0.000000 0.000000 0.000000 0.028644 0.000000
# 6 0.000000 0.000000 0.000000 0.000000 0.000000 0.046832
#
#
# Mechanical properties :
#
#
# Convention : Reuss Voigt Hill
#
# Bulk Modulus (GPa) = 42.53710 43.98173 43.25942
# Shear Modulus (GPa) = 23.36261 26.01905 24.69083
#
# Velocity S-wave (km/s) = 3.46091 3.65237 3.55793
# Velocity P-wave (km/s) = 6.14647 6.35103 6.24959
#
# Compressibility (1/GPa) = 0.02350889
#
# Stress axis : x y z
#
# Youngs Moduli (GPa) = 75.49413 76.18751 61.77824
#
# Poissons Ratio (x) = 0.27849 0.29044
# Poissons Ratio (y) = 0.27596 0.07217
# Poissons Ratio (z) = 0.35492 0.08900
#
# Static dielectric constant tensor:
#      x y z
#    x 3.973570 0.000000 0.000000 
#    y 0.000000 3.742910 0.000000 
#    z 0.000000 0.000000 3.503460 
# 
# 
# High freq. dielectric constant tensor:
#      x y z
#    x 1.758810 0.000000 0.000000 
#    y 0.000000 1.774690 0.000000 
#    z 0.000000 0.000000 1.756030 
# 
# From -- ./inp_files/28996.got.cif
#   From: 2010.03.12/outbox.cif.g09.slc.cpg/sg59_15_cif.got.tgz:28996.got - 2010.04.16 16:29:54.
