data_PCOD8245977
_publ_section_title
;
Structure prediction by ZEFSAII (Michael W. Deem and Ramdas Pophale) SiO2 
 PCOD8245977
Probable space group: P M M N
;
_chemical_formula_sum "Si O2"
_cell_formula_units_Z 64
_cell_length_a 8.857463
_cell_length_b 19.898440
_cell_length_c 20.113844
_cell_angle_alpha 90.000000
_cell_angle_beta 90.000000
_cell_angle_gamma 90.000000
_cell_volume 3545.058892
_symmetry_space_group_name_H-M "P M M N"
_symmetry_group_IT_number 59
_space_group.IT_coordinate_system_code '2'
_symmetry_cell_setting 'orthorhombic'
loop_
_space_group_symop_operation_xyz
x,y,z
1/2-x,1/2-y,z
1/2+x,-y,-z
-x,1/2+y,-z
-x,-y,-z
1/2+x,1/2+y,-z
1/2-x,y,z
x,1/2-y,z
loop_
_atom_site_type_symbol
_atom_site_label
_atom_site_fract_x
_atom_site_fract_y
_atom_site_fract_z
Si Si1 0.571073 0.585722 0.328024
Si Si2 0.424813 0.568843 0.977887
Si Si3 0.076381 0.967498 0.833079
Si Si4 0.572904 0.064935 0.310355
Si Si5 0.929322 0.325620 0.410678
Si Si6 0.922705 0.672695 0.071792
Si Si7 0.428025 0.605503 0.190628
Si Si8 0.926320 0.672897 0.451821
O O1 0.750000 0.590768 0.319941
O O2 0.516632 0.508352 0.334809
O O3 0.497577 0.618718 0.263017
O O4 0.513824 0.626560 0.391957
O O5 0.250000 0.567462 0.998680
O O6 0.444447 0.577960 0.898315
O O7 0.500000 0.500000 0.000000
O O8 0.504647 0.631515 0.011662
O O9 0.250000 0.991695 0.825210
O O10 0.028938 0.925147 0.767392
O O11 0.974033 0.033430 0.839473
O O12 0.750000 0.069423 0.320421
O O13 0.500766 0.124392 0.354812
O O14 0.750000 0.327559 0.411602
O O15 0.987388 0.250000 0.395369
O O16 0.987622 0.350168 0.482071
O O17 0.750000 0.649637 0.080960
O O18 0.934987 0.750000 0.051476
O O19 0.010263 0.661873 0.140759
O O20 0.250000 0.610834 0.195410
O O21 0.750000 0.661900 0.464009
O O22 0.963196 0.750000 0.433884
#
# Coordination Sequence:
#
# PCOD8245977 Si02
#       8
#     8   8   8   8   8   8   8   8
#     4   9  18  33  51  70  99 136 170 207 252 309
#     4  11  21  34  58  85 109 141 181 225 270 322
#     4   9  18  34  55  77 104 137 173 211 258 317
#     4   8  15  30  50  72  98 130 167 206 249 302
#     4   9  17  30  49  71  96 128 166 209 256 303
#     4  11  24  40  56  76 108 148 185 223 270 322
#     4  11  21  33  53  79 106 135 170 217 265 315
#     4   9  18  32  49  69  94 128 169 207 249 308
#
# _framework density 18.053297000000001
#
# number of rings (size 3 to 8) (size 9 to 14) (size 15 to 20)
#    0.000    2.375    1.250    2.625    0.000    3.000 
#    0.000    4.375    0.000    2.250    0.000    1.750 
#    0.000    0.000    0.000    0.000    0.000    0.000 
#
# Total GULP energy -793563.557346 kJ/mol
# GULP energy per Si atom -12399.430584 kJ/mol
# Density = 1.801221 g / cm^3
# Si number density = 18.053297 Si / 1000 Ang^3
#
#
#
# Elastic Constant Matrix: (Units=GPa)
#
#
# Indices 1 2 3 4 5 6 
#
# 1 65.3509 32.8741 39.1280 0.0000 0.0000 0.0000
# 2 32.8741 93.4374 78.7000 0.0000 0.0000 0.0000
# 3 39.1280 78.7000 146.3086 0.0000 0.0000 0.0000
# 4 0.0000 0.0000 0.0000 35.0756 0.0000 0.0000
# 5 0.0000 0.0000 0.0000 0.0000 28.5598 0.0000
# 6 0.0000 0.0000 0.0000 0.0000 0.0000 19.2684
#
#
#
# Elastic Compliance Matrix: (Units=1/GPa)
#
#
# Indices 1 2 3 4 5 6 
#
# 1 0.019176 -0.004438 -0.002741 0.000000 0.000000 0.000000
# 2 -0.004438 0.020595 -0.009891 0.000000 0.000000 0.000000
# 3 -0.002741 -0.009891 0.012888 0.000000 0.000000 0.000000
# 4 0.000000 0.000000 0.000000 0.028510 0.000000 0.000000
# 5 0.000000 0.000000 0.000000 0.000000 0.035014 0.000000
# 6 0.000000 0.000000 0.000000 0.000000 0.000000 0.051898
#
#
# Mechanical properties :
#
#
# Convention : Reuss Voigt Hill
#
# Bulk Modulus (GPa) = 53.99964 67.38902 60.69433
# Shear Modulus (GPa) = 23.99294 26.87375 25.43334
#
# Velocity S-wave (km/s) = 3.64951 3.86240 3.75746
# Velocity P-wave (km/s) = 6.90903 7.56965 7.24687
#
# Compressibility (1/GPa) = 0.01851864
#
# Stress axis : x y z
#
# Youngs Moduli (GPa) = 52.14965 48.55581 77.58872
#
# Poissons Ratio (x) = 0.21548 0.21268
# Poissons Ratio (y) = 0.23143 0.76745
# Poissons Ratio (z) = 0.14295 0.48028
#
# Static dielectric constant tensor:
#      x y z
#    x 3.217630 0.000000 0.000000 
#    y 0.000000 3.333320 0.000000 
#    z 0.000000 0.000000 3.592180 
# 
# 
# High freq. dielectric constant tensor:
#      x y z
#    x 1.686400 0.000000 0.000000 
#    y 0.000000 1.682770 0.000000 
#    z 0.000000 0.000000 1.710370 
# 
# From -- ./inp_files/29369.got.cif
#   From: 2010.03.12/outbox.cif.g09.slc.cpg/sg59_15_cif.got.tgz:29369.got - 2010.04.16 16:29:54.
