data_PCOD8245533
_publ_section_title
;
Structure prediction by ZEFSAII (Michael W. Deem and Ramdas Pophale) SiO2 
 PCOD8245533
Probable space group: P M M N
;
_chemical_formula_sum "Si O2"
_cell_formula_units_Z 56
_cell_length_a 22.221512
_cell_length_b 8.979433
_cell_length_c 14.638690
_cell_angle_alpha 90.000000
_cell_angle_beta 90.000000
_cell_angle_gamma 90.000000
_cell_volume 2920.954111
_symmetry_space_group_name_H-M "P M M N"
_symmetry_group_IT_number 59
_space_group.IT_coordinate_system_code '2'
_symmetry_cell_setting 'orthorhombic'
loop_
_space_group_symop_operation_xyz
x,y,z
1/2-x,1/2-y,z
1/2+x,-y,-z
-x,1/2+y,-z
-x,-y,-z
1/2+x,1/2+y,-z
1/2-x,y,z
x,1/2-y,z
loop_
_atom_site_type_symbol
_atom_site_label
_atom_site_fract_x
_atom_site_fract_y
_atom_site_fract_z
Si Si1 0.145621 0.074392 0.321752
Si Si2 0.521052 0.076875 0.717210
Si Si3 0.682516 0.080977 0.499818
Si Si4 0.895318 0.075148 0.325627
Si Si5 0.353088 0.073286 0.845242
Si Si6 0.250000 0.426988 0.186889
Si Si7 0.480304 0.418879 0.911240
Si Si8 0.250000 0.426758 0.979698
O O1 0.135781 0.250000 0.315432
O O2 0.189637 0.018817 0.239690
O O3 0.080976 0.996052 0.321504
O O4 0.176488 0.032902 0.416802
O O5 0.517936 0.250000 0.689510
O O6 0.525635 0.058360 0.826914
O O7 0.461114 0.000265 0.677364
O O8 0.750000 0.064698 0.459477
O O9 0.671855 0.250000 0.534517
O O10 0.633517 0.040199 0.423551
O O11 0.902573 0.250000 0.307821
O O12 0.847620 0.007101 0.252643
O O13 0.348564 0.250000 0.829260
O O14 0.416468 0.017073 0.882286
O O15 0.306479 0.016294 0.921056
O O16 0.250000 0.250000 0.184669
O O17 0.250000 0.492615 0.083033
O O18 0.473087 0.250000 0.939848
O O19 0.500000 0.500000 0.000000
O O20 0.250000 0.250000 0.986895
#
# Coordination Sequence:
#
# PCOD8245533 Si02
#       8
#     8   8   8   8   8   4   8   4
#     4  11  22  38  62  90 117 149 194 243 287 336
#     4  10  22  40  59  83 116 153 191 237 291 345
#     4  10  22  40  61  85 117 156 190 229 289 349
#     4  10  21  38  61  87 116 151 191 238 290 341
#     4   9  19  35  55  82 114 150 187 230 281 339
#     4   9  20  36  56  85 118 150 191 241 282 335
#     4   9  19  33  52  78 109 145 189 233 280 334
#     4   9  18  34  56  81 114 154 189 225 284 343
#
# _framework density 19.171817999999998
#
# number of rings (size 3 to 8) (size 9 to 14) (size 15 to 20)
#    0.000    2.286    0.714    2.143    3.000    4.571 
#    0.000    0.000    0.000    1.714    0.000    0.000 
#    0.000    0.000    0.000    0.000    0.000    0.000 
#
# Total GULP energy -694207.637961 kJ/mol
# GULP energy per Si atom -12396.564964 kJ/mol
# Density = 1.912818 g / cm^3
# Si number density = 19.171818 Si / 1000 Ang^3
#
#
#
# Elastic Constant Matrix: (Units=GPa)
#
#
# Indices 1 2 3 4 5 6 
#
# 1 110.1773 38.7845 55.8038 0.0000 0.0000 0.0000
# 2 38.7845 66.5515 38.5250 0.0000 0.0000 0.0000
# 3 55.8038 38.5250 109.8880 0.0000 0.0000 0.0000
# 4 0.0000 0.0000 0.0000 35.3237 0.0000 0.0000
# 5 0.0000 0.0000 0.0000 0.0000 29.4197 0.0000
# 6 0.0000 0.0000 0.0000 0.0000 0.0000 23.6318
#
#
#
# Elastic Compliance Matrix: (Units=1/GPa)
#
#
# Indices 1 2 3 4 5 6 
#
# 1 0.013356 -0.004839 -0.005086 0.000000 0.000000 0.000000
# 2 -0.004839 0.020605 -0.004766 0.000000 0.000000 0.000000
# 3 -0.005086 -0.004766 0.013354 0.000000 0.000000 0.000000
# 4 0.000000 0.000000 0.000000 0.028310 0.000000 0.000000
# 5 0.000000 0.000000 0.000000 0.000000 0.033991 0.000000
# 6 0.000000 0.000000 0.000000 0.000000 0.000000 0.042316
#
#
# Mechanical properties :
#
#
# Convention : Reuss Voigt Hill
#
# Bulk Modulus (GPa) = 55.76635 61.42705 58.59670
# Shear Modulus (GPa) = 26.69635 27.90861 27.30248
#
# Velocity S-wave (km/s) = 3.73564 3.81952 3.77781
# Velocity P-wave (km/s) = 6.91068 7.18063 7.04695
#
# Compressibility (1/GPa) = 0.01793196
#
# Stress axis : x y z
#
# Youngs Moduli (GPa) = 74.87432 48.53110 74.88465
#
# Poissons Ratio (x) = 0.23486 0.38085
# Poissons Ratio (y) = 0.36234 0.35693
# Poissons Ratio (z) = 0.38079 0.23132
#
# Static dielectric constant tensor:
#      x y z
#    x 2.312970 0.000000 0.000000 
#    y 0.000000 3.194700 0.000000 
#    z 0.000000 0.000000 3.732920 
# 
# 
# High freq. dielectric constant tensor:
#      x y z
#    x 1.752660 0.000000 0.000000 
#    y 0.000000 1.732370 0.000000 
#    z 0.000000 0.000000 1.749150 
# 
# From -- ./inp_files/24389.got.cif
#   From: 2010.03.12/outbox.cif.g09.slc.cpg/sg59_13_cif.got.tgz:24389.got - 2010.04.16 16:29:54.
