data_PCOD8245650
_publ_section_title
;
Structure prediction by ZEFSAII (Michael W. Deem and Ramdas Pophale) SiO2 
 PCOD8245650
Probable space group: P M M N
;
_chemical_formula_sum "Si O2"
_cell_formula_units_Z 64
_cell_length_a 8.685767
_cell_length_b 14.659988
_cell_length_c 24.218430
_cell_angle_alpha 90.000000
_cell_angle_beta 90.000000
_cell_angle_gamma 90.000000
_cell_volume 3083.811159
_symmetry_space_group_name_H-M "P M M N"
_symmetry_group_IT_number 59
_space_group.IT_coordinate_system_code '2'
_symmetry_cell_setting 'orthorhombic'
loop_
_space_group_symop_operation_xyz
x,y,z
1/2-x,1/2-y,z
1/2+x,-y,-z
-x,1/2+y,-z
-x,-y,-z
1/2+x,1/2+y,-z
1/2-x,y,z
x,1/2-y,z
loop_
_atom_site_type_symbol
_atom_site_label
_atom_site_fract_x
_atom_site_fract_y
_atom_site_fract_z
Si Si1 0.923129 0.346768 0.239500
Si Si2 0.071860 0.144981 0.537684
Si Si3 0.432124 0.855191 0.153259
Si Si4 0.580624 0.350074 0.109298
Si Si5 0.425616 0.511775 0.059115
Si Si6 0.570731 0.146283 0.419766
Si Si7 0.066195 0.455394 0.741182
Si Si8 0.431039 0.975863 0.369755
O O1 0.750000 0.347854 0.263474
O O2 0.001772 0.250000 0.259473
O O3 0.918691 0.345497 0.174232
O O4 0.004753 0.441198 0.256430
O O5 0.250000 0.118240 0.545036
O O6 0.042071 0.250000 0.553315
O O7 0.023725 0.125945 0.475110
O O8 0.967524 0.082410 0.576159
O O9 0.250000 0.867861 0.158526
O O10 0.480032 0.750000 0.146853
O O11 0.506727 0.894094 0.208866
O O12 0.495336 0.908676 0.098868
O O13 0.750000 0.384214 0.088979
O O14 0.547652 0.250000 0.084218
O O15 0.445974 0.416212 0.089970
O O16 0.250000 0.534764 0.049122
O O17 0.500000 0.500000 0.000000
O O18 0.750000 0.129008 0.431402
O O19 0.542067 0.250000 0.399249
O O20 0.508911 0.076475 0.373482
O O21 0.250000 0.454189 0.743466
O O22 0.002803 0.420164 0.682364
O O23 0.250000 0.986591 0.362508
#
# Coordination Sequence:
#
# PCOD8245650 Si02
#       8
#     8   8   8   8   8   8   8   8
#     4   8  15  30  55  84 111 142 179 222 280 348
#     4  10  21  39  63  89 118 154 202 258 311 365
#     4  10  23  44  65  85 116 160 204 246 299 359
#     4   9  17  33  58  85 114 148 184 226 284 349
#     4  11  23  38  60  89 122 156 197 246 296 351
#     4  10  21  39  63  90 122 161 203 249 306 368
#     4  11  22  38  62  89 118 153 200 251 298 354
#     4  12  25  39  58  86 124 164 204 251 303 361
#
# _framework density 20.753540000000001
#
# number of rings (size 3 to 8) (size 9 to 14) (size 15 to 20)
#    0.000    1.875    1.250    3.750    0.000    4.000 
#    0.000    2.500    0.000    1.125    0.000    0.000 
#    0.000    0.000    0.000    0.000    0.000    0.000 
#
# Total GULP energy -793261.572557 kJ/mol
# GULP energy per Si atom -12394.712071 kJ/mol
# Density = 2.070630 g / cm^3
# Si number density = 20.753540 Si / 1000 Ang^3
#
#
#
# Elastic Constant Matrix: (Units=GPa)
#
#
# Indices 1 2 3 4 5 6 
#
# 1 66.4652 35.4623 30.2634 0.0000 0.0000 0.0000
# 2 35.4623 112.7010 47.0168 0.0000 0.0000 0.0000
# 3 30.2634 47.0168 99.6612 0.0000 0.0000 0.0000
# 4 0.0000 0.0000 0.0000 6.6300 0.0000 0.0000
# 5 0.0000 0.0000 0.0000 0.0000 31.3475 0.0000
# 6 0.0000 0.0000 0.0000 0.0000 0.0000 30.0200
#
#
#
# Elastic Compliance Matrix: (Units=1/GPa)
#
#
# Indices 1 2 3 4 5 6 
#
# 1 0.019114 -0.004473 -0.003694 0.000000 0.000000 0.000000
# 2 -0.004473 0.012094 -0.004347 0.000000 0.000000 0.000000
# 3 -0.003694 -0.004347 0.013207 0.000000 0.000000 0.000000
# 4 0.000000 0.000000 0.000000 0.150829 0.000000 0.000000
# 5 0.000000 0.000000 0.000000 0.000000 0.031900 0.000000
# 6 0.000000 0.000000 0.000000 0.000000 0.000000 0.033311
#
#
# Mechanical properties :
#
#
# Convention : Reuss Voigt Hill
#
# Bulk Modulus (GPa) = 51.58381 56.03472 53.80926
# Shear Modulus (GPa) = 17.12640 24.67182 20.89911
#
# Velocity S-wave (km/s) = 2.87579 3.45164 3.17679
# Velocity P-wave (km/s) = 5.99469 6.55315 6.28013
#
# Compressibility (1/GPa) = 0.01938593
#
# Stress axis : x y z
#
# Youngs Moduli (GPa) = 52.31722 82.68400 75.71994
#
# Poissons Ratio (x) = 0.36988 0.27970
# Poissons Ratio (y) = 0.23404 0.32917
# Poissons Ratio (z) = 0.19325 0.35945
#
# Static dielectric constant tensor:
#      x y z
#    x 3.444600 0.000000 0.000000 
#    y 0.000000 3.819890 0.000000 
#    z 0.000000 0.000000 4.021140 
# 
# 
# High freq. dielectric constant tensor:
#      x y z
#    x 1.794240 0.000000 0.000000 
#    y 0.000000 1.820940 0.000000 
#    z 0.000000 0.000000 1.813470 
# 
# From -- ./inp_files/31490.got.cif
#   From: 2010.03.12/outbox.cif.g09.slc.cpg/sg59_16_cif.got.tgz:31490.got - 2010.04.16 16:29:54.
