data_PCOD8245378
_publ_section_title
;
Structure prediction by ZEFSAII (Michael W. Deem and Ramdas Pophale) SiO2 
 PCOD8245378
Probable space group: P M M N
;
_chemical_formula_sum "Si O2"
_cell_formula_units_Z 64
_cell_length_a 8.659612
_cell_length_b 15.225308
_cell_length_c 23.889679
_cell_angle_alpha 90.000000
_cell_angle_beta 90.000000
_cell_angle_gamma 90.000000
_cell_volume 3149.740936
_symmetry_space_group_name_H-M "P M M N"
_symmetry_group_IT_number 59
_space_group.IT_coordinate_system_code '2'
_symmetry_cell_setting 'orthorhombic'
loop_
_space_group_symop_operation_xyz
x,y,z
1/2-x,1/2-y,z
1/2+x,-y,-z
-x,1/2+y,-z
-x,-y,-z
1/2+x,1/2+y,-z
1/2-x,y,z
x,1/2-y,z
loop_
_atom_site_type_symbol
_atom_site_label
_atom_site_fract_x
_atom_site_fract_y
_atom_site_fract_z
Si Si1 0.432703 0.352081 0.994998
Si Si2 0.069452 0.843716 0.266297
Si Si3 0.068448 0.489883 0.200807
Si Si4 0.426218 0.913580 0.603921
Si Si5 0.072348 0.591079 0.385190
Si Si6 0.068711 0.514201 0.920260
Si Si7 0.073049 0.849110 0.721685
Si Si8 0.577753 0.849449 0.494810
O O1 0.250000 0.346387 0.997932
O O2 0.496210 0.250000 0.988619
O O3 0.485731 0.418550 0.944731
O O4 0.492045 0.400391 0.050891
O O5 0.250000 0.847194 0.254793
O O6 0.001416 0.750000 0.245006
O O7 0.038419 0.846478 0.332717
O O8 0.997665 0.924393 0.231881
O O9 0.250000 0.496656 0.188341
O O10 0.975434 0.480157 0.144026
O O11 0.039497 0.407040 0.240637
O O12 0.250000 0.895922 0.587083
O O13 0.475356 0.852373 0.656068
O O14 0.528409 0.904387 0.548612
O O15 0.454255 0.011974 0.624135
O O16 0.250000 0.558943 0.385205
O O17 0.037593 0.640318 0.443016
O O18 0.250000 0.524120 0.928455
O O19 0.250000 0.881987 0.727801
O O20 0.054902 0.750000 0.742926
O O21 0.750000 0.879585 0.477028
O O22 0.574649 0.750000 0.514977
#
# Coordination Sequence:
#
# PCOD8245378 Si02
#       8
#     8   8   8   8   8   8   8   8
#     4   9  19  38  63  90 122 160 201 243 288 338
#     4   9  19  36  58  84 114 150 193 240 290 347
#     4  11  22  38  60  87 120 157 200 245 289 342
#     4  11  22  38  60  83 111 145 188 238 297 361
#     4  11  21  37  60  83 111 147 190 237 294 356
#     4  10  21  37  59  89 124 160 198 242 292 343
#     4  10  22  40  61  84 113 151 195 244 298 354
#     4  11  24  39  55  80 112 144 186 239 294 357
#
# _framework density 20.319130999999999
#
# number of rings (size 3 to 8) (size 9 to 14) (size 15 to 20)
#    0.000    1.750    1.250    3.000    0.000    4.500 
#    0.000    0.000    0.000    3.375    0.000    0.000 
#    0.000    0.000    0.000    0.000    0.000    0.000 
#
# Total GULP energy -793350.694899 kJ/mol
# GULP energy per Si atom -12396.104608 kJ/mol
# Density = 2.027288 g / cm^3
# Si number density = 20.319131 Si / 1000 Ang^3
#
#
#
# Elastic Constant Matrix: (Units=GPa)
#
#
# Indices 1 2 3 4 5 6 
#
# 1 29.3960 16.4094 13.7372 0.0000 0.0000 0.0000
# 2 16.4094 119.7887 26.7297 0.0000 0.0000 0.0000
# 3 13.7372 26.7297 95.1737 0.0000 0.0000 0.0000
# 4 0.0000 0.0000 0.0000 12.8574 0.0000 0.0000
# 5 0.0000 0.0000 0.0000 0.0000 15.5998 0.0000
# 6 0.0000 0.0000 0.0000 0.0000 0.0000 25.5803
#
#
#
# Elastic Compliance Matrix: (Units=1/GPa)
#
#
# Indices 1 2 3 4 5 6 
#
# 1 0.038446 -0.004298 -0.004342 0.000000 0.000000 0.000000
# 2 -0.004298 0.009387 -0.002016 0.000000 0.000000 0.000000
# 3 -0.004342 -0.002016 0.011700 0.000000 0.000000 0.000000
# 4 0.000000 0.000000 0.000000 0.077776 0.000000 0.000000
# 5 0.000000 0.000000 0.000000 0.000000 0.064104 0.000000
# 6 0.000000 0.000000 0.000000 0.000000 0.000000 0.039093
#
#
# Mechanical properties :
#
#
# Convention : Reuss Voigt Hill
#
# Bulk Modulus (GPa) = 26.16342 39.79012 32.97677
# Shear Modulus (GPa) = 18.21110 23.30630 20.75870
#
# Velocity S-wave (km/s) = 2.99700 3.39043 3.19977
# Velocity P-wave (km/s) = 4.98801 5.91200 5.46955
#
# Compressibility (1/GPa) = 0.03822131
#
# Stress axis : x y z
#
# Youngs Moduli (GPa) = 26.01019 106.53492 85.46987
#
# Poissons Ratio (x) = 0.45786 0.37113
# Poissons Ratio (y) = 0.11178 0.17230
# Poissons Ratio (z) = 0.11294 0.21477
#
# Static dielectric constant tensor:
#      x y z
#    x 3.518110 0.000000 0.000000 
#    y 0.000000 3.941690 0.000000 
#    z 0.000000 0.000000 3.582690 
# 
# 
# High freq. dielectric constant tensor:
#      x y z
#    x 1.780240 0.000000 0.000000 
#    y 0.000000 1.803310 0.000000 
#    z 0.000000 0.000000 1.790090 
# 
# From -- ./inp_files/31507.got.cif
#   From: 2010.03.12/outbox.cif.g09.slc.cpg/sg59_16_cif.got.tgz:31507.got - 2010.04.16 16:29:54.
