data_PCOD8245159
_publ_section_title
;
Structure prediction by ZEFSAII (Michael W. Deem and Ramdas Pophale) SiO2 
 PCOD8245159
Probable space group: P M M N
;
_chemical_formula_sum "Si O2"
_cell_formula_units_Z 40
_cell_length_a 14.458830
_cell_length_b 8.836279
_cell_length_c 16.595627
_cell_angle_alpha 90.000000
_cell_angle_beta 90.000000
_cell_angle_gamma 90.000000
_cell_volume 2120.294743
_symmetry_space_group_name_H-M "P M M N"
_symmetry_group_IT_number 59
_space_group.IT_coordinate_system_code '2'
_symmetry_cell_setting 'orthorhombic'
loop_
_space_group_symop_operation_xyz
x,y,z
1/2-x,1/2-y,z
1/2+x,-y,-z
-x,1/2+y,-z
-x,-y,-z
1/2+x,1/2+y,-z
1/2-x,y,z
x,1/2-y,z
loop_
_atom_site_type_symbol
_atom_site_label
_atom_site_fract_x
_atom_site_fract_y
_atom_site_fract_z
Si Si1 0.642347 0.574456 0.592460
Si Si2 0.003232 0.572389 0.120389
Si Si3 0.854654 0.571115 0.991251
Si Si4 0.507575 0.571919 0.304698
Si Si5 0.142824 0.574835 0.573257
O O1 0.750000 0.543695 0.605245
O O2 0.616407 0.750000 0.599904
O O3 0.591141 0.479485 0.660997
O O4 0.609715 0.517435 0.504997
O O5 0.018840 0.750000 0.112408
O O6 0.986739 0.522973 0.211897
O O7 0.096389 0.493593 0.088428
O O8 0.913357 0.519491 0.069562
O O9 0.750000 0.507263 0.998429
O O10 0.852501 0.750000 0.983774
O O11 0.520537 0.750000 0.315997
O O12 0.589401 0.484996 0.349377
O O13 0.250000 0.546919 0.590596
O O14 0.120096 0.750000 0.558251
#
# Coordination Sequence:
#
# PCOD8245159 Si02
#       5
#     8   8   8   8   8
#     4  10  21  37  56  77 104 141 183 223 264 312
#     4   9  20  36  53  78 108 137 172 212 256 311
#     4   9  18  35  58  79 102 135 172 212 259 309
#     4  11  22  35  54  79 109 143 176 216 264 313
#     4  10  21  37  56  78 106 140 179 222 265 311
#
# _framework density 18.865302
#
# number of rings (size 3 to 8) (size 9 to 14) (size 15 to 20)
#    0.000    2.200    0.000    2.400    0.000    6.000 
#    0.000    6.000    0.000    0.000    0.000    0.000 
#    0.000    0.000    0.000    0.000    0.000    0.000 
#
# Total GULP energy -496139.754270 kJ/mol
# GULP energy per Si atom -12403.493857 kJ/mol
# Density = 1.882236 g / cm^3
# Si number density = 18.865302 Si / 1000 Ang^3
#
#
#
# Elastic Constant Matrix: (Units=GPa)
#
#
# Indices 1 2 3 4 5 6 
#
# 1 106.6904 22.6080 33.4232 0.0000 0.0000 0.0000
# 2 22.6080 32.0391 19.9253 0.0000 0.0000 0.0000
# 3 33.4232 19.9253 90.7791 0.0000 0.0000 0.0000
# 4 0.0000 0.0000 0.0000 31.0881 0.0000 0.0000
# 5 0.0000 0.0000 0.0000 0.0000 10.8694 0.0000
# 6 0.0000 0.0000 0.0000 0.0000 0.0000 31.6494
#
#
#
# Elastic Compliance Matrix: (Units=1/GPa)
#
#
# Indices 1 2 3 4 5 6 
#
# 1 0.011634 -0.006422 -0.002874 0.000000 0.000000 0.000000
# 2 -0.006422 0.039691 -0.006347 0.000000 0.000000 0.000000
# 3 -0.002874 -0.006347 0.013467 0.000000 0.000000 0.000000
# 4 0.000000 0.000000 0.000000 0.032167 0.000000 0.000000
# 5 0.000000 0.000000 0.000000 0.000000 0.092002 0.000000
# 6 0.000000 0.000000 0.000000 0.000000 0.000000 0.031596
#
#
# Mechanical properties :
#
#
# Convention : Reuss Voigt Hill
#
# Bulk Modulus (GPa) = 29.84588 42.38017 36.11303
# Shear Modulus (GPa) = 19.01053 24.95819 21.98436
#
# Velocity S-wave (km/s) = 3.17787 3.64121 3.41740
# Velocity P-wave (km/s) = 5.41480 6.33966 5.89539
#
# Compressibility (1/GPa) = 0.03350546
#
# Stress axis : x y z
#
# Youngs Moduli (GPa) = 85.95435 25.19456 74.25535
#
# Poissons Ratio (x) = 0.16180 0.21340
# Poissons Ratio (y) = 0.55201 0.47133
# Poissons Ratio (z) = 0.24702 0.15992
#
# Static dielectric constant tensor:
#      x y z
#    x 3.600140 0.000000 0.000000 
#    y 0.000000 3.475020 0.000000 
#    z 0.000000 0.000000 3.494790 
# 
# 
# High freq. dielectric constant tensor:
#      x y z
#    x 1.742460 0.000000 0.000000 
#    y 0.000000 1.736510 0.000000 
#    z 0.000000 0.000000 1.729960 
# 
# From -- ./inp_files/19849.got.cif
#   From: 2010.03.12/outbox.cif.g09.slc.cpg/sg59_10_cif.got.tgz:19849.got - 2010.04.16 16:29:54.
