data_PCOD8245269
_publ_section_title
;
Structure prediction by ZEFSAII (Michael W. Deem and Ramdas Pophale) SiO2 
 PCOD8245269
Probable space group: P M M N
;
_chemical_formula_sum "Si O2"
_cell_formula_units_Z 48
_cell_length_a 24.990692
_cell_length_b 8.734050
_cell_length_c 11.714944
_cell_angle_alpha 90.000000
_cell_angle_beta 90.000000
_cell_angle_gamma 90.000000
_cell_volume 2557.020282
_symmetry_space_group_name_H-M "P M M N"
_symmetry_group_IT_number 59
_space_group.IT_coordinate_system_code '2'
_symmetry_cell_setting 'orthorhombic'
loop_
_space_group_symop_operation_xyz
x,y,z
1/2-x,1/2-y,z
1/2+x,-y,-z
-x,1/2+y,-z
-x,-y,-z
1/2+x,1/2+y,-z
1/2-x,y,z
x,1/2-y,z
loop_
_atom_site_type_symbol
_atom_site_label
_atom_site_fract_x
_atom_site_fract_y
_atom_site_fract_z
Si Si1 0.688912 0.427310 0.608674
Si Si2 0.687942 0.572603 0.371426
Si Si3 0.596878 0.074078 0.776728
Si Si4 0.994291 0.572221 0.377028
Si Si5 0.598509 0.069985 0.228300
Si Si6 0.558699 0.929413 0.001381
O O1 0.750000 0.462068 0.643751
O O2 0.680356 0.250000 0.576530
O O3 0.671270 0.525205 0.499262
O O4 0.652095 0.473488 0.715480
O O5 0.750000 0.536330 0.350859
O O6 0.674294 0.750000 0.354846
O O7 0.655937 0.474338 0.279061
O O8 0.598051 0.250000 0.817525
O O9 0.549241 0.045870 0.688832
O O10 0.590194 0.966398 0.885721
O O11 0.979517 0.750000 0.387158
O O12 0.000000 0.500000 0.500000
O O13 0.947424 0.486709 0.311998
O O14 0.593969 0.250000 0.213713
O O15 0.593252 0.993596 0.105136
O O16 0.552014 0.750000 0.016698
O O17 0.500000 0.000000 0.000000
#
# Coordination Sequence:
#
# PCOD8245269 Si02
#       6
#     8   8   8   8   8   8
#     4   9  18  35  60  89 121 156 195 238 287 346
#     4  10  21  38  61  89 121 155 194 242 295 350
#     4  10  21  37  57  83 116 155 196 239 290 348
#     4  11  22  35  55  84 120 153 191 241 293 352
#     4  12  24  39  60  85 116 154 198 243 292 351
#     4  12  24  40  61  84 113 153 197 244 297 355
#
# _framework density 18.771850000000001
#
# number of rings (size 3 to 8) (size 9 to 14) (size 15 to 20)
#    0.000    1.333    1.667    5.000    0.000    3.667 
#    0.000    0.833    0.000    3.000    0.000    0.000 
#    0.000    0.000    0.000    0.000    0.000    0.000 
#
# Total GULP energy -595493.812844 kJ/mol
# GULP energy per Si atom -12406.121101 kJ/mol
# Density = 1.872912 g / cm^3
# Si number density = 18.771850 Si / 1000 Ang^3
#
#
#
# Elastic Constant Matrix: (Units=GPa)
#
#
# Indices 1 2 3 4 5 6 
#
# 1 99.0899 48.5990 59.7752 0.0000 0.0000 0.0000
# 2 48.5990 134.9070 68.7575 0.0000 0.0000 0.0000
# 3 59.7752 68.7575 136.2216 0.0000 0.0000 0.0000
# 4 0.0000 0.0000 0.0000 38.1110 0.0000 0.0000
# 5 0.0000 0.0000 0.0000 0.0000 -18.8464 0.0000
# 6 0.0000 0.0000 0.0000 0.0000 0.0000 23.8950
#
#
#
# Elastic Compliance Matrix: (Units=1/GPa)
#
#
# Indices 1 2 3 4 5 6 
#
# 1 0.014394 -0.002647 -0.004980 0.000000 0.000000 0.000000
# 2 -0.002647 0.010467 -0.004121 0.000000 0.000000 0.000000
# 3 -0.004980 -0.004121 0.011607 0.000000 0.000000 0.000000
# 4 0.000000 0.000000 0.000000 0.026239 0.000000 0.000000
# 5 0.000000 0.000000 0.000000 0.000000 -0.053061 0.000000
# 6 0.000000 0.000000 0.000000 0.000000 0.000000 0.041850
#
#
# Mechanical properties :
#
#
# Convention : Reuss Voigt Hill
#
# Bulk Modulus (GPa) = 77.10073 80.49798 78.79936
# Shear Modulus (GPa) = 63.03796 21.50437 42.27117
#
# Velocity S-wave (km/s) = 5.80121 3.38829 4.75050
# Velocity P-wave (km/s) = 9.27544 7.63431 8.49460
#
# Compressibility (1/GPa) = 0.01297005
#
# Stress axis : x y z
#
# Youngs Moduli (GPa) = 69.47111 95.54117 86.15772
#
# Poissons Ratio (x) = 0.25292 0.42909
# Poissons Ratio (y) = 0.18391 0.35509
# Poissons Ratio (z) = 0.34598 0.39376
#
# Static dielectric constant tensor:
#      x y z
#    x 3.570140 0.000000 0.000000 
#    y 0.000000 3.525880 0.000000 
#    z 0.000000 0.000000 3.527090 
# 
# 
# High freq. dielectric constant tensor:
#      x y z
#    x 1.731960 0.000000 0.000000 
#    y 0.000000 1.739240 0.000000 
#    z 0.000000 0.000000 1.731710 
# 
# From -- ./inp_files/18840.got.cif
#   From: 2010.03.12/outbox.cif.g09.slc.cpg/sg59_10_cif.got.tgz:18840.got - 2010.04.16 16:29:54.
