data_PCOD8245229
_publ_section_title
;
Structure prediction by ZEFSAII (Michael W. Deem and Ramdas Pophale) SiO2 
 PCOD8245229
Probable space group: P M M N
;
_chemical_formula_sum "Si O2"
_cell_formula_units_Z 40
_cell_length_a 9.261862
_cell_length_b 8.780782
_cell_length_c 25.543767
_cell_angle_alpha 90.000000
_cell_angle_beta 90.000000
_cell_angle_gamma 90.000000
_cell_volume 2077.382386
_symmetry_space_group_name_H-M "P M M N"
_symmetry_group_IT_number 59
_space_group.IT_coordinate_system_code '2'
_symmetry_cell_setting 'orthorhombic'
loop_
_space_group_symop_operation_xyz
x,y,z
1/2-x,1/2-y,z
1/2+x,-y,-z
-x,1/2+y,-z
-x,-y,-z
1/2+x,1/2+y,-z
1/2-x,y,z
x,1/2-y,z
loop_
_atom_site_type_symbol
_atom_site_label
_atom_site_fract_x
_atom_site_fract_y
_atom_site_fract_z
Si Si1 0.919176 0.573826 0.951829
Si Si2 0.584059 0.425950 0.249706
Si Si3 0.085148 0.070423 0.452047
Si Si4 0.579442 0.423651 0.844021
Si Si5 0.416986 0.072327 0.641793
O O1 0.750000 0.550586 0.960618
O O2 0.961116 0.750000 0.947046
O O3 0.972159 0.489476 0.899515
O O4 0.000000 0.500000 0.000000
O O5 0.750000 0.456477 0.235232
O O6 0.555526 0.250000 0.262691
O O7 0.488583 0.475128 0.201093
O O8 0.537853 0.524533 0.299870
O O9 0.250000 0.013063 0.453834
O O10 0.076807 0.250000 0.457093
O O11 0.000000 0.000000 0.500000
O O12 0.015236 0.020629 0.397762
O O13 0.750000 0.436384 0.838495
O O14 0.526032 0.250000 0.839295
O O15 0.250000 0.031290 0.631151
O O16 0.446349 0.250000 0.634179
#
# Coordination Sequence:
#
# PCOD8245229 Si02
#       5
#     8   8   8   8   8
#     4  10  21  37  57  81 109 143 183 227 276 329
#     4  10  21  37  58  84 113 147 186 227 274 327
#     4  11  24  40  59  85 115 148 187 229 275 328
#     4  10  21  37  57  81 110 145 184 227 276 328
#     4  10  21  38  60  85 113 146 185 229 276 326
#
# _framework density 19.255001
#
# number of rings (size 3 to 8) (size 9 to 14) (size 15 to 20)
#    0.000    1.800    0.000    3.600    0.000   10.400 
#    0.000    0.000    0.000    0.000    0.000    0.000 
#    0.000    0.000    0.000    0.000    0.000    0.000 
#
# Total GULP energy -496228.567676 kJ/mol
# GULP energy per Si atom -12405.714192 kJ/mol
# Density = 1.921118 g / cm^3
# Si number density = 19.255001 Si / 1000 Ang^3
#
#
#
# Elastic Constant Matrix: (Units=GPa)
#
#
# Indices 1 2 3 4 5 6 
#
# 1 72.3826 35.9612 58.8015 0.0000 0.0000 0.0000
# 2 35.9612 69.4189 28.1684 0.0000 0.0000 0.0000
# 3 58.8015 28.1684 125.5025 0.0000 0.0000 0.0000
# 4 0.0000 0.0000 0.0000 44.7183 0.0000 0.0000
# 5 0.0000 0.0000 0.0000 0.0000 40.7863 0.0000
# 6 0.0000 0.0000 0.0000 0.0000 0.0000 32.0136
#
#
#
# Elastic Compliance Matrix: (Units=1/GPa)
#
#
# Indices 1 2 3 4 5 6 
#
# 1 0.027307 -0.009852 -0.010583 0.000000 0.000000 0.000000
# 2 -0.009852 0.019403 0.000261 0.000000 0.000000 0.000000
# 3 -0.010583 0.000261 0.012868 0.000000 0.000000 0.000000
# 4 0.000000 0.000000 0.000000 0.022362 0.000000 0.000000
# 5 0.000000 0.000000 0.000000 0.000000 0.024518 0.000000
# 6 0.000000 0.000000 0.000000 0.000000 0.000000 0.031237
#
#
# Mechanical properties :
#
#
# Convention : Reuss Voigt Hill
#
# Bulk Modulus (GPa) = 52.00107 57.01847 54.50977
# Shear Modulus (GPa) = 27.10713 33.12849 30.11781
#
# Velocity S-wave (km/s) = 3.75613 4.15241 3.95923
# Velocity P-wave (km/s) = 6.77322 7.25717 7.01937
#
# Compressibility (1/GPa) = 0.01923037
#
# Stress axis : x y z
#
# Youngs Moduli (GPa) = 36.62003 51.53861 77.71269
#
# Poissons Ratio (x) = 0.50775 0.82244
# Poissons Ratio (y) = 0.36077 -0.02028
# Poissons Ratio (z) = 0.38756 -0.01345
#
# Static dielectric constant tensor:
#      x y z
#    x 3.547190 0.000000 0.000000 
#    y 0.000000 3.726710 0.000000 
#    z 0.000000 0.000000 3.619210 
# 
# 
# High freq. dielectric constant tensor:
#      x y z
#    x 1.743930 0.000000 0.000000 
#    y 0.000000 1.767070 0.000000 
#    z 0.000000 0.000000 1.763620 
# 
# From -- ./inp_files/31110.got.cif
#   From: 2010.03.12/outbox.cif.g09.slc.cpg/sg59_16_cif.got.tgz:31110.got - 2010.04.16 16:29:54.
