data_PCOD8245504
_publ_section_title
;
Structure prediction by ZEFSAII (Michael W. Deem and Ramdas Pophale) SiO2 
 PCOD8245504
Probable space group: P M M N
;
_chemical_formula_sum "Si O2"
_cell_formula_units_Z 48
_cell_length_a 8.797689
_cell_length_b 15.325886
_cell_length_c 17.262529
_cell_angle_alpha 90.000000
_cell_angle_beta 90.000000
_cell_angle_gamma 90.000000
_cell_volume 2327.547847
_symmetry_space_group_name_H-M "P M M N"
_symmetry_group_IT_number 59
_space_group.IT_coordinate_system_code '2'
_symmetry_cell_setting 'orthorhombic'
loop_
_space_group_symop_operation_xyz
x,y,z
1/2-x,1/2-y,z
1/2+x,-y,-z
-x,1/2+y,-z
-x,-y,-z
1/2+x,1/2+y,-z
1/2-x,y,z
x,1/2-y,z
loop_
_atom_site_type_symbol
_atom_site_label
_atom_site_fract_x
_atom_site_fract_y
_atom_site_fract_z
Si Si1 0.083711 0.849621 0.845526
Si Si2 0.069753 0.998035 0.584366
Si Si3 0.928426 0.852499 0.690529
Si Si4 0.929892 0.593740 0.998678
Si Si5 0.426337 0.852404 0.317486
Si Si6 0.915997 0.850285 0.164868
O O1 0.250000 0.896262 0.851014
O O2 0.110614 0.750000 0.826206
O O3 0.986745 0.887776 0.774144
O O4 0.994914 0.854826 0.925932
O O5 0.250000 0.992614 0.580049
O O6 0.023439 0.088727 0.624730
O O7 0.000000 0.000000 0.500000
O O8 0.009466 0.910988 0.626170
O O9 0.750000 0.869565 0.686990
O O10 0.965552 0.750000 0.676210
O O11 0.750000 0.592675 0.991309
O O12 0.983876 0.637223 0.079030
O O13 0.000000 0.500000 0.000000
O O14 0.250000 0.871734 0.330745
O O15 0.463361 0.750000 0.331743
O O16 0.468420 0.884225 0.230293
O O17 0.750000 0.897172 0.172155
O O18 0.890726 0.750000 0.180349
#
# Coordination Sequence:
#
# PCOD8245504 Si02
#       6
#     8   8   8   8   8   8
#     4  10  21  38  60  86 118 158 204 252 305 364
#     4  12  26  44  68  96 129 165 204 253 309 373
#     4  10  22  42  68  96 127 165 209 257 312 372
#     4  11  23  36  53  81 119 161 206 256 306 358
#     4  10  22  41  66  95 127 164 208 257 310 369
#     4   9  19  37  59  82 112 155 205 253 304 361
#
# _framework density 20.622561000000001
#
# number of rings (size 3 to 8) (size 9 to 14) (size 15 to 20)
#    0.000    1.667    0.000    4.000    2.333    5.667 
#    0.000    1.667    0.000    0.000    0.000    0.000 
#    0.000    0.000    0.000    0.000    0.000    0.000 
#
# Total GULP energy -595030.414854 kJ/mol
# GULP energy per Si atom -12396.466976 kJ/mol
# Density = 2.057562 g / cm^3
# Si number density = 20.622561 Si / 1000 Ang^3
#
#
#
# Elastic Constant Matrix: (Units=GPa)
#
#
# Indices 1 2 3 4 5 6 
#
# 1 155.6824 52.8510 83.2280 0.0000 0.0000 0.0000
# 2 52.8510 74.1816 51.2501 0.0000 0.0000 0.0000
# 3 83.2280 51.2501 183.3735 0.0000 0.0000 0.0000
# 4 0.0000 0.0000 0.0000 30.2480 0.0000 0.0000
# 5 0.0000 0.0000 0.0000 0.0000 41.0332 0.0000
# 6 0.0000 0.0000 0.0000 0.0000 0.0000 32.4729
#
#
#
# Elastic Compliance Matrix: (Units=1/GPa)
#
#
# Indices 1 2 3 4 5 6 
#
# 1 0.009682 -0.004786 -0.003057 0.000000 0.000000 0.000000
# 2 -0.004786 0.019072 -0.003158 0.000000 0.000000 0.000000
# 3 -0.003057 -0.003158 0.007723 0.000000 0.000000 0.000000
# 4 0.000000 0.000000 0.000000 0.033060 0.000000 0.000000
# 5 0.000000 0.000000 0.000000 0.000000 0.024371 0.000000
# 6 0.000000 0.000000 0.000000 0.000000 0.000000 0.030795
#
#
# Mechanical properties :
#
#
# Convention : Reuss Voigt Hill
#
# Bulk Modulus (GPa) = 69.08178 87.54399 78.31288
# Shear Modulus (GPa) = 32.99647 35.81135 34.40391
#
# Velocity S-wave (km/s) = 4.00436 4.17167 4.08887
# Velocity P-wave (km/s) = 7.41288 8.10842 7.76844
#
# Compressibility (1/GPa) = 0.01447560
#
# Stress axis : x y z
#
# Youngs Moduli (GPa) = 103.28008 52.43207 129.47681
#
# Poissons Ratio (x) = 0.25096 0.39579
# Poissons Ratio (y) = 0.49434 0.40889
# Poissons Ratio (z) = 0.31571 0.16558
#
# Static dielectric constant tensor:
#      x y z
#    x 3.968530 0.000000 0.000000 
#    y 0.000000 3.698160 0.000000 
#    z 0.000000 0.000000 3.597320 
# 
# 
# High freq. dielectric constant tensor:
#      x y z
#    x 1.818440 0.000000 0.000000 
#    y 0.000000 1.805530 0.000000 
#    z 0.000000 0.000000 1.812750 
# 
# From -- ./inp_files/20441.got.cif
#   From: 2010.03.12/outbox.cif.g09.slc.cpg/sg59_11_cif.got.tgz:20441.got - 2010.04.16 16:29:54.
