data_PCOD8245755
_publ_section_title
;
Structure prediction by ZEFSAII (Michael W. Deem and Ramdas Pophale) SiO2 
 PCOD8245755
Probable space group: P M M N
;
_chemical_formula_sum "Si O2"
_cell_formula_units_Z 48
_cell_length_a 9.050566
_cell_length_b 14.741548
_cell_length_c 18.806990
_cell_angle_alpha 90.000000
_cell_angle_beta 90.000000
_cell_angle_gamma 90.000000
_cell_volume 2509.216440
_symmetry_space_group_name_H-M "P M M N"
_symmetry_group_IT_number 59
_space_group.IT_coordinate_system_code '2'
_symmetry_cell_setting 'orthorhombic'
loop_
_space_group_symop_operation_xyz
x,y,z
1/2-x,1/2-y,z
1/2+x,-y,-z
-x,1/2+y,-z
-x,-y,-z
1/2+x,1/2+y,-z
1/2-x,y,z
x,1/2-y,z
loop_
_atom_site_type_symbol
_atom_site_label
_atom_site_fract_x
_atom_site_fract_y
_atom_site_fract_z
Si Si1 0.424352 0.145616 0.008361
Si Si2 0.916458 0.648619 0.644123
Si Si3 0.916333 0.148433 0.650451
Si Si4 0.077199 0.997802 0.733994
Si Si5 0.921123 0.094962 0.493203
Si Si6 0.422754 0.504570 0.896721
O O1 0.250000 0.145924 0.019230
O O2 0.481962 0.250000 0.001379
O O3 0.469924 0.086990 0.938770
O O4 0.495757 0.095112 0.075850
O O5 0.750000 0.612712 0.630440
O O6 0.914474 0.750000 0.674718
O O7 0.992709 0.588401 0.703753
O O8 0.004436 0.649890 0.570359
O O9 0.750000 0.113650 0.666557
O O10 0.938423 0.250000 0.678921
O O11 0.943682 0.149314 0.566030
O O12 0.034164 0.086747 0.690188
O O13 0.250000 0.980948 0.725270
O O14 0.031339 0.011739 0.815548
O O15 0.750000 0.080458 0.474691
O O16 0.000000 0.000000 0.500000
O O17 0.250000 0.522766 0.905647
#
# Coordination Sequence:
#
# PCOD8245755 Si02
#       6
#     8   8   8   8   8   8
#     4   9  18  35  60  86 112 145 183 222 269 326
#     4  11  24  40  58  81 111 150 195 241 288 339
#     4  10  22  39  58  81 112 149 187 232 285 338
#     4  11  23  38  58  83 114 152 189 231 283 336
#     4  11  21  36  60  85 111 146 189 237 290 340
#     4   9  20  37  56  83 116 147 182 226 274 326
#
# _framework density 19.129477999999999
#
# number of rings (size 3 to 8) (size 9 to 14) (size 15 to 20)
#    0.000    1.833    1.667    2.000    0.000    6.000 
#    0.000    5.000    0.000    0.000    0.000    0.000 
#    0.000    0.000    0.000    0.000    0.000    0.000 
#
# Total GULP energy -595268.518481 kJ/mol
# GULP energy per Si atom -12401.427468 kJ/mol
# Density = 1.908594 g / cm^3
# Si number density = 19.129478 Si / 1000 Ang^3
#
#
#
# Elastic Constant Matrix: (Units=GPa)
#
#
# Indices 1 2 3 4 5 6 
#
# 1 94.5472 44.1725 51.0020 0.0000 0.0000 0.0000
# 2 44.1725 129.1192 38.6269 0.0000 0.0000 0.0000
# 3 51.0020 38.6269 104.1897 0.0000 0.0000 0.0000
# 4 0.0000 0.0000 0.0000 -5.2504 0.0000 0.0000
# 5 0.0000 0.0000 0.0000 0.0000 29.1771 0.0000
# 6 0.0000 0.0000 0.0000 0.0000 0.0000 25.8224
#
#
#
# Elastic Compliance Matrix: (Units=1/GPa)
#
#
# Indices 1 2 3 4 5 6 
#
# 1 0.015620 -0.003438 -0.006372 0.000000 0.000000 0.000000
# 2 -0.003438 0.009467 -0.001827 0.000000 0.000000 0.000000
# 3 -0.006372 -0.001827 0.013394 0.000000 0.000000 0.000000
# 4 0.000000 0.000000 0.000000 -0.190461 0.000000 0.000000
# 5 0.000000 0.000000 0.000000 0.000000 0.034273 0.000000
# 6 0.000000 0.000000 0.000000 0.000000 0.000000 0.038726
#
#
# Mechanical properties :
#
#
# Convention : Reuss Voigt Hill
#
# Bulk Modulus (GPa) = 65.75165 66.16209 65.95687
# Shear Modulus (GPa) = -98.74023 22.88680 -37.92672
#
# Velocity S-wave (km/s) = -7.19228 3.46268 -4.45751
# Velocity P-wave (km/s) = 5.87582 7.11677 2.83929
#
# Compressibility (1/GPa) = 0.01520874
#
# Stress axis : x y z
#
# Youngs Moduli (GPa) = 64.02124 105.62557 74.65870
#
# Poissons Ratio (x) = 0.36309 0.47570
# Poissons Ratio (y) = 0.22007 0.13642
# Poissons Ratio (z) = 0.40792 0.19300
#
# Static dielectric constant tensor:
#      x y z
#    x 3.789490 0.000000 0.000000 
#    y 0.000000 3.566300 0.000000 
#    z 0.000000 0.000000 3.589620 
# 
# 
# High freq. dielectric constant tensor:
#      x y z
#    x 1.748190 0.000000 0.000000 
#    y 0.000000 1.752340 0.000000 
#    z 0.000000 0.000000 1.737770 
# 
# From -- ./inp_files/25441.got.cif
#   From: 2010.03.12/outbox.cif.g09.slc.cpg/sg59_13_cif.got.tgz:25441.got - 2010.04.16 16:29:54.
