data_PCOD8245744
_publ_section_title
;
Structure prediction by ZEFSAII (Michael W. Deem and Ramdas Pophale) SiO2 
 PCOD8245744
Probable space group: P M M N
;
_chemical_formula_sum "Si O2"
_cell_formula_units_Z 40
_cell_length_a 13.134993
_cell_length_b 14.829736
_cell_length_c 9.559069
_cell_angle_alpha 90.000000
_cell_angle_beta 90.000000
_cell_angle_gamma 90.000000
_cell_volume 1861.996507
_symmetry_space_group_name_H-M "P M M N"
_symmetry_group_IT_number 59
_space_group.IT_coordinate_system_code '2'
_symmetry_cell_setting 'orthorhombic'
loop_
_space_group_symop_operation_xyz
x,y,z
1/2-x,1/2-y,z
1/2+x,-y,-z
-x,1/2+y,-z
-x,-y,-z
1/2+x,1/2+y,-z
1/2-x,y,z
x,1/2-y,z
loop_
_atom_site_type_symbol
_atom_site_label
_atom_site_fract_x
_atom_site_fract_y
_atom_site_fract_z
Si Si1 0.370000 0.250000 0.174095
Si Si2 0.370019 0.250000 0.489324
Si Si3 0.871740 0.250000 0.352202
Si Si4 0.864879 0.578715 0.997135
Si Si5 0.938608 0.085618 0.848246
Si Si6 0.479062 0.604208 0.461244
Si Si7 0.130244 0.750000 0.966432
O O1 0.250000 0.250000 0.194081
O O2 0.414234 0.250000 0.330740
O O3 0.406308 0.335160 0.086081
O O4 0.250000 0.250000 0.507319
O O5 0.414415 0.158617 0.558177
O O6 0.750000 0.250000 0.353125
O O7 0.909194 0.342133 0.427816
O O8 0.914969 0.250000 0.192076
O O9 0.750000 0.591677 0.054927
O O10 0.941776 0.560829 0.125876
O O11 0.867009 0.498223 0.885592
O O12 0.906150 0.164436 0.949412
O O13 0.920922 0.108727 0.686709
O O14 0.500000 0.500000 0.500000
O O15 0.250000 0.750000 0.954134
#
# Coordination Sequence:
#
# PCOD8245744 Si02
#       7
#     4   4   4   8   8   8   4
#     4   9  18  35  59  86 119 161 202 252 313 380
#     4  10  22  39  61  92 129 172 215 259 326 399
#     4  10  26  46  69  95 130 179 227 274 338 408
#     4  10  22  38  62  94 128 164 212 265 319 386
#     4  11  24  39  64  96 127 171 218 268 328 386
#     4  11  25  42  66  98 137 176 215 280 337 403
#     4  11  24  44  70  95 128 174 225 281 326 391
#
# _framework density 21.482317999999999
#
# number of rings (size 3 to 8) (size 9 to 14) (size 15 to 20)
#    0.000    1.600    0.000    3.600   11.200    4.000 
#    0.000    1.000    0.000    0.000    0.000    0.000 
#    0.000    0.000    0.000    0.000    0.000    0.000 
#
# Total GULP energy -495968.329355 kJ/mol
# GULP energy per Si atom -12399.208234 kJ/mol
# Density = 2.143342 g / cm^3
# Si number density = 21.482318 Si / 1000 Ang^3
#
#
#
# Elastic Constant Matrix: (Units=GPa)
#
#
# Indices 1 2 3 4 5 6 
#
# 1 62.6325 34.8069 24.4400 0.0000 0.0000 0.0000
# 2 34.8069 185.8458 54.6316 0.0000 0.0000 0.0000
# 3 24.4400 54.6316 140.0171 0.0000 0.0000 0.0000
# 4 0.0000 0.0000 0.0000 29.5884 0.0000 0.0000
# 5 0.0000 0.0000 0.0000 0.0000 27.2093 0.0000
# 6 0.0000 0.0000 0.0000 0.0000 0.0000 28.8851
#
#
#
# Elastic Compliance Matrix: (Units=1/GPa)
#
#
# Indices 1 2 3 4 5 6 
#
# 1 0.018354 -0.002819 -0.002104 0.000000 0.000000 0.000000
# 2 -0.002819 0.006511 -0.002048 0.000000 0.000000 0.000000
# 3 -0.002104 -0.002048 0.008308 0.000000 0.000000 0.000000
# 4 0.000000 0.000000 0.000000 0.033797 0.000000 0.000000
# 5 0.000000 0.000000 0.000000 0.000000 0.036752 0.000000
# 6 0.000000 0.000000 0.000000 0.000000 0.000000 0.034620
#
#
# Mechanical properties :
#
#
# Convention : Reuss Voigt Hill
#
# Bulk Modulus (GPa) = 51.99992 68.47251 60.23622
# Shear Modulus (GPa) = 31.50706 35.44435 33.47571
#
# Velocity S-wave (km/s) = 3.83384 4.06634 3.95180
# Velocity P-wave (km/s) = 6.62241 7.34778 6.99450
#
# Compressibility (1/GPa) = 0.01923080
#
# Stress axis : x y z
#
# Youngs Moduli (GPa) = 54.48502 153.58815 120.36000
#
# Poissons Ratio (x) = 0.43297 0.25320
# Poissons Ratio (y) = 0.15360 0.24654
# Poissons Ratio (z) = 0.11462 0.31460
#
# Static dielectric constant tensor:
#      x y z
#    x 3.934290 0.000000 0.000000 
#    y 0.000000 4.049370 0.000000 
#    z 0.000000 0.000000 3.881670 
# 
# 
# High freq. dielectric constant tensor:
#      x y z
#    x 1.856450 0.000000 0.000000 
#    y 0.000000 1.854580 0.000000 
#    z 0.000000 0.000000 1.838500 
# 
# From -- ./inp_files/8682.got.cif
#   From: 2010.03.12/outbox.cif.g09.slc.cpg/sg59_5_cif.got.tgz:8682.got - 2010.04.16 16:29:54.
