data_PCOD8245441
_publ_section_title
;
Structure prediction by ZEFSAII (Michael W. Deem and Ramdas Pophale) SiO2 
 PCOD8245441
Probable space group: P M M N
;
_chemical_formula_sum "Si O2"
_cell_formula_units_Z 56
_cell_length_a 8.950843
_cell_length_b 14.706309
_cell_length_c 21.505510
_cell_angle_alpha 90.000000
_cell_angle_beta 90.000000
_cell_angle_gamma 90.000000
_cell_volume 2830.853356
_symmetry_space_group_name_H-M "P M M N"
_symmetry_group_IT_number 59
_space_group.IT_coordinate_system_code '2'
_symmetry_cell_setting 'orthorhombic'
loop_
_space_group_symop_operation_xyz
x,y,z
1/2-x,1/2-y,z
1/2+x,-y,-z
-x,1/2+y,-z
-x,-y,-z
1/2+x,1/2+y,-z
1/2-x,y,z
x,1/2-y,z
loop_
_atom_site_type_symbol
_atom_site_label
_atom_site_fract_x
_atom_site_fract_y
_atom_site_fract_z
Si Si1 0.075679 0.854061 0.891892
Si Si2 0.926298 0.492663 0.215396
Si Si3 0.417986 0.358020 0.984645
Si Si4 0.925184 0.144212 0.859734
Si Si5 0.921648 0.855963 0.413888
Si Si6 0.073102 0.490960 0.344416
Si Si7 0.927479 0.850478 0.552945
O O1 0.250000 0.860463 0.906389
O O2 0.027965 0.750000 0.878178
O O3 0.029387 0.913867 0.832918
O O4 0.991802 0.894986 0.952085
O O5 0.750000 0.504540 0.221684
O O6 0.996442 0.588852 0.195345
O O7 0.995741 0.462337 0.280517
O O8 0.250000 0.395954 0.978898
O O9 0.420758 0.250000 0.986771
O O10 0.510838 0.392082 0.925272
O O11 0.750000 0.125880 0.858594
O O12 0.963162 0.250000 0.849455
O O13 0.750000 0.886477 0.405602
O O14 0.939286 0.750000 0.399512
O O15 0.979996 0.878297 0.483620
O O16 0.024402 0.908309 0.364631
O O17 0.250000 0.486358 0.336276
O O18 0.011744 0.421474 0.396687
O O19 0.750000 0.847883 0.553048
O O20 0.989363 0.750000 0.569682
#
# Coordination Sequence:
#
# PCOD8245441 Si02
#       7
#     8   8   8   8   8   8   8
#     4   9  19  37  58  79 106 140 179 224 270 315
#     4  11  24  39  55  77 107 146 187 222 263 319
#     4   9  17  31  55  85 111 137 173 218 270 325
#     4  10  21  38  59  81 107 139 177 225 275 320
#     4   9  18  35  59  83 108 141 179 218 263 316
#     4  11  22  35  54  80 111 144 178 221 267 313
#     4   8  16  33  57  84 111 140 176 217 264 317
#
# _framework density 19.782019999999999
#
# number of rings (size 3 to 8) (size 9 to 14) (size 15 to 20)
#    0.000    2.429    0.000    3.000    0.000    5.714 
#    0.000    0.714    0.000    3.000    0.000    0.000 
#    0.000    0.000    0.000    0.000    0.000    0.000 
#
# Total GULP energy -694523.210963 kJ/mol
# GULP energy per Si atom -12402.200196 kJ/mol
# Density = 1.973700 g / cm^3
# Si number density = 19.782020 Si / 1000 Ang^3
#
#
#
# Elastic Constant Matrix: (Units=GPa)
#
#
# Indices 1 2 3 4 5 6 
#
# 1 66.7266 21.0044 23.3055 0.0000 0.0000 0.0000
# 2 21.0044 55.2364 21.9713 0.0000 0.0000 0.0000
# 3 23.3055 21.9713 85.7906 0.0000 0.0000 0.0000
# 4 0.0000 0.0000 0.0000 27.5659 0.0000 0.0000
# 5 0.0000 0.0000 0.0000 0.0000 34.3741 0.0000
# 6 0.0000 0.0000 0.0000 0.0000 0.0000 22.9417
#
#
#
# Elastic Compliance Matrix: (Units=1/GPa)
#
#
# Indices 1 2 3 4 5 6 
#
# 1 0.017909 -0.005428 -0.003475 0.000000 0.000000 0.000000
# 2 -0.005428 0.021803 -0.004109 0.000000 0.000000 0.000000
# 3 -0.003475 -0.004109 0.013653 0.000000 0.000000 0.000000
# 4 0.000000 0.000000 0.000000 0.036277 0.000000 0.000000
# 5 0.000000 0.000000 0.000000 0.000000 0.029092 0.000000
# 6 0.000000 0.000000 0.000000 0.000000 0.000000 0.043589
#
#
# Mechanical properties :
#
#
# Convention : Reuss Voigt Hill
#
# Bulk Modulus (GPa) = 36.57643 37.81290 37.19467
# Shear Modulus (GPa) = 25.32178 26.40783 25.86481
#
# Velocity S-wave (km/s) = 3.58165 3.65765 3.61985
# Velocity P-wave (km/s) = 5.96943 6.08228 6.02612
#
# Compressibility (1/GPa) = 0.02734001
#
# Stress axis : x y z
#
# Youngs Moduli (GPa) = 55.83842 45.86622 73.24587
#
# Poissons Ratio (x) = 0.24896 0.25452
# Poissons Ratio (y) = 0.30308 0.30098
# Poissons Ratio (z) = 0.19403 0.18847
#
# Static dielectric constant tensor:
#      x y z
#    x 3.462230 0.000000 0.000000 
#    y 0.000000 3.631060 0.000000 
#    z 0.000000 0.000000 3.663340 
# 
# 
# High freq. dielectric constant tensor:
#      x y z
#    x 1.760500 0.000000 0.000000 
#    y 0.000000 1.770150 0.000000 
#    z 0.000000 0.000000 1.772470 
# 
# From -- ./inp_files/28992.got.cif
#   From: 2010.03.12/outbox.cif.g09.slc.cpg/sg59_15_cif.got.tgz:28992.got - 2010.04.16 16:29:54.
