data_PCOD8245214
_publ_section_title
;
Structure prediction by ZEFSAII (Michael W. Deem and Ramdas Pophale) SiO2 
 PCOD8245214
Probable space group: P M M N
;
_chemical_formula_sum "Si O2"
_cell_formula_units_Z 48
_cell_length_a 8.838327
_cell_length_b 18.092919
_cell_length_c 16.474943
_cell_angle_alpha 90.000000
_cell_angle_beta 90.000000
_cell_angle_gamma 90.000000
_cell_volume 2634.526826
_symmetry_space_group_name_H-M "P M M N"
_symmetry_group_IT_number 59
_space_group.IT_coordinate_system_code '2'
_symmetry_cell_setting 'orthorhombic'
loop_
_space_group_symop_operation_xyz
x,y,z
1/2-x,1/2-y,z
1/2+x,-y,-z
-x,1/2+y,-z
-x,-y,-z
1/2+x,1/2+y,-z
1/2-x,y,z
x,1/2-y,z
loop_
_atom_site_type_symbol
_atom_site_label
_atom_site_fract_x
_atom_site_fract_y
_atom_site_fract_z
Si Si1 0.071460 0.080392 0.509423
Si Si2 0.426297 0.167528 0.825277
Si Si3 0.571913 0.401039 0.674453
Si Si4 0.925102 0.974716 0.081996
Si Si5 0.924206 0.165733 0.365522
Si Si6 0.923911 0.038641 0.249331
O O1 0.250000 0.071297 0.515261
O O2 0.008154 0.119708 0.590056
O O3 0.030298 0.132568 0.434490
O O4 0.000000 0.000000 0.500000
O O5 0.250000 0.154820 0.805888
O O6 0.457596 0.250000 0.858863
O O7 0.517433 0.156768 0.742121
O O8 0.481006 0.107486 0.891803
O O9 0.750000 0.394866 0.663083
O O10 0.528655 0.484552 0.698421
O O11 0.750000 0.973279 0.063348
O O12 0.965844 0.032516 0.154053
O O13 0.000000 0.000000 0.000000
O O14 0.750000 0.158837 0.393599
O O15 0.970591 0.250000 0.348619
O O16 0.950030 0.121727 0.280975
O O17 0.750000 0.013154 0.261751
#
# Coordination Sequence:
#
# PCOD8245214 Si02
#       6
#     8   8   8   8   8   8
#     4  12  23  36  55  79 109 147 189 231 274 322
#     4   9  19  37  58  79 108 145 183 227 279 330
#     4  11  21  33  54  82 108 140 180 224 272 326
#     4   9  18  33  55  83 109 140 179 220 268 327
#     4  10  21  37  57  80 107 142 185 232 277 321
#     4   9  18  35  56  76 105 143 182 222 267 325
#
# _framework density 18.219591999999999
#
# number of rings (size 3 to 8) (size 9 to 14) (size 15 to 20)
#    0.000    2.000    1.667    4.000    0.000    4.000 
#    0.000    0.833    0.000    1.000    0.000    0.000 
#    0.000    0.000    0.000    0.000    0.000    0.000 
#
# Total GULP energy -595191.530266 kJ/mol
# GULP energy per Si atom -12399.823547 kJ/mol
# Density = 1.817812 g / cm^3
# Si number density = 18.219592 Si / 1000 Ang^3
#
#
#
# Elastic Constant Matrix: (Units=GPa)
#
#
# Indices 1 2 3 4 5 6 
#
# 1 97.8860 39.8974 51.8728 0.0000 0.0000 0.0000
# 2 39.8974 135.3827 70.5581 0.0000 0.0000 0.0000
# 3 51.8728 70.5581 146.5899 0.0000 0.0000 0.0000
# 4 0.0000 0.0000 0.0000 22.6678 0.0000 0.0000
# 5 0.0000 0.0000 0.0000 0.0000 33.3177 0.0000
# 6 0.0000 0.0000 0.0000 0.0000 0.0000 22.8135
#
#
#
# Elastic Compliance Matrix: (Units=1/GPa)
#
#
# Indices 1 2 3 4 5 6 
#
# 1 0.012931 -0.001904 -0.003660 0.000000 0.000000 0.000000
# 2 -0.001904 0.010140 -0.004207 0.000000 0.000000 0.000000
# 3 -0.003660 -0.004207 0.010142 0.000000 0.000000 0.000000
# 4 0.000000 0.000000 0.000000 0.044115 0.000000 0.000000
# 5 0.000000 0.000000 0.000000 0.000000 0.030014 0.000000
# 6 0.000000 0.000000 0.000000 0.000000 0.000000 0.043834
#
#
# Mechanical properties :
#
#
# Convention : Reuss Voigt Hill
#
# Bulk Modulus (GPa) = 73.13982 78.27948 75.70965
# Shear Modulus (GPa) = 28.52668 30.26180 29.39424
#
# Velocity S-wave (km/s) = 3.96120 4.07989 4.02099
# Velocity P-wave (km/s) = 7.81998 8.07786 7.94997
#
# Compressibility (1/GPa) = 0.01367244
#
# Stress axis : x y z
#
# Youngs Moduli (GPa) = 77.33248 98.61838 98.60182
#
# Poissons Ratio (x) = 0.18772 0.36085
# Poissons Ratio (y) = 0.14720 0.41483
# Poissons Ratio (z) = 0.28301 0.41490
#
# Static dielectric constant tensor:
#      x y z
#    x 3.383080 0.000000 0.000000 
#    y 0.000000 3.450260 0.000000 
#    z 0.000000 0.000000 3.439780 
# 
# 
# High freq. dielectric constant tensor:
#      x y z
#    x 1.703370 0.000000 0.000000 
#    y 0.000000 1.698470 0.000000 
#    z 0.000000 0.000000 1.699040 
# 
# From -- ./inp_files/20319.got.cif
#   From: 2010.03.12/outbox.cif.g09.slc.cpg/sg59_11_cif.got.tgz:20319.got - 2010.04.16 16:29:54.
