data_PCOD8245748
_publ_section_title
;
Structure prediction by ZEFSAII (Michael W. Deem and Ramdas Pophale) SiO2 
 PCOD8245748
Probable space group: P M M N
;
_chemical_formula_sum "Si O2"
_cell_formula_units_Z 64
_cell_length_a 23.363375
_cell_length_b 9.098392
_cell_length_c 15.201707
_cell_angle_alpha 90.000000
_cell_angle_beta 90.000000
_cell_angle_gamma 90.000000
_cell_volume 3231.413847
_symmetry_space_group_name_H-M "P M M N"
_symmetry_group_IT_number 59
_space_group.IT_coordinate_system_code '2'
_symmetry_cell_setting 'orthorhombic'
loop_
_space_group_symop_operation_xyz
x,y,z
1/2-x,1/2-y,z
1/2+x,-y,-z
-x,1/2+y,-z
-x,-y,-z
1/2+x,1/2+y,-z
1/2-x,y,z
x,1/2-y,z
loop_
_atom_site_type_symbol
_atom_site_label
_atom_site_fract_x
_atom_site_fract_y
_atom_site_fract_z
Si Si1 0.983920 0.923497 0.865087
Si Si2 0.865252 0.576523 0.943129
Si Si3 0.683031 0.580419 0.458595
Si Si4 0.390998 0.922160 0.891038
Si Si5 0.684661 0.081788 0.781090
Si Si6 0.878426 0.080001 0.311285
Si Si7 0.490946 0.421402 0.330313
Si Si8 0.885206 0.423913 0.610805
O O1 0.988953 0.750000 0.856674
O O2 0.930142 0.974350 0.922112
O O3 0.043707 0.979879 0.905747
O O4 0.976271 0.983605 0.766533
O O5 0.857535 0.750000 0.946391
O O6 0.823700 0.514601 0.868455
O O7 0.851023 0.508441 0.039035
O O8 0.750000 0.557396 0.471954
O O9 0.665562 0.750000 0.467715
O O10 0.665864 0.522881 0.362111
O O11 0.650618 0.485252 0.530366
O O12 0.384989 0.750000 0.909864
O O13 0.372603 0.959568 0.791709
O O14 0.750000 0.064696 0.749958
O O15 0.669987 0.250000 0.804306
O O16 0.644939 0.024791 0.701597
O O17 0.862674 0.250000 0.326117
O O18 0.942190 0.049326 0.348900
O O19 0.476381 0.250000 0.340451
O O20 0.449793 0.512660 0.395399
O O21 0.887117 0.250000 0.602104
#
# Coordination Sequence:
#
# PCOD8245748 Si02
#       8
#     8   8   8   8   8   8   8   8
#     4   8  15  29  50  78 114 151 184 223 270 326
#     4  11  20  31  52  82 113 148 189 233 281 329
#     4  11  25  43  63  86 112 146 189 239 293 345
#     4   9  18  34  55  80 113 151 189 228 276 333
#     4  10  22  39  56  77 110 151 193 238 284 336
#     4   9  20  39  63  87 115 153 193 237 287 338
#     4   9  17  34  58  86 122 156 186 227 282 343
#     4  11  22  37  61  90 117 148 188 234 285 345
#
# _framework density 19.805572999999999
#
# number of rings (size 3 to 8) (size 9 to 14) (size 15 to 20)
#    0.000    2.250    1.250    3.375    0.000    3.750 
#    0.000    3.125    0.000    0.750    0.000    0.000 
#    0.000    0.000    0.000    0.000    0.000    0.000 
#
# Total GULP energy -793543.441892 kJ/mol
# GULP energy per Si atom -12399.116280 kJ/mol
# Density = 1.976049 g / cm^3
# Si number density = 19.805573 Si / 1000 Ang^3
#
#
#
# Elastic Constant Matrix: (Units=GPa)
#
#
# Indices 1 2 3 4 5 6 
#
# 1 20.7238 16.0993 14.5841 0.0000 0.0000 0.0000
# 2 16.0993 65.0824 31.8698 0.0000 0.0000 0.0000
# 3 14.5841 31.8698 75.6777 0.0000 0.0000 0.0000
# 4 0.0000 0.0000 0.0000 31.2079 0.0000 0.0000
# 5 0.0000 0.0000 0.0000 0.0000 26.0659 0.0000
# 6 0.0000 0.0000 0.0000 0.0000 0.0000 27.6413
#
#
#
# Elastic Compliance Matrix: (Units=1/GPa)
#
#
# Indices 1 2 3 4 5 6 
#
# 1 0.062524 -0.012051 -0.006974 0.000000 0.000000 0.000000
# 2 -0.012051 0.021680 -0.006807 0.000000 0.000000 0.000000
# 3 -0.006974 -0.006807 0.017425 0.000000 0.000000 0.000000
# 4 0.000000 0.000000 0.000000 0.032043 0.000000 0.000000
# 5 0.000000 0.000000 0.000000 0.000000 0.038364 0.000000
# 6 0.000000 0.000000 0.000000 0.000000 0.000000 0.036178
#
#
# Mechanical properties :
#
#
# Convention : Reuss Voigt Hill
#
# Bulk Modulus (GPa) = 20.01498 31.84336 25.92917
# Shear Modulus (GPa) = 18.08102 23.57841 20.82972
#
# Velocity S-wave (km/s) = 3.02474 3.45410 3.24653
# Velocity P-wave (km/s) = 4.72509 5.65867 5.21282
#
# Compressibility (1/GPa) = 0.04996259
#
# Stress axis : x y z
#
# Youngs Moduli (GPa) = 15.99394 46.12597 57.38984
#
# Poissons Ratio (x) = 0.55588 0.40024
# Poissons Ratio (y) = 0.19275 0.39068
# Poissons Ratio (z) = 0.11154 0.31400
#
# Static dielectric constant tensor:
#      x y z
#    x 3.546010 0.000000 0.000000 
#    y 0.000000 3.364320 0.000000 
#    z 0.000000 0.000000 3.566990 
# 
# 
# High freq. dielectric constant tensor:
#      x y z
#    x 1.760370 0.000000 0.000000 
#    y 0.000000 1.758710 0.000000 
#    z 0.000000 0.000000 1.776220 
# 
# From -- ./inp_files/24742.got.cif
#   From: 2010.03.12/outbox.cif.g09.slc.cpg/sg59_13_cif.got.tgz:24742.got - 2010.04.16 16:29:54.
