data_PCOD8245653
_publ_section_title
;
Structure prediction by ZEFSAII (Michael W. Deem and Ramdas Pophale) SiO2 
 PCOD8245653
Probable space group: P M M N
;
_chemical_formula_sum "Si O2"
_cell_formula_units_Z 40
_cell_length_a 23.009890
_cell_length_b 8.653115
_cell_length_c 10.143730
_cell_angle_alpha 90.000000
_cell_angle_beta 90.000000
_cell_angle_gamma 90.000000
_cell_volume 2019.689924
_symmetry_space_group_name_H-M "P M M N"
_symmetry_group_IT_number 59
_space_group.IT_coordinate_system_code '2'
_symmetry_cell_setting 'orthorhombic'
loop_
_space_group_symop_operation_xyz
x,y,z
1/2-x,1/2-y,z
1/2+x,-y,-z
-x,1/2+y,-z
-x,-y,-z
1/2+x,1/2+y,-z
1/2-x,y,z
x,1/2-y,z
loop_
_atom_site_type_symbol
_atom_site_label
_atom_site_fract_x
_atom_site_fract_y
_atom_site_fract_z
Si Si1 0.001720 0.431424 0.353264
Si Si2 0.313740 0.433261 0.501276
Si Si3 0.874625 0.931610 0.762642
Si Si4 0.112578 0.432715 0.743226
Si Si5 0.817425 0.430957 0.016553
O O1 0.997836 0.250000 0.371662
O O2 0.059956 0.477567 0.275441
O O3 0.000000 0.500000 0.500000
O O4 0.950870 0.491268 0.257475
O O5 0.250000 0.503244 0.525661
O O6 0.312807 0.250000 0.511899
O O7 0.334514 0.484320 0.358113
O O8 0.356148 0.498784 0.612786
O O9 0.868766 0.750000 0.793996
O O10 0.852472 0.029855 0.885034
O O11 0.104869 0.250000 0.740478
O O12 0.151072 0.477896 0.867398
O O13 0.750000 0.484251 0.006242
O O14 0.821546 0.250000 0.044684
#
# Coordination Sequence:
#
# PCOD8245653 Si02
#       5
#     8   8   8   8   8
#     4  11  22  39  63  93 127 161 204 259 311 366
#     4   9  17  32  57  88 117 149 200 255 298 353
#     4  10  21  39  63  89 119 161 208 251 302 363
#     4  11  22  39  63  91 122 164 209 252 308 367
#     4  11  25  43  61  89 128 164 202 253 312 369
#
# _framework density 19.805019000000001
#
# number of rings (size 3 to 8) (size 9 to 14) (size 15 to 20)
#    0.000    1.600    2.000    3.000    0.000    5.600 
#    0.000    0.000    0.000    3.600    0.000    0.000 
#    0.000    0.000    0.000    0.000    0.000    0.000 
#
# Total GULP energy -496055.044722 kJ/mol
# GULP energy per Si atom -12401.376118 kJ/mol
# Density = 1.975994 g / cm^3
# Si number density = 19.805019 Si / 1000 Ang^3
#
#
#
# Elastic Constant Matrix: (Units=GPa)
#
#
# Indices 1 2 3 4 5 6 
#
# 1 146.2785 36.1729 34.3929 0.0000 0.0000 0.0000
# 2 36.1729 41.0148 8.5108 0.0000 0.0000 0.0000
# 3 34.3929 8.5108 86.0351 0.0000 0.0000 0.0000
# 4 0.0000 0.0000 0.0000 27.2459 0.0000 0.0000
# 5 0.0000 0.0000 0.0000 0.0000 36.8773 0.0000
# 6 0.0000 0.0000 0.0000 0.0000 0.0000 27.3376
#
#
#
# Elastic Compliance Matrix: (Units=1/GPa)
#
#
# Indices 1 2 3 4 5 6 
#
# 1 0.009452 -0.007710 -0.003016 0.000000 0.000000 0.000000
# 2 -0.007710 0.031182 -0.000002 0.000000 0.000000 0.000000
# 3 -0.003016 -0.000002 0.012829 0.000000 0.000000 0.000000
# 4 0.000000 0.000000 0.000000 0.036703 0.000000 0.000000
# 5 0.000000 0.000000 0.000000 0.000000 0.027117 0.000000
# 6 0.000000 0.000000 0.000000 0.000000 0.000000 0.036580
#
#
# Mechanical properties :
#
#
# Convention : Reuss Voigt Hill
#
# Bulk Modulus (GPa) = 31.24406 47.94241 39.59324
# Shear Modulus (GPa) = 26.88344 31.24229 29.06286
#
# Velocity S-wave (km/s) = 3.68829 3.97608 3.83489
# Velocity P-wave (km/s) = 5.82650 6.73340 6.29630
#
# Compressibility (1/GPa) = 0.03200608
#
# Stress axis : x y z
#
# Youngs Moduli (GPa) = 105.79739 32.06968 77.94869
#
# Poissons Ratio (x) = 0.24727 0.23507
# Poissons Ratio (y) = 0.81574 0.00018
# Poissons Ratio (z) = 0.31906 0.00007
#
# Static dielectric constant tensor:
#      x y z
#    x 4.024910 0.000000 0.000000 
#    y 0.000000 3.462640 0.000000 
#    z 0.000000 0.000000 3.673300 
# 
# 
# High freq. dielectric constant tensor:
#      x y z
#    x 1.793570 0.000000 0.000000 
#    y 0.000000 1.756580 0.000000 
#    z 0.000000 0.000000 1.777580 
# 
# From -- ./inp_files/5646.got.cif
#   From: 2010.03.12/outbox.cif.g09.slc.cpg/sg59_3_cif.got.tgz:5646.got - 2010.04.16 16:29:54.
