data_PCOD8245464
_publ_section_title
;
Structure prediction by ZEFSAII (Michael W. Deem and Ramdas Pophale) SiO2 
 PCOD8245464
Probable space group: P M M N
;
_chemical_formula_sum "Si O2"
_cell_formula_units_Z 48
_cell_length_a 15.724298
_cell_length_b 8.951467
_cell_length_c 16.613586
_cell_angle_alpha 90.000000
_cell_angle_beta 90.000000
_cell_angle_gamma 90.000000
_cell_volume 2338.454180
_symmetry_space_group_name_H-M "P M M N"
_symmetry_group_IT_number 59
_space_group.IT_coordinate_system_code '2'
_symmetry_cell_setting 'orthorhombic'
loop_
_space_group_symop_operation_xyz
x,y,z
1/2-x,1/2-y,z
1/2+x,-y,-z
-x,1/2+y,-z
-x,-y,-z
1/2+x,1/2+y,-z
1/2-x,y,z
x,1/2-y,z
loop_
_atom_site_type_symbol
_atom_site_label
_atom_site_fract_x
_atom_site_fract_y
_atom_site_fract_z
Si Si1 0.589929 0.424142 0.002843
Si Si2 0.410202 0.425830 0.673197
Si Si3 0.652800 0.421470 0.830490
Si Si4 0.153464 0.083061 0.844705
Si Si5 0.250000 0.075980 0.418134
Si Si6 0.750000 0.427214 0.412389
Si Si7 0.418219 0.075701 0.317636
O O1 0.575793 0.250000 0.007545
O O2 0.641428 0.472276 0.081380
O O3 0.500000 0.500000 0.000000
O O4 0.641730 0.469832 0.923160
O O5 0.404433 0.250000 0.654965
O O6 0.403993 0.460875 0.768475
O O7 0.334725 0.506800 0.626794
O O8 0.501114 0.489678 0.643802
O O9 0.750000 0.445644 0.805996
O O10 0.624557 0.250000 0.817956
O O11 0.594669 0.524221 0.774389
O O12 0.250000 0.074375 0.814245
O O13 0.130126 0.250000 0.874058
O O14 0.250000 0.250000 0.443339
O O15 0.334011 0.036034 0.367588
O O16 0.250000 0.969579 0.494445
O O17 0.750000 0.250000 0.401661
O O18 0.438482 0.250000 0.318676
#
# Coordination Sequence:
#
# PCOD8245464 Si02
#       7
#     8   8   8   8   4   4   8
#     4  11  23  37  54  83 121 164 212 263 314 366
#     4  11  23  43  68  95 131 173 210 255 319 382
#     4  10  21  38  59  84 120 166 213 260 318 381
#     4  10  21  39  61  86 119 163 211 255 310 375
#     4  10  24  46  68  93 132 169 202 257 322 381
#     4  12  26  44  70 101 128 161 210 261 310 377
#     4  11  23  41  66  98 129 165 214 265 315 373
#
# _framework density 20.526381000000001
#
# number of rings (size 3 to 8) (size 9 to 14) (size 15 to 20)
#    0.000    1.333    1.667    3.750    0.000    9.667 
#    0.000    0.000    0.000    0.000    0.000    0.000 
#    0.000    0.000    0.000    0.000    0.000    0.000 
#
# Total GULP energy -595395.478271 kJ/mol
# GULP energy per Si atom -12404.072464 kJ/mol
# Density = 2.047966 g / cm^3
# Si number density = 20.526381 Si / 1000 Ang^3
#
#
#
# Elastic Constant Matrix: (Units=GPa)
#
#
# Indices 1 2 3 4 5 6 
#
# 1 140.9081 65.6040 50.4101 0.0000 0.0000 0.0000
# 2 65.6040 117.4373 65.2975 0.0000 0.0000 0.0000
# 3 50.4101 65.2975 101.6017 0.0000 0.0000 0.0000
# 4 0.0000 0.0000 0.0000 35.6549 0.0000 0.0000
# 5 0.0000 0.0000 0.0000 0.0000 12.7626 0.0000
# 6 0.0000 0.0000 0.0000 0.0000 0.0000 38.7829
#
#
#
# Elastic Compliance Matrix: (Units=1/GPa)
#
#
# Indices 1 2 3 4 5 6 
#
# 1 0.009873 -0.004344 -0.002107 0.000000 0.000000 0.000000
# 2 -0.004344 0.015161 -0.007589 0.000000 0.000000 0.000000
# 3 -0.002107 -0.007589 0.015765 0.000000 0.000000 0.000000
# 4 0.000000 0.000000 0.000000 0.028047 0.000000 0.000000
# 5 0.000000 0.000000 0.000000 0.000000 0.078354 0.000000
# 6 0.000000 0.000000 0.000000 0.000000 0.000000 0.025785
#
#
# Mechanical properties :
#
#
# Convention : Reuss Voigt Hill
#
# Bulk Modulus (GPa) = 78.61426 80.28559 79.44992
# Shear Modulus (GPa) = 24.35428 29.34912 26.85170
#
# Velocity S-wave (km/s) = 3.44828 3.78540 3.62077
# Velocity P-wave (km/s) = 7.36454 7.63570 7.50135
#
# Compressibility (1/GPa) = 0.01272034
#
# Stress axis : x y z
#
# Youngs Moduli (GPa) = 101.28670 65.95778 63.43311
#
# Poissons Ratio (x) = 0.28652 0.13364
# Poissons Ratio (y) = 0.43998 0.48137
# Poissons Ratio (z) = 0.21339 0.50052
#
# Static dielectric constant tensor:
#      x y z
#    x 4.034240 0.000000 0.000000 
#    y 0.000000 3.963040 0.000000 
#    z 0.000000 0.000000 3.733280 
# 
# 
# High freq. dielectric constant tensor:
#      x y z
#    x 1.819670 0.000000 0.000000 
#    y 0.000000 1.803370 0.000000 
#    z 0.000000 0.000000 1.799780 
# 
# From -- ./inp_files/27468.got.cif
#   From: 2010.03.12/outbox.cif.g09.slc.cpg/sg59_14_cif.got.tgz:27468.got - 2010.04.16 16:29:54.
