data_PCOD8245536
_publ_section_title
;
Structure prediction by ZEFSAII (Michael W. Deem and Ramdas Pophale) SiO2 
 PCOD8245536
Probable space group: P M M N
;
_chemical_formula_sum "Si O2"
_cell_formula_units_Z 48
_cell_length_a 8.543479
_cell_length_b 30.110801
_cell_length_c 9.400017
_cell_angle_alpha 90.000000
_cell_angle_beta 90.000000
_cell_angle_gamma 90.000000
_cell_volume 2418.163736
_symmetry_space_group_name_H-M "P M M N"
_symmetry_group_IT_number 59
_space_group.IT_coordinate_system_code '2'
_symmetry_cell_setting 'orthorhombic'
loop_
_space_group_symop_operation_xyz
x,y,z
1/2-x,1/2-y,z
1/2+x,-y,-z
-x,1/2+y,-z
-x,-y,-z
1/2+x,1/2+y,-z
1/2-x,y,z
x,1/2-y,z
loop_
_atom_site_type_symbol
_atom_site_label
_atom_site_fract_x
_atom_site_fract_y
_atom_site_fract_z
Si Si1 0.931755 0.048432 0.352456
Si Si2 0.570199 0.125156 0.851575
Si Si3 0.935842 0.798787 0.658118
Si Si4 0.066937 0.380084 0.156303
Si Si5 0.069048 0.053423 0.650879
Si Si6 0.570085 0.801405 0.337220
O O1 0.750000 0.053244 0.389513
O O2 0.976792 0.077125 0.215581
O O3 0.030001 0.065407 0.487733
O O4 0.973600 0.997576 0.316917
O O5 0.750000 0.124094 0.898559
O O6 0.535163 0.082727 0.754719
O O7 0.536887 0.170388 0.767619
O O8 0.462075 0.123857 0.989817
O O9 0.750000 0.796909 0.661704
O O10 0.001333 0.750000 0.702650
O O11 0.000036 0.835983 0.765677
O O12 0.989601 0.810130 0.497754
O O13 0.250000 0.385854 0.186045
O O14 0.250000 0.064157 0.678683
O O15 0.750000 0.816686 0.321003
O O16 0.551852 0.750000 0.296134
#
# Coordination Sequence:
#
# PCOD8245536 Si02
#       6
#     8   8   8   8   8   8
#     4  10  21  38  61  88 115 143 181 234 289 337
#     4  12  25  38  54  80 117 154 190 238 289 333
#     4   8  16  33  58  85 108 136 181 231 273 322
#     4  11  22  36  57  83 114 153 192 231 281 342
#     4  10  21  39  62  85 111 147 190 231 278 342
#     4   9  18  36  62  87 111 143 186 234 284 343
#
# _framework density 19.849774
#
# number of rings (size 3 to 8) (size 9 to 14) (size 15 to 20)
#    0.000    2.000    0.000    5.000    0.000    5.000 
#    0.000    2.500    0.000    3.500    0.000    0.000 
#    0.000    0.000    0.000    0.000    0.000    0.000 
#
# Total GULP energy -595390.802026 kJ/mol
# GULP energy per Si atom -12403.975042 kJ/mol
# Density = 1.980459 g / cm^3
# Si number density = 19.849774 Si / 1000 Ang^3
#
#
#
# Elastic Constant Matrix: (Units=GPa)
#
#
# Indices 1 2 3 4 5 6 
#
# 1 49.8386 25.0377 8.4908 0.0000 0.0000 0.0000
# 2 25.0377 111.6592 60.2397 0.0000 0.0000 0.0000
# 3 8.4908 60.2397 100.1818 0.0000 0.0000 0.0000
# 4 0.0000 0.0000 0.0000 12.0728 0.0000 0.0000
# 5 0.0000 0.0000 0.0000 0.0000 28.4602 0.0000
# 6 0.0000 0.0000 0.0000 0.0000 0.0000 27.0527
#
#
#
# Elastic Compliance Matrix: (Units=1/GPa)
#
#
# Indices 1 2 3 4 5 6 
#
# 1 0.022804 -0.006025 0.001690 0.000000 0.000000 0.000000
# 2 -0.006025 0.014848 -0.008418 0.000000 0.000000 0.000000
# 3 0.001690 -0.008418 0.014900 0.000000 0.000000 0.000000
# 4 0.000000 0.000000 0.000000 0.082831 0.000000 0.000000
# 5 0.000000 0.000000 0.000000 0.000000 0.035137 0.000000
# 6 0.000000 0.000000 0.000000 0.000000 0.000000 0.036965
#
#
# Mechanical properties :
#
#
# Convention : Reuss Voigt Hill
#
# Bulk Modulus (GPa) = 36.97279 49.91288 43.44284
# Shear Modulus (GPa) = 20.66072 24.71123 22.68598
#
# Velocity S-wave (km/s) = 3.22973 3.53216 3.38432
# Velocity P-wave (km/s) = 5.70744 6.46798 6.09958
#
# Compressibility (1/GPa) = 0.02704692
#
# Stress axis : x y z
#
# Youngs Moduli (GPa) = 43.85244 67.34855 67.11364
#
# Poissons Ratio (x) = 0.40579 -0.11344
# Poissons Ratio (y) = 0.26422 0.56493
# Poissons Ratio (z) = -0.07412 0.56691
#
# Static dielectric constant tensor:
#      x y z
#    x 3.373250 0.000000 0.000000 
#    y 0.000000 3.851290 0.000000 
#    z 0.000000 0.000000 3.482370 
# 
# 
# High freq. dielectric constant tensor:
#      x y z
#    x 1.759420 0.000000 0.000000 
#    y 0.000000 1.788000 0.000000 
#    z 0.000000 0.000000 1.768080 
# 
# From -- ./inp_files/6270.got.cif
#   From: 2010.03.12/outbox.cif.g09.slc.cpg/sg59_4_cif.got.tgz:6270.got - 2010.04.16 16:29:54.
