data_PCOD8245774
_publ_section_title
;
Structure prediction by ZEFSAII (Michael W. Deem and Ramdas Pophale) SiO2 
 PCOD8245774
Probable space group: P M M N
;
_chemical_formula_sum "Si O2"
_cell_formula_units_Z 48
_cell_length_a 8.813941
_cell_length_b 18.855957
_cell_length_c 14.979063
_cell_angle_alpha 90.000000
_cell_angle_beta 90.000000
_cell_angle_gamma 90.000000
_cell_volume 2489.449757
_symmetry_space_group_name_H-M "P M M N"
_symmetry_group_IT_number 59
_space_group.IT_coordinate_system_code '2'
_symmetry_cell_setting 'orthorhombic'
loop_
_space_group_symop_operation_xyz
x,y,z
1/2-x,1/2-y,z
1/2+x,-y,-z
-x,1/2+y,-z
-x,-y,-z
1/2+x,1/2+y,-z
1/2-x,y,z
x,1/2-y,z
loop_
_atom_site_type_symbol
_atom_site_label
_atom_site_fract_x
_atom_site_fract_y
_atom_site_fract_z
Si Si1 0.928432 0.067241 0.732276
Si Si2 0.924411 0.833230 0.126836
Si Si3 0.574913 0.931943 0.456121
Si Si4 0.426081 0.668520 0.943676
Si Si5 0.572188 0.081271 0.229124
Si Si6 0.075919 0.331633 0.382860
O O1 0.750000 0.063948 0.720663
O O2 0.972765 0.128266 0.800885
O O3 0.999595 0.086674 0.637458
O O4 0.984499 0.992257 0.768879
O O5 0.750000 0.855327 0.139795
O O6 0.949663 0.750000 0.139987
O O7 0.976397 0.856550 0.028256
O O8 0.750000 0.949717 0.439846
O O9 0.552469 0.864129 0.519201
O O10 0.500000 0.000000 0.500000
O O11 0.250000 0.657355 0.966576
O O12 0.460218 0.750000 0.919173
O O13 0.478324 0.621767 0.860150
O O14 0.750000 0.065873 0.230213
O O15 0.532212 0.128870 0.313953
O O16 0.250000 0.340807 0.351806
O O17 0.027394 0.250000 0.387529
#
# Coordination Sequence:
#
# PCOD8245774 Si02
#       6
#     8   8   8   8   8   8
#     4  12  25  40  61  88 120 160 201 248 302 357
#     4  10  22  41  64  89 117 153 199 250 301 357
#     4  11  22  39  62  87 119 159 199 245 299 355
#     4   9  19  37  60  87 120 157 196 243 300 357
#     4  11  22  37  60  89 122 159 200 247 297 355
#     4  10  22  39  60  88 121 156 196 244 299 359
#
# _framework density 19.281369000000002
#
# number of rings (size 3 to 8) (size 9 to 14) (size 15 to 20)
#    0.000    1.500    1.667    3.500    0.000    5.333 
#    0.000    3.333    0.000    0.000    0.000    0.000 
#    0.000    0.000    0.000    0.000    0.000    0.000 
#
# Total GULP energy -595488.500608 kJ/mol
# GULP energy per Si atom -12406.010429 kJ/mol
# Density = 1.923748 g / cm^3
# Si number density = 19.281369 Si / 1000 Ang^3
#
#
#
# Elastic Constant Matrix: (Units=GPa)
#
#
# Indices 1 2 3 4 5 6 
#
# 1 114.7857 41.9991 61.3448 0.0000 0.0000 0.0000
# 2 41.9991 80.2560 55.5738 0.0000 0.0000 0.0000
# 3 61.3448 55.5738 140.2800 0.0000 0.0000 0.0000
# 4 0.0000 0.0000 0.0000 35.2862 0.0000 0.0000
# 5 0.0000 0.0000 0.0000 0.0000 38.9924 0.0000
# 6 0.0000 0.0000 0.0000 0.0000 0.0000 25.8590
#
#
#
# Elastic Compliance Matrix: (Units=1/GPa)
#
#
# Indices 1 2 3 4 5 6 
#
# 1 0.012109 -0.003679 -0.003838 0.000000 0.000000 0.000000
# 2 -0.003679 0.018288 -0.005636 0.000000 0.000000 0.000000
# 3 -0.003838 -0.005636 0.011040 0.000000 0.000000 0.000000
# 4 0.000000 0.000000 0.000000 0.028340 0.000000 0.000000
# 5 0.000000 0.000000 0.000000 0.000000 0.025646 0.000000
# 6 0.000000 0.000000 0.000000 0.000000 0.000000 0.038671
#
#
# Mechanical properties :
#
#
# Convention : Reuss Voigt Hill
#
# Bulk Modulus (GPa) = 66.09117 72.57303 69.33210
# Shear Modulus (GPa) = 30.22162 31.78778 31.00470
#
# Velocity S-wave (km/s) = 3.96334 4.06473 4.01435
# Velocity P-wave (km/s) = 7.43611 7.72982 7.58438
#
# Compressibility (1/GPa) = 0.01513062
#
# Stress axis : x y z
#
# Youngs Moduli (GPa) = 82.58228 54.67935 90.58228
#
# Poissons Ratio (x) = 0.20119 0.34763
# Poissons Ratio (y) = 0.30386 0.51054
# Poissons Ratio (z) = 0.31693 0.30818
#
# Static dielectric constant tensor:
#      x y z
#    x 3.621140 0.000000 0.000000 
#    y 0.000000 3.570630 0.000000 
#    z 0.000000 0.000000 3.663990 
# 
# 
# High freq. dielectric constant tensor:
#      x y z
#    x 1.759560 0.000000 0.000000 
#    y 0.000000 1.753230 0.000000 
#    z 0.000000 0.000000 1.761560 
# 
# From -- ./inp_files/20384.got.cif
#   From: 2010.03.12/outbox.cif.g09.slc.cpg/sg59_11_cif.got.tgz:20384.got - 2010.04.16 16:29:54.
