data_PCOD8245489
_publ_section_title
;
Structure prediction by ZEFSAII (Michael W. Deem and Ramdas Pophale) SiO2 
 PCOD8245489
Probable space group: P M M N
;
_chemical_formula_sum "Si O2"
_cell_formula_units_Z 64
_cell_length_a 8.659451
_cell_length_b 24.030897
_cell_length_c 15.410967
_cell_angle_alpha 90.000000
_cell_angle_beta 90.000000
_cell_angle_gamma 90.000000
_cell_volume 3206.935547
_symmetry_space_group_name_H-M "P M M N"
_symmetry_group_IT_number 59
_space_group.IT_coordinate_system_code '2'
_symmetry_cell_setting 'orthorhombic'
loop_
_space_group_symop_operation_xyz
x,y,z
1/2-x,1/2-y,z
1/2+x,-y,-z
-x,1/2+y,-z
-x,-y,-z
1/2+x,1/2+y,-z
1/2-x,y,z
x,1/2-y,z
loop_
_atom_site_type_symbol
_atom_site_label
_atom_site_fract_x
_atom_site_fract_y
_atom_site_fract_z
Si Si1 0.571391 0.998650 0.336751
Si Si2 0.930917 0.493457 0.847882
Si Si3 0.432365 0.687774 0.250861
Si Si4 0.069830 0.380144 0.903567
Si Si5 0.930431 0.391440 0.595635
Si Si6 0.573890 0.120183 0.401054
Si Si7 0.568137 0.688070 0.748579
Si Si8 0.432227 0.113199 0.097299
O O1 0.750000 0.994556 0.308450
O O2 0.460501 0.994776 0.254305
O O3 0.528341 0.947930 0.399700
O O4 0.536025 0.055397 0.387264
O O5 0.750000 0.483599 0.864554
O O6 0.994890 0.550537 0.889785
O O7 0.026940 0.444242 0.891053
O O8 0.250000 0.690796 0.254943
O O9 0.502825 0.750000 0.256511
O O10 0.478656 0.660071 0.160340
O O11 0.493452 0.651534 0.331877
O O12 0.250000 0.372137 0.886090
O O13 0.024640 0.363701 0.002204
O O14 0.750000 0.405114 0.609475
O O15 0.958673 0.364585 0.501224
O O16 0.750000 0.133051 0.375788
O O17 0.466817 0.158492 0.342142
O O18 0.750000 0.691633 0.759922
O O19 0.496147 0.750000 0.749265
O O20 0.495334 0.653514 0.829263
O O21 0.250000 0.110440 0.110128
#
# Coordination Sequence:
#
# PCOD8245489 Si02
#       8
#     8   8   8   8   8   8   8   8
#     4  11  21  34  56  88 120 149 183 235 286 335
#     4  11  20  35  59  84 115 155 188 225 283 350
#     4  10  22  40  59  80 110 151 197 237 278 337
#     4  11  22  37  59  88 117 146 187 240 290 339
#     4  10  21  38  60  84 114 155 191 228 284 347
#     4  10  22  38  58  87 119 150 188 233 288 342
#     4  10  21  39  61  83 111 151 197 240 281 332
#     4   9  20  37  58  85 115 151 190 230 286 345
#
# _framework density 19.956747
#
# number of rings (size 3 to 8) (size 9 to 14) (size 15 to 20)
#    0.000    1.750    2.500    1.875    0.000    2.500 
#    0.000    5.625    0.000    0.000    0.000    0.000 
#    0.000    0.000    0.000    0.000    0.000    0.000 
#
# Total GULP energy -793749.891593 kJ/mol
# GULP energy per Si atom -12402.342056 kJ/mol
# Density = 1.991132 g / cm^3
# Si number density = 19.956747 Si / 1000 Ang^3
#
#
#
# Elastic Constant Matrix: (Units=GPa)
#
#
# Indices 1 2 3 4 5 6 
#
# 1 15.0093 13.7010 9.8097 0.0000 0.0000 0.0000
# 2 13.7010 144.3562 55.1829 0.0000 0.0000 0.0000
# 3 9.8097 55.1829 127.8554 0.0000 0.0000 0.0000
# 4 0.0000 0.0000 0.0000 8.4013 0.0000 0.0000
# 5 0.0000 0.0000 0.0000 0.0000 28.4973 0.0000
# 6 0.0000 0.0000 0.0000 0.0000 0.0000 13.8911
#
#
#
# Elastic Compliance Matrix: (Units=1/GPa)
#
#
# Indices 1 2 3 4 5 6 
#
# 1 0.074002 -0.005812 -0.003169 0.000000 0.000000 0.000000
# 2 -0.005812 0.008753 -0.003332 0.000000 0.000000 0.000000
# 3 -0.003169 -0.003332 0.009502 0.000000 0.000000 0.000000
# 4 0.000000 0.000000 0.000000 0.119029 0.000000 0.000000
# 5 0.000000 0.000000 0.000000 0.000000 0.035091 0.000000
# 6 0.000000 0.000000 0.000000 0.000000 0.000000 0.071988
#
#
# Mechanical properties :
#
#
# Convention : Reuss Voigt Hill
#
# Bulk Modulus (GPa) = 14.78616 49.40093 32.09354
# Shear Modulus (GPa) = 13.67856 24.05976 18.86916
#
# Velocity S-wave (km/s) = 2.62087 3.47594 3.07824
# Velocity P-wave (km/s) = 4.07233 6.39666 5.36195
#
# Compressibility (1/GPa) = 0.06763083
#
# Stress axis : x y z
#
# Youngs Moduli (GPa) = 13.51315 114.25244 105.23577
#
# Poissons Ratio (x) = 0.66405 0.33352
# Poissons Ratio (y) = 0.07854 0.35061
# Poissons Ratio (z) = 0.04283 0.38065
#
# Static dielectric constant tensor:
#      x y z
#    x 3.376440 0.000000 0.000000 
#    y 0.000000 3.857430 0.000000 
#    z 0.000000 0.000000 3.737860 
# 
# 
# High freq. dielectric constant tensor:
#      x y z
#    x 1.757240 0.000000 0.000000 
#    y 0.000000 1.778610 0.000000 
#    z 0.000000 0.000000 1.789610 
# 
# From -- ./inp_files/21438.got.cif
#   From: 2010.03.12/outbox.cif.g09.slc.cpg/sg59_11_cif.got.tgz:21438.got - 2010.04.16 16:29:54.
