data_PCOD8245861
_publ_section_title
;
Structure prediction by ZEFSAII (Michael W. Deem and Ramdas Pophale) SiO2 
 PCOD8245861
Probable space group: P M M N
;
_chemical_formula_sum "Si O2"
_cell_formula_units_Z 64
_cell_length_a 8.458480
_cell_length_b 30.673509
_cell_length_c 11.854850
_cell_angle_alpha 90.000000
_cell_angle_beta 90.000000
_cell_angle_gamma 90.000000
_cell_volume 3075.755798
_symmetry_space_group_name_H-M "P M M N"
_symmetry_group_IT_number 59
_space_group.IT_coordinate_system_code '2'
_symmetry_cell_setting 'orthorhombic'
loop_
_space_group_symop_operation_xyz
x,y,z
1/2-x,1/2-y,z
1/2+x,-y,-z
-x,1/2+y,-z
-x,-y,-z
1/2+x,1/2+y,-z
1/2-x,y,z
x,1/2-y,z
loop_
_atom_site_type_symbol
_atom_site_label
_atom_site_fract_x
_atom_site_fract_y
_atom_site_fract_z
Si Si1 0.068984 0.078860 0.228618
Si Si2 0.933666 0.200632 0.992713
Si Si3 0.433006 0.548308 0.997291
Si Si4 0.931204 0.170227 0.239454
Si Si5 0.566762 0.373175 0.604133
Si Si6 0.432981 0.377166 0.849054
Si Si7 0.429512 0.201867 0.458727
Si Si8 0.936850 0.455027 0.454501
O O1 0.250000 0.069392 0.194591
O O2 0.952522 0.066725 0.127624
O O3 0.046321 0.129410 0.255753
O O4 0.023693 0.050656 0.336214
O O5 0.750000 0.191167 0.969469
O O6 0.978469 0.250000 0.956564
O O7 0.972290 0.195902 0.125198
O O8 0.033869 0.166104 0.921880
O O9 0.250000 0.548460 0.031546
O O10 0.500000 0.500000 0.000000
O O11 0.526634 0.579155 0.083015
O O12 0.750000 0.154314 0.238839
O O13 0.960713 0.200183 0.347843
O O14 0.750000 0.364706 0.582794
O O15 0.535142 0.377216 0.736236
O O16 0.473711 0.332222 0.555121
O O17 0.512217 0.417069 0.540877
O O18 0.250000 0.377899 0.816541
O O19 0.250000 0.193519 0.420892
O O20 0.450616 0.250000 0.511686
O O21 0.750000 0.456057 0.436192
O O22 0.000000 0.500000 0.500000
#
# Coordination Sequence:
#
# PCOD8245861 Si02
#       8
#     8   8   8   8   8   8   8   8
#     4  12  24  41  68 100 135 173 213 264 324 381
#     4  10  22  41  66  95 129 171 218 267 321 383
#     4  12  26  46  70  98 133 172 218 267 320 383
#     4  11  21  38  65  97 132 172 215 264 321 384
#     4  11  25  45  68  92 126 171 219 268 322 386
#     4  12  26  44  67  95 130 172 216 268 327 385
#     4  11  24  41  64  96 132 170 215 268 326 386
#     4  11  25  44  68  98 131 171 216 266 323 383
#
# _framework density 20.807894999999998
#
# number of rings (size 3 to 8) (size 9 to 14) (size 15 to 20)
#    0.000    0.750    2.500    5.250    1.750    4.250 
#    0.000    0.000    0.000    0.000    0.000    0.000 
#    0.000    0.000    0.000    0.000    0.000    0.000 
#
# Total GULP energy -793987.860677 kJ/mol
# GULP energy per Si atom -12406.060323 kJ/mol
# Density = 2.076054 g / cm^3
# Si number density = 20.807895 Si / 1000 Ang^3
#
#
#
# Elastic Constant Matrix: (Units=GPa)
#
#
# Indices 1 2 3 4 5 6 
#
# 1 76.7248 30.4406 9.0380 0.0000 0.0000 0.0000
# 2 30.4406 134.0812 34.8687 0.0000 0.0000 0.0000
# 3 9.0380 34.8687 107.6226 0.0000 0.0000 0.0000
# 4 0.0000 0.0000 0.0000 -0.8617 0.0000 0.0000
# 5 0.0000 0.0000 0.0000 0.0000 32.7837 0.0000
# 6 0.0000 0.0000 0.0000 0.0000 0.0000 22.5833
#
#
#
# Elastic Compliance Matrix: (Units=1/GPa)
#
#
# Indices 1 2 3 4 5 6 
#
# 1 0.014326 -0.003210 -0.000163 0.000000 0.000000 0.000000
# 2 -0.003210 0.008864 -0.002602 0.000000 0.000000 0.000000
# 3 -0.000163 -0.002602 0.010148 0.000000 0.000000 0.000000
# 4 0.000000 0.000000 0.000000 -1.160504 0.000000 0.000000
# 5 0.000000 0.000000 0.000000 0.000000 0.030503 0.000000
# 6 0.000000 0.000000 0.000000 0.000000 0.000000 0.044280
#
#
# Mechanical properties :
#
#
# Convention : Reuss Voigt Hill
#
# Bulk Modulus (GPa) = 46.75544 51.90257 49.32901
# Shear Modulus (GPa) = -4.83886 27.17314 11.16714
#
# Velocity S-wave (km/s) = -1.52661 3.61765 2.31914
# Velocity P-wave (km/s) = 4.40584 6.51519 5.56144
#
# Compressibility (1/GPa) = 0.02138788
#
# Stress axis : x y z
#
# Youngs Moduli (GPa) = 69.80104 112.81996 98.53674
#
# Poissons Ratio (x) = 0.36217 0.01607
# Poissons Ratio (y) = 0.22407 0.25641
# Poissons Ratio (z) = 0.01138 0.29358
#
# Static dielectric constant tensor:
#      x y z
#    x 3.781270 0.000000 0.000000 
#    y 0.000000 3.838600 0.000000 
#    z 0.000000 0.000000 3.649210 
# 
# 
# High freq. dielectric constant tensor:
#      x y z
#    x 1.822580 0.000000 0.000000 
#    y 0.000000 1.826990 0.000000 
#    z 0.000000 0.000000 1.817620 
# 
# From -- ./inp_files/15012.got.cif
#   From: 2010.03.12/outbox.cif.g09.slc.cpg/sg59_8_cif.got.tgz:15012.got - 2010.04.16 16:29:54.
