data_PCOD8245966
_publ_section_title
;
Structure prediction by ZEFSAII (Michael W. Deem and Ramdas Pophale) SiO2 
 PCOD8245966
Probable space group: P M M N
;
_chemical_formula_sum "Si O2"
_cell_formula_units_Z 64
_cell_length_a 8.882766
_cell_length_b 28.771757
_cell_length_c 15.695250
_cell_angle_alpha 90.000000
_cell_angle_beta 90.000000
_cell_angle_gamma 90.000000
_cell_volume 4011.278751
_symmetry_space_group_name_H-M "P M M N"
_symmetry_group_IT_number 59
_space_group.IT_coordinate_system_code '2'
_symmetry_cell_setting 'orthorhombic'
loop_
_space_group_symop_operation_xyz
x,y,z
1/2-x,1/2-y,z
1/2+x,-y,-z
-x,1/2+y,-z
-x,-y,-z
1/2+x,1/2+y,-z
1/2-x,y,z
x,1/2-y,z
loop_
_atom_site_type_symbol
_atom_site_label
_atom_site_fract_x
_atom_site_fract_y
_atom_site_fract_z
Si Si1 0.925600 0.802687 0.900221
Si Si2 0.927074 0.444235 0.327660
Si Si3 0.072690 0.607673 0.843113
Si Si4 0.073883 0.450681 0.679858
Si Si5 0.071038 0.394798 0.837531
Si Si6 0.925622 0.549792 0.506159
Si Si7 0.071501 0.449709 0.004907
Si Si8 0.570991 0.800278 0.094510
O O1 0.750000 0.814999 0.891458
O O2 0.956745 0.750000 0.868653
O O3 0.021715 0.838574 0.843856
O O4 0.980253 0.808579 0.997435
O O5 0.750000 0.444872 0.341941
O O6 0.974379 0.412546 0.248545
O O7 0.990260 0.496717 0.313512
O O8 0.000726 0.422747 0.414243
O O9 0.250000 0.603266 0.858345
O O10 0.987500 0.578269 0.914218
O O11 0.250000 0.454247 0.698399
O O12 0.999879 0.418294 0.752939
O O13 0.043878 0.427085 0.586984
O O14 0.250000 0.393398 0.831755
O O15 0.008331 0.341917 0.846354
O O16 0.019752 0.423369 0.919862
O O17 0.750000 0.544480 0.523242
O O18 0.000000 0.500000 0.500000
O O19 0.250000 0.453918 0.011174
O O20 0.000000 0.500000 0.000000
O O21 0.750000 0.799702 0.095429
O O22 0.509947 0.750000 0.127023
#
# Coordination Sequence:
#
# PCOD8245966 Si02
#       8
#     8   8   8   8   8   8   8   8
#     4   9  17  31  49  68  91 119 154 195 236 278
#     4   9  18  31  44  61  88 121 154 191 230 273
#     4  11  21  32  47  68  94 123 158 198 237 277
#     4   8  14  25  41  61  85 112 146 184 226 268
#     4   9  15  25  42  62  86 118 149 178 219 269
#     4   9  16  27  44  65  87 114 148 189 233 276
#     4  11  21  32  45  63  91 129 163 189 223 270
#     4   8  13  23  41  64  86 110 145 184 218 260
#
# _framework density 15.955011000000001
#
# number of rings (size 3 to 8) (size 9 to 14) (size 15 to 20)
#    0.000    2.750    1.250    3.375    0.000    3.250 
#    0.000    0.000    0.000    2.250    0.000    0.875 
#    0.000    3.000    0.000    0.000    0.000    0.000 
#
# Total GULP energy -793082.569463 kJ/mol
# GULP energy per Si atom -12391.915148 kJ/mol
# Density = 1.591870 g / cm^3
# Si number density = 15.955011 Si / 1000 Ang^3
#
#
#
# Elastic Constant Matrix: (Units=GPa)
#
#
# Indices 1 2 3 4 5 6 
#
# 1 38.3967 23.9596 37.7073 0.0000 0.0000 0.0000
# 2 23.9596 113.5620 64.5351 0.0000 0.0000 0.0000
# 3 37.7073 64.5351 133.1247 0.0000 0.0000 0.0000
# 4 0.0000 0.0000 0.0000 12.0192 0.0000 0.0000
# 5 0.0000 0.0000 0.0000 0.0000 21.7732 0.0000
# 6 0.0000 0.0000 0.0000 0.0000 0.0000 20.0328
#
#
#
# Elastic Compliance Matrix: (Units=1/GPa)
#
#
# Indices 1 2 3 4 5 6 
#
# 1 0.036598 -0.002527 -0.009141 0.000000 0.000000 0.000000
# 2 -0.002527 0.012328 -0.005261 0.000000 0.000000 0.000000
# 3 -0.009141 -0.005261 0.012651 0.000000 0.000000 0.000000
# 4 0.000000 0.000000 0.000000 0.083200 0.000000 0.000000
# 5 0.000000 0.000000 0.000000 0.000000 0.045928 0.000000
# 6 0.000000 0.000000 0.000000 0.000000 0.000000 0.049918
#
#
# Mechanical properties :
#
#
# Convention : Reuss Voigt Hill
#
# Bulk Modulus (GPa) = 36.07521 59.72081 47.89801
# Shear Modulus (GPa) = 17.62290 21.35712 19.49001
#
# Velocity S-wave (km/s) = 3.32706 3.66264 3.49887
# Velocity P-wave (km/s) = 6.11709 7.44302 6.81239
#
# Compressibility (1/GPa) = 0.02771987
#
# Stress axis : x y z
#
# Youngs Moduli (GPa) = 27.32408 81.11310 79.04307
#
# Poissons Ratio (x) = 0.20494 0.72256
# Poissons Ratio (y) = 0.06904 0.41583
# Poissons Ratio (z) = 0.24978 0.42672
#
# Static dielectric constant tensor:
#      x y z
#    x 2.851540 0.000000 0.000000 
#    y 0.000000 3.155070 0.000000 
#    z 0.000000 0.000000 3.362740 
# 
# 
# High freq. dielectric constant tensor:
#      x y z
#    x 1.588070 0.000000 0.000000 
#    y 0.000000 1.596740 0.000000 
#    z 0.000000 0.000000 1.607330 
# 
# From -- ./inp_files/21806.got.cif
#   From: 2010.03.12/outbox.cif.g09.slc.cpg/sg59_11_cif.got.tgz:21806.got - 2010.04.16 16:29:54.
