data_PCOD8245080
_publ_section_title
;
Structure prediction by ZEFSAII (Michael W. Deem and Ramdas Pophale) SiO2 
 PCOD8245080
Probable space group: P M M N
;
_chemical_formula_sum "Si O2"
_cell_formula_units_Z 56
_cell_length_a 18.951604
_cell_length_b 15.584058
_cell_length_c 9.462607
_cell_angle_alpha 90.000000
_cell_angle_beta 90.000000
_cell_angle_gamma 90.000000
_cell_volume 2794.713754
_symmetry_space_group_name_H-M "P M M N"
_symmetry_group_IT_number 59
_space_group.IT_coordinate_system_code '2'
_symmetry_cell_setting 'orthorhombic'
loop_
_space_group_symop_operation_xyz
x,y,z
1/2-x,1/2-y,z
1/2+x,-y,-z
-x,1/2+y,-z
-x,-y,-z
1/2+x,1/2+y,-z
1/2-x,y,z
x,1/2-y,z
loop_
_atom_site_type_symbol
_atom_site_label
_atom_site_fract_x
_atom_site_fract_y
_atom_site_fract_z
Si Si1 0.167493 0.521136 0.468828
Si Si2 0.449722 0.154053 0.828411
Si Si3 0.457485 0.084659 0.527064
Si Si4 0.576505 0.153762 0.357353
Si Si5 0.331861 0.154772 0.034134
Si Si6 0.669266 0.024604 0.851740
Si Si7 0.925010 0.349717 0.031011
O O1 0.250000 0.505364 0.503596
O O2 0.124915 0.430630 0.486563
O O3 0.134717 0.592960 0.570781
O O4 0.156972 0.554375 0.308920
O O5 0.463313 0.250000 0.775259
O O6 0.464232 0.096301 0.694052
O O7 0.500283 0.130471 0.958779
O O8 0.370381 0.141717 0.884061
O O9 0.498967 0.154651 0.432878
O O10 0.500000 0.000000 0.500000
O O11 0.606503 0.250000 0.366380
O O12 0.567647 0.125272 0.194928
O O13 0.250000 0.151970 0.998834
O O14 0.352321 0.250000 0.097829
O O15 0.354022 0.076022 0.136405
O O16 0.750000 0.032291 0.895606
O O17 0.630980 0.088107 0.958589
O O18 0.902719 0.250000 0.011360
#
# Coordination Sequence:
#
# PCOD8245080 Si02
#       7
#     8   8   8   8   8   8   8
#     4  10  23  41  59  87 122 160 204 245 303 370
#     4  10  21  38  60  85 115 153 198 247 296 353
#     4  10  21  36  56  86 116 156 194 242 298 354
#     4  10  22  40  62  87 120 161 202 250 304 360
#     4   9  20  38  60  87 116 150 198 251 300 349
#     4  10  22  39  61  87 119 160 199 244 301 361
#     4  10  22  38  60  93 124 155 200 251 301 356
#
# _framework density 20.03783
#
# number of rings (size 3 to 8) (size 9 to 14) (size 15 to 20)
#    0.000    2.143    0.000    2.143    6.000    4.000 
#    0.000    3.571    0.000    2.143    0.000    0.000 
#    0.000    0.000    0.000    0.000    0.000    0.000 
#
# Total GULP energy -694031.951987 kJ/mol
# GULP energy per Si atom -12393.427714 kJ/mol
# Density = 1.999222 g / cm^3
# Si number density = 20.037830 Si / 1000 Ang^3
#
#
#
# Elastic Constant Matrix: (Units=GPa)
#
#
# Indices 1 2 3 4 5 6 
#
# 1 108.5105 46.7154 56.0869 0.0000 0.0000 0.0000
# 2 46.7154 90.8157 57.5325 0.0000 0.0000 0.0000
# 3 56.0869 57.5325 146.0846 0.0000 0.0000 0.0000
# 4 0.0000 0.0000 0.0000 34.0670 0.0000 0.0000
# 5 0.0000 0.0000 0.0000 0.0000 30.1643 0.0000
# 6 0.0000 0.0000 0.0000 0.0000 0.0000 30.1283
#
#
#
# Elastic Compliance Matrix: (Units=1/GPa)
#
#
# Indices 1 2 3 4 5 6 
#
# 1 0.012808 -0.004628 -0.003095 0.000000 0.000000 0.000000
# 2 -0.004628 0.016344 -0.004660 0.000000 0.000000 0.000000
# 3 -0.003095 -0.004660 0.009869 0.000000 0.000000 0.000000
# 4 0.000000 0.000000 0.000000 0.029354 0.000000 0.000000
# 5 0.000000 0.000000 0.000000 0.000000 0.033152 0.000000
# 6 0.000000 0.000000 0.000000 0.000000 0.000000 0.033191
#
#
# Mechanical properties :
#
#
# Convention : Reuss Voigt Hill
#
# Bulk Modulus (GPa) = 70.14861 74.00895 72.07878
# Shear Modulus (GPa) = 30.44434 31.21030 30.82732
#
# Velocity S-wave (km/s) = 3.90210 3.95089 3.92657
# Velocity P-wave (km/s) = 7.44218 7.60444 7.52374
#
# Compressibility (1/GPa) = 0.01425545
#
# Stress axis : x y z
#
# Youngs Moduli (GPa) = 78.07871 61.18484 101.32944
#
# Poissons Ratio (x) = 0.28314 0.31359
# Poissons Ratio (y) = 0.36132 0.47220
# Poissons Ratio (z) = 0.24164 0.28512
#
# Static dielectric constant tensor:
#      x y z
#    x 4.094230 0.000000 0.000000 
#    y 0.000000 3.968010 0.000000 
#    z 0.000000 0.000000 3.658770 
# 
# 
# High freq. dielectric constant tensor:
#      x y z
#    x 1.782920 0.000000 0.000000 
#    y 0.000000 1.783690 0.000000 
#    z 0.000000 0.000000 1.782220 
# 
# From -- ./inp_files/11414.got.cif
#   From: 2010.03.12/outbox.cif.g09.slc.cpg/sg59_6_cif.got.tgz:11414.got - 2010.04.16 16:29:54.
