data_PCOD8245722
_publ_section_title
;
Structure prediction by ZEFSAII (Michael W. Deem and Ramdas Pophale) SiO2 
 PCOD8245722
Probable space group: P M M N
;
_chemical_formula_sum "Si O2"
_cell_formula_units_Z 64
_cell_length_a 8.697249
_cell_length_b 27.569660
_cell_length_c 14.353604
_cell_angle_alpha 90.000000
_cell_angle_beta 90.000000
_cell_angle_gamma 90.000000
_cell_volume 3441.710007
_symmetry_space_group_name_H-M "P M M N"
_symmetry_group_IT_number 59
_space_group.IT_coordinate_system_code '2'
_symmetry_cell_setting 'orthorhombic'
loop_
_space_group_symop_operation_xyz
x,y,z
1/2-x,1/2-y,z
1/2+x,-y,-z
-x,1/2+y,-z
-x,-y,-z
1/2+x,1/2+y,-z
1/2-x,y,z
x,1/2-y,z
loop_
_atom_site_type_symbol
_atom_site_label
_atom_site_fract_x
_atom_site_fract_y
_atom_site_fract_z
Si Si1 0.430827 0.607805 0.136301
Si Si2 0.569560 0.552623 0.975642
Si Si3 0.428218 0.951746 0.461695
Si Si4 0.073270 0.061265 0.236051
Si Si5 0.066782 0.695403 0.264682
Si Si6 0.929147 0.536904 0.275311
Si Si7 0.078286 0.806727 0.473359
Si Si8 0.574192 0.621503 0.593250
O O1 0.250000 0.612308 0.124187
O O2 0.496031 0.656195 0.188740
O O3 0.473159 0.559314 0.191880
O O4 0.505384 0.598026 0.035547
O O5 0.750000 0.548272 0.991758
O O6 0.525930 0.568690 0.870856
O O7 0.500000 0.500000 0.000000
O O8 0.250000 0.959486 0.439595
O O9 0.517930 0.936166 0.368686
O O10 0.453384 0.910085 0.535753
O O11 0.500000 0.000000 0.500000
O O12 0.250000 0.044356 0.243045
O O13 0.047598 0.110832 0.296351
O O14 0.968045 0.019991 0.282629
O O15 0.250000 0.695139 0.264485
O O16 0.007959 0.750000 0.238958
O O17 0.012338 0.680666 0.369446
O O18 0.750000 0.544990 0.257027
O O19 0.250000 0.828838 0.483403
O O20 0.086010 0.750000 0.484814
O O21 0.968473 0.824674 0.558163
O O22 0.750000 0.609283 0.567293
#
# Coordination Sequence:
#
# PCOD8245722 Si02
#       8
#     8   8   8   8   8   8   8   8
#     4  11  21  34  56  83 112 144 179 230 286 335
#     4  11  22  37  56  78 107 144 190 233 278 335
#     4  12  23  35  50  73 108 146 182 221 269 327
#     4  10  22  38  54  72 104 146 186 231 276 325
#     4   8  16  33  57  83 109 141 180 219 269 334
#     4  12  23  34  52  77 107 145 186 227 269 328
#     4   9  18  35  59  85 113 147 186 228 277 335
#     4  11  22  36  55  79 108 145 188 231 279 331
#
# _framework density 18.595407000000002
#
# number of rings (size 3 to 8) (size 9 to 14) (size 15 to 20)
#    0.000    1.500    2.500    4.875    0.000    2.250 
#    0.000    0.625    0.000    3.750    0.000    3.500 
#    0.000    0.000    0.000    0.000    0.000    0.000 
#
# Total GULP energy -793290.435791 kJ/mol
# GULP energy per Si atom -12395.163059 kJ/mol
# Density = 1.855308 g / cm^3
# Si number density = 18.595407 Si / 1000 Ang^3
#
#
#
# Elastic Constant Matrix: (Units=GPa)
#
#
# Indices 1 2 3 4 5 6 
#
# 1 60.6550 28.3552 42.1765 0.0000 0.0000 0.0000
# 2 28.3552 78.2250 53.1040 0.0000 0.0000 0.0000
# 3 42.1765 53.1040 141.7365 0.0000 0.0000 0.0000
# 4 0.0000 0.0000 0.0000 32.5724 0.0000 0.0000
# 5 0.0000 0.0000 0.0000 0.0000 28.6113 0.0000
# 6 0.0000 0.0000 0.0000 0.0000 0.0000 23.7809
#
#
#
# Elastic Compliance Matrix: (Units=1/GPa)
#
#
# Indices 1 2 3 4 5 6 
#
# 1 0.022025 -0.004740 -0.004778 0.000000 0.000000 0.000000
# 2 -0.004740 0.018164 -0.005395 0.000000 0.000000 0.000000
# 3 -0.004778 -0.005395 0.010499 0.000000 0.000000 0.000000
# 4 0.000000 0.000000 0.000000 0.030701 0.000000 0.000000
# 5 0.000000 0.000000 0.000000 0.000000 0.034951 0.000000
# 6 0.000000 0.000000 0.000000 0.000000 0.000000 0.042051
#
#
# Mechanical properties :
#
#
# Convention : Reuss Voigt Hill
#
# Bulk Modulus (GPa) = 47.93518 58.65421 53.29469
# Shear Modulus (GPa) = 25.61862 27.45831 26.53847
#
# Velocity S-wave (km/s) = 3.71575 3.84685 3.78186
# Velocity P-wave (km/s) = 6.65154 7.16532 6.91320
#
# Compressibility (1/GPa) = 0.02086150
#
# Stress axis : x y z
#
# Youngs Moduli (GPa) = 45.40299 55.05295 95.25161
#
# Poissons Ratio (x) = 0.26095 0.45512
# Poissons Ratio (y) = 0.21521 0.51389
# Poissons Ratio (z) = 0.21694 0.29702
#
# Static dielectric constant tensor:
#      x y z
#    x 3.236930 0.000000 0.000000 
#    y 0.000000 2.697110 0.000000 
#    z 0.000000 0.000000 3.687430 
# 
# 
# High freq. dielectric constant tensor:
#      x y z
#    x 1.716140 0.000000 0.000000 
#    y 0.000000 1.701730 0.000000 
#    z 0.000000 0.000000 1.720460 
# 
# From -- ./inp_files/21893.got.cif
#   From: 2010.03.12/outbox.cif.g09.slc.cpg/sg59_11_cif.got.tgz:21893.got - 2010.04.16 16:29:54.
