data_PCOD8245507
_publ_section_title
;
Structure prediction by ZEFSAII (Michael W. Deem and Ramdas Pophale) SiO2 
 PCOD8245507
Probable space group: P M M N
;
_chemical_formula_sum "Si O2"
_cell_formula_units_Z 48
_cell_length_a 9.249307
_cell_length_b 28.551343
_cell_length_c 9.777494
_cell_angle_alpha 90.000000
_cell_angle_beta 90.000000
_cell_angle_gamma 90.000000
_cell_volume 2582.041952
_symmetry_space_group_name_H-M "P M M N"
_symmetry_group_IT_number 59
_space_group.IT_coordinate_system_code '2'
_symmetry_cell_setting 'orthorhombic'
loop_
_space_group_symop_operation_xyz
x,y,z
1/2-x,1/2-y,z
1/2+x,-y,-z
-x,1/2+y,-z
-x,-y,-z
1/2+x,1/2+y,-z
1/2-x,y,z
x,1/2-y,z
loop_
_atom_site_type_symbol
_atom_site_label
_atom_site_fract_x
_atom_site_fract_y
_atom_site_fract_z
Si Si1 0.085844 0.976382 0.620680
Si Si2 0.420775 0.625470 0.716439
Si Si3 0.915474 0.967794 0.103449
Si Si4 0.919181 0.695215 0.521341
Si Si5 0.584873 0.196637 0.746561
Si Si6 0.916788 0.378683 0.968284
O O1 0.250000 0.971640 0.572330
O O2 0.026929 0.924663 0.657726
O O3 0.070900 0.010480 0.747983
O O4 0.000000 0.000000 0.500000
O O5 0.250000 0.632586 0.696841
O O6 0.505277 0.666891 0.642268
O O7 0.464181 0.628355 0.875443
O O8 0.750000 0.964353 0.055862
O O9 0.985682 0.916898 0.106374
O O10 0.000000 0.000000 0.000000
O O11 0.750000 0.684195 0.521196
O O12 0.951630 0.750000 0.545146
O O13 0.983925 0.678400 0.376249
O O14 0.750000 0.190359 0.697520
O O15 0.548132 0.250000 0.782212
O O16 0.555474 0.169006 0.886212
O O17 0.750000 0.394928 0.961784
#
# Coordination Sequence:
#
# PCOD8245507 Si02
#       6
#     8   8   8   8   8   8
#     4  10  23  40  57  83 116 151 191 235 280 333
#     4  10  21  39  59  83 115 149 190 236 282 335
#     4  11  22  39  60  84 116 152 190 232 281 336
#     4  10  22  39  58  83 116 151 188 233 284 337
#     4   9  19  37  61  87 113 146 188 231 281 340
#     4  10  21  38  60  87 116 147 188 236 284 338
#
# _framework density 18.589939000000001
#
# number of rings (size 3 to 8) (size 9 to 14) (size 15 to 20)
#    0.000    2.000    1.667    1.000    2.333    5.000 
#    0.000    1.667    0.000    2.000    0.000    0.000 
#    0.000    0.000    0.000    0.000    0.000    0.000 
#
# Total GULP energy -595349.538555 kJ/mol
# GULP energy per Si atom -12403.115387 kJ/mol
# Density = 1.854763 g / cm^3
# Si number density = 18.589939 Si / 1000 Ang^3
#
#
#
# Elastic Constant Matrix: (Units=GPa)
#
#
# Indices 1 2 3 4 5 6 
#
# 1 87.0650 54.1254 56.6345 0.0000 0.0000 0.0000
# 2 54.1254 103.1165 61.7611 0.0000 0.0000 0.0000
# 3 56.6345 61.7611 99.8839 0.0000 0.0000 0.0000
# 4 0.0000 0.0000 0.0000 37.8894 0.0000 0.0000
# 5 0.0000 0.0000 0.0000 0.0000 30.2873 0.0000
# 6 0.0000 0.0000 0.0000 0.0000 0.0000 34.9068
#
#
#
# Elastic Compliance Matrix: (Units=1/GPa)
#
#
# Indices 1 2 3 4 5 6 
#
# 1 0.020271 -0.005965 -0.007805 0.000000 0.000000 0.000000
# 2 -0.005965 0.017157 -0.007226 0.000000 0.000000 0.000000
# 3 -0.007805 -0.007226 0.018906 0.000000 0.000000 0.000000
# 4 0.000000 0.000000 0.000000 0.026393 0.000000 0.000000
# 5 0.000000 0.000000 0.000000 0.000000 0.033017 0.000000
# 6 0.000000 0.000000 0.000000 0.000000 0.000000 0.028648
#
#
# Mechanical properties :
#
#
# Convention : Reuss Voigt Hill
#
# Bulk Modulus (GPa) = 69.73561 70.56746 70.15154
# Shear Modulus (GPa) = 26.15528 28.45300 27.30414
#
# Velocity S-wave (km/s) = 3.75501 3.91648 3.83660
# Velocity P-wave (km/s) = 7.50961 7.64815 7.57919
#
# Compressibility (1/GPa) = 0.01433988
#
# Stress axis : x y z
#
# Youngs Moduli (GPa) = 49.33046 58.28463 52.89440
#
# Poissons Ratio (x) = 0.34769 0.41286
# Poissons Ratio (y) = 0.29428 0.38224
# Poissons Ratio (z) = 0.38504 0.42119
#
# Static dielectric constant tensor:
#      x y z
#    x 3.547840 0.000000 0.000000 
#    y 0.000000 3.507940 0.000000 
#    z 0.000000 0.000000 3.341620 
# 
# 
# High freq. dielectric constant tensor:
#      x y z
#    x 1.720880 0.000000 0.000000 
#    y 0.000000 1.728950 0.000000 
#    z 0.000000 0.000000 1.726430 
# 
# From -- ./inp_files/6199.got.cif
#   From: 2010.03.12/outbox.cif.g09.slc.cpg/sg59_4_cif.got.tgz:6199.got - 2010.04.16 16:29:54.
