data_PCOD8245371
_publ_section_title
;
Structure prediction by ZEFSAII (Michael W. Deem and Ramdas Pophale) SiO2 
 PCOD8245371
Probable space group: P M M N
;
_chemical_formula_sum "Si O2"
_cell_formula_units_Z 64
_cell_length_a 30.422742
_cell_length_b 8.960677
_cell_length_c 12.096847
_cell_angle_alpha 90.000000
_cell_angle_beta 90.000000
_cell_angle_gamma 90.000000
_cell_volume 3297.701676
_symmetry_space_group_name_H-M "P M M N"
_symmetry_group_IT_number 59
_space_group.IT_coordinate_system_code '2'
_symmetry_cell_setting 'orthorhombic'
loop_
_space_group_symop_operation_xyz
x,y,z
1/2-x,1/2-y,z
1/2+x,-y,-z
-x,1/2+y,-z
-x,-y,-z
1/2+x,1/2+y,-z
1/2-x,y,z
x,1/2-y,z
loop_
_atom_site_type_symbol
_atom_site_label
_atom_site_fract_x
_atom_site_fract_y
_atom_site_fract_z
Si Si1 0.510078 0.080817 0.886507
Si Si2 0.628149 0.924224 0.633438
Si Si3 0.557032 0.075480 0.257307
Si Si4 0.698666 0.919294 0.260162
Si Si5 0.699443 0.425802 0.483949
Si Si6 0.637686 0.076611 0.098970
Si Si7 0.887044 0.417894 0.855576
Si Si8 0.047360 0.073669 0.519248
O O1 0.491856 0.250000 0.891699
O O2 0.561120 0.080707 0.864451
O O3 0.488758 0.990870 0.785560
O O4 0.500000 0.000000 0.000000
O O5 0.637016 0.750000 0.622331
O O6 0.581179 0.967142 0.579139
O O7 0.668841 0.007610 0.577970
O O8 0.628692 0.970018 0.761299
O O9 0.551204 0.250000 0.281160
O O10 0.593089 0.041488 0.164625
O O11 0.569607 0.992309 0.370358
O O12 0.750000 0.933814 0.240595
O O13 0.683961 0.750000 0.281254
O O14 0.683184 0.014371 0.365516
O O15 0.676821 0.980855 0.149414
O O16 0.750000 0.473674 0.506393
O O17 0.694035 0.250000 0.482742
O O18 0.649445 0.250000 0.108640
O O19 0.632836 0.027316 0.971989
O O20 0.870910 0.250000 0.828059
O O21 0.040804 0.250000 0.530779
O O22 0.000000 0.000000 0.500000
#
# Coordination Sequence:
#
# PCOD8245371 Si02
#       8
#     8   8   8   8   8   8   8   8
#     4  11  21  36  57  82 114 153 196 241 288 339
#     4  11  24  40  60  88 119 154 198 248 302 354
#     4  11  22  37  57  84 115 147 190 241 290 340
#     4  10  21  37  59  89 121 148 180 231 290 344
#     4  10  21  39  65  93 118 151 194 237 290 358
#     4  10  21  38  58  83 114 149 191 233 278 339
#     4  10  22  40  58  81 115 156 199 240 285 343
#     4  11  24  40  57  83 117 156 199 243 295 354
#
# _framework density 19.407456
#
# number of rings (size 3 to 8) (size 9 to 14) (size 15 to 20)
#    0.000    1.500    1.250    3.750    0.000   10.000 
#    0.000    0.625    0.000    0.750    0.000    0.000 
#    0.000    0.000    0.000    0.000    0.000    0.000 
#
# Total GULP energy -793896.970336 kJ/mol
# GULP energy per Si atom -12404.640161 kJ/mol
# Density = 1.936328 g / cm^3
# Si number density = 19.407456 Si / 1000 Ang^3
#
#
#
# Elastic Constant Matrix: (Units=GPa)
#
#
# Indices 1 2 3 4 5 6 
#
# 1 72.6567 50.9383 53.2835 0.0000 0.0000 0.0000
# 2 50.9383 101.3914 61.8552 0.0000 0.0000 0.0000
# 3 53.2835 61.8552 140.9724 0.0000 0.0000 0.0000
# 4 0.0000 0.0000 0.0000 38.2629 0.0000 0.0000
# 5 0.0000 0.0000 0.0000 0.0000 34.0881 0.0000
# 6 0.0000 0.0000 0.0000 0.0000 0.0000 32.0185
#
#
#
# Elastic Compliance Matrix: (Units=1/GPa)
#
#
# Indices 1 2 3 4 5 6 
#
# 1 0.023647 -0.008777 -0.005087 0.000000 0.000000 0.000000
# 2 -0.008777 0.016725 -0.004021 0.000000 0.000000 0.000000
# 3 -0.005087 -0.004021 0.010781 0.000000 0.000000 0.000000
# 4 0.000000 0.000000 0.000000 0.026135 0.000000 0.000000
# 5 0.000000 0.000000 0.000000 0.000000 0.029336 0.000000
# 6 0.000000 0.000000 0.000000 0.000000 0.000000 0.031232
#
#
# Mechanical properties :
#
#
# Convention : Reuss Voigt Hill
#
# Bulk Modulus (GPa) = 65.00571 71.90826 68.45698
# Shear Modulus (GPa) = 27.97144 30.80347 29.38746
#
# Velocity S-wave (km/s) = 3.80053 3.98829 3.89554
# Velocity P-wave (km/s) = 7.26819 7.63812 7.45545
#
# Compressibility (1/GPa) = 0.01538326
#
# Stress axis : x y z
#
# Youngs Moduli (GPa) = 42.28844 59.78922 92.75808
#
# Poissons Ratio (x) = 0.52476 0.47185
# Poissons Ratio (y) = 0.37116 0.37301
# Poissons Ratio (z) = 0.21512 0.24043
#
# Static dielectric constant tensor:
#      x y z
#    x 3.486900 0.000000 0.000000 
#    y 0.000000 3.725980 0.000000 
#    z 0.000000 0.000000 3.245590 
# 
# 
# High freq. dielectric constant tensor:
#      x y z
#    x 1.749360 0.000000 0.000000 
#    y 0.000000 1.766320 0.000000 
#    z 0.000000 0.000000 1.761800 
# 
# From -- ./inp_files/19341.got.cif
#   From: 2010.03.12/outbox.cif.g09.slc.cpg/sg59_10_cif.got.tgz:19341.got - 2010.04.16 16:29:54.
