data_PCOD8245598
_publ_section_title
;
Structure prediction by ZEFSAII (Michael W. Deem and Ramdas Pophale) SiO2 
 PCOD8245598
Probable space group: P M M N
;
_chemical_formula_sum "Si O2"
_cell_formula_units_Z 56
_cell_length_a 15.805468
_cell_length_b 9.067134
_cell_length_c 19.549139
_cell_angle_alpha 90.000000
_cell_angle_beta 90.000000
_cell_angle_gamma 90.000000
_cell_volume 2801.592902
_symmetry_space_group_name_H-M "P M M N"
_symmetry_group_IT_number 59
_space_group.IT_coordinate_system_code '2'
_symmetry_cell_setting 'orthorhombic'
loop_
_space_group_symop_operation_xyz
x,y,z
1/2-x,1/2-y,z
1/2+x,-y,-z
-x,1/2+y,-z
-x,-y,-z
1/2+x,1/2+y,-z
1/2-x,y,z
x,1/2-y,z
loop_
_atom_site_type_symbol
_atom_site_label
_atom_site_fract_x
_atom_site_fract_y
_atom_site_fract_z
Si Si1 0.392616 0.419627 0.792609
Si Si2 0.653499 0.422333 0.925763
Si Si3 0.750000 0.424548 0.446727
Si Si4 0.585251 0.419138 0.781755
Si Si5 0.915630 0.425786 0.527880
Si Si6 0.652213 0.580576 0.655544
Si Si7 0.849777 0.582069 0.058793
Si Si8 0.750000 0.424992 0.291367
O O1 0.361068 0.250000 0.790965
O O2 0.486801 0.435065 0.763831
O O3 0.389624 0.478487 0.870661
O O4 0.333898 0.517138 0.744764
O O5 0.750000 0.474279 0.915302
O O6 0.646940 0.250000 0.937325
O O7 0.601181 0.472407 0.859317
O O8 0.613540 0.495334 0.993534
O O9 0.750000 0.250000 0.449261
O O10 0.835060 0.482047 0.483846
O O11 0.750000 0.483200 0.369224
O O12 0.615894 0.250000 0.773148
O O13 0.638789 0.523028 0.732227
O O14 0.925326 0.250000 0.526413
O O15 0.903238 0.479691 0.605384
O O16 0.000000 0.500000 0.500000
O O17 0.750000 0.564504 0.635856
O O18 0.622509 0.750000 0.650271
O O19 0.750000 0.560183 0.064693
O O20 0.876631 0.750000 0.048016
O O21 0.750000 0.250000 0.288411
#
# Coordination Sequence:
#
# PCOD8245598 Si02
#       8
#     8   8   4   8   8   8   8   4
#     4  10  21  39  58  83 116 154 198 242 293 357
#     4   9  18  33  53  80 113 149 194 243 290 349
#     4   9  22  43  65  91 126 163 198 245 303 360
#     4  10  22  38  59  86 118 157 198 245 302 358
#     4  11  23  43  68  96 129 166 206 252 307 369
#     4  11  24  42  64  91 124 162 205 252 298 357
#     4   9  17  32  54  76 108 153 195 238 292 349
#     4  11  23  39  61  87 116 153 192 237 295 350
#
# _framework density 19.988627999999999
#
# number of rings (size 3 to 8) (size 9 to 14) (size 15 to 20)
#    0.000    2.000    1.429    1.500    2.000    3.714 
#    0.000    3.571    0.000    0.000    0.000    0.000 
#    0.000    0.000    0.000    0.000    0.000    0.000 
#
# Total GULP energy -694556.118165 kJ/mol
# GULP energy per Si atom -12402.787824 kJ/mol
# Density = 1.994313 g / cm^3
# Si number density = 19.988628 Si / 1000 Ang^3
#
#
#
# Elastic Constant Matrix: (Units=GPa)
#
#
# Indices 1 2 3 4 5 6 
#
# 1 82.2964 35.3580 37.9529 0.0000 0.0000 0.0000
# 2 35.3580 76.4234 51.0903 0.0000 0.0000 0.0000
# 3 37.9529 51.0903 129.9775 0.0000 0.0000 0.0000
# 4 0.0000 0.0000 0.0000 35.0303 0.0000 0.0000
# 5 0.0000 0.0000 0.0000 0.0000 28.3939 0.0000
# 6 0.0000 0.0000 0.0000 0.0000 0.0000 26.6518
#
#
#
# Elastic Compliance Matrix: (Units=1/GPa)
#
#
# Indices 1 2 3 4 5 6 
#
# 1 0.015674 -0.005686 -0.002342 0.000000 0.000000 0.000000
# 2 -0.005686 0.019812 -0.006127 0.000000 0.000000 0.000000
# 3 -0.002342 -0.006127 0.010786 0.000000 0.000000 0.000000
# 4 0.000000 0.000000 0.000000 0.028547 0.000000 0.000000
# 5 0.000000 0.000000 0.000000 0.000000 0.035219 0.000000
# 6 0.000000 0.000000 0.000000 0.000000 0.000000 0.037521
#
#
# Mechanical properties :
#
#
# Convention : Reuss Voigt Hill
#
# Bulk Modulus (GPa) = 55.67416 59.72220 57.69818
# Shear Modulus (GPa) = 27.49432 28.96828 28.23130
#
# Velocity S-wave (km/s) = 3.71279 3.81102 3.76223
# Velocity P-wave (km/s) = 6.80391 7.02197 6.91380
#
# Compressibility (1/GPa) = 0.01796165
#
# Stress axis : x y z
#
# Youngs Moduli (GPa) = 63.79902 50.47477 92.71485
#
# Poissons Ratio (x) = 0.28702 0.21711
# Poissons Ratio (y) = 0.36279 0.56807
# Poissons Ratio (z) = 0.14940 0.30926
#
# Static dielectric constant tensor:
#      x y z
#    x 3.572110 0.000000 0.000000 
#    y 0.000000 3.535980 0.000000 
#    z 0.000000 0.000000 3.788790 
# 
# 
# High freq. dielectric constant tensor:
#      x y z
#    x 1.779100 0.000000 0.000000 
#    y 0.000000 1.765290 0.000000 
#    z 0.000000 0.000000 1.791730 
# 
# From -- ./inp_files/30450.got.cif
#   From: 2010.03.12/outbox.cif.g09.slc.cpg/sg59_16_cif.got.tgz:30450.got - 2010.04.16 16:29:54.
