data_PCOD8245056
_publ_section_title
;
Structure prediction by ZEFSAII (Michael W. Deem and Ramdas Pophale) SiO2 
 PCOD8245056
Probable space group: P M M N
;
_chemical_formula_sum "Si O2"
_cell_formula_units_Z 64
_cell_length_a 18.297205
_cell_length_b 8.805708
_cell_length_c 21.301048
_cell_angle_alpha 90.000000
_cell_angle_beta 90.000000
_cell_angle_gamma 90.000000
_cell_volume 3432.021540
_symmetry_space_group_name_H-M "P M M N"
_symmetry_group_IT_number 59
_space_group.IT_coordinate_system_code '2'
_symmetry_cell_setting 'orthorhombic'
loop_
_space_group_symop_operation_xyz
x,y,z
1/2-x,1/2-y,z
1/2+x,-y,-z
-x,1/2+y,-z
-x,-y,-z
1/2+x,1/2+y,-z
1/2-x,y,z
x,1/2-y,z
loop_
_atom_site_type_symbol
_atom_site_label
_atom_site_fract_x
_atom_site_fract_y
_atom_site_fract_z
Si Si1 0.333221 0.575746 0.266328
Si Si2 0.334414 0.071210 0.619868
Si Si3 0.471822 0.571229 0.936662
Si Si4 0.335187 0.423511 0.395917
Si Si5 0.330176 0.569298 0.871758
Si Si6 0.103499 0.574027 0.742579
Si Si7 0.079340 0.571645 0.504825
Si Si8 0.953125 0.924726 0.808790
O O1 0.250000 0.548544 0.244797
O O2 0.346184 0.750000 0.285178
O O3 0.353454 0.470302 0.325070
O O4 0.384829 0.529594 0.208812
O O5 0.250000 0.017498 0.621924
O O6 0.339645 0.250000 0.609713
O O7 0.375337 0.027724 0.683669
O O8 0.375310 0.991851 0.562926
O O9 0.470205 0.750000 0.945087
O O10 0.390041 0.508778 0.921475
O O11 0.523392 0.525454 0.878621
O O12 0.500000 0.500000 0.000000
O O13 0.250000 0.443120 0.410434
O O14 0.360373 0.250000 0.406230
O O15 0.378248 0.534952 0.441227
O O16 0.250000 0.508692 0.891185
O O17 0.333786 0.750000 0.871327
O O18 0.348485 0.515396 0.801294
O O19 0.119629 0.750000 0.727213
O O20 0.018550 0.550005 0.759282
O O21 0.070982 0.750000 0.513080
O O22 0.000000 0.500000 0.500000
O O23 0.928608 0.750000 0.808365
#
# Coordination Sequence:
#
# PCOD8245056 Si02
#       8
#     8   8   8   8   8   8   8   8
#     4  10  21  36  56  83 111 142 185 233 279 329
#     4  11  24  40  57  81 115 149 180 220 274 332
#     4   9  18  33  53  78 108 144 182 221 268 323
#     4  10  21  39  62  84 109 143 181 226 281 336
#     4   8  14  28  52  79 105 136 178 223 265 314
#     4   9  18  33  56  83 108 139 180 224 269 326
#     4  12  26  42  60  81 108 144 186 232 278 328
#     4   9  19  35  55  80 111 145 182 225 275 330
#
# _framework density 18.647901000000001
#
# number of rings (size 3 to 8) (size 9 to 14) (size 15 to 20)
#    0.000    2.250    0.000    4.500    1.750    5.500 
#    0.000    2.500    0.000    3.375    0.000    0.000 
#    0.000    0.000    0.000    0.000    0.000    0.000 
#
# Total GULP energy -793638.294642 kJ/mol
# GULP energy per Si atom -12400.598354 kJ/mol
# Density = 1.860546 g / cm^3
# Si number density = 18.647901 Si / 1000 Ang^3
#
#
#
# Elastic Constant Matrix: (Units=GPa)
#
#
# Indices 1 2 3 4 5 6 
#
# 1 117.5818 46.6489 75.7001 0.0000 0.0000 0.0000
# 2 46.6489 74.2132 40.7388 0.0000 0.0000 0.0000
# 3 75.7001 40.7388 111.1547 0.0000 0.0000 0.0000
# 4 0.0000 0.0000 0.0000 35.0823 0.0000 0.0000
# 5 0.0000 0.0000 0.0000 0.0000 26.8952 0.0000
# 6 0.0000 0.0000 0.0000 0.0000 0.0000 29.2945
#
#
#
# Elastic Compliance Matrix: (Units=1/GPa)
#
#
# Indices 1 2 3 4 5 6 
#
# 1 0.016667 -0.005315 -0.009403 0.000000 0.000000 0.000000
# 2 -0.005315 0.018563 -0.003184 0.000000 0.000000 0.000000
# 3 -0.009403 -0.003184 0.016567 0.000000 0.000000 0.000000
# 4 0.000000 0.000000 0.000000 0.028504 0.000000 0.000000
# 5 0.000000 0.000000 0.000000 0.000000 0.037181 0.000000
# 6 0.000000 0.000000 0.000000 0.000000 0.000000 0.034136
#
#
# Mechanical properties :
#
#
# Convention : Reuss Voigt Hill
#
# Bulk Modulus (GPa) = 62.52337 69.90279 66.21308
# Shear Modulus (GPa) = 25.93985 27.57854 26.75919
#
# Velocity S-wave (km/s) = 3.73370 3.84983 3.79221
# Velocity P-wave (km/s) = 7.22416 7.57156 7.39990
#
# Compressibility (1/GPa) = 0.01599402
#
# Stress axis : x y z
#
# Youngs Moduli (GPa) = 59.99917 53.86969 60.36089
#
# Poissons Ratio (x) = 0.28631 0.56756
# Poissons Ratio (y) = 0.31889 0.19219
# Poissons Ratio (z) = 0.56416 0.17152
#
# Static dielectric constant tensor:
#      x y z
#    x 3.879490 0.000000 0.000000 
#    y 0.000000 2.725310 0.000000 
#    z 0.000000 0.000000 3.746910 
# 
# 
# High freq. dielectric constant tensor:
#      x y z
#    x 1.733340 0.000000 0.000000 
#    y 0.000000 1.713800 0.000000 
#    z 0.000000 0.000000 1.718020 
# 
# From -- ./inp_files/30696.got.cif
#   From: 2010.03.12/outbox.cif.g09.slc.cpg/sg59_16_cif.got.tgz:30696.got - 2010.04.16 16:29:54.
