data_PCOD8245465
_publ_section_title
;
Structure prediction by ZEFSAII (Michael W. Deem and Ramdas Pophale) SiO2 
 PCOD8245465
Probable space group: P M M N
;
_chemical_formula_sum "Si O2"
_cell_formula_units_Z 56
_cell_length_a 8.751581
_cell_length_b 23.107361
_cell_length_c 13.728670
_cell_angle_alpha 90.000000
_cell_angle_beta 90.000000
_cell_angle_gamma 90.000000
_cell_volume 2776.293216
_symmetry_space_group_name_H-M "P M M N"
_symmetry_group_IT_number 59
_space_group.IT_coordinate_system_code '2'
_symmetry_cell_setting 'orthorhombic'
loop_
_space_group_symop_operation_xyz
x,y,z
1/2-x,1/2-y,z
1/2+x,-y,-z
-x,1/2+y,-z
-x,-y,-z
1/2+x,1/2+y,-z
1/2-x,y,z
x,1/2-y,z
loop_
_atom_site_type_symbol
_atom_site_label
_atom_site_fract_x
_atom_site_fract_y
_atom_site_fract_z
Si Si1 0.068523 0.814534 0.070974
Si Si2 0.067928 0.250000 0.274842
Si Si3 0.077383 0.544117 0.572282
Si Si4 0.578994 0.357883 0.578192
Si Si5 0.427034 0.250000 0.494021
Si Si6 0.430423 0.038933 0.222677
Si Si7 0.431352 0.909242 0.220592
Si Si8 0.931020 0.348697 0.143566
O O1 0.250000 0.817107 0.074821
O O2 0.011543 0.750000 0.100226
O O3 0.999392 0.862200 0.145196
O O4 0.012305 0.828426 0.962300
O O5 0.250000 0.250000 0.271079
O O6 0.000891 0.250000 0.385237
O O7 0.007786 0.307973 0.223704
O O8 0.250000 0.524457 0.599536
O O9 0.081593 0.605441 0.519830
O O10 0.000000 0.500000 0.500000
O O11 0.972165 0.550957 0.665921
O O12 0.750000 0.336014 0.603065
O O13 0.471629 0.304145 0.559358
O O14 0.513130 0.394060 0.670066
O O15 0.250000 0.250000 0.477204
O O16 0.250000 0.046475 0.209222
O O17 0.517863 0.084844 0.155458
O O18 0.486409 0.974150 0.193454
O O19 0.250000 0.908562 0.216821
O O20 0.750000 0.343776 0.154889
#
# Coordination Sequence:
#
# PCOD8245465 Si02
#       8
#     8   4   8   8   4   8   8   8
#     4   9  18  35  61  89 114 148 194 245 298 351
#     4  11  23  41  62  85 116 158 197 241 304 363
#     4  11  21  36  59  87 119 159 201 242 291 350
#     4  10  21  38  59  85 114 154 199 237 282 343
#     4  11  25  39  54  83 118 152 191 239 294 343
#     4  11  22  38  58  88 124 160 199 244 297 355
#     4   9  19  36  58  86 119 155 199 242 286 352
#     4  11  22  38  62  92 118 149 196 249 301 358
#
# _framework density 20.170781000000002
#
# number of rings (size 3 to 8) (size 9 to 14) (size 15 to 20)
#    0.000    1.714    2.143    2.571    1.000    5.143 
#    0.000    0.000    0.000    5.143    0.000    0.000 
#    0.000    0.000    0.000    0.000    0.000    0.000 
#
# Total GULP energy -694410.323250 kJ/mol
# GULP energy per Si atom -12400.184344 kJ/mol
# Density = 2.012487 g / cm^3
# Si number density = 20.170781 Si / 1000 Ang^3
#
#
#
# Elastic Constant Matrix: (Units=GPa)
#
#
# Indices 1 2 3 4 5 6 
#
# 1 48.3815 24.6005 10.4706 0.0000 0.0000 0.0000
# 2 24.6005 157.7058 51.8517 0.0000 0.0000 0.0000
# 3 10.4706 51.8517 75.5639 0.0000 0.0000 0.0000
# 4 0.0000 0.0000 0.0000 40.6749 0.0000 0.0000
# 5 0.0000 0.0000 0.0000 0.0000 20.1022 0.0000
# 6 0.0000 0.0000 0.0000 0.0000 0.0000 31.2715
#
#
#
# Elastic Compliance Matrix: (Units=1/GPa)
#
#
# Indices 1 2 3 4 5 6 
#
# 1 0.022499 -0.003208 -0.000916 0.000000 0.000000 0.000000
# 2 -0.003208 0.008646 -0.005488 0.000000 0.000000 0.000000
# 3 -0.000916 -0.005488 0.017127 0.000000 0.000000 0.000000
# 4 0.000000 0.000000 0.000000 0.024585 0.000000 0.000000
# 5 0.000000 0.000000 0.000000 0.000000 0.049746 0.000000
# 6 0.000000 0.000000 0.000000 0.000000 0.000000 0.031978
#
#
# Mechanical properties :
#
#
# Convention : Reuss Voigt Hill
#
# Bulk Modulus (GPa) = 34.42797 50.61075 42.51936
# Shear Modulus (GPa) = 27.24984 31.39161 29.32073
#
# Velocity S-wave (km/s) = 3.67952 3.94927 3.81678
# Velocity P-wave (km/s) = 5.92935 6.77799 6.36782
#
# Compressibility (1/GPa) = 0.02904615
#
# Stress axis : x y z
#
# Youngs Moduli (GPa) = 44.44712 115.66259 58.38833
#
# Poissons Ratio (x) = 0.37109 0.05348
# Poissons Ratio (y) = 0.14260 0.32044
# Poissons Ratio (z) = 0.04071 0.63478
#
# Static dielectric constant tensor:
#      x y z
#    x 3.441350 0.000000 0.000000 
#    y 0.000000 3.958190 0.000000 
#    z 0.000000 0.000000 3.630150 
# 
# 
# High freq. dielectric constant tensor:
#      x y z
#    x 1.760270 0.000000 0.000000 
#    y 0.000000 1.803040 0.000000 
#    z 0.000000 0.000000 1.787900 
# 
# From -- ./inp_files/21156.got.cif
#   From: 2010.03.12/outbox.cif.g09.slc.cpg/sg59_11_cif.got.tgz:21156.got - 2010.04.16 16:29:54.
