data_PCOD8245865
_publ_section_title
;
Structure prediction by ZEFSAII (Michael W. Deem and Ramdas Pophale) SiO2 
 PCOD8245865
Probable space group: P M M N
;
_chemical_formula_sum "Si O2"
_cell_formula_units_Z 48
_cell_length_a 17.055069
_cell_length_b 10.168470
_cell_length_c 14.774722
_cell_angle_alpha 90.000000
_cell_angle_beta 90.000000
_cell_angle_gamma 90.000000
_cell_volume 2562.290760
_symmetry_space_group_name_H-M "P M M N"
_symmetry_group_IT_number 59
_space_group.IT_coordinate_system_code '2'
_symmetry_cell_setting 'orthorhombic'
loop_
_space_group_symop_operation_xyz
x,y,z
1/2-x,1/2-y,z
1/2+x,-y,-z
-x,1/2+y,-z
-x,-y,-z
1/2+x,1/2+y,-z
1/2-x,y,z
x,1/2-y,z
loop_
_atom_site_type_symbol
_atom_site_label
_atom_site_fract_x
_atom_site_fract_y
_atom_site_fract_z
Si Si1 0.088352 0.010785 0.635688
Si Si2 0.578686 0.250000 0.464091
Si Si3 0.987650 0.596345 0.083141
Si Si4 0.840781 0.250000 0.654704
Si Si5 0.840807 0.750000 0.689557
Si Si6 0.426919 0.514654 0.264785
Si Si7 0.099456 0.250000 0.505153
Si Si8 0.337019 0.100436 0.810475
O O1 0.110136 0.875854 0.588164
O O2 0.113748 0.123049 0.566211
O O3 0.140956 0.011363 0.725258
O O4 0.996699 0.024194 0.661417
O O5 0.608707 0.250000 0.564948
O O6 0.485620 0.250000 0.461461
O O7 0.006649 0.750000 0.060760
O O8 0.896176 0.578934 0.106984
O O9 0.040960 0.545903 0.165288
O O10 0.000000 0.500000 0.000000
O O11 0.750000 0.250000 0.629927
O O12 0.861245 0.378436 0.712365
O O13 0.750000 0.750000 0.720324
O O14 0.885787 0.626182 0.732452
O O15 0.841778 0.750000 0.580100
O O16 0.250000 0.064615 0.845079
O O17 0.342879 0.250000 0.775859
#
# Coordination Sequence:
#
# PCOD8245865 Si02
#       8
#     8   4   8   4   4   8   4   8
#     4  11  20  35  61  85 113 162 203 247 300 352
#     4  12  22  34  56  84 119 158 208 251 290 337
#     4  10  22  41  71  97 117 153 198 239 295 374
#     4  12  24  38  57  80 120 168 205 245 292 348
#     4  12  26  38  55  88 126 164 209 257 296 338
#     4  11  21  41  61  85 119 156 202 245 301 366
#     4  12  20  36  58  82 117 160 212 257 288 345
#     4   9  19  38  63  91 122 153 194 245 297 350
#
# _framework density 18.733236999999999
#
# number of rings (size 3 to 8) (size 9 to 14) (size 15 to 20)
#    0.000    1.167    5.000    2.000    1.167    1.333 
#    1.500    1.667    0.000    0.000    0.000    0.000 
#    0.000    0.000    0.000    0.000    0.000    0.000 
#
# Total GULP energy -595297.537575 kJ/mol
# GULP energy per Si atom -12402.032033 kJ/mol
# Density = 1.869060 g / cm^3
# Si number density = 18.733237 Si / 1000 Ang^3
#
#
#
# Elastic Constant Matrix: (Units=GPa)
#
#
# Indices 1 2 3 4 5 6 
#
# 1 95.7027 35.3698 29.2110 0.0000 0.0000 0.0000
# 2 35.3698 158.6938 61.4935 0.0000 0.0000 0.0000
# 3 29.2110 61.4935 96.0098 0.0000 0.0000 0.0000
# 4 0.0000 0.0000 0.0000 36.7713 0.0000 0.0000
# 5 0.0000 0.0000 0.0000 0.0000 13.9760 0.0000
# 6 0.0000 0.0000 0.0000 0.0000 0.0000 17.9511
#
#
#
# Elastic Compliance Matrix: (Units=1/GPa)
#
#
# Indices 1 2 3 4 5 6 
#
# 1 0.011836 -0.001653 -0.002542 0.000000 0.000000 0.000000
# 2 -0.001653 0.008612 -0.005013 0.000000 0.000000 0.000000
# 3 -0.002542 -0.005013 0.014400 0.000000 0.000000 0.000000
# 4 0.000000 0.000000 0.000000 0.027195 0.000000 0.000000
# 5 0.000000 0.000000 0.000000 0.000000 0.071551 0.000000
# 6 0.000000 0.000000 0.000000 0.000000 0.000000 0.055707
#
#
# Mechanical properties :
#
#
# Convention : Reuss Voigt Hill
#
# Bulk Modulus (GPa) = 60.85948 66.95056 63.90502
# Shear Modulus (GPa) = 23.45260 28.69515 26.07388
#
# Velocity S-wave (km/s) = 3.54209 3.91804 3.73480
# Velocity P-wave (km/s) = 7.02044 7.50230 7.26537
#
# Compressibility (1/GPa) = 0.01643129
#
# Stress axis : x y z
#
# Youngs Moduli (GPa) = 84.48879 116.11043 69.44358
#
# Poissons Ratio (x) = 0.19191 0.17656
# Poissons Ratio (y) = 0.13964 0.34815
# Poissons Ratio (z) = 0.21481 0.58210
#
# Static dielectric constant tensor:
#      x y z
#    x 3.437760 0.000000 0.000000 
#    y 0.000000 3.575390 0.000000 
#    z 0.000000 0.000000 3.266020 
# 
# 
# High freq. dielectric constant tensor:
#      x y z
#    x 1.722550 0.000000 0.000000 
#    y 0.000000 1.737570 0.000000 
#    z 0.000000 0.000000 1.716110 
# 
# From -- ./inp_files/23811.got.cif
#   From: 2010.03.12/outbox.cif.g09.slc.cpg/sg59_12_cif.got.tgz:23811.got - 2010.04.16 16:29:54.
