data_PCOD8245914
_publ_section_title
;
Structure prediction by ZEFSAII (Michael W. Deem and Ramdas Pophale) SiO2 
 PCOD8245914
Probable space group: P M M N
;
_chemical_formula_sum "Si O2"
_cell_formula_units_Z 32
_cell_length_a 7.892516
_cell_length_b 33.340430
_cell_length_c 4.939380
_cell_angle_alpha 90.000000
_cell_angle_beta 90.000000
_cell_angle_gamma 90.000000
_cell_volume 1299.747847
_symmetry_space_group_name_H-M "P M M N"
_symmetry_group_IT_number 59
_space_group.IT_coordinate_system_code '2'
_symmetry_cell_setting 'orthorhombic'
loop_
_space_group_symop_operation_xyz
x,y,z
1/2-x,1/2-y,z
1/2+x,-y,-z
-x,1/2+y,-z
-x,-y,-z
1/2+x,1/2+y,-z
1/2-x,y,z
x,1/2-y,z
loop_
_atom_site_type_symbol
_atom_site_label
_atom_site_fract_x
_atom_site_fract_y
_atom_site_fract_z
Si Si1 0.250000 0.543531 0.977994
Si Si2 0.250000 0.009512 0.480080
Si Si3 0.940934 0.204857 0.003141
Si Si4 0.938083 0.923593 0.264410
Si Si5 0.939743 0.659626 0.497901
O O1 0.250000 0.503372 0.166377
O O2 0.419866 0.569123 0.036411
O O3 0.250000 0.530483 0.665996
O O4 0.417893 0.036613 0.545804
O O5 0.750000 0.205380 0.892207
O O6 0.005984 0.250000 0.061138
O O7 0.941374 0.179484 0.278893
O O8 0.057562 0.184570 0.779182
O O9 0.750000 0.914296 0.133200
O O10 0.999147 0.886021 0.444061
O O11 0.750000 0.660179 0.612889
#
# Coordination Sequence:
#
# PCOD8245914 Si02
#       5
#     4   4   8   8   8
#     4  12  22  42  66  92 123 178 213 264 328 382
#     4  10  24  42  64  92 131 164 221 268 320 384
#     4  11  25  43  68  98 133 171 218 271 324 393
#     4   9  24  42  63  97 129 169 215 271 319 384
#     4  11  24  44  66  98 134 173 217 272 328 392
#
# _framework density 24.620159000000001
#
# number of rings (size 3 to 8) (size 9 to 14) (size 15 to 20)
#    0.750    0.750    0.000    3.750    3.500    9.000 
#    0.000    0.000    0.000    0.000    0.000    0.000 
#    0.000    0.000    0.000    0.000    0.000    0.000 
#
# Total GULP energy -396856.855777 kJ/mol
# GULP energy per Si atom -12401.776743 kJ/mol
# Density = 2.456412 g / cm^3
# Si number density = 24.620159 Si / 1000 Ang^3
#
#
#
# Elastic Constant Matrix: (Units=GPa)
#
#
# Indices 1 2 3 4 5 6 
#
# 1 72.2808 6.9148 -4.9571 0.0000 0.0000 0.0000
# 2 6.9148 73.4514 7.7680 0.0000 0.0000 0.0000
# 3 -4.9571 7.7680 74.9407 0.0000 0.0000 0.0000
# 4 0.0000 0.0000 0.0000 17.3964 0.0000 0.0000
# 5 0.0000 0.0000 0.0000 0.0000 23.5312 0.0000
# 6 0.0000 0.0000 0.0000 0.0000 0.0000 18.0718
#
#
#
# Elastic Compliance Matrix: (Units=1/GPa)
#
#
# Indices 1 2 3 4 5 6 
#
# 1 0.014046 -0.001436 0.001078 0.000000 0.000000 0.000000
# 2 -0.001436 0.013912 -0.001537 0.000000 0.000000 0.000000
# 3 0.001078 -0.001537 0.013575 0.000000 0.000000 0.000000
# 4 0.000000 0.000000 0.000000 0.057483 0.000000 0.000000
# 5 0.000000 0.000000 0.000000 0.000000 0.042497 0.000000
# 6 0.000000 0.000000 0.000000 0.000000 0.000000 0.055335
#
#
# Mechanical properties :
#
#
# Convention : Reuss Voigt Hill
#
# Bulk Modulus (GPa) = 26.49557 26.68049 26.58803
# Shear Modulus (GPa) = 23.45001 25.86301 24.65651
#
# Velocity S-wave (km/s) = 3.08956 3.24463 3.16804
# Velocity P-wave (km/s) = 4.84895 4.98971 4.91983
#
# Compressibility (1/GPa) = 0.03774215
#
# Stress axis : x y z
#
# Youngs Moduli (GPa) = 71.19324 71.87924 73.66738
#
# Poissons Ratio (x) = 0.10324 -0.07941
# Poissons Ratio (y) = 0.10226 0.11323
# Poissons Ratio (z) = -0.07675 0.11049
#
# Static dielectric constant tensor:
#      x y z
#    x 4.284850 0.000000 0.000000 
#    y 0.000000 4.550620 0.000000 
#    z 0.000000 0.000000 3.902970 
# 
# 
# High freq. dielectric constant tensor:
#      x y z
#    x 1.984000 0.000000 0.000000 
#    y 0.000000 1.987810 0.000000 
#    z 0.000000 0.000000 1.954440 
# 
# From -- ./inp_files/612.got.cif
#   From: 2010.03.12/outbox.cif.g09.slc.cpg/sg59_1_cif.got.tgz:612.got - 2010.04.16 16:29:54.
