data_PCOD8245572
_publ_section_title
;
Structure prediction by ZEFSAII (Michael W. Deem and Ramdas Pophale) SiO2 
 PCOD8245572
Probable space group: P M M N
;
_chemical_formula_sum "Si O2"
_cell_formula_units_Z 48
_cell_length_a 26.457985
_cell_length_b 8.876396
_cell_length_c 10.185618
_cell_angle_alpha 90.000000
_cell_angle_beta 90.000000
_cell_angle_gamma 90.000000
_cell_volume 2392.108198
_symmetry_space_group_name_H-M "P M M N"
_symmetry_group_IT_number 59
_space_group.IT_coordinate_system_code '2'
_symmetry_cell_setting 'orthorhombic'
loop_
_space_group_symop_operation_xyz
x,y,z
1/2-x,1/2-y,z
1/2+x,-y,-z
-x,1/2+y,-z
-x,-y,-z
1/2+x,1/2+y,-z
1/2-x,y,z
x,1/2-y,z
loop_
_atom_site_type_symbol
_atom_site_label
_atom_site_fract_x
_atom_site_fract_y
_atom_site_fract_z
Si Si1 0.029261 0.072413 0.380573
Si Si2 0.308474 0.423666 0.161287
Si Si3 0.028861 0.573814 0.880936
Si Si4 0.635263 0.924042 0.102442
Si Si5 0.308163 0.075930 0.632748
Si Si6 0.862568 0.072806 0.603865
O O1 0.031631 0.250000 0.401176
O O2 0.999293 0.025515 0.250980
O O3 0.085299 0.009986 0.367751
O O4 0.000000 0.000000 0.500000
O O5 0.250000 0.448034 0.128922
O O6 0.319814 0.250000 0.196685
O O7 0.322994 0.526708 0.284138
O O8 0.339649 0.475090 0.033858
O O9 0.027406 0.750000 0.902790
O O10 0.086307 0.522439 0.871337
O O11 0.000000 0.500000 0.000000
O O12 0.619120 0.750000 0.096295
O O13 0.675164 0.953091 0.218102
O O14 0.250000 0.028186 0.619347
O O15 0.315863 0.250000 0.593160
O O16 0.341496 0.973364 0.537788
O O17 0.871694 0.250000 0.605531
#
# Coordination Sequence:
#
# PCOD8245572 Si02
#       6
#     8   8   8   8   8   8
#     4  11  24  42  63  88 118 154 197 243 293 349
#     4  10  21  39  62  87 117 154 196 242 291 344
#     4  11  24  40  60  87 118 153 194 239 290 348
#     4  10  21  38  62  90 118 150 192 241 292 349
#     4  10  21  39  63  89 118 155 197 241 293 351
#     4  12  25  39  58  87 121 157 198 242 290 346
#
# _framework density 20.065981000000001
#
# number of rings (size 3 to 8) (size 9 to 14) (size 15 to 20)
#    0.000    1.333    0.000    5.500    0.000   15.333 
#    0.000    0.000    0.000    3.000    0.000    0.000 
#    0.000    0.000    0.000    0.000    0.000    0.000 
#
# Total GULP energy -595534.650504 kJ/mol
# GULP energy per Si atom -12406.971885 kJ/mol
# Density = 2.002031 g / cm^3
# Si number density = 20.065981 Si / 1000 Ang^3
#
#
#
# Elastic Constant Matrix: (Units=GPa)
#
#
# Indices 1 2 3 4 5 6 
#
# 1 107.0785 30.4773 28.8580 0.0000 0.0000 0.0000
# 2 30.4773 49.3792 57.1735 0.0000 0.0000 0.0000
# 3 28.8580 57.1735 116.1125 0.0000 0.0000 0.0000
# 4 0.0000 0.0000 0.0000 27.2784 0.0000 0.0000
# 5 0.0000 0.0000 0.0000 0.0000 42.8119 0.0000
# 6 0.0000 0.0000 0.0000 0.0000 0.0000 32.5036
#
#
#
# Elastic Compliance Matrix: (Units=1/GPa)
#
#
# Indices 1 2 3 4 5 6 
#
# 1 0.011437 -0.008765 0.001473 0.000000 0.000000 0.000000
# 2 -0.008765 0.053826 -0.024326 0.000000 0.000000 0.000000
# 3 0.001473 -0.024326 0.020224 0.000000 0.000000 0.000000
# 4 0.000000 0.000000 0.000000 0.036659 0.000000 0.000000
# 5 0.000000 0.000000 0.000000 0.000000 0.023358 0.000000
# 6 0.000000 0.000000 0.000000 0.000000 0.000000 0.030766
#
#
# Mechanical properties :
#
#
# Convention : Reuss Voigt Hill
#
# Bulk Modulus (GPa) = 44.93765 56.17643 50.55704
# Shear Modulus (GPa) = 20.24938 30.92288 25.58613
#
# Velocity S-wave (km/s) = 3.18014 3.92989 3.57473
# Velocity P-wave (km/s) = 5.99399 6.97486 6.50295
#
# Compressibility (1/GPa) = 0.02225305
#
# Stress axis : x y z
#
# Youngs Moduli (GPa) = 87.43929 18.57829 49.44613
#
# Poissons Ratio (x) = 0.16283 -0.07285
# Poissons Ratio (y) = 0.76636 1.20281
# Poissons Ratio (z) = -0.12882 0.45193
#
# Static dielectric constant tensor:
#      x y z
#    x 3.930870 0.000000 0.000000 
#    y 0.000000 4.089360 0.000000 
#    z 0.000000 0.000000 3.817160 
# 
# 
# High freq. dielectric constant tensor:
#      x y z
#    x 1.800610 0.000000 0.000000 
#    y 0.000000 1.778600 0.000000 
#    z 0.000000 0.000000 1.801570 
# 
# From -- ./inp_files/12917.got.cif
#   From: 2010.03.12/outbox.cif.g09.slc.cpg/sg59_7_cif.got.tgz:12917.got - 2010.04.16 16:29:54.
