data_PCOD8245789
_publ_section_title
;
Structure prediction by ZEFSAII (Michael W. Deem and Ramdas Pophale) SiO2 
 PCOD8245789
Probable space group: P M M N
;
_chemical_formula_sum "Si O2"
_cell_formula_units_Z 64
_cell_length_a 14.594603
_cell_length_b 8.889848
_cell_length_c 25.760007
_cell_angle_alpha 90.000000
_cell_angle_beta 90.000000
_cell_angle_gamma 90.000000
_cell_volume 3342.201255
_symmetry_space_group_name_H-M "P M M N"
_symmetry_group_IT_number 59
_space_group.IT_coordinate_system_code '2'
_symmetry_cell_setting 'orthorhombic'
loop_
_space_group_symop_operation_xyz
x,y,z
1/2-x,1/2-y,z
1/2+x,-y,-z
-x,1/2+y,-z
-x,-y,-z
1/2+x,1/2+y,-z
1/2-x,y,z
x,1/2-y,z
loop_
_atom_site_type_symbol
_atom_site_label
_atom_site_fract_x
_atom_site_fract_y
_atom_site_fract_z
Si Si1 0.643589 0.425888 0.869396
Si Si2 0.649500 0.419925 0.401568
Si Si3 0.994522 0.926596 0.676205
Si Si4 0.856068 0.924096 0.127263
Si Si5 0.497290 0.421369 0.784043
Si Si6 0.352687 0.917222 0.393074
Si Si7 0.098181 0.072574 0.496806
Si Si8 0.501875 0.571787 0.943892
O O1 0.750000 0.475682 0.864158
O O2 0.635513 0.250000 0.882821
O O3 0.589571 0.460905 0.816068
O O4 0.594170 0.516821 0.915211
O O5 0.750000 0.423533 0.376021
O O6 0.622588 0.250000 0.418432
O O7 0.579937 0.481932 0.358582
O O8 0.653045 0.524302 0.452196
O O9 0.980946 0.750000 0.672098
O O10 0.010438 0.969109 0.735514
O O11 0.905600 0.007192 0.654154
O O12 0.750000 0.975215 0.131444
O O13 0.863620 0.750000 0.110579
O O14 0.905923 0.948840 0.182266
O O15 0.908499 0.023042 0.084775
O O16 0.501766 0.250000 0.764422
O O17 0.250000 0.906286 0.372632
O O18 0.392128 0.750000 0.404576
O O19 0.353206 0.015004 0.445130
O O20 0.091527 0.250000 0.493776
O O21 0.000000 0.000000 0.500000
O O22 0.504573 0.750000 0.948018
O O23 0.500000 0.500000 0.000000
#
# Coordination Sequence:
#
# PCOD8245789 Si02
#       8
#     8   8   8   8   8   8   8   8
#     4   9  19  38  62  85 112 151 197 241 289 343
#     4  10  22  40  59  81 112 149 186 227 279 335
#     4  11  23  38  58  84 115 151 188 233 282 334
#     4   9  19  38  62  86 114 152 197 242 288 339
#     4   9  19  36  58  84 115 149 187 235 288 342
#     4  11  24  41  61  84 112 147 185 230 284 339
#     4  12  23  37  60  86 113 146 183 225 277 338
#     4  11  22  36  56  85 122 159 195 238 287 339
#
# _framework density 19.149056000000002
#
# number of rings (size 3 to 8) (size 9 to 14) (size 15 to 20)
#    0.000    1.750    1.250    4.125    0.000    7.250 
#    0.000    1.250    0.000    0.000    0.000    0.000 
#    0.000    0.000    0.000    0.000    0.000    0.000 
#
# Total GULP energy -793686.792060 kJ/mol
# GULP energy per Si atom -12401.356126 kJ/mol
# Density = 1.910547 g / cm^3
# Si number density = 19.149056 Si / 1000 Ang^3
#
#
#
# Elastic Constant Matrix: (Units=GPa)
#
#
# Indices 1 2 3 4 5 6 
#
# 1 140.0093 43.7074 50.5273 0.0000 0.0000 0.0000
# 2 43.7074 117.0174 57.7761 0.0000 0.0000 0.0000
# 3 50.5273 57.7761 119.1942 0.0000 0.0000 0.0000
# 4 0.0000 0.0000 0.0000 37.4784 0.0000 0.0000
# 5 0.0000 0.0000 0.0000 0.0000 1.9960 0.0000
# 6 0.0000 0.0000 0.0000 0.0000 0.0000 25.1072
#
#
#
# Elastic Compliance Matrix: (Units=1/GPa)
#
#
# Indices 1 2 3 4 5 6 
#
# 1 0.008738 -0.001886 -0.002790 0.000000 0.000000 0.000000
# 2 -0.001886 0.011642 -0.004843 0.000000 0.000000 0.000000
# 3 -0.002790 -0.004843 0.011920 0.000000 0.000000 0.000000
# 4 0.000000 0.000000 0.000000 0.026682 0.000000 0.000000
# 5 0.000000 0.000000 0.000000 0.000000 0.501012 0.000000
# 6 0.000000 0.000000 0.000000 0.000000 0.000000 0.039829
#
#
# Mechanical properties :
#
#
# Convention : Reuss Voigt Hill
#
# Bulk Modulus (GPa) = 75.41054 75.58251 75.49653
# Shear Modulus (GPa) = 8.02205 27.86367 17.94286
#
# Velocity S-wave (km/s) = 2.04899 3.81871 3.06438
# Velocity P-wave (km/s) = 6.71298 7.68112 7.21331
#
# Compressibility (1/GPa) = 0.01326075
#
# Stress axis : x y z
#
# Youngs Moduli (GPa) = 114.44219 85.89849 83.89302
#
# Poissons Ratio (x) = 0.16203 0.23404
# Poissons Ratio (y) = 0.21588 0.40632
# Poissons Ratio (z) = 0.31927 0.41603
#
# Static dielectric constant tensor:
#      x y z
#    x 3.684480 0.000000 0.000000 
#    y 0.000000 3.451520 0.000000 
#    z 0.000000 0.000000 3.530510 
# 
# 
# High freq. dielectric constant tensor:
#      x y z
#    x 1.755060 0.000000 0.000000 
#    y 0.000000 1.747190 0.000000 
#    z 0.000000 0.000000 1.737700 
# 
# From -- ./inp_files/31653.got.cif
#   From: 2010.03.12/outbox.cif.g09.slc.cpg/sg59_16_cif.got.tgz:31653.got - 2010.04.16 16:29:54.
