data_PCOD8245154
_publ_section_title
;
Structure prediction by ZEFSAII (Michael W. Deem and Ramdas Pophale) SiO2 
 PCOD8245154
Probable space group: P M M N
;
_chemical_formula_sum "Si O2"
_cell_formula_units_Z 64
_cell_length_a 9.048594
_cell_length_b 14.235368
_cell_length_c 26.003006
_cell_angle_alpha 90.000000
_cell_angle_beta 90.000000
_cell_angle_gamma 90.000000
_cell_volume 3349.448905
_symmetry_space_group_name_H-M "P M M N"
_symmetry_group_IT_number 59
_space_group.IT_coordinate_system_code '2'
_symmetry_cell_setting 'orthorhombic'
loop_
_space_group_symop_operation_xyz
x,y,z
1/2-x,1/2-y,z
1/2+x,-y,-z
-x,1/2+y,-z
-x,-y,-z
1/2+x,1/2+y,-z
1/2-x,y,z
x,1/2-y,z
loop_
_atom_site_type_symbol
_atom_site_label
_atom_site_fract_x
_atom_site_fract_y
_atom_site_fract_z
Si Si1 0.074361 0.501994 0.555043
Si Si2 0.078163 0.143320 0.904179
Si Si3 0.578364 0.641492 0.628809
Si Si4 0.917567 0.002888 0.715815
Si Si5 0.422452 0.507784 0.820805
Si Si6 0.079828 0.641808 0.374170
Si Si7 0.581434 0.639086 0.894198
Si Si8 0.083704 0.861801 0.994918
O O1 0.250000 0.504091 0.549854
O O2 0.000000 0.500000 0.500000
O O3 0.020344 0.595374 0.584411
O O4 0.025173 0.408121 0.584705
O O5 0.250000 0.137976 0.917575
O O6 0.028573 0.250000 0.892773
O O7 0.993209 0.100615 0.953345
O O8 0.036400 0.083954 0.854003
O O9 0.750000 0.628561 0.613650
O O10 0.534097 0.750000 0.634545
O O11 0.546523 0.590397 0.682875
O O12 0.750000 0.998906 0.736642
O O13 0.029599 0.009843 0.762686
O O14 0.942795 0.095333 0.681492
O O15 0.250000 0.529464 0.822319
O O16 0.506750 0.597530 0.843341
O O17 0.250000 0.629610 0.391821
O O18 0.033259 0.750000 0.370341
O O19 0.750000 0.606479 0.897064
O O20 0.566383 0.750000 0.890097
O O21 0.500588 0.599197 0.944928
O O22 0.250000 0.900064 0.992820
O O23 0.077455 0.750000 0.994795
#
# Coordination Sequence:
#
# PCOD8245154 Si02
#       8
#     8   8   8   8   8   8   8   8
#     4  11  22  36  56  85 122 157 189 229 274 321
#     4   9  19  36  54  73 102 139 175 210 255 315
#     4   9  19  38  62  84 109 146 190 232 276 327
#     4   9  19  36  56  80 110 142 178 223 274 326
#     4  11  23  36  53  79 108 139 176 221 269 314
#     4   9  19  38  62  85 111 147 190 232 275 324
#     4  10  21  37  56  76 101 136 174 213 263 323
#     4   9  17  31  53  79 104 130 165 212 262 314
#
# _framework density 19.107620000000001
#
# number of rings (size 3 to 8) (size 9 to 14) (size 15 to 20)
#    0.000    2.375    0.000    3.000    0.000    7.750 
#    0.000    1.250    0.000    0.000    0.000    0.000 
#    0.000    0.000    0.000    0.000    0.000    0.000 
#
# Total GULP energy -793794.252485 kJ/mol
# GULP energy per Si atom -12403.035195 kJ/mol
# Density = 1.906413 g / cm^3
# Si number density = 19.107620 Si / 1000 Ang^3
#
#
#
# Elastic Constant Matrix: (Units=GPa)
#
#
# Indices 1 2 3 4 5 6 
#
# 1 119.3180 47.4663 69.2959 0.0000 0.0000 0.0000
# 2 47.4663 108.1687 48.4732 0.0000 0.0000 0.0000
# 3 69.2959 48.4732 130.7996 0.0000 0.0000 0.0000
# 4 0.0000 0.0000 0.0000 23.3685 0.0000 0.0000
# 5 0.0000 0.0000 0.0000 0.0000 41.1550 0.0000
# 6 0.0000 0.0000 0.0000 0.0000 0.0000 24.2288
#
#
#
# Elastic Compliance Matrix: (Units=1/GPa)
#
#
# Indices 1 2 3 4 5 6 
#
# 1 0.012929 -0.003123 -0.005693 0.000000 0.000000 0.000000
# 2 -0.003123 0.011840 -0.002733 0.000000 0.000000 0.000000
# 3 -0.005693 -0.002733 0.011674 0.000000 0.000000 0.000000
# 4 0.000000 0.000000 0.000000 0.042793 0.000000 0.000000
# 5 0.000000 0.000000 0.000000 0.000000 0.024298 0.000000
# 6 0.000000 0.000000 0.000000 0.000000 0.000000 0.041273
#
#
# Mechanical properties :
#
#
# Convention : Reuss Voigt Hill
#
# Bulk Modulus (GPa) = 74.92815 76.52856 75.72835
# Shear Modulus (GPa) = 29.01017 30.62054 29.81536
#
# Velocity S-wave (km/s) = 3.90070 4.00750 3.95446
# Velocity P-wave (km/s) = 7.71921 7.84549 7.78261
#
# Compressibility (1/GPa) = 0.01334612
#
# Stress axis : x y z
#
# Youngs Moduli (GPa) = 77.34437 84.45936 85.65965
#
# Poissons Ratio (x) = 0.26373 0.48762
# Poissons Ratio (y) = 0.24151 0.23415
# Poissons Ratio (z) = 0.44028 0.23087
#
# Static dielectric constant tensor:
#      x y z
#    x 3.524390 0.000000 0.000000 
#    y 0.000000 3.559910 0.000000 
#    z 0.000000 0.000000 3.423630 
# 
# 
# High freq. dielectric constant tensor:
#      x y z
#    x 1.744730 0.000000 0.000000 
#    y 0.000000 1.745810 0.000000 
#    z 0.000000 0.000000 1.738850 
# 
# From -- ./inp_files/31586.got.cif
#   From: 2010.03.12/outbox.cif.g09.slc.cpg/sg59_16_cif.got.tgz:31586.got - 2010.04.16 16:29:54.
