data_PCOD8245665
_publ_section_title
;
Structure prediction by ZEFSAII (Michael W. Deem and Ramdas Pophale) SiO2 
 PCOD8245665
Probable space group: P M M N
;
_chemical_formula_sum "Si O2"
_cell_formula_units_Z 40
_cell_length_a 8.783918
_cell_length_b 28.738843
_cell_length_c 7.778327
_cell_angle_alpha 90.000000
_cell_angle_beta 90.000000
_cell_angle_gamma 90.000000
_cell_volume 1963.558070
_symmetry_space_group_name_H-M "P M M N"
_symmetry_group_IT_number 59
_space_group.IT_coordinate_system_code '2'
_symmetry_cell_setting 'orthorhombic'
loop_
_space_group_symop_operation_xyz
x,y,z
1/2-x,1/2-y,z
1/2+x,-y,-z
-x,1/2+y,-z
-x,-y,-z
1/2+x,1/2+y,-z
1/2-x,y,z
x,1/2-y,z
loop_
_atom_site_type_symbol
_atom_site_label
_atom_site_fract_x
_atom_site_fract_y
_atom_site_fract_z
Si Si1 0.570513 0.050458 0.512751
Si Si2 0.069254 0.699551 0.293945
Si Si3 0.429752 0.895831 0.144048
Si Si4 0.427077 0.697544 0.684396
Si Si5 0.571616 0.892225 0.795499
O O1 0.750000 0.047201 0.493400
O O2 0.524385 0.071754 0.696575
O O3 0.509012 0.082975 0.362829
O O4 0.500000 0.000000 0.500000
O O5 0.250000 0.698993 0.296800
O O6 0.011833 0.750000 0.222901
O O7 0.009731 0.656800 0.179970
O O8 0.013790 0.693203 0.489336
O O9 0.250000 0.896589 0.111664
O O10 0.515091 0.914709 0.974948
O O11 0.250000 0.683724 0.700132
O O12 0.452504 0.750000 0.753262
O O13 0.525488 0.662172 0.798370
O O14 0.750000 0.899286 0.777968
#
# Coordination Sequence:
#
# PCOD8245665 Si02
#       5
#     8   8   8   8   8
#     4  11  24  45  70  93 119 155 202 257 314 369
#     4   8  14  29  57  89 117 151 200 251 295 345
#     4  10  21  39  64  91 121 159 206 253 298 356
#     4   9  17  34  61  89 120 163 212 255 297 353
#     4  12  25  39  60  92 131 166 200 247 306 369
#
# _framework density 20.371184
#
# number of rings (size 3 to 8) (size 9 to 14) (size 15 to 20)
#    0.000    2.000    2.000    3.600    0.000    3.600 
#    0.000    2.000    0.000    0.000    0.000    0.000 
#    0.000    0.000    0.000    0.000    0.000    0.000 
#
# Total GULP energy -495944.535083 kJ/mol
# GULP energy per Si atom -12398.613377 kJ/mol
# Density = 2.032482 g / cm^3
# Si number density = 20.371184 Si / 1000 Ang^3
#
#
#
# Elastic Constant Matrix: (Units=GPa)
#
#
# Indices 1 2 3 4 5 6 
#
# 1 72.5457 39.6183 51.3637 0.0000 0.0000 0.0000
# 2 39.6183 108.3742 41.6463 0.0000 0.0000 0.0000
# 3 51.3637 41.6463 124.7500 0.0000 0.0000 0.0000
# 4 0.0000 0.0000 0.0000 9.6217 0.0000 0.0000
# 5 0.0000 0.0000 0.0000 0.0000 20.0188 0.0000
# 6 0.0000 0.0000 0.0000 0.0000 0.0000 30.7103
#
#
#
# Elastic Compliance Matrix: (Units=1/GPa)
#
#
# Indices 1 2 3 4 5 6 
#
# 1 0.021714 -0.005165 -0.007216 0.000000 0.000000 0.000000
# 2 -0.005165 0.011814 -0.001817 0.000000 0.000000 0.000000
# 3 -0.007216 -0.001817 0.011594 0.000000 0.000000 0.000000
# 4 0.000000 0.000000 0.000000 0.103931 0.000000 0.000000
# 5 0.000000 0.000000 0.000000 0.000000 0.049953 0.000000
# 6 0.000000 0.000000 0.000000 0.000000 0.000000 0.032562
#
#
# Mechanical properties :
#
#
# Convention : Reuss Voigt Hill
#
# Bulk Modulus (GPa) = 59.79096 63.43628 61.61362
# Shear Modulus (GPa) = 18.82950 23.60628 21.21789
#
# Velocity S-wave (km/s) = 3.04356 3.40782 3.23083
# Velocity P-wave (km/s) = 6.46262 6.83316 6.65047
#
# Compressibility (1/GPa) = 0.01672494
#
# Stress axis : x y z
#
# Youngs Moduli (GPa) = 46.05252 84.64663 86.25241
#
# Poissons Ratio (x) = 0.43720 0.62242
# Poissons Ratio (y) = 0.23786 0.15675
# Poissons Ratio (z) = 0.33233 0.15383
#
# Static dielectric constant tensor:
#      x y z
#    x 3.376310 0.000000 0.000000 
#    y 0.000000 4.137390 0.000000 
#    z 0.000000 0.000000 3.744180 
# 
# 
# High freq. dielectric constant tensor:
#      x y z
#    x 1.761290 0.000000 0.000000 
#    y 0.000000 1.801380 0.000000 
#    z 0.000000 0.000000 1.800420 
# 
# From -- ./inp_files/6031.got.cif
#   From: 2010.03.12/outbox.cif.g09.slc.cpg/sg59_4_cif.got.tgz:6031.got - 2010.04.16 16:29:54.
