data_PCOD8245608
_publ_section_title
;
Structure prediction by ZEFSAII (Michael W. Deem and Ramdas Pophale) SiO2 
 PCOD8245608
Probable space group: P M M N
;
_chemical_formula_sum "Si O2"
_cell_formula_units_Z 64
_cell_length_a 14.810185
_cell_length_b 23.459069
_cell_length_c 9.572534
_cell_angle_alpha 90.000000
_cell_angle_beta 90.000000
_cell_angle_gamma 90.000000
_cell_volume 3325.815659
_symmetry_space_group_name_H-M "P M M N"
_symmetry_group_IT_number 59
_space_group.IT_coordinate_system_code '2'
_symmetry_cell_setting 'orthorhombic'
loop_
_space_group_symop_operation_xyz
x,y,z
1/2-x,1/2-y,z
1/2+x,-y,-z
-x,1/2+y,-z
-x,-y,-z
1/2+x,1/2+y,-z
1/2-x,y,z
x,1/2-y,z
loop_
_atom_site_type_symbol
_atom_site_label
_atom_site_fract_x
_atom_site_fract_y
_atom_site_fract_z
Si Si1 0.398015 0.004543 0.547762
Si Si2 0.852194 0.426136 0.949003
Si Si3 0.848588 0.097145 0.634106
Si Si4 0.525939 0.637300 0.053465
Si Si5 0.853031 0.815792 0.811932
Si Si6 0.999843 0.314917 0.655065
Si Si7 0.148153 0.130094 0.472988
Si Si8 0.353991 0.468479 0.855999
O O1 0.345645 0.951160 0.483788
O O2 0.500000 0.000000 0.500000
O O3 0.355881 0.062470 0.489450
O O4 0.388668 0.001637 0.714717
O O5 0.750000 0.403119 0.979268
O O6 0.871024 0.432059 0.783240
O O7 0.929156 0.383708 0.009057
O O8 0.864467 0.488043 0.016069
O O9 0.750000 0.126019 0.639468
O O10 0.919274 0.146192 0.595208
O O11 0.506263 0.681255 0.178056
O O12 0.583995 0.585140 0.112377
O O13 0.580483 0.671061 0.937814
O O14 0.750000 0.831186 0.854820
O O15 0.861180 0.750000 0.770081
O O16 0.886020 0.853373 0.681211
O O17 0.981582 0.250000 0.610905
O O18 0.092375 0.337408 0.590470
O O19 0.250000 0.151725 0.492083
O O20 0.250000 0.448918 0.838390
#
# Coordination Sequence:
#
# PCOD8245608 Si02
#       8
#     8   8   8   8   8   8   8   8
#     4  12  22  37  59  89 121 153 190 239 293 353
#     4   9  21  37  56  84 118 152 189 235 290 349
#     4  10  21  39  60  87 118 152 193 240 290 344
#     4  11  21  37  60  84 115 153 194 240 289 342
#     4  10  23  40  58  83 113 150 195 237 280 335
#     4  11  23  40  60  85 114 153 199 241 286 341
#     4  11  23  40  60  85 119 156 192 236 292 351
#     4  11  22  36  55  87 123 155 190 234 292 356
#
# _framework density 19.243400000000001
#
# number of rings (size 3 to 8) (size 9 to 14) (size 15 to 20)
#    0.000    1.375    2.500    3.375    3.500    1.500 
#    0.000    0.000    0.000    1.125    0.000    0.000 
#    0.000    0.000    0.000    0.000    0.000    0.000 
#
# Total GULP energy -793756.496752 kJ/mol
# GULP energy per Si atom -12402.445262 kJ/mol
# Density = 1.919960 g / cm^3
# Si number density = 19.243400 Si / 1000 Ang^3
#
#
#
# Elastic Constant Matrix: (Units=GPa)
#
#
# Indices 1 2 3 4 5 6 
#
# 1 108.1024 33.7837 26.4174 0.0000 0.0000 0.0000
# 2 33.7837 108.6615 33.1836 0.0000 0.0000 0.0000
# 3 26.4174 33.1836 60.0011 0.0000 0.0000 0.0000
# 4 0.0000 0.0000 0.0000 22.8536 0.0000 0.0000
# 5 0.0000 0.0000 0.0000 0.0000 26.5080 0.0000
# 6 0.0000 0.0000 0.0000 0.0000 0.0000 18.6268
#
#
#
# Elastic Compliance Matrix: (Units=1/GPa)
#
#
# Indices 1 2 3 4 5 6 
#
# 1 0.010822 -0.002298 -0.003494 0.000000 0.000000 0.000000
# 2 -0.002298 0.011561 -0.005382 0.000000 0.000000 0.000000
# 3 -0.003494 -0.005382 0.021181 0.000000 0.000000 0.000000
# 4 0.000000 0.000000 0.000000 0.043757 0.000000 0.000000
# 5 0.000000 0.000000 0.000000 0.000000 0.037724 0.000000
# 6 0.000000 0.000000 0.000000 0.000000 0.000000 0.053686
#
#
# Mechanical properties :
#
#
# Convention : Reuss Voigt Hill
#
# Bulk Modulus (GPa) = 47.13270 51.50383 49.31826
# Shear Modulus (GPa) = 24.02087 25.82302 24.92195
#
# Velocity S-wave (km/s) = 3.53691 3.66719 3.60264
# Velocity P-wave (km/s) = 6.42073 6.68981 6.55665
#
# Compressibility (1/GPa) = 0.02121669
#
# Stress axis : x y z
#
# Youngs Moduli (GPa) = 92.40054 86.49860 47.21128
#
# Poissons Ratio (x) = 0.19875 0.16497
# Poissons Ratio (y) = 0.21231 0.25410
# Poissons Ratio (z) = 0.32287 0.46555
#
# Static dielectric constant tensor:
#      x y z
#    x 3.789850 0.000000 0.000000 
#    y 0.000000 3.478840 0.000000 
#    z 0.000000 0.000000 3.587470 
# 
# 
# High freq. dielectric constant tensor:
#      x y z
#    x 1.765960 0.000000 0.000000 
#    y 0.000000 1.733800 0.000000 
#    z 0.000000 0.000000 1.748260 
# 
# From -- ./inp_files/9579.got.cif
#   From: 2010.03.12/outbox.cif.g09.slc.cpg/sg59_5_cif.got.tgz:9579.got - 2010.04.16 16:29:54.
