data_PCOD8245458
_publ_section_title
;
Structure prediction by ZEFSAII (Michael W. Deem and Ramdas Pophale) SiO2 
 PCOD8245458
Probable space group: P M M N
;
_chemical_formula_sum "Si O2"
_cell_formula_units_Z 64
_cell_length_a 8.866127
_cell_length_b 15.339270
_cell_length_c 24.178142
_cell_angle_alpha 90.000000
_cell_angle_beta 90.000000
_cell_angle_gamma 90.000000
_cell_volume 3288.225279
_symmetry_space_group_name_H-M "P M M N"
_symmetry_group_IT_number 59
_space_group.IT_coordinate_system_code '2'
_symmetry_cell_setting 'orthorhombic'
loop_
_space_group_symop_operation_xyz
x,y,z
1/2-x,1/2-y,z
1/2+x,-y,-z
-x,1/2+y,-z
-x,-y,-z
1/2+x,1/2+y,-z
1/2-x,y,z
x,1/2-y,z
loop_
_atom_site_type_symbol
_atom_site_label
_atom_site_fract_x
_atom_site_fract_y
_atom_site_fract_z
Si Si1 0.428824 0.489898 0.309524
Si Si2 0.430434 0.651894 0.891939
Si Si3 0.921182 0.652953 0.602556
Si Si4 0.571101 0.154423 0.622696
Si Si5 0.428158 0.906393 0.495776
Si Si6 0.930170 0.150460 0.869656
Si Si7 0.571200 0.494551 0.192575
Si Si8 0.414021 0.852828 0.010875
O O1 0.250000 0.489360 0.299028
O O2 0.479714 0.414439 0.351677
O O3 0.487183 0.581792 0.334438
O O4 0.515420 0.471006 0.253293
O O5 0.250000 0.651787 0.895482
O O6 0.486099 0.750000 0.876368
O O7 0.489497 0.582796 0.847129
O O8 0.497022 0.622910 0.952829
O O9 0.750000 0.628433 0.586113
O O10 0.931322 0.750000 0.627841
O O11 0.022151 0.651051 0.547769
O O12 0.750000 0.150800 0.621620
O O13 0.513947 0.250000 0.642007
O O14 0.511588 0.137171 0.560703
O O15 0.250000 0.914989 0.495099
O O16 0.500000 0.000000 0.500000
O O17 0.750000 0.141508 0.868461
O O18 0.976674 0.250000 0.855411
O O19 0.003284 0.087529 0.824626
O O20 0.995015 0.122416 0.930904
O O21 0.750000 0.500313 0.191119
O O22 0.250000 0.898408 0.010922
O O23 0.390805 0.750000 0.011460
#
# Coordination Sequence:
#
# PCOD8245458 Si02
#       8
#     8   8   8   8   8   8   8   8
#     4  10  21  39  56  73 103 145 188 226 265 315
#     4   8  15  30  51  75 106 141 173 213 268 325
#     4  10  21  38  59  84 113 145 182 225 274 324
#     4   9  18  34  57  81 103 133 176 220 262 313
#     4  11  20  34  58  87 118 146 176 217 270 328
#     4   9  18  34  56  79 103 137 179 218 261 323
#     4  11  23  35  51  79 109 139 179 228 275 318
#     4   7  11  24  49  77 101 130 173 216 255 314
#
# _framework density 19.463386
#
# number of rings (size 3 to 8) (size 9 to 14) (size 15 to 20)
#    0.000    2.625    1.250    2.625    0.000    3.000 
#    0.000    1.250    0.000    3.375    0.000    3.500 
#    0.000    0.000    0.000    0.000    0.000    0.000 
#
# Total GULP energy -793130.724678 kJ/mol
# GULP energy per Si atom -12392.667573 kJ/mol
# Density = 1.941909 g / cm^3
# Si number density = 19.463386 Si / 1000 Ang^3
#
#
#
# Elastic Constant Matrix: (Units=GPa)
#
#
# Indices 1 2 3 4 5 6 
#
# 1 31.8942 13.5057 16.5438 0.0000 0.0000 0.0000
# 2 13.5057 94.5180 26.2778 0.0000 0.0000 0.0000
# 3 16.5438 26.2778 99.6553 0.0000 0.0000 0.0000
# 4 0.0000 0.0000 0.0000 23.7982 0.0000 0.0000
# 5 0.0000 0.0000 0.0000 0.0000 21.1951 0.0000
# 6 0.0000 0.0000 0.0000 0.0000 0.0000 17.5504
#
#
#
# Elastic Compliance Matrix: (Units=1/GPa)
#
#
# Indices 1 2 3 4 5 6 
#
# 1 0.035469 -0.003703 -0.004912 0.000000 0.000000 0.000000
# 2 -0.003703 0.011803 -0.002498 0.000000 0.000000 0.000000
# 3 -0.004912 -0.002498 0.011509 0.000000 0.000000 0.000000
# 4 0.000000 0.000000 0.000000 0.042020 0.000000 0.000000
# 5 0.000000 0.000000 0.000000 0.000000 0.047181 0.000000
# 6 0.000000 0.000000 0.000000 0.000000 0.000000 0.056979
#
#
# Mechanical properties :
#
#
# Convention : Reuss Voigt Hill
#
# Bulk Modulus (GPa) = 27.35461 37.63578 32.49520
# Shear Modulus (GPa) = 20.88804 23.82474 22.35639
#
# Velocity S-wave (km/s) = 3.27952 3.50248 3.39283
# Velocity P-wave (km/s) = 5.33153 5.97789 5.66394
#
# Compressibility (1/GPa) = 0.03655691
#
# Stress axis : x y z
#
# Youngs Moduli (GPa) = 28.19329 84.72065 86.89125
#
# Poissons Ratio (x) = 0.31369 0.42680
# Poissons Ratio (y) = 0.10439 0.21703
# Poissons Ratio (z) = 0.13848 0.21161
#
# Static dielectric constant tensor:
#      x y z
#    x 3.146360 0.000000 0.000000 
#    y 0.000000 3.680290 0.000000 
#    z 0.000000 0.000000 3.707280 
# 
# 
# High freq. dielectric constant tensor:
#      x y z
#    x 1.710490 0.000000 0.000000 
#    y 0.000000 1.762320 0.000000 
#    z 0.000000 0.000000 1.764120 
# 
# From -- ./inp_files/31650.got.cif
#   From: 2010.03.12/outbox.cif.g09.slc.cpg/sg59_16_cif.got.tgz:31650.got - 2010.04.16 16:29:54.
