data_PCOD8245365
_publ_section_title
;
Structure prediction by ZEFSAII (Michael W. Deem and Ramdas Pophale) SiO2 
 PCOD8245365
Probable space group: P M M N
;
_chemical_formula_sum "Si O2"
_cell_formula_units_Z 48
_cell_length_a 24.892505
_cell_length_b 8.762088
_cell_length_c 11.714621
_cell_angle_alpha 90.000000
_cell_angle_beta 90.000000
_cell_angle_gamma 90.000000
_cell_volume 2555.079727
_symmetry_space_group_name_H-M "P M M N"
_symmetry_group_IT_number 59
_space_group.IT_coordinate_system_code '2'
_symmetry_cell_setting 'orthorhombic'
loop_
_space_group_symop_operation_xyz
x,y,z
1/2-x,1/2-y,z
1/2+x,-y,-z
-x,1/2+y,-z
-x,-y,-z
1/2+x,1/2+y,-z
1/2-x,y,z
x,1/2-y,z
loop_
_atom_site_type_symbol
_atom_site_label
_atom_site_fract_x
_atom_site_fract_y
_atom_site_fract_z
Si Si1 0.399393 0.925016 0.274227
Si Si2 0.311073 0.573529 0.889797
Si Si3 0.002733 0.073127 0.876705
Si Si4 0.187408 0.426015 0.125870
Si Si5 0.905511 0.428851 0.275048
Si Si6 0.441190 0.429168 0.498254
O O1 0.396066 0.750000 0.313921
O O2 0.445177 0.949368 0.180612
O O3 0.343255 0.974943 0.219695
O O4 0.410249 0.028879 0.383499
O O5 0.250000 0.535588 0.853713
O O6 0.317785 0.750000 0.924032
O O7 0.348832 0.530743 0.783750
O O8 0.329345 0.475728 0.998641
O O9 0.018791 0.250000 0.885331
O O10 0.046229 0.984930 0.803114
O O11 0.000000 0.000000 0.000000
O O12 0.250000 0.457162 0.145674
O O13 0.172034 0.250000 0.141180
O O14 0.912449 0.250000 0.295239
O O15 0.905997 0.512362 0.396095
O O16 0.500000 0.500000 0.500000
O O17 0.448147 0.250000 0.508381
#
# Coordination Sequence:
#
# PCOD8245365 Si02
#       6
#     8   8   8   8   8   8
#     4  11  23  39  59  84 114 153 197 238 287 347
#     4   9  19  37  60  86 117 154 195 237 284 343
#     4  11  23  36  54  82 117 150 187 237 292 349
#     4  10  21  37  59  88 120 154 193 240 293 344
#     4  11  22  37  59  85 115 152 195 239 290 348
#     4  12  24  40  61  84 114 154 195 240 292 348
#
# _framework density 18.786106
#
# number of rings (size 3 to 8) (size 9 to 14) (size 15 to 20)
#    0.000    1.333    1.667    4.500    0.000    8.333 
#    0.000    0.833    0.000    3.000    0.000    0.000 
#    0.000    0.000    0.000    0.000    0.000    0.000 
#
# Total GULP energy -595499.898057 kJ/mol
# GULP energy per Si atom -12406.247876 kJ/mol
# Density = 1.874335 g / cm^3
# Si number density = 18.786106 Si / 1000 Ang^3
#
#
#
# Elastic Constant Matrix: (Units=GPa)
#
#
# Indices 1 2 3 4 5 6 
#
# 1 87.4713 47.4010 49.3124 0.0000 0.0000 0.0000
# 2 47.4010 115.5252 55.8634 0.0000 0.0000 0.0000
# 3 49.3124 55.8634 123.8839 0.0000 0.0000 0.0000
# 4 0.0000 0.0000 0.0000 38.5979 0.0000 0.0000
# 5 0.0000 0.0000 0.0000 0.0000 27.3189 0.0000
# 6 0.0000 0.0000 0.0000 0.0000 0.0000 25.6948
#
#
#
# Elastic Compliance Matrix: (Units=1/GPa)
#
#
# Indices 1 2 3 4 5 6 
#
# 1 0.016439 -0.004579 -0.004478 0.000000 0.000000 0.000000
# 2 -0.004579 0.012346 -0.003744 0.000000 0.000000 0.000000
# 3 -0.004478 -0.003744 0.011543 0.000000 0.000000 0.000000
# 4 0.000000 0.000000 0.000000 0.025908 0.000000 0.000000
# 5 0.000000 0.000000 0.000000 0.000000 0.036605 0.000000
# 6 0.000000 0.000000 0.000000 0.000000 0.000000 0.038918
#
#
# Mechanical properties :
#
#
# Convention : Reuss Voigt Hill
#
# Bulk Modulus (GPa) = 67.91939 70.22600 69.07269
# Shear Modulus (GPa) = 29.02413 29.94256 29.48334
#
# Velocity S-wave (km/s) = 3.93489 3.99666 3.96589
# Velocity P-wave (km/s) = 7.54168 7.66556 7.60387
#
# Compressibility (1/GPa) = 0.01472334
#
# Stress axis : x y z
#
# Youngs Moduli (GPa) = 60.83228 81.00039 86.63140
#
# Poissons Ratio (x) = 0.37093 0.38798
# Poissons Ratio (y) = 0.27857 0.32437
# Poissons Ratio (z) = 0.27244 0.30329
#
# Static dielectric constant tensor:
#      x y z
#    x 3.664010 0.000000 0.000000 
#    y 0.000000 3.623940 0.000000 
#    z 0.000000 0.000000 3.643500 
# 
# 
# High freq. dielectric constant tensor:
#      x y z
#    x 1.729540 0.000000 0.000000 
#    y 0.000000 1.745190 0.000000 
#    z 0.000000 0.000000 1.732750 
# 
# From -- ./inp_files/14292.got.cif
#   From: 2010.03.12/outbox.cif.g09.slc.cpg/sg59_8_cif.got.tgz:14292.got - 2010.04.16 16:29:54.
