data_PCOD8245892
_publ_section_title
;
Structure prediction by ZEFSAII (Michael W. Deem and Ramdas Pophale) SiO2 
 PCOD8245892
Probable space group: P M M N
;
_chemical_formula_sum "Si O2"
_cell_formula_units_Z 64
_cell_length_a 23.542763
_cell_length_b 8.950038
_cell_length_c 15.248749
_cell_angle_alpha 90.000000
_cell_angle_beta 90.000000
_cell_angle_gamma 90.000000
_cell_volume 3213.042912
_symmetry_space_group_name_H-M "P M M N"
_symmetry_group_IT_number 59
_space_group.IT_coordinate_system_code '2'
_symmetry_cell_setting 'orthorhombic'
loop_
_space_group_symop_operation_xyz
x,y,z
1/2-x,1/2-y,z
1/2+x,-y,-z
-x,1/2+y,-z
-x,-y,-z
1/2+x,1/2+y,-z
1/2-x,y,z
x,1/2-y,z
loop_
_atom_site_type_symbol
_atom_site_label
_atom_site_fract_x
_atom_site_fract_y
_atom_site_fract_z
Si Si1 0.498526 0.423628 0.906462
Si Si2 0.624047 0.079919 0.347608
Si Si3 0.388545 0.923448 0.348579
Si Si4 0.501474 0.923628 0.593538
Si Si5 0.124048 0.579919 0.152392
Si Si6 0.815969 0.923898 0.502070
Si Si7 0.888545 0.423448 0.151421
Si Si8 0.684031 0.576102 0.002070
O O1 0.485921 0.250000 0.919665
O O2 0.557443 0.453423 0.857575
O O3 0.448789 0.493953 0.848452
O O4 0.500000 0.500000 0.000000
O O5 0.637563 0.250000 0.375566
O O6 0.557443 0.046577 0.357575
O O7 0.640418 0.052020 0.246224
O O8 0.661014 0.969920 0.406827
O O9 0.399728 0.750000 0.367680
O O10 0.359582 0.947980 0.253776
O O11 0.448789 0.006047 0.348452
O O12 0.347056 0.985281 0.422363
O O13 0.514080 0.750000 0.580335
O O14 0.500000 0.000000 0.500000
O O15 0.137563 0.750000 0.124434
O O16 0.161014 0.469920 0.093173
O O17 0.750000 0.962896 0.506779
O O18 0.827928 0.750000 0.516306
O O19 0.899728 0.250000 0.132320
O O20 0.847056 0.485281 0.077637
O O21 0.750000 0.537104 0.006780
O O22 0.672072 0.750000 0.016306
#
# Coordination Sequence:
#
# PCOD8245892 Si02
#       8
#     8   8   8   8   8   8   8   8
#     4  11  21  36  61  93 126 162 199 244 302 362
#     4  10  23  41  63  91 123 160 202 247 301 362
#     4  11  23  40  63  92 124 161 202 246 301 363
#     4  11  21  36  61  93 126 162 199 244 302 362
#     4  10  23  41  63  91 123 160 202 247 301 362
#     4  11  25  43  63  88 119 159 206 255 305 357
#     4  11  23  40  63  92 124 161 202 246 301 363
#     4  11  25  43  63  88 119 159 206 255 305 357
#
# _framework density 19.918811000000002
#
# number of rings (size 3 to 8) (size 9 to 14) (size 15 to 20)
#    0.000    1.250    2.500    3.000    0.000    6.000 
#    0.000    5.000    0.000    0.000    0.000    0.000 
#    0.000    0.000    0.000    0.000    0.000    0.000 
#
# Total GULP energy -793944.428786 kJ/mol
# GULP energy per Si atom -12405.381700 kJ/mol
# Density = 1.987348 g / cm^3
# Si number density = 19.918811 Si / 1000 Ang^3
#
#
#
# Elastic Constant Matrix: (Units=GPa)
#
#
# Indices 1 2 3 4 5 6 
#
# 1 43.6567 26.8565 2.0238 0.0000 0.0000 0.0000
# 2 26.8565 100.9145 30.2800 0.0000 0.0000 0.0000
# 3 2.0238 30.2800 92.8211 0.0000 0.0000 0.0000
# 4 0.0000 0.0000 0.0000 27.8556 0.0000 0.0000
# 5 0.0000 0.0000 0.0000 0.0000 4.9284 0.0000
# 6 0.0000 0.0000 0.0000 0.0000 0.0000 31.6175
#
#
#
# Elastic Compliance Matrix: (Units=1/GPa)
#
#
# Indices 1 2 3 4 5 6 
#
# 1 0.027720 -0.007977 0.001998 0.000000 0.000000 0.000000
# 2 -0.007977 0.013280 -0.004158 0.000000 0.000000 0.000000
# 3 0.001998 -0.004158 0.012086 0.000000 0.000000 0.000000
# 4 0.000000 0.000000 0.000000 0.035899 0.000000 0.000000
# 5 0.000000 0.000000 0.000000 0.000000 0.202905 0.000000
# 6 0.000000 0.000000 0.000000 0.000000 0.000000 0.031628
#
#
# Mechanical properties :
#
#
# Convention : Reuss Voigt Hill
#
# Bulk Modulus (GPa) = 30.47634 39.52367 35.00001
# Shear Modulus (GPa) = 14.09519 24.76244 19.42882
#
# Velocity S-wave (km/s) = 2.66302 3.52968 3.12653
# Velocity P-wave (km/s) = 4.97886 6.04128 5.53562
#
# Compressibility (1/GPa) = 0.03281234
#
# Stress axis : x y z
#
# Youngs Moduli (GPa) = 36.07440 75.30152 82.73795
#
# Poissons Ratio (x) = 0.60066 -0.16529
# Poissons Ratio (y) = 0.28776 0.34405
# Poissons Ratio (z) = -0.07207 0.31312
#
# Static dielectric constant tensor:
#      x y z
#    x -0.853360 0.000000 0.000000 
#    y 0.000000 3.876870 0.000000 
#    z 0.000000 0.000000 3.570570 
# 
# 
# High freq. dielectric constant tensor:
#      x y z
#    x 1.773420 0.000000 0.000000 
#    y 0.000000 1.788820 0.000000 
#    z 0.000000 0.000000 1.789940 
# 
# From -- ./inp_files/24675.got.cif
#   From: 2010.03.12/outbox.cif.g09.slc.cpg/sg59_13_cif.got.tgz:24675.got - 2010.04.16 16:29:54.
