data_PCOD8245424
_publ_section_title
;
Structure prediction by ZEFSAII (Michael W. Deem and Ramdas Pophale) SiO2 
 PCOD8245424
Probable space group: P M M N
;
_chemical_formula_sum "Si O2"
_cell_formula_units_Z 48
_cell_length_a 30.770381
_cell_length_b 8.527179
_cell_length_c 9.776899
_cell_angle_alpha 90.000000
_cell_angle_beta 90.000000
_cell_angle_gamma 90.000000
_cell_volume 2565.307212
_symmetry_space_group_name_H-M "P M M N"
_symmetry_group_IT_number 59
_space_group.IT_coordinate_system_code '2'
_symmetry_cell_setting 'orthorhombic'
loop_
_space_group_symop_operation_xyz
x,y,z
1/2-x,1/2-y,z
1/2+x,-y,-z
-x,1/2+y,-z
-x,-y,-z
1/2+x,1/2+y,-z
1/2-x,y,z
x,1/2-y,z
loop_
_atom_site_type_symbol
_atom_site_label
_atom_site_fract_x
_atom_site_fract_y
_atom_site_fract_z
Si Si1 0.800468 0.068670 0.853503
Si Si2 0.951436 0.428796 0.659127
Si Si3 0.132377 0.933590 0.654186
Si Si4 0.044726 0.066249 0.635582
Si Si5 0.300078 0.067571 0.858912
Si Si6 0.634629 0.570114 0.643083
O O1 0.750000 0.027939 0.833312
O O2 0.810436 0.250000 0.827687
O O3 0.826389 0.966436 0.744595
O O4 0.815433 0.023808 0.005743
O O5 0.938587 0.250000 0.688076
O O6 0.955715 0.456817 0.497472
O O7 0.911982 0.534547 0.717720
O O8 0.999847 0.465879 0.720988
O O9 0.130657 0.750000 0.681753
O O10 0.088288 0.013857 0.715905
O O11 0.173290 0.007327 0.730004
O O12 0.138261 0.966072 0.493092
O O13 0.047296 0.250000 0.595418
O O14 0.250000 0.031355 0.826035
O O15 0.308305 0.250000 0.883987
O O16 0.636761 0.750000 0.599363
#
# Coordination Sequence:
#
# PCOD8245424 Si02
#       6
#     8   8   8   8   8   8
#     4  10  21  38  58  78 102 134 172 212 256 310
#     4   9  16  27  45  70 101 135 170 209 253 302
#     4  11  21  33  52  78 108 139 173 215 259 303
#     4   9  16  27  45  70 101 135 170 209 253 302
#     4  10  21  38  58  78 102 134 172 212 256 310
#     4  11  21  33  52  78 108 139 173 215 259 303
#
# _framework density 18.711209
#
# number of rings (size 3 to 8) (size 9 to 14) (size 15 to 20)
#    0.000    2.000    0.000    7.000    0.000    4.667 
#    0.000    0.000    0.000    1.000    0.000    0.000 
#    0.000    0.000    0.000    0.000    0.000    0.000 
#
# Total GULP energy -594978.207675 kJ/mol
# GULP energy per Si atom -12395.379327 kJ/mol
# Density = 1.866862 g / cm^3
# Si number density = 18.711209 Si / 1000 Ang^3
#
#
#
# Elastic Constant Matrix: (Units=GPa)
#
#
# Indices 1 2 3 4 5 6 
#
# 1 116.6557 37.6690 46.1603 0.0000 0.0000 0.0000
# 2 37.6690 64.9374 6.5489 0.0000 0.0000 0.0000
# 3 46.1603 6.5489 43.9868 0.0000 0.0000 0.0000
# 4 0.0000 0.0000 0.0000 25.8863 0.0000 0.0000
# 5 0.0000 0.0000 0.0000 0.0000 2.1035 0.0000
# 6 0.0000 0.0000 0.0000 0.0000 0.0000 32.4906
#
#
#
# Elastic Compliance Matrix: (Units=1/GPa)
#
#
# Indices 1 2 3 4 5 6 
#
# 1 0.018731 -0.009019 -0.018314 0.000000 0.000000 0.000000
# 2 -0.009019 0.019976 0.006490 0.000000 0.000000 0.000000
# 3 -0.018314 0.006490 0.040987 0.000000 0.000000 0.000000
# 4 0.000000 0.000000 0.000000 0.038630 0.000000 0.000000
# 5 0.000000 0.000000 0.000000 0.000000 0.475395 0.000000
# 6 0.000000 0.000000 0.000000 0.000000 0.000000 0.030778
#
#
# Mechanical properties :
#
#
# Convention : Reuss Voigt Hill
#
# Bulk Modulus (GPa) = 26.30930 45.14848 35.72889
# Shear Modulus (GPa) = 7.36536 21.10952 14.23744
#
# Velocity S-wave (km/s) = 1.98617 3.36248 2.76144
# Velocity P-wave (km/s) = 4.39899 6.26550 5.41330
#
# Compressibility (1/GPa) = 0.03800937
#
# Stress axis : x y z
#
# Youngs Moduli (GPa) = 53.38664 50.05885 24.39804
#
# Poissons Ratio (x) = 0.45147 0.44683
# Poissons Ratio (y) = 0.48148 -0.15835
# Poissons Ratio (z) = 0.97773 -0.32489
#
# Static dielectric constant tensor:
#      x y z
#    x 4.064910 0.000000 0.000000 
#    y 0.000000 3.495310 0.000000 
#    z 0.000000 0.000000 2.924120 
# 
# 
# High freq. dielectric constant tensor:
#      x y z
#    x 1.750470 0.000000 0.000000 
#    y 0.000000 1.743160 0.000000 
#    z 0.000000 0.000000 1.665950 
# 
# From -- ./inp_files/12977.got.cif
#   From: 2010.03.12/outbox.cif.g09.slc.cpg/sg59_7_cif.got.tgz:12977.got - 2010.04.16 16:29:54.
