data_PCOD8245233
_publ_section_title
;
Structure prediction by ZEFSAII (Michael W. Deem and Ramdas Pophale) SiO2 
 PCOD8245233
Probable space group: P M M N
;
_chemical_formula_sum "Si O2"
_cell_formula_units_Z 64
_cell_length_a 14.585486
_cell_length_b 8.680044
_cell_length_c 26.163379
_cell_angle_alpha 90.000000
_cell_angle_beta 90.000000
_cell_angle_gamma 90.000000
_cell_volume 3312.353382
_symmetry_space_group_name_H-M "P M M N"
_symmetry_group_IT_number 59
_space_group.IT_coordinate_system_code '2'
_symmetry_cell_setting 'orthorhombic'
loop_
_space_group_symop_operation_xyz
x,y,z
1/2-x,1/2-y,z
1/2+x,-y,-z
-x,1/2+y,-z
-x,-y,-z
1/2+x,1/2+y,-z
1/2-x,y,z
x,1/2-y,z
loop_
_atom_site_type_symbol
_atom_site_label
_atom_site_fract_x
_atom_site_fract_y
_atom_site_fract_z
Si Si1 0.643426 0.571571 0.126191
Si Si2 0.355070 0.571526 0.767598
Si Si3 0.643687 0.428516 0.867936
Si Si4 0.353822 0.932358 0.501470
Si Si5 0.496400 0.431344 0.055930
Si Si6 0.996046 0.569594 0.307097
Si Si7 0.507646 0.931589 0.423853
Si Si8 0.643372 0.928304 0.761424
O O1 0.750000 0.535819 0.118191
O O2 0.619655 0.750000 0.117980
O O3 0.612475 0.524511 0.183084
O O4 0.590239 0.470583 0.084932
O O5 0.250000 0.535747 0.754246
O O6 0.371195 0.750000 0.779880
O O7 0.413434 0.521816 0.718968
O O8 0.750000 0.456264 0.879361
O O9 0.620678 0.250000 0.859497
O O10 0.589846 0.493112 0.916088
O O11 0.611631 0.519505 0.817579
O O12 0.250000 0.998159 0.496013
O O13 0.350369 0.750000 0.503989
O O14 0.416137 0.988505 0.453656
O O15 0.400352 0.993325 0.553319
O O16 0.482493 0.250000 0.053111
O O17 0.500000 0.500000 0.000000
O O18 0.977051 0.750000 0.302488
O O19 0.092100 0.528022 0.280978
O O20 0.001850 0.515193 0.365554
O O21 0.518058 0.750000 0.428948
O O22 0.750000 0.961521 0.753531
O O23 0.618078 0.750000 0.754847
#
# Coordination Sequence:
#
# PCOD8245233 Si02
#       8
#     8   8   8   8   8   8   8   8
#     4  10  21  39  62  85 111 144 183 227 274 327
#     4  10  21  37  57  81 110 146 186 225 269 323
#     4  10  21  39  62  85 111 145 185 227 272 326
#     4   9  18  35  58  79 102 137 180 225 272 322
#     4  12  25  40  59  83 113 146 183 228 276 329
#     4  11  22  35  54  80 113 149 182 223 272 322
#     4   9  20  36  53  78 109 141 179 222 269 322
#     4  10  21  37  57  82 112 146 184 224 268 321
#
# _framework density 19.321611000000001
#
# number of rings (size 3 to 8) (size 9 to 14) (size 15 to 20)
#    0.000    1.875    0.000    3.750    0.000    5.750 
#    0.000    3.750    0.000    0.000    0.000    0.000 
#    0.000    0.000    0.000    0.000    0.000    0.000 
#
# Total GULP energy -793893.098716 kJ/mol
# GULP energy per Si atom -12404.579667 kJ/mol
# Density = 1.927763 g / cm^3
# Si number density = 19.321611 Si / 1000 Ang^3
#
#
#
# Elastic Constant Matrix: (Units=GPa)
#
#
# Indices 1 2 3 4 5 6 
#
# 1 117.1715 25.1281 61.8933 0.0000 0.0000 0.0000
# 2 25.1281 39.3862 16.0130 0.0000 0.0000 0.0000
# 3 61.8933 16.0130 135.8204 0.0000 0.0000 0.0000
# 4 0.0000 0.0000 0.0000 32.3560 0.0000 0.0000
# 5 0.0000 0.0000 0.0000 0.0000 7.9369 0.0000
# 6 0.0000 0.0000 0.0000 0.0000 0.0000 32.1421
#
#
#
# Elastic Compliance Matrix: (Units=1/GPa)
#
#
# Indices 1 2 3 4 5 6 
#
# 1 0.012424 -0.005908 -0.004965 0.000000 0.000000 0.000000
# 2 -0.005908 0.029477 -0.000783 0.000000 0.000000 0.000000
# 3 -0.004965 -0.000783 0.009718 0.000000 0.000000 0.000000
# 4 0.000000 0.000000 0.000000 0.030906 0.000000 0.000000
# 5 0.000000 0.000000 0.000000 0.000000 0.125994 0.000000
# 6 0.000000 0.000000 0.000000 0.000000 0.000000 0.031112
#
#
# Mechanical properties :
#
#
# Convention : Reuss Voigt Hill
#
# Bulk Modulus (GPa) = 35.32735 55.38301 45.35518
# Shear Modulus (GPa) = 18.35678 27.10992 22.73335
#
# Velocity S-wave (km/s) = 3.08566 3.74985 3.43385
# Velocity P-wave (km/s) = 5.56943 6.89017 6.26470
#
# Compressibility (1/GPa) = 0.02830668
#
# Stress axis : x y z
#
# Youngs Moduli (GPa) = 80.48781 33.92454 102.90586
#
# Poissons Ratio (x) = 0.20042 0.51095
# Poissons Ratio (y) = 0.47552 0.08058
# Poissons Ratio (z) = 0.39964 0.02657
#
# Static dielectric constant tensor:
#      x y z
#    x 3.630340 0.000000 0.000000 
#    y 0.000000 3.606250 0.000000 
#    z 0.000000 0.000000 3.564510 
# 
# 
# High freq. dielectric constant tensor:
#      x y z
#    x 1.763200 0.000000 0.000000 
#    y 0.000000 1.759290 0.000000 
#    z 0.000000 0.000000 1.749470 
# 
# From -- ./inp_files/31498.got.cif
#   From: 2010.03.12/outbox.cif.g09.slc.cpg/sg59_16_cif.got.tgz:31498.got - 2010.04.16 16:29:54.
