data_PCOD8245189
_publ_section_title
;
Structure prediction by ZEFSAII (Michael W. Deem and Ramdas Pophale) SiO2 
 PCOD8245189
Probable space group: P M M N
;
_chemical_formula_sum "Si O2"
_cell_formula_units_Z 48
_cell_length_a 25.296286
_cell_length_b 8.824180
_cell_length_c 11.745751
_cell_angle_alpha 90.000000
_cell_angle_beta 90.000000
_cell_angle_gamma 90.000000
_cell_volume 2621.874569
_symmetry_space_group_name_H-M "P M M N"
_symmetry_group_IT_number 59
_space_group.IT_coordinate_system_code '2'
_symmetry_cell_setting 'orthorhombic'
loop_
_space_group_symop_operation_xyz
x,y,z
1/2-x,1/2-y,z
1/2+x,-y,-z
-x,1/2+y,-z
-x,-y,-z
1/2+x,1/2+y,-z
1/2-x,y,z
x,1/2-y,z
loop_
_atom_site_type_symbol
_atom_site_label
_atom_site_fract_x
_atom_site_fract_y
_atom_site_fract_z
Si Si1 0.905710 0.571535 0.730054
Si Si2 0.408165 0.924879 0.744330
Si Si3 0.191276 0.572418 0.884128
Si Si4 0.690737 0.926834 0.882201
Si Si5 0.001760 0.571203 0.123742
Si Si6 0.942759 0.073835 0.506826
O O1 0.916769 0.750000 0.727113
O O2 0.847886 0.530966 0.778591
O O3 0.948958 0.494824 0.808975
O O4 0.908022 0.505698 0.603437
O O5 0.421156 0.750000 0.774645
O O6 0.349129 0.970841 0.783506
O O7 0.411331 0.952134 0.609887
O O8 0.448709 0.032703 0.808684
O O9 0.250000 0.508855 0.854108
O O10 0.193782 0.750000 0.901289
O O11 0.170288 0.504720 0.002616
O O12 0.750000 0.981999 0.850395
O O13 0.689533 0.750000 0.906627
O O14 0.007781 0.750000 0.112992
O O15 0.000000 0.500000 0.000000
O O16 0.949928 0.250000 0.535743
O O17 0.000000 0.000000 0.500000
#
# Coordination Sequence:
#
# PCOD8245189 Si02
#       6
#     8   8   8   8   8   8
#     4  11  22  37  57  81 111 145 186 232 278 331
#     4  10  21  37  56  79 110 144 184 227 273 330
#     4   9  18  34  57  83 110 142 179 224 277 330
#     4   9  19  36  57  81 110 145 182 224 276 331
#     4  12  24  36  54  80 112 144 179 226 279 335
#     4  11  22  37  57  80 110 150 190 231 277 329
#
# _framework density 18.307513
#
# number of rings (size 3 to 8) (size 9 to 14) (size 15 to 20)
#    0.000    1.667    1.667    3.500    0.000    5.333 
#    0.000    0.833    0.000    1.000    0.000    0.000 
#    0.000    0.000    0.000    0.000    0.000    0.000 
#
# Total GULP energy -595320.740119 kJ/mol
# GULP energy per Si atom -12402.515419 kJ/mol
# Density = 1.826584 g / cm^3
# Si number density = 18.307513 Si / 1000 Ang^3
#
#
#
# Elastic Constant Matrix: (Units=GPa)
#
#
# Indices 1 2 3 4 5 6 
#
# 1 123.7966 52.9642 78.0444 0.0000 0.0000 0.0000
# 2 52.9642 92.7457 63.2045 0.0000 0.0000 0.0000
# 3 78.0444 63.2045 144.5481 0.0000 0.0000 0.0000
# 4 0.0000 0.0000 0.0000 32.5535 0.0000 0.0000
# 5 0.0000 0.0000 0.0000 0.0000 36.1911 0.0000
# 6 0.0000 0.0000 0.0000 0.0000 0.0000 12.2655
#
#
#
# Elastic Compliance Matrix: (Units=1/GPa)
#
#
# Indices 1 2 3 4 5 6 
#
# 1 0.013122 -0.003797 -0.005425 0.000000 0.000000 0.000000
# 2 -0.003797 0.016457 -0.005146 0.000000 0.000000 0.000000
# 3 -0.005425 -0.005146 0.012097 0.000000 0.000000 0.000000
# 4 0.000000 0.000000 0.000000 0.030719 0.000000 0.000000
# 5 0.000000 0.000000 0.000000 0.000000 0.027631 0.000000
# 6 0.000000 0.000000 0.000000 0.000000 0.000000 0.081530
#
#
# Mechanical properties :
#
#
# Convention : Reuss Voigt Hill
#
# Bulk Modulus (GPa) = 77.27128 83.27962 80.27545
# Shear Modulus (GPa) = 23.29864 27.32718 25.31291
#
# Velocity S-wave (km/s) = 3.57126 3.86771 3.72244
# Velocity P-wave (km/s) = 7.70092 8.09528 7.90056
#
# Compressibility (1/GPa) = 0.01294142
#
# Stress axis : x y z
#
# Youngs Moduli (GPa) = 76.20800 60.76303 82.66391
#
# Poissons Ratio (x) = 0.23070 0.44842
# Poissons Ratio (y) = 0.28934 0.42540
# Poissons Ratio (z) = 0.41340 0.31270
#
# Static dielectric constant tensor:
#      x y z
#    x 3.819350 0.000000 0.000000 
#    y 0.000000 3.486410 0.000000 
#    z 0.000000 0.000000 3.584500 
# 
# 
# High freq. dielectric constant tensor:
#      x y z
#    x 1.711910 0.000000 0.000000 
#    y 0.000000 1.715830 0.000000 
#    z 0.000000 0.000000 1.711000 
# 
# From -- ./inp_files/14355.got.cif
#   From: 2010.03.12/outbox.cif.g09.slc.cpg/sg59_8_cif.got.tgz:14355.got - 2010.04.16 16:29:54.
