data_PCOD8245760
_publ_section_title
;
Structure prediction by ZEFSAII (Michael W. Deem and Ramdas Pophale) SiO2 
 PCOD8245760
Probable space group: P M M N
;
_chemical_formula_sum "Si O2"
_cell_formula_units_Z 48
_cell_length_a 28.496005
_cell_length_b 9.034255
_cell_length_c 9.948971
_cell_angle_alpha 90.000000
_cell_angle_beta 90.000000
_cell_angle_gamma 90.000000
_cell_volume 2561.264842
_symmetry_space_group_name_H-M "P M M N"
_symmetry_group_IT_number 59
_space_group.IT_coordinate_system_code '2'
_symmetry_cell_setting 'orthorhombic'
loop_
_space_group_symop_operation_xyz
x,y,z
1/2-x,1/2-y,z
1/2+x,-y,-z
-x,1/2+y,-z
-x,-y,-z
1/2+x,1/2+y,-z
1/2-x,y,z
x,1/2-y,z
loop_
_atom_site_type_symbol
_atom_site_label
_atom_site_fract_x
_atom_site_fract_y
_atom_site_fract_z
Si Si1 0.804508 0.577069 0.973564
Si Si2 0.525560 0.080545 0.380091
Si Si3 0.369986 0.582671 0.522751
Si Si4 0.981562 0.426284 0.866408
Si Si5 0.122037 0.574832 0.218632
Si Si6 0.697541 0.924868 0.274896
O O1 0.750000 0.540682 0.945739
O O2 0.814157 0.750000 0.954502
O O3 0.835887 0.489366 0.868494
O O4 0.818423 0.526218 0.124850
O O5 0.507868 0.250000 0.367720
O O6 0.580561 0.076075 0.404110
O O7 0.500000 0.000000 0.500000
O O8 0.515421 0.988033 0.247649
O O9 0.351182 0.750000 0.517453
O O10 0.373481 0.517385 0.371885
O O11 0.334604 0.487049 0.608845
O O12 0.986081 0.250000 0.873401
O O13 0.928075 0.476803 0.839691
O O14 0.000000 0.500000 0.000000
O O15 0.125150 0.750000 0.214955
O O16 0.750000 0.983498 0.300999
O O17 0.696274 0.750000 0.282761
#
# Coordination Sequence:
#
# PCOD8245760 Si02
#       6
#     8   8   8   8   8   8
#     4   9  20  39  60  84 115 149 189 238 288 341
#     4  11  22  40  62  86 119 159 198 240 290 346
#     4  10  22  39  58  84 117 152 190 235 287 343
#     4  11  24  42  60  86 121 157 198 245 293 348
#     4  10  22  40  58  82 118 153 189 236 288 343
#     4   9  20  39  60  85 116 148 188 238 288 341
#
# _framework density 18.740739999999999
#
# number of rings (size 3 to 8) (size 9 to 14) (size 15 to 20)
#    0.000    2.000    1.667    2.000    2.333    5.333 
#    0.000    5.000    0.000    0.000    0.000    0.000 
#    0.000    0.000    0.000    0.000    0.000    0.000 
#
# Total GULP energy -595221.211311 kJ/mol
# GULP energy per Si atom -12400.441902 kJ/mol
# Density = 1.869808 g / cm^3
# Si number density = 18.740740 Si / 1000 Ang^3
#
#
#
# Elastic Constant Matrix: (Units=GPa)
#
#
# Indices 1 2 3 4 5 6 
#
# 1 89.3835 29.4179 68.0577 0.0000 0.0000 0.0000
# 2 29.4179 48.5461 42.5249 0.0000 0.0000 0.0000
# 3 68.0577 42.5249 164.5451 0.0000 0.0000 0.0000
# 4 0.0000 0.0000 0.0000 39.6640 0.0000 0.0000
# 5 0.0000 0.0000 0.0000 0.0000 38.9693 0.0000
# 6 0.0000 0.0000 0.0000 0.0000 0.0000 36.8922
#
#
#
# Elastic Compliance Matrix: (Units=1/GPa)
#
#
# Indices 1 2 3 4 5 6 
#
# 1 0.017389 -0.005477 -0.005777 0.000000 0.000000 0.000000
# 2 -0.005477 0.028352 -0.005062 0.000000 0.000000 0.000000
# 3 -0.005777 -0.005062 0.009775 0.000000 0.000000 0.000000
# 4 0.000000 0.000000 0.000000 0.025212 0.000000 0.000000
# 5 0.000000 0.000000 0.000000 0.000000 0.025661 0.000000
# 6 0.000000 0.000000 0.000000 0.000000 0.000000 0.027106
#
#
# Mechanical properties :
#
#
# Convention : Reuss Voigt Hill
#
# Bulk Modulus (GPa) = 43.69789 64.71953 54.20871
# Shear Modulus (GPa) = 28.77628 33.93672 31.35650
#
# Velocity S-wave (km/s) = 3.92279 4.26003 4.09488
# Velocity P-wave (km/s) = 6.62460 7.66852 7.16560
#
# Compressibility (1/GPa) = 0.02288440
#
# Stress axis : x y z
#
# Youngs Moduli (GPa) = 57.50818 35.27082 102.30299
#
# Poissons Ratio (x) = 0.19318 0.59098
# Poissons Ratio (y) = 0.31497 0.51785
# Poissons Ratio (z) = 0.33221 0.17854
#
# Static dielectric constant tensor:
#      x y z
#    x 3.464460 0.000000 0.000000 
#    y 0.000000 3.425460 0.000000 
#    z 0.000000 0.000000 3.581320 
# 
# 
# High freq. dielectric constant tensor:
#      x y z
#    x 1.732650 0.000000 0.000000 
#    y 0.000000 1.725700 0.000000 
#    z 0.000000 0.000000 1.742630 
# 
# From -- ./inp_files/6223.got.cif
#   From: 2010.03.12/outbox.cif.g09.slc.cpg/sg59_4_cif.got.tgz:6223.got - 2010.04.16 16:29:54.
