data_PCOD8245319
_publ_section_title
;
Structure prediction by ZEFSAII (Michael W. Deem and Ramdas Pophale) SiO2 
 PCOD8245319
Probable space group: P M M N
;
_chemical_formula_sum "Si O2"
_cell_formula_units_Z 48
_cell_length_a 8.855258
_cell_length_b 9.035790
_cell_length_c 30.559315
_cell_angle_alpha 90.000000
_cell_angle_beta 90.000000
_cell_angle_gamma 90.000000
_cell_volume 2445.180722
_symmetry_space_group_name_H-M "P M M N"
_symmetry_group_IT_number 59
_space_group.IT_coordinate_system_code '2'
_symmetry_cell_setting 'orthorhombic'
loop_
_space_group_symop_operation_xyz
x,y,z
1/2-x,1/2-y,z
1/2+x,-y,-z
-x,1/2+y,-z
-x,-y,-z
1/2+x,1/2+y,-z
1/2-x,y,z
x,1/2-y,z
loop_
_atom_site_type_symbol
_atom_site_label
_atom_site_fract_x
_atom_site_fract_y
_atom_site_fract_z
Si Si1 0.925353 0.422964 0.378157
Si Si2 0.927759 0.418457 0.959292
Si Si3 0.071949 0.580769 0.459110
Si Si4 0.574866 0.078102 0.701124
Si Si5 0.423295 0.419898 0.790943
Si Si6 0.924914 0.422733 0.120769
O O1 0.750000 0.458039 0.385518
O O2 0.958998 0.250000 0.381896
O O3 0.022022 0.506418 0.414298
O O4 0.974998 0.478978 0.330768
O O5 0.750000 0.426886 0.964652
O O6 0.985231 0.250000 0.958805
O O7 0.973934 0.494847 0.914370
O O8 0.000000 0.500000 0.000000
O O9 0.250000 0.568951 0.463361
O O10 0.017568 0.750000 0.459038
O O11 0.000000 0.500000 0.500000
O O12 0.750000 0.041030 0.694186
O O13 0.540652 0.250000 0.691554
O O14 0.528632 0.036528 0.750365
O O15 0.250000 0.449160 0.777552
O O16 0.447908 0.250000 0.804761
O O17 0.472818 0.521516 0.831348
O O18 0.750000 0.459243 0.111621
O O19 0.958320 0.250000 0.117622
#
# Coordination Sequence:
#
# PCOD8245319 Si02
#       6
#     8   8   8   8   8   8
#     4  11  24  40  59  85 116 151 193 238 284 337
#     4  11  24  40  59  84 113 146 186 231 279 333
#     4  11  24  41  62  89 119 151 190 234 281 336
#     4  10  21  37  58  85 116 150 190 236 285 338
#     4   9  18  34  56  81 112 152 193 232 278 332
#     4  10  21  37  58  85 116 149 187 231 279 333
#
# _framework density 19.630451000000001
#
# number of rings (size 3 to 8) (size 9 to 14) (size 15 to 20)
#    0.000    1.667    0.000    4.000    0.000   13.333 
#    0.000    3.333    0.000    0.000    0.000    0.000 
#    0.000    0.000    0.000    0.000    0.000    0.000 
#
# Total GULP energy -595498.020302 kJ/mol
# GULP energy per Si atom -12406.208756 kJ/mol
# Density = 1.958577 g / cm^3
# Si number density = 19.630451 Si / 1000 Ang^3
#
#
#
# Elastic Constant Matrix: (Units=GPa)
#
#
# Indices 1 2 3 4 5 6 
#
# 1 54.9939 50.5440 35.1652 0.0000 0.0000 0.0000
# 2 50.5440 125.1363 66.5861 0.0000 0.0000 0.0000
# 3 35.1652 66.5861 114.3639 0.0000 0.0000 0.0000
# 4 0.0000 0.0000 0.0000 44.2109 0.0000 0.0000
# 5 0.0000 0.0000 0.0000 0.0000 43.0338 0.0000
# 6 0.0000 0.0000 0.0000 0.0000 0.0000 30.5003
#
#
#
# Elastic Compliance Matrix: (Units=1/GPa)
#
#
# Indices 1 2 3 4 5 6 
#
# 1 0.029663 -0.010327 -0.003108 0.000000 0.000000 0.000000
# 2 -0.010327 0.015174 -0.005659 0.000000 0.000000 0.000000
# 3 -0.003108 -0.005659 0.012995 0.000000 0.000000 0.000000
# 4 0.000000 0.000000 0.000000 0.022619 0.000000 0.000000
# 5 0.000000 0.000000 0.000000 0.000000 0.023238 0.000000
# 6 0.000000 0.000000 0.000000 0.000000 0.000000 0.032787
#
#
# Mechanical properties :
#
#
# Convention : Reuss Voigt Hill
#
# Bulk Modulus (GPa) = 50.91046 66.56497 58.73772
# Shear Modulus (GPa) = 27.59212 33.02893 30.31053
#
# Velocity S-wave (km/s) = 3.75317 4.10632 3.93371
# Velocity P-wave (km/s) = 6.69122 7.51433 7.11469
#
# Compressibility (1/GPa) = 0.01964233
#
# Stress axis : x y z
#
# Youngs Moduli (GPa) = 33.71210 65.90236 76.95480
#
# Poissons Ratio (x) = 0.68060 0.23917
# Poissons Ratio (y) = 0.34816 0.43550
# Poissons Ratio (z) = 0.10478 0.37296
#
# Static dielectric constant tensor:
#      x y z
#    x 3.622980 0.000000 0.000000 
#    y 0.000000 3.760260 0.000000 
#    z 0.000000 0.000000 3.772490 
# 
# 
# High freq. dielectric constant tensor:
#      x y z
#    x 1.768800 0.000000 0.000000 
#    y 0.000000 1.773490 0.000000 
#    z 0.000000 0.000000 1.779650 
# 
# From -- ./inp_files/32854.got.cif
#   From: 2010.03.12/outbox.cif.g09.slc.cpg/sg59_17_cif.got.tgz:32854.got - 2010.04.16 16:29:54.
