data_PCOD8245407
_publ_section_title
;
Structure prediction by ZEFSAII (Michael W. Deem and Ramdas Pophale) SiO2 
 PCOD8245407
Probable space group: P M M N
;
_chemical_formula_sum "Si O2"
_cell_formula_units_Z 56
_cell_length_a 20.226713
_cell_length_b 14.980419
_cell_length_c 8.786087
_cell_angle_alpha 90.000000
_cell_angle_beta 90.000000
_cell_angle_gamma 90.000000
_cell_volume 2662.225091
_symmetry_space_group_name_H-M "P M M N"
_symmetry_group_IT_number 59
_space_group.IT_coordinate_system_code '2'
_symmetry_cell_setting 'orthorhombic'
loop_
_space_group_symop_operation_xyz
x,y,z
1/2-x,1/2-y,z
1/2+x,-y,-z
-x,1/2+y,-z
-x,-y,-z
1/2+x,1/2+y,-z
1/2-x,y,z
x,1/2-y,z
loop_
_atom_site_type_symbol
_atom_site_label
_atom_site_fract_x
_atom_site_fract_y
_atom_site_fract_z
Si Si1 0.173783 0.573266 0.117500
Si Si2 0.323893 0.750000 0.601123
Si Si3 0.041277 0.148269 0.837777
Si Si4 0.824995 0.250000 0.037241
Si Si5 0.990685 0.852629 0.813335
Si Si6 0.439879 0.521772 0.328851
Si Si7 0.175359 0.445333 0.839124
Si Si8 0.891720 0.080067 0.366578
O O1 0.250000 0.584976 0.168154
O O2 0.143361 0.660962 0.034451
O O3 0.129452 0.558224 0.265520
O O4 0.167542 0.490261 0.003359
O O5 0.250000 0.750000 0.540041
O O6 0.358641 0.838964 0.539051
O O7 0.329863 0.750000 0.782754
O O8 0.027072 0.250000 0.786295
O O9 0.120200 0.131695 0.824603
O O10 0.002726 0.077777 0.732690
O O11 0.017359 0.131171 0.008421
O O12 0.750000 0.250000 0.985444
O O13 0.975114 0.750000 0.769092
O O14 0.065280 0.878938 0.770720
O O15 0.942975 0.917879 0.718469
O O16 0.437979 0.527785 0.512731
O O17 0.250000 0.406546 0.820248
O O18 0.164633 0.517883 0.705520
#
# Coordination Sequence:
#
# PCOD8245407 Si02
#       8
#     8   4   8   4   8   8   8   8
#     4  10  21  37  62  91 127 166 208 265 320 375
#     4  11  22  37  59  91 129 169 218 256 307 398
#     4  11  25  41  67  98 124 168 218 269 320 367
#     4   9  18  33  57  89 123 169 210 248 307 374
#     4  11  23  43  67  92 124 167 215 262 322 383
#     4  12  25  41  63  96 136 164 209 264 322 377
#     4  11  22  42  66  90 124 169 216 265 317 375
#     4  12  24  38  62  95 129 175 207 253 324 389
#
# _framework density 21.035036000000002
#
# number of rings (size 3 to 8) (size 9 to 14) (size 15 to 20)
#    0.000    1.000    5.000    2.143    2.000    1.429 
#    0.000    0.714    0.000    0.429    0.000    0.000 
#    0.000    0.000    0.000    0.000    0.000    0.000 
#
# Total GULP energy -694403.837650 kJ/mol
# GULP energy per Si atom -12400.068529 kJ/mol
# Density = 2.098716 g / cm^3
# Si number density = 21.035036 Si / 1000 Ang^3
#
#
#
# Elastic Constant Matrix: (Units=GPa)
#
#
# Indices 1 2 3 4 5 6 
#
# 1 121.6062 29.0278 30.8609 0.0000 0.0000 0.0000
# 2 29.0278 101.5873 31.5461 0.0000 0.0000 0.0000
# 3 30.8609 31.5461 70.2959 0.0000 0.0000 0.0000
# 4 0.0000 0.0000 0.0000 23.5783 0.0000 0.0000
# 5 0.0000 0.0000 0.0000 0.0000 24.7362 0.0000
# 6 0.0000 0.0000 0.0000 0.0000 0.0000 28.6045
#
#
#
# Elastic Compliance Matrix: (Units=1/GPa)
#
#
# Indices 1 2 3 4 5 6 
#
# 1 0.009486 -0.001647 -0.003425 0.000000 0.000000 0.000000
# 2 -0.001647 0.011724 -0.004538 0.000000 0.000000 0.000000
# 3 -0.003425 -0.004538 0.017766 0.000000 0.000000 0.000000
# 4 0.000000 0.000000 0.000000 0.042412 0.000000 0.000000
# 5 0.000000 0.000000 0.000000 0.000000 0.040427 0.000000
# 6 0.000000 0.000000 0.000000 0.000000 0.000000 0.034960
#
#
# Mechanical properties :
#
#
# Convention : Reuss Voigt Hill
#
# Bulk Modulus (GPa) = 50.62106 52.92877 51.77492
# Shear Modulus (GPa) = 27.38551 28.85411 28.11981
#
# Velocity S-wave (km/s) = 3.61210 3.70769 3.66021
# Velocity P-wave (km/s) = 6.44311 6.59895 6.52149
#
# Compressibility (1/GPa) = 0.01975462
#
# Stress axis : x y z
#
# Youngs Moduli (GPa) = 105.42270 85.29853 56.28772
#
# Poissons Ratio (x) = 0.14047 0.19280
# Poissons Ratio (y) = 0.17361 0.25544
# Poissons Ratio (z) = 0.36111 0.38709
#
# Static dielectric constant tensor:
#      x y z
#    x 3.866550 0.000000 0.000000 
#    y 0.000000 4.028980 0.000000 
#    z 0.000000 0.000000 3.517920 
# 
# 
# High freq. dielectric constant tensor:
#      x y z
#    x 1.829260 0.000000 0.000000 
#    y 0.000000 1.820350 0.000000 
#    z 0.000000 0.000000 1.811610 
# 
# From -- ./inp_files/11471.got.cif
#   From: 2010.03.12/outbox.cif.g09.slc.cpg/sg59_6_cif.got.tgz:11471.got - 2010.04.16 16:29:54.
