data_PCOD8245713
_publ_section_title
;
Structure prediction by ZEFSAII (Michael W. Deem and Ramdas Pophale) SiO2 
 PCOD8245713
Probable space group: P M M N
;
_chemical_formula_sum "Si O2"
_cell_formula_units_Z 40
_cell_length_a 8.639149
_cell_length_b 26.086236
_cell_length_c 9.256220
_cell_angle_alpha 90.000000
_cell_angle_beta 90.000000
_cell_angle_gamma 90.000000
_cell_volume 2086.008394
_symmetry_space_group_name_H-M "P M M N"
_symmetry_group_IT_number 59
_space_group.IT_coordinate_system_code '2'
_symmetry_cell_setting 'orthorhombic'
loop_
_space_group_symop_operation_xyz
x,y,z
1/2-x,1/2-y,z
1/2+x,-y,-z
-x,1/2+y,-z
-x,-y,-z
1/2+x,1/2+y,-z
1/2-x,y,z
x,1/2-y,z
loop_
_atom_site_type_symbol
_atom_site_label
_atom_site_fract_x
_atom_site_fract_y
_atom_site_fract_z
Si Si1 0.918732 0.250000 0.080113
Si Si2 0.421382 0.750000 0.577938
Si Si3 0.932392 0.046543 0.912029
Si Si4 0.433245 0.143074 0.413355
Si Si5 0.066107 0.951322 0.417514
Si Si6 0.935567 0.358973 0.099318
O O1 0.750000 0.250000 0.006274
O O2 0.903436 0.250000 0.251778
O O3 0.001853 0.303807 0.039571
O O4 0.250000 0.750000 0.506535
O O5 0.512065 0.698791 0.530093
O O6 0.750000 0.043422 0.921467
O O7 0.989464 0.044352 0.747894
O O8 0.991572 0.098965 0.985381
O O9 0.000000 0.000000 0.000000
O O10 0.250000 0.141530 0.410971
O O11 0.497423 0.101109 0.522781
O O12 0.494760 0.128376 0.255095
O O13 0.250000 0.950436 0.432031
O O14 0.000000 0.000000 0.500000
O O15 0.750000 0.356018 0.115800
#
# Coordination Sequence:
#
# PCOD8245713 Si02
#       6
#     4   4   8   8   8   8
#     4   7  12  25  50  77 100 128 166 206 254 309
#     4   9  17  33  56  81 110 148 186 224 266 315
#     4  10  22  37  55  78 105 137 179 225 273 326
#     4  11  21  34  55  85 115 146 182 224 270 323
#     4  11  23  39  56  79 109 145 186 229 276 330
#     4   9  17  33  55  79 106 139 176 220 268 319
#
# _framework density 19.175377000000001
#
# number of rings (size 3 to 8) (size 9 to 14) (size 15 to 20)
#    0.000    2.200    0.000    5.100    0.000    5.600 
#    0.000    1.000    0.000    3.600    0.000    2.800 
#    0.000    0.000    0.000    0.000    0.000    0.000 
#
# Total GULP energy -495820.635979 kJ/mol
# GULP energy per Si atom -12395.515899 kJ/mol
# Density = 1.913173 g / cm^3
# Si number density = 19.175377 Si / 1000 Ang^3
#
#
#
# Elastic Constant Matrix: (Units=GPa)
#
#
# Indices 1 2 3 4 5 6 
#
# 1 78.1948 47.6345 41.0517 0.0000 0.0000 0.0000
# 2 47.6345 206.7568 96.5861 0.0000 0.0000 0.0000
# 3 41.0517 96.5861 126.9655 0.0000 0.0000 0.0000
# 4 0.0000 0.0000 0.0000 34.6919 0.0000 0.0000
# 5 0.0000 0.0000 0.0000 0.0000 21.7640 0.0000
# 6 0.0000 0.0000 0.0000 0.0000 0.0000 34.1748
#
#
#
# Elastic Compliance Matrix: (Units=1/GPa)
#
#
# Indices 1 2 3 4 5 6 
#
# 1 0.015898 -0.001957 -0.003652 0.000000 0.000000 0.000000
# 2 -0.001957 0.007744 -0.005258 0.000000 0.000000 0.000000
# 3 -0.003652 -0.005258 0.013057 0.000000 0.000000 0.000000
# 4 0.000000 0.000000 0.000000 0.028825 0.000000 0.000000
# 5 0.000000 0.000000 0.000000 0.000000 0.045948 0.000000
# 6 0.000000 0.000000 0.000000 0.000000 0.000000 0.029261
#
#
# Mechanical properties :
#
#
# Convention : Reuss Voigt Hill
#
# Bulk Modulus (GPa) = 66.82206 86.94020 76.88113
# Shear Modulus (GPa) = 29.85893 33.23577 31.54735
#
# Velocity S-wave (km/s) = 3.95035 4.16775 4.06051
# Velocity P-wave (km/s) = 7.46529 8.28240 7.88444
#
# Compressibility (1/GPa) = 0.01496512
#
# Stress axis : x y z
#
# Youngs Moduli (GPa) = 62.90225 129.13562 76.58791
#
# Poissons Ratio (x) = 0.25270 0.27967
# Poissons Ratio (y) = 0.12309 0.40272
# Poissons Ratio (z) = 0.22969 0.67902
#
# Static dielectric constant tensor:
#      x y z
#    x 3.446110 0.000000 0.000000 
#    y 0.000000 4.105680 0.000000 
#    z 0.000000 0.000000 3.407760 
# 
# 
# High freq. dielectric constant tensor:
#      x y z
#    x 1.734700 0.000000 0.000000 
#    y 0.000000 1.774220 0.000000 
#    z 0.000000 0.000000 1.721130 
# 
# From -- ./inp_files/5953.got.cif
#   From: 2010.03.12/outbox.cif.g09.slc.cpg/sg59_3_cif.got.tgz:5953.got - 2010.04.16 16:29:54.
