data_PCOD8245225
_publ_section_title
;
Structure prediction by ZEFSAII (Michael W. Deem and Ramdas Pophale) SiO2 
 PCOD8245225
Probable space group: P M M N
;
_chemical_formula_sum "Si O2"
_cell_formula_units_Z 48
_cell_length_a 9.131739
_cell_length_b 9.277435
_cell_length_c 30.980558
_cell_angle_alpha 90.000000
_cell_angle_beta 90.000000
_cell_angle_gamma 90.000000
_cell_volume 2624.645456
_symmetry_space_group_name_H-M "P M M N"
_symmetry_group_IT_number 59
_space_group.IT_coordinate_system_code '2'
_symmetry_cell_setting 'orthorhombic'
loop_
_space_group_symop_operation_xyz
x,y,z
1/2-x,1/2-y,z
1/2+x,-y,-z
-x,1/2+y,-z
-x,-y,-z
1/2+x,1/2+y,-z
1/2-x,y,z
x,1/2-y,z
loop_
_atom_site_type_symbol
_atom_site_label
_atom_site_fract_x
_atom_site_fract_y
_atom_site_fract_z
Si Si1 0.578495 0.584663 0.285412
Si Si2 0.077027 0.586345 0.462742
Si Si3 0.577535 0.919701 0.039088
Si Si4 0.921591 0.582607 0.885169
Si Si5 0.582860 0.082909 0.202159
Si Si6 0.586883 0.421899 0.631804
O O1 0.750000 0.565144 0.289508
O O2 0.531156 0.750000 0.279912
O O3 0.519916 0.501136 0.243503
O O4 0.511915 0.517692 0.329260
O O5 0.250000 0.573126 0.467825
O O6 0.024840 0.750000 0.467408
O O7 0.030100 0.525582 0.415303
O O8 0.000000 0.500000 0.500000
O O9 0.750000 0.951667 0.037533
O O10 0.545442 0.750000 0.035934
O O11 0.511140 0.980961 0.082992
O O12 0.500000 0.000000 0.000000
O O13 0.750000 0.547552 0.888443
O O14 0.952254 0.750000 0.896468
O O15 0.978176 0.544578 0.837594
O O16 0.750000 0.036246 0.191193
O O17 0.576016 0.250000 0.213561
O O18 0.750000 0.480141 0.639983
O O19 0.586035 0.250000 0.631118
#
# Coordination Sequence:
#
# PCOD8245225 Si02
#       6
#     8   8   8   8   8   8
#     4   9  17  29  47  71  95 121 160 206 245 288
#     4   9  18  32  49  70  96 126 162 204 249 299
#     4  11  24  40  59  84 112 142 177 216 258 305
#     4  10  21  37  57  81 108 139 177 217 256 302
#     4   9  18  33  51  71 100 137 169 201 250 304
#     4   8  15  29  47  66  91 123 157 195 242 295
#
# _framework density 18.288183
#
# number of rings (size 3 to 8) (size 9 to 14) (size 15 to 20)
#    0.000    2.667    0.000    2.500    0.000    6.667 
#    0.000    4.167    0.000    3.000    0.000    0.000 
#    0.000    0.000    0.000    0.000    0.000    0.000 
#
# Total GULP energy -595094.866403 kJ/mol
# GULP energy per Si atom -12397.809717 kJ/mol
# Density = 1.824656 g / cm^3
# Si number density = 18.288183 Si / 1000 Ang^3
#
#
#
# Elastic Constant Matrix: (Units=GPa)
#
#
# Indices 1 2 3 4 5 6 
#
# 1 80.6584 50.5374 72.7808 0.0000 0.0000 0.0000
# 2 50.5374 70.2587 74.3719 0.0000 0.0000 0.0000
# 3 72.7808 74.3719 175.9026 0.0000 0.0000 0.0000
# 4 0.0000 0.0000 0.0000 35.6144 0.0000 0.0000
# 5 0.0000 0.0000 0.0000 0.0000 40.6506 0.0000
# 6 0.0000 0.0000 0.0000 0.0000 0.0000 23.9286
#
#
#
# Elastic Compliance Matrix: (Units=1/GPa)
#
#
# Indices 1 2 3 4 5 6 
#
# 1 0.024704 -0.012580 -0.004902 0.000000 0.000000 0.000000
# 2 -0.012580 0.032170 -0.008396 0.000000 0.000000 0.000000
# 3 -0.004902 -0.008396 0.011263 0.000000 0.000000 0.000000
# 4 0.000000 0.000000 0.000000 0.028079 0.000000 0.000000
# 5 0.000000 0.000000 0.000000 0.000000 0.024600 0.000000
# 6 0.000000 0.000000 0.000000 0.000000 0.000000 0.041791
#
#
# Mechanical properties :
#
#
# Convention : Reuss Voigt Hill
#
# Bulk Modulus (GPa) = 61.05288 80.24443 70.64866
# Shear Modulus (GPa) = 22.74543 28.64736 25.69640
#
# Velocity S-wave (km/s) = 3.53047 3.96212 3.75251
# Velocity P-wave (km/s) = 7.07639 8.05632 7.58220
#
# Compressibility (1/GPa) = 0.01637924
#
# Stress axis : x y z
#
# Youngs Moduli (GPa) = 40.47961 31.08489 88.78299
#
# Poissons Ratio (x) = 0.39105 0.43526
# Poissons Ratio (y) = 0.50924 0.74546
# Poissons Ratio (z) = 0.19845 0.26100
#
# Static dielectric constant tensor:
#      x y z
#    x 3.279720 0.000000 0.000000 
#    y 0.000000 3.254030 0.000000 
#    z 0.000000 0.000000 3.661990 
# 
# 
# High freq. dielectric constant tensor:
#      x y z
#    x 1.706100 0.000000 0.000000 
#    y 0.000000 1.685500 0.000000 
#    z 0.000000 0.000000 1.727050 
# 
# From -- ./inp_files/32843.got.cif
#   From: 2010.03.12/outbox.cif.g09.slc.cpg/sg59_17_cif.got.tgz:32843.got - 2010.04.16 16:29:54.
