data_PCOD8245409
_publ_section_title
;
Structure prediction by ZEFSAII (Michael W. Deem and Ramdas Pophale) SiO2 
 PCOD8245409
Probable space group: P M M N
;
_chemical_formula_sum "Si O2"
_cell_formula_units_Z 56
_cell_length_a 8.933856
_cell_length_b 15.423706
_cell_length_c 21.389263
_cell_angle_alpha 90.000000
_cell_angle_beta 90.000000
_cell_angle_gamma 90.000000
_cell_volume 2947.294318
_symmetry_space_group_name_H-M "P M M N"
_symmetry_group_IT_number 59
_space_group.IT_coordinate_system_code '2'
_symmetry_cell_setting 'orthorhombic'
loop_
_space_group_symop_operation_xyz
x,y,z
1/2-x,1/2-y,z
1/2+x,-y,-z
-x,1/2+y,-z
-x,-y,-z
1/2+x,1/2+y,-z
1/2-x,y,z
x,1/2-y,z
loop_
_atom_site_type_symbol
_atom_site_label
_atom_site_fract_x
_atom_site_fract_y
_atom_site_fract_z
Si Si1 0.920518 0.347044 0.380262
Si Si2 0.072603 0.505440 0.714778
Si Si3 0.426968 0.092966 0.501143
Si Si4 0.572239 0.345561 0.926650
Si Si5 0.427375 0.008186 0.151234
Si Si6 0.077201 0.850157 0.931799
Si Si7 0.927461 0.844949 0.365072
O O1 0.750000 0.370310 0.398687
O O2 0.932900 0.250000 0.352694
O O3 0.977383 0.413432 0.327699
O O4 0.020909 0.351691 0.441975
O O5 0.250000 0.503608 0.724771
O O6 0.010732 0.418068 0.681818
O O7 0.993447 0.515340 0.780342
O O8 0.250000 0.083329 0.499820
O O9 0.482861 0.139655 0.564247
O O10 0.500000 0.000000 0.500000
O O11 0.750000 0.344078 0.925433
O O12 0.512256 0.250000 0.905722
O O13 0.509156 0.420270 0.881189
O O14 0.520634 0.365359 0.997389
O O15 0.250000 0.005488 0.154966
O O16 0.475536 0.092115 0.112714
O O17 0.250000 0.877789 0.924230
O O18 0.056229 0.750000 0.912722
O O19 0.750000 0.849401 0.364249
O O20 0.984494 0.750000 0.343073
#
# Coordination Sequence:
#
# PCOD8245409 Si02
#       7
#     8   8   8   8   8   8   8
#     4  10  21  38  58  80 106 140 184 230 276 325
#     4  10  21  38  54  73 106 149 189 222 261 321
#     4  11  20  34  58  85 113 141 176 222 278 331
#     4   8  16  33  56  81 110 143 178 217 266 326
#     4  11  22  34  53  82 113 143 178 225 276 316
#     4   9  18  35  59  82 105 141 184 219 262 326
#     4   9  18  34  56  79 104 137 178 222 268 318
#
# _framework density 19.000478000000001
#
# number of rings (size 3 to 8) (size 9 to 14) (size 15 to 20)
#    0.000    2.286    1.429    2.571    0.000    2.857 
#    0.000    2.143    0.000    4.714    0.000    0.000 
#    0.000    0.000    0.000    0.000    0.000    0.000 
#
# Total GULP energy -694355.400816 kJ/mol
# GULP energy per Si atom -12399.203586 kJ/mol
# Density = 1.895723 g / cm^3
# Si number density = 19.000478 Si / 1000 Ang^3
#
#
#
# Elastic Constant Matrix: (Units=GPa)
#
#
# Indices 1 2 3 4 5 6 
#
# 1 36.3897 15.8957 19.3107 0.0000 0.0000 0.0000
# 2 15.8957 118.9946 41.4939 0.0000 0.0000 0.0000
# 3 19.3107 41.4939 98.7815 0.0000 0.0000 0.0000
# 4 0.0000 0.0000 0.0000 16.3633 0.0000 0.0000
# 5 0.0000 0.0000 0.0000 0.0000 19.0900 0.0000
# 6 0.0000 0.0000 0.0000 0.0000 0.0000 21.0680
#
#
#
# Elastic Compliance Matrix: (Units=1/GPa)
#
#
# Indices 1 2 3 4 5 6 
#
# 1 0.031232 -0.002394 -0.005100 0.000000 0.000000 0.000000
# 2 -0.002394 0.010029 -0.003745 0.000000 0.000000 0.000000
# 3 -0.005100 -0.003745 0.012693 0.000000 0.000000 0.000000
# 4 0.000000 0.000000 0.000000 0.061112 0.000000 0.000000
# 5 0.000000 0.000000 0.000000 0.000000 0.052384 0.000000
# 6 0.000000 0.000000 0.000000 0.000000 0.000000 0.047465
#
#
# Mechanical properties :
#
#
# Convention : Reuss Voigt Hill
#
# Bulk Modulus (GPa) = 31.76857 45.28518 38.52687
# Shear Modulus (GPa) = 20.17052 23.13529 21.65290
#
# Velocity S-wave (km/s) = 3.26172 3.49322 3.37946
# Velocity P-wave (km/s) = 5.56249 6.33684 5.96225
#
# Compressibility (1/GPa) = 0.03147766
#
# Stress axis : x y z
#
# Youngs Moduli (GPa) = 32.01811 99.70697 78.78071
#
# Poissons Ratio (x) = 0.23867 0.40179
# Poissons Ratio (y) = 0.07664 0.29503
# Poissons Ratio (z) = 0.16329 0.37340
#
# Static dielectric constant tensor:
#      x y z
#    x 3.213270 0.000000 0.000000 
#    y 0.000000 3.856840 0.000000 
#    z 0.000000 0.000000 3.612590 
# 
# 
# High freq. dielectric constant tensor:
#      x y z
#    x 1.706760 0.000000 0.000000 
#    y 0.000000 1.757460 0.000000 
#    z 0.000000 0.000000 1.735620 
# 
# From -- ./inp_files/29161.got.cif
#   From: 2010.03.12/outbox.cif.g09.slc.cpg/sg59_15_cif.got.tgz:29161.got - 2010.04.16 16:29:54.
