data_PCOD8245282
_publ_section_title
;
Structure prediction by ZEFSAII (Michael W. Deem and Ramdas Pophale) SiO2 
 PCOD8245282
Probable space group: P M M N
;
_chemical_formula_sum "Si O2"
_cell_formula_units_Z 40
_cell_length_a 8.792782
_cell_length_b 14.283323
_cell_length_c 17.167700
_cell_angle_alpha 90.000000
_cell_angle_beta 90.000000
_cell_angle_gamma 90.000000
_cell_volume 2156.093939
_symmetry_space_group_name_H-M "P M M N"
_symmetry_group_IT_number 59
_space_group.IT_coordinate_system_code '2'
_symmetry_cell_setting 'orthorhombic'
loop_
_space_group_symop_operation_xyz
x,y,z
1/2-x,1/2-y,z
1/2+x,-y,-z
-x,1/2+y,-z
-x,-y,-z
1/2+x,1/2+y,-z
1/2-x,y,z
x,1/2-y,z
loop_
_atom_site_type_symbol
_atom_site_label
_atom_site_fract_x
_atom_site_fract_y
_atom_site_fract_z
Si Si1 0.929268 0.448201 0.215757
Si Si2 0.925869 0.357488 0.502910
Si Si3 0.570309 0.052028 0.927042
Si Si4 0.071036 0.750000 0.017503
Si Si5 0.430483 0.750000 0.843339
Si Si6 0.574025 0.982238 0.621963
O O1 0.750000 0.455293 0.204489
O O2 0.987631 0.341945 0.202443
O O3 0.007327 0.515588 0.153948
O O4 0.974077 0.482451 0.300893
O O5 0.750000 0.366875 0.478247
O O6 0.969602 0.250000 0.520810
O O7 0.959269 0.419118 0.579450
O O8 0.027042 0.394973 0.431977
O O9 0.750000 0.039306 0.929591
O O10 0.519407 0.159983 0.933716
O O11 0.500000 0.000000 0.000000
O O12 0.250000 0.750000 0.005390
O O13 0.998938 0.750000 0.930499
O O14 0.250000 0.750000 0.847144
O O15 0.750000 0.971594 0.643907
#
# Coordination Sequence:
#
# PCOD8245282 Si02
#       6
#     8   8   8   4   4   8
#     4  11  22  38  58  82 114 150 187 230 279 334
#     4   9  19  38  62  83 109 150 189 221 274 344
#     4  11  21  37  59  82 110 148 190 234 281 335
#     4   9  18  36  58  78 105 148 191 224 278 343
#     4   9  18  34  56  80 107 146 187 220 272 343
#     4  10  21  37  57  86 117 144 184 233 278 329
#
# _framework density 18.552066
#
# number of rings (size 3 to 8) (size 9 to 14) (size 15 to 20)
#    0.000    2.000    2.000    1.800    1.400    1.200 
#    1.800    4.500    0.000    0.000    0.000    0.000 
#    0.000    0.000    0.000    0.000    0.000    0.000 
#
# Total GULP energy -496069.054754 kJ/mol
# GULP energy per Si atom -12401.726369 kJ/mol
# Density = 1.850984 g / cm^3
# Si number density = 18.552066 Si / 1000 Ang^3
#
#
#
# Elastic Constant Matrix: (Units=GPa)
#
#
# Indices 1 2 3 4 5 6 
#
# 1 61.7153 44.8573 32.4490 0.0000 0.0000 0.0000
# 2 44.8573 164.1722 69.2608 0.0000 0.0000 0.0000
# 3 32.4490 69.2608 117.1484 0.0000 0.0000 0.0000
# 4 0.0000 0.0000 0.0000 21.9875 0.0000 0.0000
# 5 0.0000 0.0000 0.0000 0.0000 37.1904 0.0000
# 6 0.0000 0.0000 0.0000 0.0000 0.0000 27.1284
#
#
#
# Elastic Compliance Matrix: (Units=1/GPa)
#
#
# Indices 1 2 3 4 5 6 
#
# 1 0.021107 -0.004397 -0.003246 0.000000 0.000000 0.000000
# 2 -0.004397 0.009031 -0.004122 0.000000 0.000000 0.000000
# 3 -0.003246 -0.004122 0.011872 0.000000 0.000000 0.000000
# 4 0.000000 0.000000 0.000000 0.045480 0.000000 0.000000
# 5 0.000000 0.000000 0.000000 0.000000 0.026889 0.000000
# 6 0.000000 0.000000 0.000000 0.000000 0.000000 0.036862
#
#
# Mechanical properties :
#
#
# Convention : Reuss Voigt Hill
#
# Bulk Modulus (GPa) = 54.11442 70.68558 62.40000
# Shear Modulus (GPa) = 27.63472 30.35919 28.99695
#
# Velocity S-wave (km/s) = 3.86369 4.04967 3.95777
# Velocity P-wave (km/s) = 7.00974 7.74922 7.38873
#
# Compressibility (1/GPa) = 0.01847936
#
# Stress axis : x y z
#
# Youngs Moduli (GPa) = 47.37847 110.72363 84.23039
#
# Poissons Ratio (x) = 0.48690 0.27345
# Poissons Ratio (y) = 0.20834 0.34716
# Poissons Ratio (z) = 0.15381 0.45636
#
# Static dielectric constant tensor:
#      x y z
#    x 3.194790 0.000000 0.000000 
#    y 0.000000 3.430510 0.000000 
#    z 0.000000 0.000000 3.390780 
# 
# 
# High freq. dielectric constant tensor:
#      x y z
#    x 1.711380 0.000000 0.000000 
#    y 0.000000 1.729470 0.000000 
#    z 0.000000 0.000000 1.719410 
# 
# From -- ./inp_files/19946.got.cif
#   From: 2010.03.12/outbox.cif.g09.slc.cpg/sg59_10_cif.got.tgz:19946.got - 2010.04.16 16:29:54.
