data_PCOD8245621
_publ_section_title
;
Structure prediction by ZEFSAII (Michael W. Deem and Ramdas Pophale) SiO2 
 PCOD8245621
Probable space group: P M M N
;
_chemical_formula_sum "Si O2"
_cell_formula_units_Z 56
_cell_length_a 16.042657
_cell_length_b 9.072766
_cell_length_c 19.296518
_cell_angle_alpha 90.000000
_cell_angle_beta 90.000000
_cell_angle_gamma 90.000000
_cell_volume 2808.632759
_symmetry_space_group_name_H-M "P M M N"
_symmetry_group_IT_number 59
_space_group.IT_coordinate_system_code '2'
_symmetry_cell_setting 'orthorhombic'
loop_
_space_group_symop_operation_xyz
x,y,z
1/2-x,1/2-y,z
1/2+x,-y,-z
-x,1/2+y,-z
-x,-y,-z
1/2+x,1/2+y,-z
1/2-x,y,z
x,1/2-y,z
loop_
_atom_site_type_symbol
_atom_site_label
_atom_site_fract_x
_atom_site_fract_y
_atom_site_fract_z
Si Si1 0.588085 0.076198 0.708620
Si Si2 0.152594 0.418429 0.421352
Si Si3 0.421427 0.579869 0.703917
Si Si4 0.651780 0.583272 0.422463
Si Si5 0.656970 0.579786 0.834261
Si Si6 0.000915 0.074435 0.073924
Si Si7 0.340632 0.921475 0.843776
O O1 0.590701 0.250000 0.712839
O O2 0.605307 0.027085 0.630034
O O3 0.498463 0.015748 0.730738
O O4 0.654499 0.010361 0.762520
O O5 0.250000 0.447986 0.414765
O O6 0.131438 0.250000 0.401946
O O7 0.122465 0.453018 0.499464
O O8 0.448383 0.750000 0.700238
O O9 0.391644 0.531014 0.628441
O O10 0.350278 0.553703 0.761270
O O11 0.750000 0.564776 0.416748
O O12 0.625805 0.750000 0.402444
O O13 0.750000 0.557001 0.866308
O O14 0.641013 0.750000 0.816000
O O15 0.585890 0.523921 0.887335
O O16 0.998916 0.250000 0.066493
O O17 0.919196 0.012013 0.114305
O O18 0.000000 0.000000 0.000000
O O19 0.250000 0.990821 0.865069
O O20 0.338748 0.750000 0.860844
#
# Coordination Sequence:
#
# PCOD8245621 Si02
#       7
#     8   8   8   8   8   8   8
#     4  12  24  36  55  84 117 149 193 252 305 347
#     4   9  19  37  58  78 108 153 197 238 294 362
#     4  11  21  36  58  82 112 152 200 244 291 356
#     4   9  19  36  56  81 114 149 190 244 302 354
#     4  10  21  40  64  87 117 160 202 237 285 354
#     4  10  21  39  61  89 123 156 192 234 283 342
#     4   9  18  35  60  87 115 150 193 238 285 340
#
# _framework density 19.938528000000002
#
# number of rings (size 3 to 8) (size 9 to 14) (size 15 to 20)
#    0.000    2.000    1.429    3.429    0.000    5.429 
#    0.000    1.429    0.000    1.714    0.000    0.000 
#    0.000    0.000    0.000    0.000    0.000    0.000 
#
# Total GULP energy -694316.681962 kJ/mol
# GULP energy per Si atom -12398.512178 kJ/mol
# Density = 1.989315 g / cm^3
# Si number density = 19.938528 Si / 1000 Ang^3
#
#
#
# Elastic Constant Matrix: (Units=GPa)
#
#
# Indices 1 2 3 4 5 6 
#
# 1 131.1769 32.7218 58.4725 0.0000 0.0000 0.0000
# 2 32.7218 72.2940 41.8837 0.0000 0.0000 0.0000
# 3 58.4725 41.8837 118.8616 0.0000 0.0000 0.0000
# 4 0.0000 0.0000 0.0000 35.1899 0.0000 0.0000
# 5 0.0000 0.0000 0.0000 0.0000 27.9010 0.0000
# 6 0.0000 0.0000 0.0000 0.0000 0.0000 20.3837
#
#
#
# Elastic Compliance Matrix: (Units=1/GPa)
#
#
# Indices 1 2 3 4 5 6 
#
# 1 0.010014 -0.002109 -0.004183 0.000000 0.000000 0.000000
# 2 -0.002109 0.017825 -0.005243 0.000000 0.000000 0.000000
# 3 -0.004183 -0.005243 0.012319 0.000000 0.000000 0.000000
# 4 0.000000 0.000000 0.000000 0.028417 0.000000 0.000000
# 5 0.000000 0.000000 0.000000 0.000000 0.035841 0.000000
# 6 0.000000 0.000000 0.000000 0.000000 0.000000 0.049059
#
#
# Mechanical properties :
#
#
# Convention : Reuss Voigt Hill
#
# Bulk Modulus (GPa) = 58.52675 65.38762 61.95718
# Shear Modulus (GPa) = 27.43616 29.31188 28.37402
#
# Velocity S-wave (km/s) = 3.71352 3.83836 3.77646
# Velocity P-wave (km/s) = 6.91407 7.24637 7.08217
#
# Compressibility (1/GPa) = 0.01708620
#
# Stress axis : x y z
#
# Youngs Moduli (GPa) = 99.85995 56.10150 81.17786
#
# Poissons Ratio (x) = 0.11832 0.33957
# Poissons Ratio (y) = 0.21061 0.42565
# Poissons Ratio (z) = 0.41772 0.29417
#
# Static dielectric constant tensor:
#      x y z
#    x 3.859340 0.000000 0.000000 
#    y 0.000000 3.378120 0.000000 
#    z 0.000000 0.000000 3.638980 
# 
# 
# High freq. dielectric constant tensor:
#      x y z
#    x 1.787260 0.000000 0.000000 
#    y 0.000000 1.752410 0.000000 
#    z 0.000000 0.000000 1.776120 
# 
# From -- ./inp_files/30377.got.cif
#   From: 2010.03.12/outbox.cif.g09.slc.cpg/sg59_16_cif.got.tgz:30377.got - 2010.04.16 16:29:54.
