data_PCOD8245814
_publ_section_title
;
Structure prediction by ZEFSAII (Michael W. Deem and Ramdas Pophale) SiO2 
 PCOD8245814
Probable space group: P M M N
;
_chemical_formula_sum "Si O2"
_cell_formula_units_Z 48
_cell_length_a 8.827235
_cell_length_b 19.030996
_cell_length_c 14.805063
_cell_angle_alpha 90.000000
_cell_angle_beta 90.000000
_cell_angle_gamma 90.000000
_cell_volume 2487.118434
_symmetry_space_group_name_H-M "P M M N"
_symmetry_group_IT_number 59
_space_group.IT_coordinate_system_code '2'
_symmetry_cell_setting 'orthorhombic'
loop_
_space_group_symop_operation_xyz
x,y,z
1/2-x,1/2-y,z
1/2+x,-y,-z
-x,1/2+y,-z
-x,-y,-z
1/2+x,1/2+y,-z
1/2-x,y,z
x,1/2-y,z
loop_
_atom_site_type_symbol
_atom_site_label
_atom_site_fract_x
_atom_site_fract_y
_atom_site_fract_z
Si Si1 0.576034 0.830906 0.618136
Si Si2 0.575559 0.669291 0.926365
Si Si3 0.073201 0.916562 0.774035
Si Si4 0.425227 0.432191 0.543322
Si Si5 0.072607 0.563810 0.267500
Si Si6 0.423385 0.168800 0.864826
O O1 0.750000 0.840337 0.649199
O O2 0.530802 0.750000 0.608994
O O3 0.469074 0.865835 0.691932
O O4 0.548806 0.865694 0.521036
O O5 0.750000 0.654170 0.901819
O O6 0.536419 0.750000 0.904113
O O7 0.468005 0.619483 0.868522
O O8 0.543969 0.652761 0.030665
O O9 0.250000 0.932557 0.771395
O O10 0.985644 0.989239 0.766517
O O11 0.500000 0.500000 0.500000
O O12 0.250000 0.449184 0.558018
O O13 0.497877 0.413319 0.638717
O O14 0.250000 0.558302 0.282779
O O15 0.036593 0.622541 0.193625
O O16 0.250000 0.149671 0.841125
O O17 0.455098 0.250000 0.843229
#
# Coordination Sequence:
#
# PCOD8245814 Si02
#       6
#     8   8   8   8   8   8
#     4  10  22  40  62  88 119 156 197 242 297 361
#     4   9  19  38  63  88 119 159 198 242 301 363
#     4  12  24  37  58  88 122 159 200 248 299 356
#     4  11  22  39  63  88 118 158 199 244 298 356
#     4  12  25  40  61  88 121 161 201 249 302 355
#     4   9  20  41  66  90 118 155 200 249 300 358
#
# _framework density 19.299441999999999
#
# number of rings (size 3 to 8) (size 9 to 14) (size 15 to 20)
#    0.000    1.500    1.667    5.000    0.000    5.667 
#    0.000    3.333    0.000    0.000    0.000    0.000 
#    0.000    0.000    0.000    0.000    0.000    0.000 
#
# Total GULP energy -595465.447532 kJ/mol
# GULP energy per Si atom -12405.530157 kJ/mol
# Density = 1.925552 g / cm^3
# Si number density = 19.299442 Si / 1000 Ang^3
#
#
#
# Elastic Constant Matrix: (Units=GPa)
#
#
# Indices 1 2 3 4 5 6 
#
# 1 121.7944 51.6207 55.9768 0.0000 0.0000 0.0000
# 2 51.6207 111.4146 59.8558 0.0000 0.0000 0.0000
# 3 55.9768 59.8558 114.5122 0.0000 0.0000 0.0000
# 4 0.0000 0.0000 0.0000 39.6817 0.0000 0.0000
# 5 0.0000 0.0000 0.0000 0.0000 37.0699 0.0000
# 6 0.0000 0.0000 0.0000 0.0000 0.0000 33.1340
#
#
#
# Elastic Compliance Matrix: (Units=1/GPa)
#
#
# Indices 1 2 3 4 5 6 
#
# 1 0.011339 -0.003164 -0.003889 0.000000 0.000000 0.000000
# 2 -0.003164 0.013363 -0.005438 0.000000 0.000000 0.000000
# 3 -0.003889 -0.005438 0.013476 0.000000 0.000000 0.000000
# 4 0.000000 0.000000 0.000000 0.025201 0.000000 0.000000
# 5 0.000000 0.000000 0.000000 0.000000 0.026976 0.000000
# 6 0.000000 0.000000 0.000000 0.000000 0.000000 0.030180
#
#
# Mechanical properties :
#
#
# Convention : Reuss Voigt Hill
#
# Bulk Modulus (GPa) = 75.78206 75.84752 75.81479
# Shear Modulus (GPa) = 33.35188 33.99499 33.67344
#
# Velocity S-wave (km/s) = 4.16158 4.20152 4.18160
# Velocity P-wave (km/s) = 7.90211 7.93238 7.91726
#
# Compressibility (1/GPa) = 0.01319573
#
# Stress axis : x y z
#
# Youngs Moduli (GPa) = 88.19089 74.83261 74.20515
#
# Poissons Ratio (x) = 0.23680 0.28857
# Poissons Ratio (y) = 0.27907 0.40354
# Poissons Ratio (z) = 0.34296 0.40695
#
# Static dielectric constant tensor:
#      x y z
#    x 3.547660 0.000000 0.000000 
#    y 0.000000 3.554500 0.000000 
#    z 0.000000 0.000000 3.619350 
# 
# 
# High freq. dielectric constant tensor:
#      x y z
#    x 1.751650 0.000000 0.000000 
#    y 0.000000 1.756130 0.000000 
#    z 0.000000 0.000000 1.762280 
# 
# From -- ./inp_files/20332.got.cif
#   From: 2010.03.12/outbox.cif.g09.slc.cpg/sg59_11_cif.got.tgz:20332.got - 2010.04.16 16:29:54.
