data_PCOD8245801
_publ_section_title
;
Structure prediction by ZEFSAII (Michael W. Deem and Ramdas Pophale) SiO2 
 PCOD8245801
Probable space group: P M M N
;
_chemical_formula_sum "Si O2"
_cell_formula_units_Z 40
_cell_length_a 18.552117
_cell_length_b 8.826549
_cell_length_c 12.298110
_cell_angle_alpha 90.000000
_cell_angle_beta 90.000000
_cell_angle_gamma 90.000000
_cell_volume 2013.829898
_symmetry_space_group_name_H-M "P M M N"
_symmetry_group_IT_number 59
_space_group.IT_coordinate_system_code '2'
_symmetry_cell_setting 'orthorhombic'
loop_
_space_group_symop_operation_xyz
x,y,z
1/2-x,1/2-y,z
1/2+x,-y,-z
-x,1/2+y,-z
-x,-y,-z
1/2+x,1/2+y,-z
1/2-x,y,z
x,1/2-y,z
loop_
_atom_site_type_symbol
_atom_site_label
_atom_site_fract_x
_atom_site_fract_y
_atom_site_fract_z
Si Si1 0.666768 0.075362 0.521174
Si Si2 0.931246 0.572004 0.942741
Si Si3 0.167296 0.926960 0.891412
Si Si4 0.898983 0.923798 0.315111
Si Si5 0.937522 0.075955 0.713324
O O1 0.750000 0.049706 0.550460
O O2 0.650635 0.250000 0.491985
O O3 0.620344 0.022874 0.624377
O O4 0.646435 0.973857 0.418798
O O5 0.937662 0.750000 0.955434
O O6 0.926911 0.529219 0.817088
O O7 0.859132 0.514420 0.001664
O O8 0.000000 0.500000 0.000000
O O9 0.250000 0.969132 0.870218
O O10 0.156138 0.750000 0.911268
O O11 0.121112 0.974988 0.787707
O O12 0.880481 0.750000 0.288327
O O13 0.983557 0.946058 0.338633
O O14 0.924985 0.250000 0.748062
#
# Coordination Sequence:
#
# PCOD8245801 Si02
#       5
#     8   8   8   8   8
#     4  10  22  40  61  86 121 163 205 251 305 368
#     4  12  24  40  64  92 124 162 204 253 307 365
#     4  11  24  41  63  91 124 163 206 254 310 369
#     4  11  22  37  61  90 122 160 204 258 307 361
#     4  10  22  40  62  89 121 161 208 253 306 367
#
# _framework density 19.862652000000001
#
# number of rings (size 3 to 8) (size 9 to 14) (size 15 to 20)
#    0.000    1.200    2.000    4.200    0.000    6.800 
#    0.000    2.000    0.000    0.000    0.000    0.000 
#    0.000    0.000    0.000    0.000    0.000    0.000 
#
# Total GULP energy -496293.214050 kJ/mol
# GULP energy per Si atom -12407.330351 kJ/mol
# Density = 1.981744 g / cm^3
# Si number density = 19.862652 Si / 1000 Ang^3
#
#
#
# Elastic Constant Matrix: (Units=GPa)
#
#
# Indices 1 2 3 4 5 6 
#
# 1 98.7428 36.4391 30.4302 0.0000 0.0000 0.0000
# 2 36.4391 100.2809 33.4380 0.0000 0.0000 0.0000
# 3 30.4302 33.4380 87.4270 0.0000 0.0000 0.0000
# 4 0.0000 0.0000 0.0000 34.4860 0.0000 0.0000
# 5 0.0000 0.0000 0.0000 0.0000 35.5053 0.0000
# 6 0.0000 0.0000 0.0000 0.0000 0.0000 29.3549
#
#
#
# Elastic Compliance Matrix: (Units=1/GPa)
#
#
# Indices 1 2 3 4 5 6 
#
# 1 0.012327 -0.003494 -0.002954 0.000000 0.000000 0.000000
# 2 -0.003494 0.012420 -0.003534 0.000000 0.000000 0.000000
# 3 -0.002954 -0.003534 0.013818 0.000000 0.000000 0.000000
# 4 0.000000 0.000000 0.000000 0.028997 0.000000 0.000000
# 5 0.000000 0.000000 0.000000 0.000000 0.028165 0.000000
# 6 0.000000 0.000000 0.000000 0.000000 0.000000 0.034066
#
#
# Mechanical properties :
#
#
# Convention : Reuss Voigt Hill
#
# Bulk Modulus (GPa) = 53.76268 54.11837 53.94053
# Shear Modulus (GPa) = 32.05979 32.27879 32.16929
#
# Velocity S-wave (km/s) = 4.02191 4.03563 4.02877
# Velocity P-wave (km/s) = 6.97809 7.00146 6.98978
#
# Compressibility (1/GPa) = 0.01860026
#
# Stress axis : x y z
#
# Youngs Moduli (GPa) = 81.12115 80.51446 72.36913
#
# Poissons Ratio (x) = 0.28134 0.21379
# Poissons Ratio (y) = 0.28346 0.25576
# Poissons Ratio (z) = 0.23965 0.28454
#
# Static dielectric constant tensor:
#      x y z
#    x 3.805340 0.000000 0.000000 
#    y 0.000000 3.671510 0.000000 
#    z 0.000000 0.000000 3.767440 
# 
# 
# High freq. dielectric constant tensor:
#      x y z
#    x 1.784880 0.000000 0.000000 
#    y 0.000000 1.778980 0.000000 
#    z 0.000000 0.000000 1.778560 
# 
# From -- ./inp_files/13813.got.cif
#   From: 2010.03.12/outbox.cif.g09.slc.cpg/sg59_7_cif.got.tgz:13813.got - 2010.04.16 16:29:54.
