data_PCOD8245729
_publ_section_title
;
Structure prediction by ZEFSAII (Michael W. Deem and Ramdas Pophale) SiO2 
 PCOD8245729
Probable space group: P M M N
;
_chemical_formula_sum "Si O2"
_cell_formula_units_Z 64
_cell_length_a 9.302543
_cell_length_b 21.419560
_cell_length_c 16.156379
_cell_angle_alpha 90.000000
_cell_angle_beta 90.000000
_cell_angle_gamma 90.000000
_cell_volume 3219.261560
_symmetry_space_group_name_H-M "P M M N"
_symmetry_group_IT_number 59
_space_group.IT_coordinate_system_code '2'
_symmetry_cell_setting 'orthorhombic'
loop_
_space_group_symop_operation_xyz
x,y,z
1/2-x,1/2-y,z
1/2+x,-y,-z
-x,1/2+y,-z
-x,-y,-z
1/2+x,1/2+y,-z
1/2-x,y,z
x,1/2-y,z
loop_
_atom_site_type_symbol
_atom_site_label
_atom_site_fract_x
_atom_site_fract_y
_atom_site_fract_z
Si Si1 0.587738 0.319202 0.285095
Si Si2 0.416440 0.439323 0.031726
Si Si3 0.413436 0.372764 0.615793
Si Si4 0.419465 0.677759 0.044805
Si Si5 0.585764 0.366718 0.460597
Si Si6 0.911190 0.177548 0.764547
Si Si7 0.913231 0.485826 0.362826
Si Si8 0.412452 0.070094 0.223985
O O1 0.750000 0.341605 0.266579
O O2 0.561754 0.250000 0.251937
O O3 0.561123 0.320345 0.383837
O O4 0.479387 0.361721 0.234914
O O5 0.250000 0.438983 0.001113
O O6 0.490597 0.373446 0.006638
O O7 0.500000 0.500000 0.000000
O O8 0.422730 0.448508 0.129353
O O9 0.250000 0.349367 0.617101
O O10 0.493786 0.341237 0.538184
O O11 0.480999 0.357935 0.704386
O O12 0.427335 0.446182 0.599095
O O13 0.250000 0.667415 0.028964
O O14 0.459958 0.750000 0.020804
O O15 0.457542 0.666158 0.140876
O O16 0.750000 0.367666 0.490766
O O17 0.534681 0.435646 0.430939
O O18 0.750000 0.151887 0.750463
O O19 0.917339 0.250000 0.742592
O O20 0.750000 0.469741 0.337810
O O21 0.005467 0.481075 0.278987
O O22 0.250000 0.072426 0.255609
#
# Coordination Sequence:
#
# PCOD8245729 Si02
#       8
#     8   8   8   8   8   8   8   8
#     4   9  19  37  60  83 110 148 190 230 277 335
#     4  11  25  41  60  90 125 158 196 245 298 353
#     4  11  22  33  52  83 112 141 183 234 283 331
#     4   9  20  41  66  89 116 154 199 244 294 356
#     4   9  18  34  53  76 109 148 187 227 274 332
#     4   9  20  39  59  79 107 145 188 230 275 336
#     4   9  20  37  55  77 109 146 185 227 277 336
#     4  10  22  38  56  83 114 145 184 230 279 334
#
# _framework density 19.880336
#
# number of rings (size 3 to 8) (size 9 to 14) (size 15 to 20)
#    0.000    2.375    0.000    3.000    1.750    7.250 
#    0.000    5.000    0.000    0.000    0.000    0.000 
#    0.000    0.000    0.000    0.000    0.000    0.000 
#
# Total GULP energy -793443.238958 kJ/mol
# GULP energy per Si atom -12397.550609 kJ/mol
# Density = 1.983509 g / cm^3
# Si number density = 19.880336 Si / 1000 Ang^3
#
#
#
# Elastic Constant Matrix: (Units=GPa)
#
#
# Indices 1 2 3 4 5 6 
#
# 1 114.4147 32.1089 47.7827 0.0000 0.0000 0.0000
# 2 32.1089 62.8164 9.4893 0.0000 0.0000 0.0000
# 3 47.7827 9.4893 64.5204 0.0000 0.0000 0.0000
# 4 0.0000 0.0000 0.0000 18.9134 0.0000 0.0000
# 5 0.0000 0.0000 0.0000 0.0000 35.4712 0.0000
# 6 0.0000 0.0000 0.0000 0.0000 0.0000 24.6164
#
#
#
# Elastic Compliance Matrix: (Units=1/GPa)
#
#
# Indices 1 2 3 4 5 6 
#
# 1 0.014538 -0.005937 -0.009893 0.000000 0.000000 0.000000
# 2 -0.005937 0.018705 0.001645 0.000000 0.000000 0.000000
# 3 -0.009893 0.001645 0.022584 0.000000 0.000000 0.000000
# 4 0.000000 0.000000 0.000000 0.052872 0.000000 0.000000
# 5 0.000000 0.000000 0.000000 0.000000 0.028192 0.000000
# 6 0.000000 0.000000 0.000000 0.000000 0.000000 0.040623
#
#
# Mechanical properties :
#
#
# Convention : Reuss Voigt Hill
#
# Bulk Modulus (GPa) = 36.41916 46.72370 41.57143
# Shear Modulus (GPa) = 23.25184 25.95823 24.60504
#
# Velocity S-wave (km/s) = 3.42364 3.61740 3.52185
# Velocity P-wave (km/s) = 5.82987 6.40320 6.12325
#
# Compressibility (1/GPa) = 0.02745807
#
# Stress axis : x y z
#
# Youngs Moduli (GPa) = 68.78556 53.46055 44.27936
#
# Poissons Ratio (x) = 0.31737 0.43807
# Poissons Ratio (y) = 0.40835 -0.07286
# Poissons Ratio (z) = 0.68053 -0.08797
#
# Static dielectric constant tensor:
#      x y z
#    x 3.688550 0.000000 0.000000 
#    y 0.000000 3.727990 0.000000 
#    z 0.000000 0.000000 3.458320 
# 
# 
# High freq. dielectric constant tensor:
#      x y z
#    x 1.774200 0.000000 0.000000 
#    y 0.000000 1.773940 0.000000 
#    z 0.000000 0.000000 1.772380 
# 
# From -- ./inp_files/21501.got.cif
#   From: 2010.03.12/outbox.cif.g09.slc.cpg/sg59_11_cif.got.tgz:21501.got - 2010.04.16 16:29:54.
