data_PCOD8245583
_publ_section_title
;
Structure prediction by ZEFSAII (Michael W. Deem and Ramdas Pophale) SiO2 
 PCOD8245583
Probable space group: P M M N
;
_chemical_formula_sum "Si O2"
_cell_formula_units_Z 40
_cell_length_a 8.918697
_cell_length_b 15.627375
_cell_length_c 14.489502
_cell_angle_alpha 90.000000
_cell_angle_beta 90.000000
_cell_angle_gamma 90.000000
_cell_volume 2019.486259
_symmetry_space_group_name_H-M "P M M N"
_symmetry_group_IT_number 59
_space_group.IT_coordinate_system_code '2'
_symmetry_cell_setting 'orthorhombic'
loop_
_space_group_symop_operation_xyz
x,y,z
1/2-x,1/2-y,z
1/2+x,-y,-z
-x,1/2+y,-z
-x,-y,-z
1/2+x,1/2+y,-z
1/2-x,y,z
x,1/2-y,z
loop_
_atom_site_type_symbol
_atom_site_label
_atom_site_fract_x
_atom_site_fract_y
_atom_site_fract_z
Si Si1 0.575943 0.109818 0.588732
Si Si2 0.428024 0.250000 0.713017
Si Si3 0.572364 0.250000 0.912984
Si Si4 0.574206 0.086557 0.032367
Si Si5 0.079970 0.348797 0.205964
Si Si6 0.923599 0.588531 0.597146
O O1 0.750000 0.133694 0.596380
O O2 0.485047 0.165373 0.661818
O O3 0.520669 0.129037 0.485079
O O4 0.543467 0.011414 0.612089
O O5 0.250000 0.250000 0.714387
O O6 0.488042 0.250000 0.816539
O O7 0.750000 0.250000 0.896108
O O8 0.520933 0.166100 0.969573
O O9 0.750000 0.075506 0.026732
O O10 0.527945 0.100152 0.138121
O O11 0.500000 0.000000 0.000000
O O12 0.250000 0.382946 0.194440
O O13 0.069066 0.250000 0.181028
O O14 0.025953 0.363400 0.310397
O O15 0.750000 0.604679 0.573377
#
# Coordination Sequence:
#
# PCOD8245583 Si02
#       6
#     8   4   4   8   8   8
#     4  10  21  39  60  87 123 161 202 246 298 358
#     4  12  26  40  61  88 119 156 205 254 300 358
#     4  10  24  46  65  86 123 162 201 254 312 368
#     4  11  24  43  66  92 123 161 205 255 311 369
#     4  10  21  38  62  92 124 160 202 250 304 363
#     4   9  20  38  61  89 123 161 200 245 298 356
#
# _framework density 19.807017999999999
#
# number of rings (size 3 to 8) (size 9 to 14) (size 15 to 20)
#    0.000    1.800    1.000    2.100    4.200    3.200 
#    0.000    0.000    0.000    0.000    0.000    0.000 
#    0.000    0.000    0.000    0.000    0.000    0.000 
#
# Total GULP energy -496182.265550 kJ/mol
# GULP energy per Si atom -12404.556639 kJ/mol
# Density = 1.976194 g / cm^3
# Si number density = 19.807018 Si / 1000 Ang^3
#
#
#
# Elastic Constant Matrix: (Units=GPa)
#
#
# Indices 1 2 3 4 5 6 
#
# 1 81.6932 46.6372 57.2523 0.0000 0.0000 0.0000
# 2 46.6372 93.4961 48.7140 0.0000 0.0000 0.0000
# 3 57.2523 48.7140 126.6098 0.0000 0.0000 0.0000
# 4 0.0000 0.0000 0.0000 34.9053 0.0000 0.0000
# 5 0.0000 0.0000 0.0000 0.0000 41.7576 0.0000
# 6 0.0000 0.0000 0.0000 0.0000 0.0000 32.0949
#
#
#
# Elastic Compliance Matrix: (Units=1/GPa)
#
#
# Indices 1 2 3 4 5 6 
#
# 1 0.020963 -0.006901 -0.006824 0.000000 0.000000 0.000000
# 2 -0.006901 0.015649 -0.002900 0.000000 0.000000 0.000000
# 3 -0.006824 -0.002900 0.012100 0.000000 0.000000 0.000000
# 4 0.000000 0.000000 0.000000 0.028649 0.000000 0.000000
# 5 0.000000 0.000000 0.000000 0.000000 0.023948 0.000000
# 6 0.000000 0.000000 0.000000 0.000000 0.000000 0.031158
#
#
# Mechanical properties :
#
#
# Convention : Reuss Voigt Hill
#
# Bulk Modulus (GPa) = 64.67919 67.44511 66.06215
# Shear Modulus (GPa) = 29.26164 31.69793 30.47978
#
# Velocity S-wave (km/s) = 3.84778 4.00476 3.92706
# Velocity P-wave (km/s) = 7.24335 7.45045 7.34763
#
# Compressibility (1/GPa) = 0.01546092
#
# Stress axis : x y z
#
# Youngs Moduli (GPa) = 47.70266 63.90081 82.64379
#
# Poissons Ratio (x) = 0.44099 0.56398
# Poissons Ratio (y) = 0.32920 0.23971
# Poissons Ratio (z) = 0.32553 0.18534
#
# Static dielectric constant tensor:
#      x y z
#    x 3.627030 0.000000 0.000000 
#    y 0.000000 3.595960 0.000000 
#    z 0.000000 0.000000 3.745080 
# 
# 
# High freq. dielectric constant tensor:
#      x y z
#    x 1.770620 0.000000 0.000000 
#    y 0.000000 1.779400 0.000000 
#    z 0.000000 0.000000 1.782920 
# 
# From -- ./inp_files/20009.got.cif
#   From: 2010.03.12/outbox.cif.g09.slc.cpg/sg59_11_cif.got.tgz:20009.got - 2010.04.16 16:29:54.
