data_PCOD8245211
_publ_section_title
;
Structure prediction by ZEFSAII (Michael W. Deem and Ramdas Pophale) SiO2 
 PCOD8245211
Probable space group: P M M N
;
_chemical_formula_sum "Si O2"
_cell_formula_units_Z 56
_cell_length_a 14.685751
_cell_length_b 8.983951
_cell_length_c 21.560251
_cell_angle_alpha 90.000000
_cell_angle_beta 90.000000
_cell_angle_gamma 90.000000
_cell_volume 2844.574729
_symmetry_space_group_name_H-M "P M M N"
_symmetry_group_IT_number 59
_space_group.IT_coordinate_system_code '2'
_symmetry_cell_setting 'orthorhombic'
loop_
_space_group_symop_operation_xyz
x,y,z
1/2-x,1/2-y,z
1/2+x,-y,-z
-x,1/2+y,-z
-x,-y,-z
1/2+x,1/2+y,-z
1/2-x,y,z
x,1/2-y,z
loop_
_atom_site_type_symbol
_atom_site_label
_atom_site_fract_x
_atom_site_fract_y
_atom_site_fract_z
Si Si1 0.355960 0.077163 0.554260
Si Si2 0.854548 0.424542 0.865174
Si Si3 0.141718 0.417660 0.011345
Si Si4 0.644579 0.424253 0.573720
Si Si5 0.353456 0.924135 0.888657
Si Si6 0.500065 0.578201 0.788694
Si Si7 0.991229 0.075943 0.354322
O O1 0.250000 0.054100 0.568153
O O2 0.381517 0.250000 0.547029
O O3 0.385294 0.992941 0.491855
O O4 0.409515 0.006005 0.611021
O O5 0.750000 0.470357 0.853480
O O6 0.865311 0.250000 0.872562
O O7 0.894470 0.499085 0.927562
O O8 0.912146 0.481554 0.806813
O O9 0.250000 0.425217 0.010603
O O10 0.104772 0.250000 0.013182
O O11 0.104632 0.496161 0.949303
O O12 0.750000 0.455641 0.587740
O O13 0.622175 0.250000 0.572682
O O14 0.587970 0.505262 0.627238
O O15 0.250000 0.976547 0.875353
O O16 0.356804 0.750000 0.902025
O O17 0.412940 0.969982 0.829294
O O18 0.525003 0.750000 0.799651
O O19 0.474884 0.546483 0.717930
O O20 0.990828 0.250000 0.370617
#
# Coordination Sequence:
#
# PCOD8245211 Si02
#       7
#     8   8   8   8   8   8   8
#     4  10  21  38  61  88 116 146 183 228 276 325
#     4  10  21  37  57  80 107 141 181 227 277 326
#     4   9  17  31  54  82 108 136 174 222 276 329
#     4  10  21  38  61  87 114 146 185 229 277 328
#     4   9  18  35  57  79 106 139 178 225 272 321
#     4  10  23  39  55  79 109 147 189 223 266 323
#     4  11  23  38  57  82 115 152 188 228 274 328
#
# _framework density 19.686596999999999
#
# number of rings (size 3 to 8) (size 9 to 14) (size 15 to 20)
#    0.000    2.143    0.000    2.571    0.000    7.714 
#    0.000    4.286    0.000    1.714    0.000    0.000 
#    0.000    0.000    0.000    0.000    0.000    0.000 
#
# Total GULP energy -694656.023389 kJ/mol
# GULP energy per Si atom -12404.571846 kJ/mol
# Density = 1.964179 g / cm^3
# Si number density = 19.686597 Si / 1000 Ang^3
#
#
#
# Elastic Constant Matrix: (Units=GPa)
#
#
# Indices 1 2 3 4 5 6 
#
# 1 59.4383 24.0939 19.7439 0.0000 0.0000 0.0000
# 2 24.0939 78.4880 24.3037 0.0000 0.0000 0.0000
# 3 19.7439 24.3037 74.4685 0.0000 0.0000 0.0000
# 4 0.0000 0.0000 0.0000 35.2687 0.0000 0.0000
# 5 0.0000 0.0000 0.0000 0.0000 29.3398 0.0000
# 6 0.0000 0.0000 0.0000 0.0000 0.0000 29.4054
#
#
#
# Elastic Compliance Matrix: (Units=1/GPa)
#
#
# Indices 1 2 3 4 5 6 
#
# 1 0.020085 -0.005024 -0.003685 0.000000 0.000000 0.000000
# 2 -0.005024 0.015430 -0.003704 0.000000 0.000000 0.000000
# 3 -0.003685 -0.003704 0.015614 0.000000 0.000000 0.000000
# 4 0.000000 0.000000 0.000000 0.028354 0.000000 0.000000
# 5 0.000000 0.000000 0.000000 0.000000 0.034083 0.000000
# 6 0.000000 0.000000 0.000000 0.000000 0.000000 0.034007
#
#
# Mechanical properties :
#
#
# Convention : Reuss Voigt Hill
#
# Bulk Modulus (GPa) = 38.01924 38.74198 38.38061
# Shear Modulus (GPa) = 27.59864 28.41966 28.00915
#
# Velocity S-wave (km/s) = 3.74826 3.80360 3.77603
# Velocity P-wave (km/s) = 6.17145 6.24595 6.20881
#
# Compressibility (1/GPa) = 0.02630247
#
# Stress axis : x y z
#
# Youngs Moduli (GPa) = 49.78823 64.80877 64.04369
#
# Poissons Ratio (x) = 0.32563 0.23603
# Poissons Ratio (y) = 0.25016 0.23719
# Poissons Ratio (z) = 0.18349 0.24003
#
# Static dielectric constant tensor:
#      x y z
#    x 3.576820 0.000000 0.000000 
#    y 0.000000 3.662190 0.000000 
#    z 0.000000 0.000000 3.544150 
# 
# 
# High freq. dielectric constant tensor:
#      x y z
#    x 1.769800 0.000000 0.000000 
#    y 0.000000 1.774800 0.000000 
#    z 0.000000 0.000000 1.763260 
# 
# From -- ./inp_files/29003.got.cif
#   From: 2010.03.12/outbox.cif.g09.slc.cpg/sg59_15_cif.got.tgz:29003.got - 2010.04.16 16:29:54.
