data_PCOD8245391
_publ_section_title
;
Structure prediction by ZEFSAII (Michael W. Deem and Ramdas Pophale) SiO2 
 PCOD8245391
Probable space group: P M M N
;
_chemical_formula_sum "Si O2"
_cell_formula_units_Z 56
_cell_length_a 20.320432
_cell_length_b 8.658813
_cell_length_c 15.982307
_cell_angle_alpha 90.000000
_cell_angle_beta 90.000000
_cell_angle_gamma 90.000000
_cell_volume 2812.100034
_symmetry_space_group_name_H-M "P M M N"
_symmetry_group_IT_number 59
_space_group.IT_coordinate_system_code '2'
_symmetry_cell_setting 'orthorhombic'
loop_
_space_group_symop_operation_xyz
x,y,z
1/2-x,1/2-y,z
1/2+x,-y,-z
-x,1/2+y,-z
-x,-y,-z
1/2+x,1/2+y,-z
1/2-x,y,z
x,1/2-y,z
loop_
_atom_site_type_symbol
_atom_site_label
_atom_site_fract_x
_atom_site_fract_y
_atom_site_fract_z
Si Si1 0.000171 0.432855 0.407441
Si Si2 0.441501 0.070201 0.115743
Si Si3 0.416847 0.927337 0.949005
Si Si4 0.250000 0.567605 0.341356
Si Si5 0.250000 0.566932 0.531820
Si Si6 0.108223 0.567608 0.286164
Si Si7 0.674704 0.578797 0.174661
Si Si8 0.364308 0.431116 0.640307
O O1 0.000934 0.250000 0.412272
O O2 0.935067 0.488714 0.360149
O O3 0.000000 0.500000 0.500000
O O4 0.063856 0.487919 0.356700
O O5 0.434063 0.250000 0.136695
O O6 0.516408 0.020437 0.097246
O O7 0.415813 0.973391 0.193722
O O8 0.401205 0.027286 0.031910
O O9 0.420850 0.750000 0.976178
O O10 0.359203 0.952601 0.883225
O O11 0.250000 0.750000 0.338606
O O12 0.250000 0.510388 0.436546
O O13 0.183570 0.507407 0.295914
O O14 0.250000 0.750000 0.541386
O O15 0.316500 0.500442 0.570872
O O16 0.103222 0.750000 0.299948
O O17 0.750000 0.579011 0.149125
O O18 0.644096 0.750000 0.160302
O O19 0.667764 0.531182 0.270793
O O20 0.372471 0.250000 0.623631
#
# Coordination Sequence:
#
# PCOD8245391 Si02
#       8
#     8   8   8   4   4   8   8   8
#     4  12  25  41  61  91 124 159 205 257 312 370
#     4  10  21  39  62  89 120 154 198 247 299 361
#     4  10  21  37  60  89 118 153 197 246 298 357
#     4   9  22  41  61  84 115 154 199 247 296 357
#     4  11  21  37  61  88 121 164 209 255 306 363
#     4  11  22  41  65  90 121 160 204 253 308 364
#     4  10  21  38  57  83 121 161 198 241 296 359
#     4  11  22  39  61  88 123 164 206 252 305 367
#
# _framework density 19.913944000000001
#
# number of rings (size 3 to 8) (size 9 to 14) (size 15 to 20)
#    0.000    1.429    0.714    4.929    0.000    6.571 
#    1.286    3.571    0.000    0.000    0.000    0.000 
#    0.000    0.000    0.000    0.000    0.000    0.000 
#
# Total GULP energy -694613.439219 kJ/mol
# GULP energy per Si atom -12403.811415 kJ/mol
# Density = 1.986862 g / cm^3
# Si number density = 19.913944 Si / 1000 Ang^3
#
#
#
# Elastic Constant Matrix: (Units=GPa)
#
#
# Indices 1 2 3 4 5 6 
#
# 1 117.7098 42.5145 54.2022 0.0000 0.0000 0.0000
# 2 42.5145 99.1561 41.0034 0.0000 0.0000 0.0000
# 3 54.2022 41.0034 122.5845 0.0000 0.0000 0.0000
# 4 0.0000 0.0000 0.0000 37.6535 0.0000 0.0000
# 5 0.0000 0.0000 0.0000 0.0000 34.0752 0.0000
# 6 0.0000 0.0000 0.0000 0.0000 0.0000 31.9624
#
#
#
# Elastic Compliance Matrix: (Units=1/GPa)
#
#
# Indices 1 2 3 4 5 6 
#
# 1 0.011523 -0.003289 -0.003995 0.000000 0.000000 0.000000
# 2 -0.003289 0.012643 -0.002775 0.000000 0.000000 0.000000
# 3 -0.003995 -0.002775 0.010852 0.000000 0.000000 0.000000
# 4 0.000000 0.000000 0.000000 0.026558 0.000000 0.000000
# 5 0.000000 0.000000 0.000000 0.000000 0.029347 0.000000
# 6 0.000000 0.000000 0.000000 0.000000 0.000000 0.031287
#
#
# Mechanical properties :
#
#
# Convention : Reuss Voigt Hill
#
# Bulk Modulus (GPa) = 67.10945 68.32117 67.71531
# Shear Modulus (GPa) = 33.94606 34.18692 34.06649
#
# Velocity S-wave (km/s) = 4.13320 4.14784 4.14053
# Velocity P-wave (km/s) = 7.52002 7.57114 7.54562
#
# Compressibility (1/GPa) = 0.01490103
#
# Stress axis : x y z
#
# Youngs Moduli (GPa) = 86.78457 79.09808 92.14735
#
# Poissons Ratio (x) = 0.26012 0.36812
# Poissons Ratio (y) = 0.28539 0.25569
# Poissons Ratio (z) = 0.34670 0.21948
#
# Static dielectric constant tensor:
#      x y z
#    x 3.775500 0.000000 0.000000 
#    y 0.000000 3.652350 0.000000 
#    z 0.000000 0.000000 3.647750 
# 
# 
# High freq. dielectric constant tensor:
#      x y z
#    x 1.780000 0.000000 0.000000 
#    y 0.000000 1.780490 0.000000 
#    z 0.000000 0.000000 1.785030 
# 
# From -- ./inp_files/24339.got.cif
#   From: 2010.03.12/outbox.cif.g09.slc.cpg/sg59_13_cif.got.tgz:24339.got - 2010.04.16 16:29:54.
