data_PCOD8245057
_publ_section_title
;
Structure prediction by ZEFSAII (Michael W. Deem and Ramdas Pophale) SiO2 
 PCOD8245057
Probable space group: P M M N
;
_chemical_formula_sum "Si O2"
_cell_formula_units_Z 48
_cell_length_a 37.495200
_cell_length_b 8.869497
_cell_length_c 7.577400
_cell_angle_alpha 90.000000
_cell_angle_beta 90.000000
_cell_angle_gamma 90.000000
_cell_volume 2519.967149
_symmetry_space_group_name_H-M "P M M N"
_symmetry_group_IT_number 59
_space_group.IT_coordinate_system_code '2'
_symmetry_cell_setting 'orthorhombic'
loop_
_space_group_symop_operation_xyz
x,y,z
1/2-x,1/2-y,z
1/2+x,-y,-z
-x,1/2+y,-z
-x,-y,-z
1/2+x,1/2+y,-z
1/2-x,y,z
x,1/2-y,z
loop_
_atom_site_type_symbol
_atom_site_label
_atom_site_fract_x
_atom_site_fract_y
_atom_site_fract_z
Si Si1 0.209076 0.924677 0.174702
Si Si2 0.961693 0.925845 0.794508
Si Si3 0.709971 0.572404 0.187102
Si Si4 0.334203 0.925087 0.510966
Si Si5 0.582656 0.073878 0.493777
Si Si6 0.536564 0.573860 0.200471
O O1 0.250000 0.955818 0.226528
O O2 0.202217 0.750000 0.133947
O O3 0.184669 0.983472 0.333719
O O4 0.197373 0.017562 0.004102
O O5 0.959580 0.750000 0.747921
O O6 0.933852 0.016590 0.676554
O O7 0.952202 0.957814 0.998562
O O8 0.001164 0.982900 0.749146
O O9 0.750000 0.510939 0.227893
O O10 0.709685 0.750000 0.189673
O O11 0.681703 0.513706 0.325768
O O12 0.326102 0.750000 0.540172
O O13 0.375699 0.960120 0.496271
O O14 0.574422 0.250000 0.470164
O O15 0.567867 0.983538 0.326033
O O16 0.529324 0.750000 0.231859
#
# Coordination Sequence:
#
# PCOD8245057 Si02
#       6
#     8   8   8   8   8   8
#     4   9  18  35  59  82 105 139 184 229 269 315
#     4  10  21  38  60  83 108 142 184 228 272 320
#     4  10  21  36  56  83 112 142 178 224 277 327
#     4  10  22  38  56  80 110 147 187 224 267 321
#     4  11  23  37  55  81 114 148 181 223 273 324
#     4  10  21  38  60  84 110 142 182 226 271 322
#
# _framework density 19.047868000000001
#
# number of rings (size 3 to 8) (size 9 to 14) (size 15 to 20)
#    0.000    2.000    0.000    3.000    0.000    7.000 
#    0.000    6.667    0.000    0.000    0.000    0.000 
#    0.000    0.000    0.000    0.000    0.000    0.000 
#
# Total GULP energy -595438.834574 kJ/mol
# GULP energy per Si atom -12404.975720 kJ/mol
# Density = 1.900451 g / cm^3
# Si number density = 19.047868 Si / 1000 Ang^3
#
#
#
# Elastic Constant Matrix: (Units=GPa)
#
#
# Indices 1 2 3 4 5 6 
#
# 1 95.6984 35.0520 74.4996 0.0000 0.0000 0.0000
# 2 35.0520 42.0943 39.0352 0.0000 0.0000 0.0000
# 3 74.4996 39.0352 129.9769 0.0000 0.0000 0.0000
# 4 0.0000 0.0000 0.0000 0.0943 0.0000 0.0000
# 5 0.0000 0.0000 0.0000 0.0000 -80.7952 0.0000
# 6 0.0000 0.0000 0.0000 0.0000 0.0000 24.6240
#
#
#
# Elastic Compliance Matrix: (Units=1/GPa)
#
#
# Indices 1 2 3 4 5 6 
#
# 1 0.020962 -0.008750 -0.009387 0.000000 0.000000 0.000000
# 2 -0.008750 0.036579 -0.005970 0.000000 0.000000 0.000000
# 3 -0.009387 -0.005970 0.014867 0.000000 0.000000 0.000000
# 4 0.000000 0.000000 0.000000 10.607052 0.000000 0.000000
# 5 0.000000 0.000000 0.000000 0.000000 -0.012377 0.000000
# 6 0.000000 0.000000 0.000000 0.000000 0.000000 0.040611
#
#
# Mechanical properties :
#
#
# Convention : Reuss Voigt Hill
#
# Bulk Modulus (GPa) = 41.33405 62.77148 52.05276
# Shear Modulus (GPa) = 0.46451 -3.26985 -1.40267
#
# Velocity S-wave (km/s) = 0.49436 -1.31163 -0.85906
# Velocity P-wave (km/s) = 4.69820 5.54367 5.13835
#
# Compressibility (1/GPa) = 0.02419313
#
# Stress axis : x y z
#
# Youngs Moduli (GPa) = 47.70470 27.33828 67.26281
#
# Poissons Ratio (x) = 0.23922 0.63140
# Poissons Ratio (y) = 0.41744 0.40155
# Poissons Ratio (z) = 0.44781 0.16321
#
# Static dielectric constant tensor:
#      x y z
#    x 3.401400 0.000000 0.000000 
#    y 0.000000 3.523070 0.000000 
#    z 0.000000 0.000000 3.589000 
# 
# 
# High freq. dielectric constant tensor:
#      x y z
#    x 1.735790 0.000000 0.000000 
#    y 0.000000 1.746570 0.000000 
#    z 0.000000 0.000000 1.753180 
# 
# From -- ./inp_files/12953.got.cif
#   From: 2010.03.12/outbox.cif.g09.slc.cpg/sg59_7_cif.got.tgz:12953.got - 2010.04.16 16:29:54.
