data_PCOD8245987
_publ_section_title
;
Structure prediction by ZEFSAII (Michael W. Deem and Ramdas Pophale) SiO2 
 PCOD8245987
Probable space group: P M M N
;
_chemical_formula_sum "Si O2"
_cell_formula_units_Z 34
_cell_length_a 9.357347
_cell_length_b 18.916642
_cell_length_c 9.289610
_cell_angle_alpha 90.000000
_cell_angle_beta 90.000000
_cell_angle_gamma 90.000000
_cell_volume 1644.349995
_symmetry_space_group_name_H-M "P M M N"
_symmetry_group_IT_number 59
_space_group.IT_coordinate_system_code '2'
_symmetry_cell_setting 'orthorhombic'
loop_
_space_group_symop_operation_xyz
x,y,z
1/2-x,1/2-y,z
1/2+x,-y,-z
-x,1/2+y,-z
-x,-y,-z
1/2+x,1/2+y,-z
1/2-x,y,z
x,1/2-y,z
loop_
_atom_site_type_symbol
_atom_site_label
_atom_site_fract_x
_atom_site_fract_y
_atom_site_fract_z
Si Si1 0.908279 0.250000 0.301629
Si Si2 0.750000 0.250000 0.772863
Si Si3 0.750000 0.833267 0.322054
Si Si4 0.250000 0.041475 0.261256
Si Si5 0.527038 0.881702 0.548251
Si Si6 0.250000 0.360930 0.989115
Si Si7 0.750000 0.100840 0.615429
Si Si8 0.997422 0.750000 0.001672
O O1 0.750000 0.250000 0.371021
O O2 0.893588 0.250000 0.130321
O O3 0.997155 0.182713 0.347079
O O4 0.750000 0.180682 0.673000
O O5 0.600406 0.250000 0.859326
O O6 0.750000 0.750000 0.274510
O O7 0.610824 0.851222 0.412018
O O8 0.750000 0.882818 0.179404
O O9 0.111736 0.063108 0.353792
O O10 0.250000 0.072821 0.099346
O O11 0.250000 0.955770 0.252670
O O12 0.383670 0.916259 0.487561
O O13 0.396260 0.318087 0.010700
#
# Coordination Sequence:
#
# PCOD8245987 Si02
#       8
#     4   2   4   4   8   4   4   4
#     4  12  20  36  66 103 126 161 215 271 325 373
#     4  12  26  44  64  96 130 170 218 274 328 386
#     4  11  21  35  63  97 130 162 217 263 314 379
#     4  11  25  43  66  93 134 177 216 264 327 395
#     4  11  23  39  66  98 128 170 216 271 320 382
#     4  11  22  39  64  92 129 168 214 259 318 376
#     4  12  25  44  66  93 131 174 219 269 332 384
#     4  11  22  37  64  93 129 161 207 271 318 380
#
# _framework density 20.676863000000001
#
# number of rings (size 3 to 8) (size 9 to 14) (size 15 to 20)
#    0.000    0.706    6.471    2.824    0.000    0.000 
#    0.000    4.706    5.176    0.000    0.000    0.000 
#    0.000    0.000    0.000    0.000    0.000    0.000 
#
# Total GULP energy -421524.512095 kJ/mol
# GULP energy per Si atom -12397.779767 kJ/mol
# Density = 2.062980 g / cm^3
# Si number density = 20.676863 Si / 1000 Ang^3
#
#
#
# Elastic Constant Matrix: (Units=GPa)
#
#
# Indices 1 2 3 4 5 6 
#
# 1 128.6150 20.7281 34.0777 0.0000 0.0000 0.0000
# 2 20.7281 91.6166 24.0466 0.0000 0.0000 0.0000
# 3 34.0777 24.0466 124.1607 0.0000 0.0000 0.0000
# 4 0.0000 0.0000 0.0000 25.8695 0.0000 0.0000
# 5 0.0000 0.0000 0.0000 0.0000 29.0224 0.0000
# 6 0.0000 0.0000 0.0000 0.0000 0.0000 8.8804
#
#
#
# Elastic Compliance Matrix: (Units=1/GPa)
#
#
# Indices 1 2 3 4 5 6 
#
# 1 0.008549 -0.001389 -0.002078 0.000000 0.000000 0.000000
# 2 -0.001389 0.011725 -0.001890 0.000000 0.000000 0.000000
# 3 -0.002078 -0.001890 0.008990 0.000000 0.000000 0.000000
# 4 0.000000 0.000000 0.000000 0.038656 0.000000 0.000000
# 5 0.000000 0.000000 0.000000 0.000000 0.034456 0.000000
# 6 0.000000 0.000000 0.000000 0.000000 0.000000 0.112608
#
#
# Mechanical properties :
#
#
# Convention : Reuss Voigt Hill
#
# Bulk Modulus (GPa) = 53.90061 55.78859 54.84460
# Shear Modulus (GPa) = 21.56277 30.45712 26.00994
#
# Velocity S-wave (km/s) = 3.23281 3.84214 3.55057
# Velocity P-wave (km/s) = 6.32925 6.83538 6.58718
#
# Compressibility (1/GPa) = 0.01855267
#
# Stress axis : x y z
#
# Youngs Moduli (GPa) = 116.96649 85.28577 111.23160
#
# Poissons Ratio (x) = 0.11846 0.23108
# Poissons Ratio (y) = 0.16247 0.21019
# Poissons Ratio (z) = 0.24300 0.16116
#
# Static dielectric constant tensor:
#      x y z
#    x 3.902230 0.000000 0.000000 
#    y 0.000000 3.527100 0.000000 
#    z 0.000000 0.000000 3.784090 
# 
# 
# High freq. dielectric constant tensor:
#      x y z
#    x 1.829170 0.000000 0.000000 
#    y 0.000000 1.785310 0.000000 
#    z 0.000000 0.000000 1.817220 
# 
# From -- ./inp_files/5521.got.cif
#   From: 2010.03.12/outbox.cif.g09.slc.cpg/sg59_3_cif.got.tgz:5521.got - 2010.04.16 16:29:54.
