data_PCOD8245631
_publ_section_title
;
Structure prediction by ZEFSAII (Michael W. Deem and Ramdas Pophale) SiO2 
 PCOD8245631
Probable space group: P M M N
;
_chemical_formula_sum "Si O2"
_cell_formula_units_Z 64
_cell_length_a 30.398339
_cell_length_b 9.074351
_cell_length_c 11.831980
_cell_angle_alpha 90.000000
_cell_angle_beta 90.000000
_cell_angle_gamma 90.000000
_cell_volume 3263.794865
_symmetry_space_group_name_H-M "P M M N"
_symmetry_group_IT_number 59
_space_group.IT_coordinate_system_code '2'
_symmetry_cell_setting 'orthorhombic'
loop_
_space_group_symop_operation_xyz
x,y,z
1/2-x,1/2-y,z
1/2+x,-y,-z
-x,1/2+y,-z
-x,-y,-z
1/2+x,1/2+y,-z
1/2-x,y,z
x,1/2-y,z
loop_
_atom_site_type_symbol
_atom_site_label
_atom_site_fract_x
_atom_site_fract_y
_atom_site_fract_z
Si Si1 0.299295 0.417369 0.034460
Si Si2 0.079081 0.915206 0.275657
Si Si3 0.543951 0.078290 0.964409
Si Si4 0.180911 0.917679 0.256307
Si Si5 0.123813 0.078054 0.655758
Si Si6 0.799750 0.581500 0.514803
Si Si7 0.453783 0.078821 0.487353
Si Si8 0.372630 0.925085 0.893751
O O1 0.250000 0.420320 0.984646
O O2 0.316936 0.250000 0.041914
O O3 0.297171 0.485501 0.159399
O O4 0.329148 0.510347 0.950246
O O5 0.067773 0.750000 0.318562
O O6 0.050216 0.956744 0.167370
O O7 0.129087 0.925132 0.237249
O O8 0.069854 0.031515 0.372705
O O9 0.538598 0.250000 0.986940
O O10 0.584891 0.018031 0.037362
O O11 0.500000 0.000000 0.000000
O O12 0.197788 0.750000 0.247160
O O13 0.194723 0.978760 0.377348
O O14 0.126397 0.250000 0.688120
O O15 0.165998 0.031259 0.581215
O O16 0.078682 0.041059 0.590346
O O17 0.123676 0.979353 0.766226
O O18 0.750000 0.565616 0.467557
O O19 0.809874 0.750000 0.550202
O O20 0.463460 0.250000 0.480729
O O21 0.500000 0.000000 0.500000
O O22 0.368968 0.750000 0.896737
#
# Coordination Sequence:
#
# PCOD8245631 Si02
#       8
#     8   8   8   8   8   8   8   8
#     4  11  24  41  63  91 123 162 206 249 300 365
#     4  10  21  40  63  89 124 160 198 249 305 358
#     4  10  23  42  62  90 123 158 200 247 301 359
#     4  11  21  37  62  92 127 160 197 250 305 357
#     4  10  23  42  61  87 121 162 206 248 300 363
#     4  10  21  39  62  88 121 159 201 248 298 359
#     4  11  24  41  63  91 123 160 205 251 301 360
#     4  11  24  43  64  90 123 159 202 254 308 361
#
# _framework density 19.609076999999999
#
# number of rings (size 3 to 8) (size 9 to 14) (size 15 to 20)
#    0.000    1.500    2.500    1.875    1.750    6.750 
#    0.000    1.250    0.000    0.000    0.000    0.000 
#    0.000    0.000    0.000    0.000    0.000    0.000 
#
# Total GULP energy -793871.093557 kJ/mol
# GULP energy per Si atom -12404.235837 kJ/mol
# Density = 1.956445 g / cm^3
# Si number density = 19.609077 Si / 1000 Ang^3
#
#
#
# Elastic Constant Matrix: (Units=GPa)
#
#
# Indices 1 2 3 4 5 6 
#
# 1 105.4379 52.8787 43.3581 0.0000 0.0000 0.0000
# 2 52.8787 97.4781 60.9882 0.0000 0.0000 0.0000
# 3 43.3581 60.9882 104.0669 0.0000 0.0000 0.0000
# 4 0.0000 0.0000 0.0000 40.4876 0.0000 0.0000
# 5 0.0000 0.0000 0.0000 0.0000 28.6294 0.0000
# 6 0.0000 0.0000 0.0000 0.0000 0.0000 31.6963
#
#
#
# Elastic Compliance Matrix: (Units=1/GPa)
#
#
# Indices 1 2 3 4 5 6 
#
# 1 0.013306 -0.005921 -0.002074 0.000000 0.000000 0.000000
# 2 -0.005921 0.018832 -0.008570 0.000000 0.000000 0.000000
# 3 -0.002074 -0.008570 0.015496 0.000000 0.000000 0.000000
# 4 0.000000 0.000000 0.000000 0.024699 0.000000 0.000000
# 5 0.000000 0.000000 0.000000 0.000000 0.034929 0.000000
# 6 0.000000 0.000000 0.000000 0.000000 0.000000 0.031549
#
#
# Mechanical properties :
#
#
# Convention : Reuss Voigt Hill
#
# Bulk Modulus (GPa) = 68.94108 69.04812 68.99460
# Shear Modulus (GPa) = 28.28431 30.14653 29.21542
#
# Velocity S-wave (km/s) = 3.80203 3.92519 3.86410
# Velocity P-wave (km/s) = 7.38295 7.47206 7.42764
#
# Compressibility (1/GPa) = 0.01450514
#
# Stress axis : x y z
#
# Youngs Moduli (GPa) = 75.15142 53.10028 64.53372
#
# Poissons Ratio (x) = 0.31438 0.13386
# Poissons Ratio (y) = 0.44494 0.55305
# Poissons Ratio (z) = 0.15588 0.45506
#
# Static dielectric constant tensor:
#      x y z
#    x 4.587540 0.000000 0.000000 
#    y 0.000000 3.524700 0.000000 
#    z 0.000000 0.000000 3.534990 
# 
# 
# High freq. dielectric constant tensor:
#      x y z
#    x 1.779940 0.000000 0.000000 
#    y 0.000000 1.767740 0.000000 
#    z 0.000000 0.000000 1.763600 
# 
# From -- ./inp_files/19369.got.cif
#   From: 2010.03.12/outbox.cif.g09.slc.cpg/sg59_10_cif.got.tgz:19369.got - 2010.04.16 16:29:54.
