data_PCOD8245918
_publ_section_title
;
Structure prediction by ZEFSAII (Michael W. Deem and Ramdas Pophale) SiO2 
 PCOD8245918
Probable space group: P M M N
;
_chemical_formula_sum "Si O2"
_cell_formula_units_Z 40
_cell_length_a 15.545494
_cell_length_b 8.601232
_cell_length_c 14.218243
_cell_angle_alpha 90.000000
_cell_angle_beta 90.000000
_cell_angle_gamma 90.000000
_cell_volume 1901.126965
_symmetry_space_group_name_H-M "P M M N"
_symmetry_group_IT_number 59
_space_group.IT_coordinate_system_code '2'
_symmetry_cell_setting 'orthorhombic'
loop_
_space_group_symop_operation_xyz
x,y,z
1/2-x,1/2-y,z
1/2+x,-y,-z
-x,1/2+y,-z
-x,-y,-z
1/2+x,1/2+y,-z
1/2-x,y,z
x,1/2-y,z
loop_
_atom_site_type_symbol
_atom_site_label
_atom_site_fract_x
_atom_site_fract_y
_atom_site_fract_z
Si Si1 0.750000 0.569781 0.900575
Si Si2 0.851030 0.928314 0.605164
Si Si3 0.094454 0.570379 0.210797
Si Si4 0.650028 0.930333 0.393548
Si Si5 0.750000 0.067286 0.104160
Si Si6 0.416769 0.568174 0.788218
O O1 0.750000 0.750000 0.926530
O O2 0.665744 0.531631 0.840865
O O3 0.750000 0.471281 0.995155
O O4 0.750000 0.955918 0.616613
O O5 0.874071 0.750000 0.628222
O O6 0.879934 0.971085 0.499389
O O7 0.901151 0.039089 0.677283
O O8 0.111092 0.750000 0.188694
O O9 0.000698 0.521001 0.173531
O O10 0.750000 0.970264 0.381632
O O11 0.632842 0.750000 0.371166
O O12 0.595970 0.036160 0.322522
O O13 0.750000 0.250000 0.119139
O O14 0.664563 0.999648 0.154117
O O15 0.429964 0.750000 0.805338
#
# Coordination Sequence:
#
# PCOD8245918 Si02
#       6
#     4   8   8   8   4   8
#     4  12  26  46  71  94 121 160 201 254 320 378
#     4   9  18  35  60  89 125 169 211 256 306 362
#     4  12  25  41  64  95 128 165 208 258 308 370
#     4   9  18  34  59  91 127 167 210 256 306 363
#     4  10  24  46  69  94 123 158 205 258 312 370
#     4  11  23  41  65  94 128 167 208 257 310 368
#
# _framework density 21.040151999999999
#
# number of rings (size 3 to 8) (size 9 to 14) (size 15 to 20)
#    0.000    1.600    2.000    4.500    0.000    4.000 
#    0.000    2.000    0.000    0.000    0.000    0.000 
#    0.000    0.000    0.000    0.000    0.000    0.000 
#
# Total GULP energy -496171.944559 kJ/mol
# GULP energy per Si atom -12404.298614 kJ/mol
# Density = 2.099226 g / cm^3
# Si number density = 21.040152 Si / 1000 Ang^3
#
#
#
# Elastic Constant Matrix: (Units=GPa)
#
#
# Indices 1 2 3 4 5 6 
#
# 1 121.1331 16.8374 37.7099 0.0000 0.0000 0.0000
# 2 16.8374 46.8188 0.6536 0.0000 0.0000 0.0000
# 3 37.7099 0.6536 94.3945 0.0000 0.0000 0.0000
# 4 0.0000 0.0000 0.0000 34.9275 0.0000 0.0000
# 5 0.0000 0.0000 0.0000 0.0000 6.7826 0.0000
# 6 0.0000 0.0000 0.0000 0.0000 0.0000 29.3852
#
#
#
# Elastic Compliance Matrix: (Units=1/GPa)
#
#
# Indices 1 2 3 4 5 6 
#
# 1 0.009980 -0.003534 -0.003963 0.000000 0.000000 0.000000
# 2 -0.003534 0.022612 0.001255 0.000000 0.000000 0.000000
# 3 -0.003963 0.001255 0.012168 0.000000 0.000000 0.000000
# 4 0.000000 0.000000 0.000000 0.028631 0.000000 0.000000
# 5 0.000000 0.000000 0.000000 0.000000 0.147436 0.000000
# 6 0.000000 0.000000 0.000000 0.000000 0.000000 0.034031
#
#
# Mechanical properties :
#
#
# Convention : Reuss Voigt Hill
#
# Bulk Modulus (GPa) = 30.98065 41.41647 36.19856
# Shear Modulus (GPa) = 17.97915 28.02876 23.00395
#
# Velocity S-wave (km/s) = 2.92638 3.65383 3.31015
# Velocity P-wave (km/s) = 5.11613 6.12600 5.64370
#
# Compressibility (1/GPa) = 0.03227821
#
# Stress axis : x y z
#
# Youngs Moduli (GPa) = 100.19888 44.22371 82.18180
#
# Poissons Ratio (x) = 0.15628 0.32565
# Poissons Ratio (y) = 0.35409 -0.10315
# Poissons Ratio (z) = 0.39704 -0.05551
#
# Static dielectric constant tensor:
#      x y z
#    x 3.856150 0.000000 0.000000 
#    y 0.000000 3.560310 0.000000 
#    z 0.000000 0.000000 3.773220 
# 
# 
# High freq. dielectric constant tensor:
#      x y z
#    x 1.829450 0.000000 0.000000 
#    y 0.000000 1.813050 0.000000 
#    z 0.000000 0.000000 1.820970 
# 
# From -- ./inp_files/23021.got.cif
#   From: 2010.03.12/outbox.cif.g09.slc.cpg/sg59_12_cif.got.tgz:23021.got - 2010.04.16 16:29:54.
