data_PCOD8245433
_publ_section_title
;
Structure prediction by ZEFSAII (Michael W. Deem and Ramdas Pophale) SiO2 
 PCOD8245433
Probable space group: P M M N
;
_chemical_formula_sum "Si O2"
_cell_formula_units_Z 48
_cell_length_a 8.744648
_cell_length_b 14.518726
_cell_length_c 20.347767
_cell_angle_alpha 90.000000
_cell_angle_beta 90.000000
_cell_angle_gamma 90.000000
_cell_volume 2583.375863
_symmetry_space_group_name_H-M "P M M N"
_symmetry_group_IT_number 59
_space_group.IT_coordinate_system_code '2'
_symmetry_cell_setting 'orthorhombic'
loop_
_space_group_symop_operation_xyz
x,y,z
1/2-x,1/2-y,z
1/2+x,-y,-z
-x,1/2+y,-z
-x,-y,-z
1/2+x,1/2+y,-z
1/2-x,y,z
x,1/2-y,z
loop_
_atom_site_type_symbol
_atom_site_label
_atom_site_fract_x
_atom_site_fract_y
_atom_site_fract_z
Si Si1 0.071551 0.059744 0.816412
Si Si2 0.930533 0.250000 0.481140
Si Si3 0.930343 0.055553 0.679863
Si Si4 0.428763 0.939235 0.942656
Si Si5 0.931499 0.750000 0.123962
Si Si6 0.568990 0.052774 0.438398
Si Si7 0.068217 0.250000 0.024808
Si Si8 0.931532 0.250000 0.628066
O O1 0.250000 0.065163 0.799172
O O2 0.008432 0.159600 0.838747
O O3 0.978869 0.026830 0.752886
O O4 0.038536 0.986899 0.873296
O O5 0.750000 0.250000 0.489050
O O6 0.984038 0.340667 0.442154
O O7 0.001276 0.250000 0.554620
O O8 0.750000 0.048072 0.671067
O O9 0.990326 0.159194 0.665775
O O10 0.007744 0.985467 0.629821
O O11 0.250000 0.929860 0.956660
O O12 0.505555 0.839577 0.938396
O O13 0.500000 0.000000 0.000000
O O14 0.750000 0.750000 0.120047
O O15 0.994728 0.750000 0.049745
O O16 0.750000 0.042724 0.441474
O O17 0.500000 0.000000 0.500000
O O18 0.250000 0.250000 0.027424
O O19 0.750000 0.250000 0.625585
#
# Coordination Sequence:
#
# PCOD8245433 Si02
#       8
#     8   4   8   8   4   8   4   4
#     4  10  21  38  58  83 119 156 192 235 289 350
#     4   9  18  35  58  82 112 146 184 227 279 336
#     4  11  22  37  57  84 118 152 190 235 285 343
#     4  11  22  38  61  88 119 157 200 245 295 355
#     4   9  17  34  58  85 118 152 185 235 295 346
#     4  11  21  37  60  84 112 150 191 233 282 338
#     4  11  21  38  61  89 121 153 195 250 299 348
#     4   9  17  33  55  82 117 149 178 224 283 340
#
# _framework density 18.58034
#
# number of rings (size 3 to 8) (size 9 to 14) (size 15 to 20)
#    0.000    1.667    3.333    2.250    0.000    1.333 
#    0.000    4.583    0.000    2.000    0.000    0.000 
#    0.000    0.000    0.000    0.000    0.000    0.000 
#
# Total GULP energy -595335.116404 kJ/mol
# GULP energy per Si atom -12402.814925 kJ/mol
# Density = 1.853805 g / cm^3
# Si number density = 18.580340 Si / 1000 Ang^3
#
#
#
# Elastic Constant Matrix: (Units=GPa)
#
#
# Indices 1 2 3 4 5 6 
#
# 1 72.4553 53.2096 48.1604 0.0000 0.0000 0.0000
# 2 53.2096 159.8342 71.2240 0.0000 0.0000 0.0000
# 3 48.1604 71.2240 129.9015 0.0000 0.0000 0.0000
# 4 0.0000 0.0000 0.0000 29.0098 0.0000 0.0000
# 5 0.0000 0.0000 0.0000 0.0000 32.4292 0.0000
# 6 0.0000 0.0000 0.0000 0.0000 0.0000 29.1216
#
#
#
# Elastic Compliance Matrix: (Units=1/GPa)
#
#
# Indices 1 2 3 4 5 6 
#
# 1 0.020554 -0.004561 -0.005119 0.000000 0.000000 0.000000
# 2 -0.004561 0.009292 -0.003403 0.000000 0.000000 0.000000
# 3 -0.005119 -0.003403 0.011462 0.000000 0.000000 0.000000
# 4 0.000000 0.000000 0.000000 0.034471 0.000000 0.000000
# 5 0.000000 0.000000 0.000000 0.000000 0.030836 0.000000
# 6 0.000000 0.000000 0.000000 0.000000 0.000000 0.034339
#
#
# Mechanical properties :
#
#
# Convention : Reuss Voigt Hill
#
# Bulk Modulus (GPa) = 66.05173 78.59767 72.32470
# Shear Modulus (GPa) = 29.04120 30.75191 29.89656
#
# Velocity S-wave (km/s) = 3.95778 4.07268 4.01564
# Velocity P-wave (km/s) = 7.51743 8.03175 7.77884
#
# Compressibility (1/GPa) = 0.01513965
#
# Stress axis : x y z
#
# Youngs Moduli (GPa) = 48.65185 107.62454 87.24314
#
# Poissons Ratio (x) = 0.49091 0.44664
# Poissons Ratio (y) = 0.22192 0.29692
# Poissons Ratio (z) = 0.24907 0.36629
#
# Static dielectric constant tensor:
#      x y z
#    x 3.284010 0.000000 0.000000 
#    y 0.000000 3.722810 0.000000 
#    z 0.000000 0.000000 3.420810 
# 
# 
# High freq. dielectric constant tensor:
#      x y z
#    x 1.708770 0.000000 0.000000 
#    y 0.000000 1.728000 0.000000 
#    z 0.000000 0.000000 1.721550 
# 
# From -- ./inp_files/25705.got.cif
#   From: 2010.03.12/outbox.cif.g09.slc.cpg/sg59_13_cif.got.tgz:25705.got - 2010.04.16 16:29:54.
