data_PCOD8245614
_publ_section_title
;
Structure prediction by ZEFSAII (Michael W. Deem and Ramdas Pophale) SiO2 
 PCOD8245614
Probable space group: P M M N
;
_chemical_formula_sum "Si O2"
_cell_formula_units_Z 48
_cell_length_a 13.879721
_cell_length_b 17.297134
_cell_length_c 9.748268
_cell_angle_alpha 90.000000
_cell_angle_beta 90.000000
_cell_angle_gamma 90.000000
_cell_volume 2340.358274
_symmetry_space_group_name_H-M "P M M N"
_symmetry_group_IT_number 59
_space_group.IT_coordinate_system_code '2'
_symmetry_cell_setting 'orthorhombic'
loop_
_space_group_symop_operation_xyz
x,y,z
1/2-x,1/2-y,z
1/2+x,-y,-z
-x,1/2+y,-z
-x,-y,-z
1/2+x,1/2+y,-z
1/2-x,y,z
x,1/2-y,z
loop_
_atom_site_type_symbol
_atom_site_label
_atom_site_fract_x
_atom_site_fract_y
_atom_site_fract_z
Si Si1 0.634672 0.001970 0.657539
Si Si2 0.864208 0.165242 0.556682
Si Si3 0.528250 0.572733 0.911196
Si Si4 0.356839 0.441568 0.624163
Si Si5 0.857488 0.111052 0.262271
Si Si6 0.863370 0.838747 0.139341
O O1 0.750000 0.000468 0.663032
O O2 0.597122 0.091626 0.645228
O O3 0.590982 0.959474 0.786359
O O4 0.594324 0.954688 0.524437
O O5 0.750000 0.161860 0.566355
O O6 0.901753 0.250000 0.609319
O O7 0.892427 0.157467 0.396449
O O8 0.434891 0.621217 0.859716
O O9 0.500000 0.500000 0.000000
O O10 0.590955 0.631487 0.998993
O O11 0.250000 0.410477 0.594793
O O12 0.354040 0.520821 0.706339
O O13 0.408811 0.379976 0.724733
O O14 0.750000 0.138377 0.214959
O O15 0.750000 0.855846 0.130016
O O16 0.888371 0.750000 0.155256
#
# Coordination Sequence:
#
# PCOD8245614 Si02
#       6
#     8   8   8   8   8   8
#     4   9  19  35  59  88 114 145 194 246 291 346
#     4   8  15  31  56  84 112 145 186 238 297 346
#     4  12  23  35  56  86 119 158 198 241 285 351
#     4   8  15  33  57  81 107 142 192 240 287 350
#     4   9  18  33  55  81 112 150 196 240 286 345
#     4  10  21  39  61  84 117 157 194 240 302 362
#
# _framework density 20.509681
#
# number of rings (size 3 to 8) (size 9 to 14) (size 15 to 20)
#    0.000    2.667    1.667    2.500    0.000    4.000 
#    0.000    1.667    0.000    3.000    0.000    4.667 
#    0.000    0.000    0.000    0.000    0.000    0.000 
#
# Total GULP energy -594708.330686 kJ/mol
# GULP energy per Si atom -12389.756889 kJ/mol
# Density = 2.046300 g / cm^3
# Si number density = 20.509681 Si / 1000 Ang^3
#
#
#
# Elastic Constant Matrix: (Units=GPa)
#
#
# Indices 1 2 3 4 5 6 
#
# 1 57.4007 28.0611 36.3447 0.0000 0.0000 0.0000
# 2 28.0611 101.7844 59.5655 0.0000 0.0000 0.0000
# 3 36.3447 59.5655 122.6777 0.0000 0.0000 0.0000
# 4 0.0000 0.0000 0.0000 28.3413 0.0000 0.0000
# 5 0.0000 0.0000 0.0000 0.0000 16.9543 0.0000
# 6 0.0000 0.0000 0.0000 0.0000 0.0000 14.1640
#
#
#
# Elastic Compliance Matrix: (Units=1/GPa)
#
#
# Indices 1 2 3 4 5 6 
#
# 1 0.022151 -0.003166 -0.005025 0.000000 0.000000 0.000000
# 2 -0.003166 0.014177 -0.005946 0.000000 0.000000 0.000000
# 3 -0.005025 -0.005946 0.012527 0.000000 0.000000 0.000000
# 4 0.000000 0.000000 0.000000 0.035284 0.000000 0.000000
# 5 0.000000 0.000000 0.000000 0.000000 0.058982 0.000000
# 6 0.000000 0.000000 0.000000 0.000000 0.000000 0.070601
#
#
# Mechanical properties :
#
#
# Convention : Reuss Voigt Hill
#
# Bulk Modulus (GPa) = 48.58766 58.86726 53.72746
# Shear Modulus (GPa) = 20.09186 22.41802 21.25494
#
# Velocity S-wave (km/s) = 3.13330 3.30971 3.22271
# Velocity P-wave (km/s) = 6.06890 6.58560 6.33252
#
# Compressibility (1/GPa) = 0.02058136
#
# Stress axis : x y z
#
# Youngs Moduli (GPa) = 45.14470 70.53698 79.82702
#
# Poissons Ratio (x) = 0.22332 0.40115
# Poissons Ratio (y) = 0.14293 0.47462
# Poissons Ratio (z) = 0.22686 0.41938
#
# Static dielectric constant tensor:
#      x y z
#    x 3.922240 0.000000 0.000000 
#    y 0.000000 3.797240 0.000000 
#    z 0.000000 0.000000 3.934630 
# 
# 
# High freq. dielectric constant tensor:
#      x y z
#    x 1.798610 0.000000 0.000000 
#    y 0.000000 1.788630 0.000000 
#    z 0.000000 0.000000 1.791450 
# 
# From -- ./inp_files/9057.got.cif
#   From: 2010.03.12/outbox.cif.g09.slc.cpg/sg59_5_cif.got.tgz:9057.got - 2010.04.16 16:29:54.
