data_PCOD8245831
_publ_section_title
;
Structure prediction by ZEFSAII (Michael W. Deem and Ramdas Pophale) SiO2 
 PCOD8245831
Probable space group: P M M N
;
_chemical_formula_sum "Si O2"
_cell_formula_units_Z 40
_cell_length_a 18.518398
_cell_length_b 8.505890
_cell_length_c 12.321226
_cell_angle_alpha 90.000000
_cell_angle_beta 90.000000
_cell_angle_gamma 90.000000
_cell_volume 1940.783536
_symmetry_space_group_name_H-M "P M M N"
_symmetry_group_IT_number 59
_space_group.IT_coordinate_system_code '2'
_symmetry_cell_setting 'orthorhombic'
loop_
_space_group_symop_operation_xyz
x,y,z
1/2-x,1/2-y,z
1/2+x,-y,-z
-x,1/2+y,-z
-x,-y,-z
1/2+x,1/2+y,-z
1/2-x,y,z
x,1/2-y,z
loop_
_atom_site_type_symbol
_atom_site_label
_atom_site_fract_x
_atom_site_fract_y
_atom_site_fract_z
Si Si1 0.919621 0.069463 0.671799
Si Si2 0.166839 0.431969 0.523523
Si Si3 0.068298 0.430984 0.938851
Si Si4 0.332481 0.069670 0.136194
Si Si5 0.427843 0.931709 0.704936
O O1 0.943454 0.250000 0.668975
O O2 0.868534 0.034428 0.570765
O O3 0.877972 0.038152 0.783418
O O4 0.991161 0.964708 0.664511
O O5 0.250000 0.481258 0.533532
O O6 0.158645 0.250000 0.493050
O O7 0.128796 0.465412 0.637696
O O8 0.053132 0.250000 0.909078
O O9 0.082305 0.528177 0.830603
O O10 0.138441 0.449295 0.014247
O O11 0.000000 0.500000 0.000000
O O12 0.250000 0.013169 0.137655
O O13 0.339662 0.250000 0.175141
O O14 0.410712 0.750000 0.685608
#
# Coordination Sequence:
#
# PCOD8245831 Si02
#       5
#     8   8   8   8   8
#     4  12  24  40  65  95 128 165 211 264 317 379
#     4  11  25  45  67  92 127 168 210 260 321 384
#     4  11  22  39  64  93 127 168 211 259 314 374
#     4  10  22  40  63  92 127 167 210 258 317 381
#     4  12  25  42  66  94 128 168 214 266 316 375
#
# _framework density 20.610232
#
# number of rings (size 3 to 8) (size 9 to 14) (size 15 to 20)
#    0.000    0.800    2.000    6.000    0.000    6.000 
#    0.000    2.000    0.000    0.000    0.000    0.000 
#    0.000    0.000    0.000    0.000    0.000    0.000 
#
# Total GULP energy -496337.898114 kJ/mol
# GULP energy per Si atom -12408.447453 kJ/mol
# Density = 2.056332 g / cm^3
# Si number density = 20.610232 Si / 1000 Ang^3
#
#
#
# Elastic Constant Matrix: (Units=GPa)
#
#
# Indices 1 2 3 4 5 6 
#
# 1 86.4696 12.9560 45.7621 0.0000 0.0000 0.0000
# 2 12.9560 72.2411 16.4984 0.0000 0.0000 0.0000
# 3 45.7621 16.4984 110.7794 0.0000 0.0000 0.0000
# 4 0.0000 0.0000 0.0000 35.0191 0.0000 0.0000
# 5 0.0000 0.0000 0.0000 0.0000 30.3211 0.0000
# 6 0.0000 0.0000 0.0000 0.0000 0.0000 29.9966
#
#
#
# Elastic Compliance Matrix: (Units=1/GPa)
#
#
# Indices 1 2 3 4 5 6 
#
# 1 0.014920 -0.001313 -0.005968 0.000000 0.000000 0.000000
# 2 -0.001313 0.014445 -0.001609 0.000000 0.000000 0.000000
# 3 -0.005968 -0.001609 0.011732 0.000000 0.000000 0.000000
# 4 0.000000 0.000000 0.000000 0.028556 0.000000 0.000000
# 5 0.000000 0.000000 0.000000 0.000000 0.032980 0.000000
# 6 0.000000 0.000000 0.000000 0.000000 0.000000 0.033337
#
#
# Mechanical properties :
#
#
# Convention : Reuss Voigt Hill
#
# Bulk Modulus (GPa) = 42.88570 46.65813 44.77191
# Shear Modulus (GPa) = 30.95552 32.01894 31.48723
#
# Velocity S-wave (km/s) = 3.87970 3.94578 3.91288
# Velocity P-wave (km/s) = 6.39708 6.59139 6.49496
#
# Compressibility (1/GPa) = 0.02331779
#
# Stress axis : x y z
#
# Youngs Moduli (GPa) = 67.02529 69.22592 85.23849
#
# Poissons Ratio (x) = 0.09088 0.50868
# Poissons Ratio (y) = 0.08800 0.13715
# Poissons Ratio (z) = 0.39999 0.11139
#
# Static dielectric constant tensor:
#      x y z
#    x 3.540550 0.000000 0.000000 
#    y 0.000000 3.855340 0.000000 
#    z 0.000000 0.000000 3.813630 
# 
# 
# High freq. dielectric constant tensor:
#      x y z
#    x 1.811930 0.000000 0.000000 
#    y 0.000000 1.813020 0.000000 
#    z 0.000000 0.000000 1.817980 
# 
# From -- ./inp_files/13820.got.cif
#   From: 2010.03.12/outbox.cif.g09.slc.cpg/sg59_7_cif.got.tgz:13820.got - 2010.04.16 16:29:54.
