data_PCOD8245799
_publ_section_title
;
Structure prediction by ZEFSAII (Michael W. Deem and Ramdas Pophale) SiO2 
 PCOD8245799
Probable space group: P M M N
;
_chemical_formula_sum "Si O2"
_cell_formula_units_Z 56
_cell_length_a 20.688757
_cell_length_b 8.898703
_cell_length_c 15.226581
_cell_angle_alpha 90.000000
_cell_angle_beta 90.000000
_cell_angle_gamma 90.000000
_cell_volume 2803.260825
_symmetry_space_group_name_H-M "P M M N"
_symmetry_group_IT_number 59
_space_group.IT_coordinate_system_code '2'
_symmetry_cell_setting 'orthorhombic'
loop_
_space_group_symop_operation_xyz
x,y,z
1/2-x,1/2-y,z
1/2+x,-y,-z
-x,1/2+y,-z
-x,-y,-z
1/2+x,1/2+y,-z
1/2-x,y,z
x,1/2-y,z
loop_
_atom_site_type_symbol
_atom_site_label
_atom_site_fract_x
_atom_site_fract_y
_atom_site_fract_z
Si Si1 0.322296 0.924119 0.947580
Si Si2 0.555025 0.074334 0.439585
Si Si3 0.011363 0.425154 0.724361
Si Si4 0.822447 0.414074 0.848205
Si Si5 0.957104 0.572408 0.078803
Si Si6 0.882802 0.577648 0.701116
Si Si7 0.821488 0.078858 0.549321
O O1 0.250000 0.973193 0.912666
O O2 0.333864 0.750000 0.923679
O O3 0.382202 0.021424 0.912623
O O4 0.323302 0.951027 0.050478
O O5 0.539978 0.250000 0.436241
O O6 0.625628 0.036833 0.477154
O O7 0.500000 0.000000 0.500000
O O8 0.560919 0.010331 0.340103
O O9 0.024339 0.250000 0.715428
O O10 0.943167 0.470635 0.681918
O O11 0.013632 0.475062 0.826612
O O12 0.750000 0.407600 0.812253
O O13 0.855450 0.250000 0.830825
O O14 0.859625 0.547668 0.800189
O O15 0.959678 0.750000 0.064048
O O16 0.000000 0.500000 0.000000
O O17 0.902789 0.750000 0.690946
O O18 0.827599 0.531035 0.632823
O O19 0.750000 0.054753 0.508795
O O20 0.830512 0.250000 0.581903
#
# Coordination Sequence:
#
# PCOD8245799 Si02
#       7
#     8   8   8   8   8   8   8
#     4   9  19  37  60  84 113 155 203 251 308 371
#     4  11  22  39  65  92 119 155 200 247 294 351
#     4  11  24  41  60  84 117 159 203 246 302 367
#     4   9  18  33  52  75 109 153 194 234 292 364
#     4  11  24  40  61  90 124 162 206 260 315 367
#     4  12  23  33  52  84 117 150 193 245 301 358
#     4  10  22  40  61  85 118 159 196 237 296 361
#
# _framework density 19.976735000000001
#
# number of rings (size 3 to 8) (size 9 to 14) (size 15 to 20)
#    0.000    1.571    1.429    4.714    0.000    9.429 
#    0.000    2.143    0.000    2.571    0.000    0.000 
#    0.000    0.000    0.000    0.000    0.000    0.000 
#
# Total GULP energy -694080.680688 kJ/mol
# GULP energy per Si atom -12394.297869 kJ/mol
# Density = 1.993127 g / cm^3
# Si number density = 19.976735 Si / 1000 Ang^3
#
#
#
# Elastic Constant Matrix: (Units=GPa)
#
#
# Indices 1 2 3 4 5 6 
#
# 1 124.0792 43.8928 40.0723 0.0000 0.0000 0.0000
# 2 43.8928 90.1609 51.1397 0.0000 0.0000 0.0000
# 3 40.0723 51.1397 97.6127 0.0000 0.0000 0.0000
# 4 0.0000 0.0000 0.0000 32.4259 0.0000 0.0000
# 5 0.0000 0.0000 0.0000 0.0000 31.4736 0.0000
# 6 0.0000 0.0000 0.0000 0.0000 0.0000 30.3901
#
#
#
# Elastic Compliance Matrix: (Units=1/GPa)
#
#
# Indices 1 2 3 4 5 6 
#
# 1 0.010065 -0.003637 -0.002226 0.000000 0.000000 0.000000
# 2 -0.003637 0.017095 -0.007463 0.000000 0.000000 0.000000
# 3 -0.002226 -0.007463 0.015068 0.000000 0.000000 0.000000
# 4 0.000000 0.000000 0.000000 0.030840 0.000000 0.000000
# 5 0.000000 0.000000 0.000000 0.000000 0.031773 0.000000
# 6 0.000000 0.000000 0.000000 0.000000 0.000000 0.032905
#
#
# Mechanical properties :
#
#
# Convention : Reuss Voigt Hill
#
# Bulk Modulus (GPa) = 64.20384 64.67359 64.43872
# Shear Modulus (GPa) = 29.48269 30.64112 30.06191
#
# Velocity S-wave (km/s) = 3.84585 3.92068 3.88344
# Velocity P-wave (km/s) = 7.20623 7.27601 7.24121
#
# Compressibility (1/GPa) = 0.01557539
#
# Stress axis : x y z
#
# Youngs Moduli (GPa) = 99.35398 58.49676 66.36368
#
# Poissons Ratio (x) = 0.21276 0.14776
# Poissons Ratio (y) = 0.36136 0.49527
# Poissons Ratio (z) = 0.22121 0.43656
#
# Static dielectric constant tensor:
#      x y z
#    x 4.123790 0.000000 0.000000 
#    y 0.000000 3.599860 0.000000 
#    z 0.000000 0.000000 3.652830 
# 
# 
# High freq. dielectric constant tensor:
#      x y z
#    x 1.783920 0.000000 0.000000 
#    y 0.000000 1.775170 0.000000 
#    z 0.000000 0.000000 1.767880 
# 
# From -- ./inp_files/24296.got.cif
#   From: 2010.03.12/outbox.cif.g09.slc.cpg/sg59_13_cif.got.tgz:24296.got - 2010.04.16 16:29:54.
