data_PCOD8245021
_publ_section_title
;
Structure prediction by ZEFSAII (Michael W. Deem and Ramdas Pophale) SiO2 
 PCOD8245021
Probable space group: P M M N
;
_chemical_formula_sum "Si O2"
_cell_formula_units_Z 48
_cell_length_a 9.008958
_cell_length_b 9.088786
_cell_length_c 30.706314
_cell_angle_alpha 90.000000
_cell_angle_beta 90.000000
_cell_angle_gamma 90.000000
_cell_volume 2514.248078
_symmetry_space_group_name_H-M "P M M N"
_symmetry_group_IT_number 59
_space_group.IT_coordinate_system_code '2'
_symmetry_cell_setting 'orthorhombic'
loop_
_space_group_symop_operation_xyz
x,y,z
1/2-x,1/2-y,z
1/2+x,-y,-z
-x,1/2+y,-z
-x,-y,-z
1/2+x,1/2+y,-z
1/2-x,y,z
x,1/2-y,z
loop_
_atom_site_type_symbol
_atom_site_label
_atom_site_fract_x
_atom_site_fract_y
_atom_site_fract_z
Si Si1 0.077800 0.421721 0.618671
Si Si2 0.078837 0.919112 0.706885
Si Si3 0.081099 0.423533 0.205816
Si Si4 0.578980 0.422988 0.960178
Si Si5 0.078018 0.078502 0.872662
Si Si6 0.075140 0.080032 0.459855
O O1 0.250000 0.453351 0.608285
O O2 0.041279 0.250000 0.615856
O O3 0.035265 0.479190 0.666385
O O4 0.977262 0.507710 0.584754
O O5 0.250000 0.940109 0.720031
O O6 0.045498 0.750000 0.694469
O O7 0.979682 0.972521 0.747203
O O8 0.250000 0.478169 0.201301
O O9 0.067986 0.250000 0.200518
O O10 0.981371 0.495598 0.169162
O O11 0.750000 0.469045 0.959692
O O12 0.556352 0.250000 0.965441
O O13 0.506769 0.479417 0.915364
O O14 0.500000 0.500000 0.000000
O O15 0.250000 0.042106 0.878983
O O16 0.048576 0.250000 0.865535
O O17 0.250000 0.061495 0.464285
O O18 0.027546 0.250000 0.460217
O O19 0.000000 0.000000 0.500000
#
# Coordination Sequence:
#
# PCOD8245021 Si02
#       6
#     8   8   8   8   8   8
#     4  10  21  37  58  85 115 146 183 226 272 325
#     4   9  18  34  55  78 108 147 186 224 268 318
#     4  10  21  36  55  81 112 145 182 225 272 323
#     4  10  21  37  57  81 109 142 180 222 270 324
#     4  10  21  37  57  80 107 141 181 225 273 324
#     4  11  24  40  59  84 113 146 185 228 274 325
#
# _framework density 19.091194000000002
#
# number of rings (size 3 to 8) (size 9 to 14) (size 15 to 20)
#    0.000    2.000    0.000    3.000    0.000    9.333 
#    0.000    3.333    0.000    0.000    0.000    0.000 
#    0.000    0.000    0.000    0.000    0.000    0.000 
#
# Total GULP energy -595442.578488 kJ/mol
# GULP energy per Si atom -12405.053718 kJ/mol
# Density = 1.904774 g / cm^3
# Si number density = 19.091194 Si / 1000 Ang^3
#
#
#
# Elastic Constant Matrix: (Units=GPa)
#
#
# Indices 1 2 3 4 5 6 
#
# 1 94.1734 50.9587 66.9303 0.0000 0.0000 0.0000
# 2 50.9587 83.1254 67.1678 0.0000 0.0000 0.0000
# 3 66.9303 67.1678 142.9328 0.0000 0.0000 0.0000
# 4 0.0000 0.0000 0.0000 41.0525 0.0000 0.0000
# 5 0.0000 0.0000 0.0000 0.0000 43.9178 0.0000
# 6 0.0000 0.0000 0.0000 0.0000 0.0000 29.9217
#
#
#
# Elastic Compliance Matrix: (Units=1/GPa)
#
#
# Indices 1 2 3 4 5 6 
#
# 1 0.018033 -0.006822 -0.005238 0.000000 0.000000 0.000000
# 2 -0.006822 0.021975 -0.007132 0.000000 0.000000 0.000000
# 3 -0.005238 -0.007132 0.012801 0.000000 0.000000 0.000000
# 4 0.000000 0.000000 0.000000 0.024359 0.000000 0.000000
# 5 0.000000 0.000000 0.000000 0.000000 0.022770 0.000000
# 6 0.000000 0.000000 0.000000 0.000000 0.000000 0.033421
#
#
# Mechanical properties :
#
#
# Convention : Reuss Voigt Hill
#
# Bulk Modulus (GPa) = 69.32968 76.70504 73.01736
# Shear Modulus (GPa) = 28.32020 31.99006 30.15513
#
# Velocity S-wave (km/s) = 3.85569 4.09790 3.97864
# Velocity P-wave (km/s) = 7.49771 7.91555 7.70946
#
# Compressibility (1/GPa) = 0.01442384
#
# Stress axis : x y z
#
# Youngs Moduli (GPa) = 55.45276 45.50568 78.11994
#
# Poissons Ratio (x) = 0.31045 0.40922
# Poissons Ratio (y) = 0.37831 0.55716
# Poissons Ratio (z) = 0.29048 0.32455
#
# Static dielectric constant tensor:
#      x y z
#    x 3.581260 0.000000 0.000000 
#    y 0.000000 3.491740 0.000000 
#    z 0.000000 0.000000 3.637730 
# 
# 
# High freq. dielectric constant tensor:
#      x y z
#    x 1.751030 0.000000 0.000000 
#    y 0.000000 1.739590 0.000000 
#    z 0.000000 0.000000 1.757110 
# 
# From -- ./inp_files/32807.got.cif
#   From: 2010.03.12/outbox.cif.g09.slc.cpg/sg59_17_cif.got.tgz:32807.got - 2010.04.16 16:29:54.
