data_PCOD8245193
_publ_section_title
;
Structure prediction by ZEFSAII (Michael W. Deem and Ramdas Pophale) SiO2 
 PCOD8245193
Probable space group: P M M N
;
_chemical_formula_sum "Si O2"
_cell_formula_units_Z 48
_cell_length_a 8.993672
_cell_length_b 14.162033
_cell_length_c 19.218340
_cell_angle_alpha 90.000000
_cell_angle_beta 90.000000
_cell_angle_gamma 90.000000
_cell_volume 2447.814591
_symmetry_space_group_name_H-M "P M M N"
_symmetry_group_IT_number 59
_space_group.IT_coordinate_system_code '2'
_symmetry_cell_setting 'orthorhombic'
loop_
_space_group_symop_operation_xyz
x,y,z
1/2-x,1/2-y,z
1/2+x,-y,-z
-x,1/2+y,-z
-x,-y,-z
1/2+x,1/2+y,-z
1/2-x,y,z
x,1/2-y,z
loop_
_atom_site_type_symbol
_atom_site_label
_atom_site_fract_x
_atom_site_fract_y
_atom_site_fract_z
Si Si1 0.421834 0.361427 0.674265
Si Si2 0.576725 0.141324 0.975687
Si Si3 0.425865 0.484086 0.249063
Si Si4 0.073154 0.357516 0.374648
Si Si5 0.423464 0.516020 0.892905
Si Si6 0.926315 0.644478 0.475938
O O1 0.250000 0.387788 0.686897
O O2 0.445887 0.250000 0.679668
O O3 0.521879 0.409756 0.733406
O O4 0.478891 0.399947 0.597873
O O5 0.750000 0.131763 0.957767
O O6 0.524948 0.250000 0.976088
O O7 0.486058 0.085378 0.917010
O O8 0.541362 0.096783 0.050798
O O9 0.250000 0.479364 0.242371
O O10 0.490836 0.417741 0.310642
O O11 0.496386 0.449896 0.177042
O O12 0.250000 0.358912 0.371405
O O13 0.015509 0.250000 0.367260
O O14 0.021871 0.402659 0.450340
O O15 0.250000 0.504362 0.878932
O O16 0.750000 0.648525 0.472694
O O17 0.989856 0.750000 0.479113
#
# Coordination Sequence:
#
# PCOD8245193 Si02
#       6
#     8   8   8   8   8   8
#     4   9  18  33  52  72  96 132 177 220 263 311
#     4   9  19  38  63  86 106 131 164 204 251 297
#     4  11  22  33  49  76 108 140 171 208 255 300
#     4   8  15  29  48  71 100 134 173 215 259 308
#     4  10  21  37  56  80 110 139 168 203 243 297
#     4   7  11  24  47  70  92 124 170 220 262 303
#
# _framework density 19.609328999999999
#
# number of rings (size 3 to 8) (size 9 to 14) (size 15 to 20)
#    0.000    3.000    0.000    3.000    0.000    3.333 
#    0.000    0.000    0.000    2.500    0.000    4.667 
#    0.000    0.000    0.000    0.000    0.000    0.000 
#
# Total GULP energy -594744.457386 kJ/mol
# GULP energy per Si atom -12390.509529 kJ/mol
# Density = 1.956470 g / cm^3
# Si number density = 19.609329 Si / 1000 Ang^3
#
#
#
# Elastic Constant Matrix: (Units=GPa)
#
#
# Indices 1 2 3 4 5 6 
#
# 1 43.1646 10.5096 23.0881 0.0000 0.0000 0.0000
# 2 10.5096 48.8283 3.0136 0.0000 0.0000 0.0000
# 3 23.0881 3.0136 89.9805 0.0000 0.0000 0.0000
# 4 0.0000 0.0000 0.0000 24.1755 0.0000 0.0000
# 5 0.0000 0.0000 0.0000 0.0000 26.6734 0.0000
# 6 0.0000 0.0000 0.0000 0.0000 0.0000 19.1339
#
#
#
# Elastic Compliance Matrix: (Units=1/GPa)
#
#
# Indices 1 2 3 4 5 6 
#
# 1 0.028333 -0.005661 -0.007080 0.000000 0.000000 0.000000
# 2 -0.005661 0.021654 0.000727 0.000000 0.000000 0.000000
# 3 -0.007080 0.000727 0.012906 0.000000 0.000000 0.000000
# 4 0.000000 0.000000 0.000000 0.041364 0.000000 0.000000
# 5 0.000000 0.000000 0.000000 0.000000 0.037491 0.000000
# 6 0.000000 0.000000 0.000000 0.000000 0.000000 0.052263
#
#
# Mechanical properties :
#
#
# Convention : Reuss Voigt Hill
#
# Bulk Modulus (GPa) = 25.73082 28.35509 27.04296
# Shear Modulus (GPa) = 21.64569 23.68737 22.66653
#
# Velocity S-wave (km/s) = 3.32602 3.47935 3.40355
# Velocity P-wave (km/s) = 5.28206 5.53467 5.40984
#
# Compressibility (1/GPa) = 0.03886390
#
# Stress axis : x y z
#
# Youngs Moduli (GPa) = 35.29496 46.18189 77.48404
#
# Poissons Ratio (x) = 0.26145 0.54861
# Poissons Ratio (y) = 0.19981 -0.05636
# Poissons Ratio (z) = 0.24990 -0.03359
#
# Static dielectric constant tensor:
#      x y z
#    x 3.180890 0.000000 0.000000 
#    y 0.000000 3.454460 0.000000 
#    z 0.000000 0.000000 3.908870 
# 
# 
# High freq. dielectric constant tensor:
#      x y z
#    x 1.729230 0.000000 0.000000 
#    y 0.000000 1.750550 0.000000 
#    z 0.000000 0.000000 1.779180 
# 
# From -- ./inp_files/25454.got.cif
#   From: 2010.03.12/outbox.cif.g09.slc.cpg/sg59_13_cif.got.tgz:25454.got - 2010.04.16 16:29:54.
