data_PCOD8245506
_publ_section_title
;
Structure prediction by ZEFSAII (Michael W. Deem and Ramdas Pophale) SiO2 
 PCOD8245506
Probable space group: P M M N
;
_chemical_formula_sum "Si O2"
_cell_formula_units_Z 56
_cell_length_a 16.048416
_cell_length_b 9.313178
_cell_length_c 19.660778
_cell_angle_alpha 90.000000
_cell_angle_beta 90.000000
_cell_angle_gamma 90.000000
_cell_volume 2938.534381
_symmetry_space_group_name_H-M "P M M N"
_symmetry_group_IT_number 59
_space_group.IT_coordinate_system_code '2'
_symmetry_cell_setting 'orthorhombic'
loop_
_space_group_symop_operation_xyz
x,y,z
1/2-x,1/2-y,z
1/2+x,-y,-z
-x,1/2+y,-z
-x,-y,-z
1/2+x,1/2+y,-z
1/2-x,y,z
x,1/2-y,z
loop_
_atom_site_type_symbol
_atom_site_label
_atom_site_fract_x
_atom_site_fract_y
_atom_site_fract_z
Si Si1 0.655567 0.588931 0.163166
Si Si2 0.750000 0.579253 0.944785
Si Si3 0.750000 0.578553 0.790453
Si Si4 0.849182 0.587104 0.411634
Si Si5 0.402193 0.080725 0.298125
Si Si6 0.416472 0.081493 0.979347
Si Si7 0.342661 0.079329 0.439674
Si Si8 0.912452 0.418556 0.284959
O O1 0.750000 0.576882 0.136500
O O2 0.637280 0.750000 0.189445
O O3 0.595992 0.550191 0.100496
O O4 0.643832 0.481602 0.225429
O O5 0.750000 0.750000 0.949141
O O6 0.750000 0.521236 0.867520
O O7 0.665030 0.522468 0.980420
O O8 0.750000 0.750000 0.790966
O O9 0.668544 0.516941 0.751618
O O10 0.750000 0.579689 0.407513
O O11 0.879067 0.750000 0.397252
O O12 0.879123 0.532684 0.486637
O O13 0.888893 0.481049 0.357653
O O14 0.389255 0.250000 0.301730
O O15 0.395841 0.020135 0.375632
O O16 0.492049 0.040866 0.268134
O O17 0.428354 0.250000 0.994020
O O18 0.500000 0.000000 0.000000
O O19 0.250000 0.016821 0.430107
O O20 0.338640 0.250000 0.439799
O O21 0.897489 0.250000 0.288090
#
# Coordination Sequence:
#
# PCOD8245506 Si02
#       8
#     8   4   4   8   8   8   8   8
#     4  10  21  40  61  77 102 148 194 223 254 312
#     4   9  18  34  57  83 112 147 184 220 269 331
#     4   9  16  28  50  75 104 137 166 208 263 311
#     4   9  18  33  53  74  97 136 183 219 254 310
#     4   9  17  29  46  75 108 135 168 214 267 315
#     4  10  21  38  60  87 116 146 184 229 274 327
#     4   8  13  26  49  71  96 133 179 219 250 302
#     4  11  23  33  48  81 114 135 167 225 282 321
#
# _framework density 19.057119
#
# number of rings (size 3 to 8) (size 9 to 14) (size 15 to 20)
#    0.000    2.571    1.429    1.714    2.000    3.429 
#    0.000    0.357    0.000    0.857    0.000    2.000 
#    0.000    0.000    0.000    0.000    0.000    0.000 
#
# Total GULP energy -694145.204768 kJ/mol
# GULP energy per Si atom -12395.450085 kJ/mol
# Density = 1.901374 g / cm^3
# Si number density = 19.057119 Si / 1000 Ang^3
#
#
#
# Elastic Constant Matrix: (Units=GPa)
#
#
# Indices 1 2 3 4 5 6 
#
# 1 91.5666 30.5727 47.1555 0.0000 0.0000 0.0000
# 2 30.5727 49.5022 36.8853 0.0000 0.0000 0.0000
# 3 47.1555 36.8853 124.8171 0.0000 0.0000 0.0000
# 4 0.0000 0.0000 0.0000 14.6320 0.0000 0.0000
# 5 0.0000 0.0000 0.0000 0.0000 29.7209 0.0000
# 6 0.0000 0.0000 0.0000 0.0000 0.0000 23.0266
#
#
#
# Elastic Compliance Matrix: (Units=1/GPa)
#
#
# Indices 1 2 3 4 5 6 
#
# 1 0.015019 -0.006473 -0.003761 0.000000 0.000000 0.000000
# 2 -0.006473 0.028695 -0.006034 0.000000 0.000000 0.000000
# 3 -0.003761 -0.006034 0.011216 0.000000 0.000000 0.000000
# 4 0.000000 0.000000 0.000000 0.068343 0.000000 0.000000
# 5 0.000000 0.000000 0.000000 0.000000 0.033646 0.000000
# 6 0.000000 0.000000 0.000000 0.000000 0.000000 0.043428
#
#
# Mechanical properties :
#
#
# Convention : Reuss Voigt Hill
#
# Bulk Modulus (GPa) = 44.65721 55.01255 49.83488
# Shear Modulus (GPa) = 20.80293 23.56072 22.18182
#
# Velocity S-wave (km/s) = 3.30754 3.51995 3.41539
# Velocity P-wave (km/s) = 6.17014 6.74166 6.46222
#
# Compressibility (1/GPa) = 0.02239280
#
# Stress axis : x y z
#
# Youngs Moduli (GPa) = 66.58055 34.84873 89.15869
#
# Poissons Ratio (x) = 0.22559 0.33535
# Poissons Ratio (y) = 0.43100 0.53801
# Poissons Ratio (z) = 0.25043 0.21029
#
# Static dielectric constant tensor:
#      x y z
#    x 3.536640 0.000000 0.000000 
#    y 0.000000 2.997860 0.000000 
#    z 0.000000 0.000000 3.724210 
# 
# 
# High freq. dielectric constant tensor:
#      x y z
#    x 1.741690 0.000000 0.000000 
#    y 0.000000 1.686240 0.000000 
#    z 0.000000 0.000000 1.757790 
# 
# From -- ./inp_files/30516.got.cif
#   From: 2010.03.12/outbox.cif.g09.slc.cpg/sg59_16_cif.got.tgz:30516.got - 2010.04.16 16:29:54.
