data_PCOD8245554
_publ_section_title
;
Structure prediction by ZEFSAII (Michael W. Deem and Ramdas Pophale) SiO2 
 PCOD8245554
Probable space group: P M M N
;
_chemical_formula_sum "Si O2"
_cell_formula_units_Z 48
_cell_length_a 14.729404
_cell_length_b 8.724207
_cell_length_c 18.681463
_cell_angle_alpha 90.000000
_cell_angle_beta 90.000000
_cell_angle_gamma 90.000000
_cell_volume 2400.612261
_symmetry_space_group_name_H-M "P M M N"
_symmetry_group_IT_number 59
_space_group.IT_coordinate_system_code '2'
_symmetry_cell_setting 'orthorhombic'
loop_
_space_group_symop_operation_xyz
x,y,z
1/2-x,1/2-y,z
1/2+x,-y,-z
-x,1/2+y,-z
-x,-y,-z
1/2+x,1/2+y,-z
1/2-x,y,z
x,1/2-y,z
loop_
_atom_site_type_symbol
_atom_site_label
_atom_site_fract_x
_atom_site_fract_y
_atom_site_fract_z
Si Si1 0.002914 0.070098 0.105241
Si Si2 0.508899 0.427421 0.743243
Si Si3 0.147595 0.576070 0.660991
Si Si4 0.350789 0.076861 0.360044
Si Si5 0.598726 0.430052 0.498511
Si Si6 0.646217 0.568641 0.012219
O O1 0.989882 0.250000 0.098426
O O2 0.025168 0.025681 0.185963
O O3 0.907813 0.993524 0.081330
O O4 0.088881 0.014852 0.057445
O O5 0.514348 0.250000 0.763172
O O6 0.411733 0.462429 0.708532
O O7 0.586203 0.468224 0.686669
O O8 0.250000 0.558350 0.688281
O O9 0.112461 0.750000 0.671841
O O10 0.143808 0.532460 0.577528
O O11 0.250000 0.075851 0.326869
O O12 0.390416 0.250000 0.360823
O O13 0.343437 0.012718 0.440325
O O14 0.500000 0.500000 0.500000
O O15 0.595987 0.250000 0.514031
O O16 0.750000 0.503743 0.009135
O O17 0.649930 0.750000 0.017515
#
# Coordination Sequence:
#
# PCOD8245554 Si02
#       6
#     8   8   8   8   8   8
#     4  10  21  38  61  89 122 157 193 236 287 344
#     4  12  25  40  60  86 120 159 198 246 297 351
#     4  10  22  40  61  84 114 154 199 247 299 355
#     4  11  24  41  61  85 116 156 201 249 302 358
#     4  11  21  36  61  88 116 152 196 247 303 357
#     4   9  19  38  64  92 120 152 192 235 282 339
#
# _framework density 19.994900999999999
#
# number of rings (size 3 to 8) (size 9 to 14) (size 15 to 20)
#    0.000    1.500    1.667    3.500    0.000    5.333 
#    0.000    1.667    0.000    0.000    0.000    0.000 
#    0.000    0.000    0.000    0.000    0.000    0.000 
#
# Total GULP energy -595339.631307 kJ/mol
# GULP energy per Si atom -12402.908986 kJ/mol
# Density = 1.994939 g / cm^3
# Si number density = 19.994901 Si / 1000 Ang^3
#
#
#
# Elastic Constant Matrix: (Units=GPa)
#
#
# Indices 1 2 3 4 5 6 
#
# 1 111.7982 27.9209 15.7195 0.0000 0.0000 0.0000
# 2 27.9209 46.6829 12.9619 0.0000 0.0000 0.0000
# 3 15.7195 12.9619 78.8798 0.0000 0.0000 0.0000
# 4 0.0000 0.0000 0.0000 31.9013 0.0000 0.0000
# 5 0.0000 0.0000 0.0000 0.0000 -49.7891 0.0000
# 6 0.0000 0.0000 0.0000 0.0000 0.0000 19.0048
#
#
#
# Elastic Compliance Matrix: (Units=1/GPa)
#
#
# Indices 1 2 3 4 5 6 
#
# 1 0.010609 -0.006034 -0.001123 0.000000 0.000000 0.000000
# 2 -0.006034 0.025877 -0.003050 0.000000 0.000000 0.000000
# 3 -0.001123 -0.003050 0.013402 0.000000 0.000000 0.000000
# 4 0.000000 0.000000 0.000000 0.031347 0.000000 0.000000
# 5 0.000000 0.000000 0.000000 0.000000 -0.020085 0.000000
# 6 0.000000 0.000000 0.000000 0.000000 0.000000 0.052618
#
#
# Mechanical properties :
#
#
# Convention : Reuss Voigt Hill
#
# Bulk Modulus (GPa) = 33.92592 38.95170 36.43881
# Shear Modulus (GPa) = 34.72066 12.27399 23.49732
#
# Velocity S-wave (km/s) = 4.17162 2.48030 3.43179
# Velocity P-wave (km/s) = 6.34093 5.26551 5.82808
#
# Compressibility (1/GPa) = 0.02947599
#
# Stress axis : x y z
#
# Youngs Moduli (GPa) = 94.25570 38.64492 74.61334
#
# Poissons Ratio (x) = 0.23317 0.08378
# Poissons Ratio (y) = 0.56871 0.22755
# Poissons Ratio (z) = 0.10583 0.11786
#
# Static dielectric constant tensor:
#      x y z
#    x 3.717370 0.000000 0.000000 
#    y 0.000000 3.730590 0.000000 
#    z 0.000000 0.000000 3.683290 
# 
# 
# High freq. dielectric constant tensor:
#      x y z
#    x 1.789300 0.000000 0.000000 
#    y 0.000000 1.781420 0.000000 
#    z 0.000000 0.000000 1.775160 
# 
# From -- ./inp_files/25457.got.cif
#   From: 2010.03.12/outbox.cif.g09.slc.cpg/sg59_13_cif.got.tgz:25457.got - 2010.04.16 16:29:54.
