data_PCOD8245976
_publ_section_title
;
Structure prediction by ZEFSAII (Michael W. Deem and Ramdas Pophale) SiO2 
 PCOD8245976
Probable space group: P M M N
;
_chemical_formula_sum "Si O2"
_cell_formula_units_Z 56
_cell_length_a 8.887333
_cell_length_b 14.383820
_cell_length_c 23.669265
_cell_angle_alpha 90.000000
_cell_angle_beta 90.000000
_cell_angle_gamma 90.000000
_cell_volume 3025.732044
_symmetry_space_group_name_H-M "P M M N"
_symmetry_group_IT_number 59
_space_group.IT_coordinate_system_code '2'
_symmetry_cell_setting 'orthorhombic'
loop_
_space_group_symop_operation_xyz
x,y,z
1/2-x,1/2-y,z
1/2+x,-y,-z
-x,1/2+y,-z
-x,-y,-z
1/2+x,1/2+y,-z
1/2-x,y,z
x,1/2-y,z
loop_
_atom_site_type_symbol
_atom_site_label
_atom_site_fract_x
_atom_site_fract_y
_atom_site_fract_z
Si Si1 0.423608 0.002682 0.940053
Si Si2 0.074687 0.856813 0.847583
Si Si3 0.427924 0.001178 0.233878
Si Si4 0.928781 0.147410 0.445010
Si Si5 0.928405 0.856866 0.154235
Si Si6 0.919917 0.140651 0.570220
Si Si7 0.572751 0.501270 0.354587
O O1 0.250000 0.015745 0.952109
O O2 0.481609 0.090074 0.902697
O O3 0.457641 0.906568 0.907370
O O4 0.500000 0.000000 0.000000
O O5 0.250000 0.865974 0.831659
O O6 0.023707 0.750000 0.852503
O O7 0.979661 0.906738 0.799123
O O8 0.250000 0.993491 0.231910
O O9 0.483597 0.011937 0.297206
O O10 0.496444 0.906851 0.207722
O O11 0.750000 0.151187 0.445466
O O12 0.993464 0.250000 0.431357
O O13 0.981020 0.114793 0.507482
O O14 0.987508 0.077947 0.397218
O O15 0.750000 0.865328 0.161694
O O16 0.981499 0.750000 0.151117
O O17 0.750000 0.102763 0.579177
O O18 0.921935 0.250000 0.578546
O O19 0.031686 0.099035 0.616873
O O20 0.750000 0.495213 0.342965
#
# Coordination Sequence:
#
# PCOD8245976 Si02
#       7
#     8   8   8   8   8   8   8
#     4   9  18  32  52  82 115 143 173 211 256 306
#     4   9  19  38  60  78 103 143 184 219 259 308
#     4  11  23  37  53  77 108 137 173 223 271 315
#     4   8  16  32  53  76 101 131 168 208 254 311
#     4   9  19  38  60  78 102 140 182 221 262 309
#     4   9  18  34  54  75 102 134 167 209 261 311
#     4  11  21  33  53  78 103 135 174 213 257 312
#
# _framework density 18.507916999999999
#
# number of rings (size 3 to 8) (size 9 to 14) (size 15 to 20)
#    0.000    2.571    0.000    3.857    0.000    4.857 
#    0.000    2.143    0.000    3.000    0.000    0.000 
#    0.000    0.000    0.000    0.000    0.000    0.000 
#
# Total GULP energy -694346.975727 kJ/mol
# GULP energy per Si atom -12399.053138 kJ/mol
# Density = 1.846579 g / cm^3
# Si number density = 18.507917 Si / 1000 Ang^3
#
#
#
# Elastic Constant Matrix: (Units=GPa)
#
#
# Indices 1 2 3 4 5 6 
#
# 1 51.6298 35.3051 37.3362 0.0000 0.0000 0.0000
# 2 35.3051 114.0020 42.2658 0.0000 0.0000 0.0000
# 3 37.3362 42.2658 116.3695 0.0000 0.0000 0.0000
# 4 0.0000 0.0000 0.0000 12.5285 0.0000 0.0000
# 5 0.0000 0.0000 0.0000 0.0000 31.9218 0.0000
# 6 0.0000 0.0000 0.0000 0.0000 0.0000 22.0144
#
#
#
# Elastic Compliance Matrix: (Units=1/GPa)
#
#
# Indices 1 2 3 4 5 6 
#
# 1 0.028688 -0.006323 -0.006908 0.000000 0.000000 0.000000
# 2 -0.006323 0.011531 -0.002159 0.000000 0.000000 0.000000
# 3 -0.006908 -0.002159 0.011594 0.000000 0.000000 0.000000
# 4 0.000000 0.000000 0.000000 0.079818 0.000000 0.000000
# 5 0.000000 0.000000 0.000000 0.000000 0.031327 0.000000
# 6 0.000000 0.000000 0.000000 0.000000 0.000000 0.045425
#
#
# Mechanical properties :
#
#
# Convention : Reuss Voigt Hill
#
# Bulk Modulus (GPa) = 47.54653 56.86837 52.20745
# Shear Modulus (GPa) = 20.31097 24.43256 22.37176
#
# Velocity S-wave (km/s) = 3.31633 3.63728 3.48050
# Velocity P-wave (km/s) = 6.35686 6.95938 6.66493
#
# Compressibility (1/GPa) = 0.02103203
#
# Stress axis : x y z
#
# Youngs Moduli (GPa) = 34.85788 86.72629 86.25321
#
# Poissons Ratio (x) = 0.54840 0.59580
# Poissons Ratio (y) = 0.22042 0.18623
# Poissons Ratio (z) = 0.24079 0.18725
#
# Static dielectric constant tensor:
#      x y z
#    x 3.286870 0.000000 0.000000 
#    y 0.000000 3.673780 0.000000 
#    z 0.000000 0.000000 3.475050 
# 
# 
# High freq. dielectric constant tensor:
#      x y z
#    x 1.700490 0.000000 0.000000 
#    y 0.000000 1.723320 0.000000 
#    z 0.000000 0.000000 1.720430 
# 
# From -- ./inp_files/29090.got.cif
#   From: 2010.03.12/outbox.cif.g09.slc.cpg/sg59_15_cif.got.tgz:29090.got - 2010.04.16 16:29:54.
