data_PCOD8245316
_publ_section_title
;
Structure prediction by ZEFSAII (Michael W. Deem and Ramdas Pophale) SiO2 
 PCOD8245316
Probable space group: P M M N
;
_chemical_formula_sum "Si O2"
_cell_formula_units_Z 64
_cell_length_a 18.329995
_cell_length_b 8.971523
_cell_length_c 19.879775
_cell_angle_alpha 90.000000
_cell_angle_beta 90.000000
_cell_angle_gamma 90.000000
_cell_volume 3269.188677
_symmetry_space_group_name_H-M "P M M N"
_symmetry_group_IT_number 59
_space_group.IT_coordinate_system_code '2'
_symmetry_cell_setting 'orthorhombic'
loop_
_space_group_symop_operation_xyz
x,y,z
1/2-x,1/2-y,z
1/2+x,-y,-z
-x,1/2+y,-z
-x,-y,-z
1/2+x,1/2+y,-z
1/2-x,y,z
x,1/2-y,z
loop_
_atom_site_type_symbol
_atom_site_label
_atom_site_fract_x
_atom_site_fract_y
_atom_site_fract_z
Si Si1 0.069820 0.579680 0.795548
Si Si2 0.666311 0.074504 0.964197
Si Si3 0.551318 0.424673 0.353950
Si Si4 0.833663 0.079926 0.720730
Si Si5 0.334789 0.576114 0.534686
Si Si6 0.895485 0.927088 0.595844
Si Si7 0.664193 0.580647 0.099568
Si Si8 0.590303 0.580062 0.841609
O O1 0.096709 0.750000 0.789922
O O2 0.059160 0.508552 0.721137
O O3 0.131082 0.485559 0.832741
O O4 0.996559 0.569713 0.839202
O O5 0.750000 0.026700 0.951395
O O6 0.657790 0.250000 0.967774
O O7 0.617423 0.014994 0.904074
O O8 0.636737 0.008055 0.033999
O O9 0.541151 0.250000 0.346129
O O10 0.623081 0.465263 0.396672
O O11 0.477962 0.484803 0.390062
O O12 0.750000 0.075064 0.743411
O O13 0.861925 0.250000 0.719525
O O14 0.841139 0.006798 0.647635
O O15 0.880039 0.984019 0.772251
O O16 0.250000 0.535213 0.544282
O O17 0.344779 0.750000 0.516565
O O18 0.371308 0.476250 0.477786
O O19 0.887988 0.750000 0.602555
O O20 0.750000 0.565714 0.107212
O O21 0.638672 0.750000 0.090868
O O22 0.617020 0.750000 0.849242
#
# Coordination Sequence:
#
# PCOD8245316 Si02
#       8
#     8   8   8   8   8   8   8   8
#     4  10  21  39  61  86 116 151 195 240 286 348
#     4  10  21  38  60  86 117 156 200 241 286 346
#     4   9  19  38  60  83 113 150 194 238 284 345
#     4  11  23  37  55  82 116 154 196 237 281 342
#     4  10  21  37  58  85 115 148 190 239 289 345
#     4  11  21  37  59  83 114 151 190 238 289 342
#     4  10  22  40  61  87 117 150 193 244 295 344
#     4  11  22  37  58  86 120 154 191 240 291 343
#
# _framework density 19.576723000000001
#
# number of rings (size 3 to 8) (size 9 to 14) (size 15 to 20)
#    0.000    1.750    1.250    3.000    0.000    7.750 
#    0.000    2.500    0.000    0.000    0.000    0.000 
#    0.000    0.000    0.000    0.000    0.000    0.000 
#
# Total GULP energy -793855.918814 kJ/mol
# GULP energy per Si atom -12403.998731 kJ/mol
# Density = 1.953217 g / cm^3
# Si number density = 19.576723 Si / 1000 Ang^3
#
#
#
# Elastic Constant Matrix: (Units=GPa)
#
#
# Indices 1 2 3 4 5 6 
#
# 1 63.4996 29.5995 42.7232 0.0000 0.0000 0.0000
# 2 29.5995 75.6790 31.3817 0.0000 0.0000 0.0000
# 3 42.7232 31.3817 110.7695 0.0000 0.0000 0.0000
# 4 0.0000 0.0000 0.0000 35.9670 0.0000 0.0000
# 5 0.0000 0.0000 0.0000 0.0000 38.8283 0.0000
# 6 0.0000 0.0000 0.0000 0.0000 0.0000 24.8079
#
#
#
# Elastic Compliance Matrix: (Units=1/GPa)
#
#
# Indices 1 2 3 4 5 6 
#
# 1 0.023564 -0.006173 -0.007340 0.000000 0.000000 0.000000
# 2 -0.006173 0.016590 -0.002319 0.000000 0.000000 0.000000
# 3 -0.007340 -0.002319 0.012516 0.000000 0.000000 0.000000
# 4 0.000000 0.000000 0.000000 0.027803 0.000000 0.000000
# 5 0.000000 0.000000 0.000000 0.000000 0.025754 0.000000
# 6 0.000000 0.000000 0.000000 0.000000 0.000000 0.040310
#
#
# Mechanical properties :
#
#
# Convention : Reuss Voigt Hill
#
# Bulk Modulus (GPa) = 47.60549 50.81742 49.21145
# Shear Modulus (GPa) = 26.99766 29.67021 28.33394
#
# Velocity S-wave (km/s) = 3.71761 3.89728 3.80850
# Velocity P-wave (km/s) = 6.54199 6.80192 6.67322
#
# Compressibility (1/GPa) = 0.02100598
#
# Stress axis : x y z
#
# Youngs Moduli (GPa) = 42.43836 60.27858 79.90007
#
# Poissons Ratio (x) = 0.37208 0.58643
# Poissons Ratio (y) = 0.26196 0.18530
# Poissons Ratio (z) = 0.31148 0.13980
#
# Static dielectric constant tensor:
#      x y z
#    x 3.569110 0.000000 0.000000 
#    y 0.000000 3.561320 0.000000 
#    z 0.000000 0.000000 3.673740 
# 
# 
# High freq. dielectric constant tensor:
#      x y z
#    x 1.762400 0.000000 0.000000 
#    y 0.000000 1.757700 0.000000 
#    z 0.000000 0.000000 1.771330 
# 
# From -- ./inp_files/28249.got.cif
#   From: 2010.03.12/outbox.cif.g09.slc.cpg/sg59_15_cif.got.tgz:28249.got - 2010.04.16 16:29:54.
