data_PCOD8245098
_publ_section_title
;
Structure prediction by ZEFSAII (Michael W. Deem and Ramdas Pophale) SiO2 
 PCOD8245098
Probable space group: P M M N
;
_chemical_formula_sum "Si O2"
_cell_formula_units_Z 64
_cell_length_a 9.100102
_cell_length_b 27.635033
_cell_length_c 12.977965
_cell_angle_alpha 90.000000
_cell_angle_beta 90.000000
_cell_angle_gamma 90.000000
_cell_volume 3263.719650
_symmetry_space_group_name_H-M "P M M N"
_symmetry_group_IT_number 59
_space_group.IT_coordinate_system_code '2'
_symmetry_cell_setting 'orthorhombic'
loop_
_space_group_symop_operation_xyz
x,y,z
1/2-x,1/2-y,z
1/2+x,-y,-z
-x,1/2+y,-z
-x,-y,-z
1/2+x,1/2+y,-z
1/2-x,y,z
x,1/2-y,z
loop_
_atom_site_type_symbol
_atom_site_label
_atom_site_fract_x
_atom_site_fract_y
_atom_site_fract_z
Si Si1 0.075719 0.059785 0.792516
Si Si2 0.577237 0.805681 0.894721
Si Si3 0.418057 0.551922 0.779044
Si Si4 0.417512 0.693043 0.095708
Si Si5 0.078927 0.949292 0.007630
Si Si6 0.420846 0.306618 0.508575
Si Si7 0.575677 0.357074 0.695454
Si Si8 0.923142 0.637788 0.695862
O O1 0.250000 0.066570 0.800197
O O2 0.000189 0.079539 0.899148
O O3 0.007059 0.090993 0.698939
O O4 0.031381 0.004009 0.773515
O O5 0.750000 0.811956 0.905234
O O6 0.531054 0.750000 0.882315
O O7 0.516350 0.832744 0.794063
O O8 0.506140 0.827936 0.998163
O O9 0.250000 0.555364 0.744945
O O10 0.511056 0.583627 0.698505
O O11 0.440303 0.574310 0.894367
O O12 0.250000 0.677829 0.076823
O O13 0.439058 0.750000 0.105145
O O14 0.474988 0.671077 0.202202
O O15 0.250000 0.956186 0.034551
O O16 0.000000 0.000000 0.000000
O O17 0.250000 0.316625 0.532924
O O18 0.449894 0.250000 0.491685
O O19 0.520996 0.325847 0.600093
O O20 0.473324 0.334535 0.406484
O O21 0.750000 0.364251 0.687584
O O22 0.750000 0.633443 0.699927
#
# Coordination Sequence:
#
# PCOD8245098 Si02
#       8
#     8   8   8   8   8   8   8   8
#     4  10  21  37  56  81 115 155 198 241 289 347
#     4   9  18  33  53  80 113 146 182 226 278 339
#     4   9  20  36  54  80 116 154 192 237 285 340
#     4   9  19  35  53  77 112 148 179 221 281 344
#     4   9  17  31  51  78 113 154 195 237 285 336
#     4  10  22  42  65  87 114 149 191 240 291 345
#     4  11  23  38  59  86 115 149 193 243 294 347
#     4  10  21  36  58  86 113 147 192 239 287 340
#
# _framework density 19.609528999999998
#
# number of rings (size 3 to 8) (size 9 to 14) (size 15 to 20)
#    0.000    2.375    0.000    2.625    1.750    7.250 
#    0.000    1.875    0.000    2.250    0.000    0.000 
#    0.000    0.000    0.000    0.000    0.000    0.000 
#
# Total GULP energy -793523.392518 kJ/mol
# GULP energy per Si atom -12398.803008 kJ/mol
# Density = 1.956490 g / cm^3
# Si number density = 19.609529 Si / 1000 Ang^3
#
#
#
# Elastic Constant Matrix: (Units=GPa)
#
#
# Indices 1 2 3 4 5 6 
#
# 1 68.1839 32.6119 44.3243 0.0000 0.0000 0.0000
# 2 32.6119 59.6482 43.3735 0.0000 0.0000 0.0000
# 3 44.3243 43.3735 109.8638 0.0000 0.0000 0.0000
# 4 0.0000 0.0000 0.0000 35.9259 0.0000 0.0000
# 5 0.0000 0.0000 0.0000 0.0000 15.0946 0.0000
# 6 0.0000 0.0000 0.0000 0.0000 0.0000 28.2120
#
#
#
# Elastic Compliance Matrix: (Units=1/GPa)
#
#
# Indices 1 2 3 4 5 6 
#
# 1 0.022257 -0.007910 -0.005857 0.000000 0.000000 0.000000
# 2 -0.007910 0.026327 -0.007202 0.000000 0.000000 0.000000
# 3 -0.005857 -0.007202 0.014309 0.000000 0.000000 0.000000
# 4 0.000000 0.000000 0.000000 0.027835 0.000000 0.000000
# 5 0.000000 0.000000 0.000000 0.000000 0.066249 0.000000
# 6 0.000000 0.000000 0.000000 0.000000 0.000000 0.035446
#
#
# Mechanical properties :
#
#
# Convention : Reuss Voigt Hill
#
# Bulk Modulus (GPa) = 47.72328 53.14615 50.43471
# Shear Modulus (GPa) = 20.71725 23.67224 22.19475
#
# Velocity S-wave (km/s) = 3.25389 3.47822 3.36793
# Velocity P-wave (km/s) = 6.20538 6.57964 6.39525
#
# Compressibility (1/GPa) = 0.02095414
#
# Stress axis : x y z
#
# Youngs Moduli (GPa) = 44.93033 37.98393 69.88849
#
# Poissons Ratio (x) = 0.30045 0.40931
# Poissons Ratio (y) = 0.35539 0.50337
# Poissons Ratio (z) = 0.26314 0.27358
#
# Static dielectric constant tensor:
#      x y z
#    x 3.487480 0.000000 0.000000 
#    y 0.000000 3.558440 0.000000 
#    z 0.000000 0.000000 3.650920 
# 
# 
# High freq. dielectric constant tensor:
#      x y z
#    x 1.759150 0.000000 0.000000 
#    y 0.000000 1.769910 0.000000 
#    z 0.000000 0.000000 1.752560 
# 
# From -- ./inp_files/14869.got.cif
#   From: 2010.03.12/outbox.cif.g09.slc.cpg/sg59_8_cif.got.tgz:14869.got - 2010.04.16 16:29:54.
