data_PCOD8245105
_publ_section_title
;
Structure prediction by ZEFSAII (Michael W. Deem and Ramdas Pophale) SiO2 
 PCOD8245105
Probable space group: P M M N
;
_chemical_formula_sum "Si O2"
_cell_formula_units_Z 40
_cell_length_a 8.875366
_cell_length_b 15.855570
_cell_length_c 14.316855
_cell_angle_alpha 90.000000
_cell_angle_beta 90.000000
_cell_angle_gamma 90.000000
_cell_volume 2014.724915
_symmetry_space_group_name_H-M "P M M N"
_symmetry_group_IT_number 59
_space_group.IT_coordinate_system_code '2'
_symmetry_cell_setting 'orthorhombic'
loop_
_space_group_symop_operation_xyz
x,y,z
1/2-x,1/2-y,z
1/2+x,-y,-z
-x,1/2+y,-z
-x,-y,-z
1/2+x,1/2+y,-z
1/2-x,y,z
x,1/2-y,z
loop_
_atom_site_type_symbol
_atom_site_label
_atom_site_fract_x
_atom_site_fract_y
_atom_site_fract_z
Si Si1 0.928337 0.585000 0.537949
Si Si2 0.925680 0.591542 0.099172
Si Si3 0.422223 0.653479 0.713291
Si Si4 0.575954 0.583856 0.885842
Si Si5 0.928909 0.750000 0.216816
Si Si6 0.570818 0.750000 0.427691
O O1 0.750000 0.577298 0.532447
O O2 0.988195 0.665456 0.478762
O O3 0.000000 0.500000 0.500000
O O4 0.978874 0.595817 0.644877
O O5 0.750000 0.571660 0.116900
O O6 0.986659 0.667644 0.162491
O O7 0.022994 0.511655 0.128613
O O8 0.953524 0.615053 0.991149
O O9 0.250000 0.623187 0.708181
O O10 0.438815 0.750000 0.682367
O O11 0.481761 0.644333 0.818483
O O12 0.750000 0.590487 0.858969
O O13 0.750000 0.750000 0.216736
O O14 0.992721 0.750000 0.322057
O O15 0.750000 0.750000 0.428245
#
# Coordination Sequence:
#
# PCOD8245105 Si02
#       6
#     8   8   8   8   4   4
#     4  11  23  41  64  92 123 160 201 249 307 367
#     4   9  19  36  59  85 118 158 199 239 287 354
#     4  11  24  41  62  88 117 157 204 254 306 358
#     4  10  21  36  58  87 121 156 194 244 299 355
#     4   9  18  34  58  85 112 152 198 236 281 348
#     4   9  20  38  60  87 120 156 198 244 295 356
#
# _framework density 19.853826999999999
#
# number of rings (size 3 to 8) (size 9 to 14) (size 15 to 20)
#    0.000    2.000    1.000    1.800    4.200    2.000 
#    0.000    0.500    0.000    2.400    0.000    0.000 
#    0.000    0.000    0.000    0.000    0.000    0.000 
#
# Total GULP energy -496144.370795 kJ/mol
# GULP energy per Si atom -12403.609270 kJ/mol
# Density = 1.980864 g / cm^3
# Si number density = 19.853827 Si / 1000 Ang^3
#
#
#
# Elastic Constant Matrix: (Units=GPa)
#
#
# Indices 1 2 3 4 5 6 
#
# 1 75.3286 39.4134 35.9675 0.0000 0.0000 0.0000
# 2 39.4134 103.5790 50.5249 0.0000 0.0000 0.0000
# 3 35.9675 50.5249 112.8983 0.0000 0.0000 0.0000
# 4 0.0000 0.0000 0.0000 36.9765 0.0000 0.0000
# 5 0.0000 0.0000 0.0000 0.0000 28.9489 0.0000
# 6 0.0000 0.0000 0.0000 0.0000 0.0000 30.9547
#
#
#
# Elastic Compliance Matrix: (Units=1/GPa)
#
#
# Indices 1 2 3 4 5 6 
#
# 1 0.017496 -0.005039 -0.003319 0.000000 0.000000 0.000000
# 2 -0.005039 0.013802 -0.004571 0.000000 0.000000 0.000000
# 3 -0.003319 -0.004571 0.011961 0.000000 0.000000 0.000000
# 4 0.000000 0.000000 0.000000 0.027044 0.000000 0.000000
# 5 0.000000 0.000000 0.000000 0.000000 0.034544 0.000000
# 6 0.000000 0.000000 0.000000 0.000000 0.000000 0.032305
#
#
# Mechanical properties :
#
#
# Convention : Reuss Voigt Hill
#
# Bulk Modulus (GPa) = 57.46964 60.40194 58.93579
# Shear Modulus (GPa) = 29.61911 30.43602 30.02757
#
# Velocity S-wave (km/s) = 3.86665 3.91961 3.89322
# Velocity P-wave (km/s) = 6.99599 7.13959 7.06816
#
# Compressibility (1/GPa) = 0.01740049
#
# Stress axis : x y z
#
# Youngs Moduli (GPa) = 57.15513 72.45550 83.60672
#
# Poissons Ratio (x) = 0.36507 0.27750
# Poissons Ratio (y) = 0.28798 0.38220
# Poissons Ratio (z) = 0.18971 0.33122
#
# Static dielectric constant tensor:
#      x y z
#    x 3.444150 0.000000 0.000000 
#    y 0.000000 3.590200 0.000000 
#    z 0.000000 0.000000 3.756330 
# 
# 
# High freq. dielectric constant tensor:
#      x y z
#    x 1.758310 0.000000 0.000000 
#    y 0.000000 1.777040 0.000000 
#    z 0.000000 0.000000 1.784820 
# 
# From -- ./inp_files/19909.got.cif
#   From: 2010.03.12/outbox.cif.g09.slc.cpg/sg59_10_cif.got.tgz:19909.got - 2010.04.16 16:29:54.
