data_PCOD8245074
_publ_section_title
;
Structure prediction by ZEFSAII (Michael W. Deem and Ramdas Pophale) SiO2 
 PCOD8245074
Probable space group: P M M N
;
_chemical_formula_sum "Si O2"
_cell_formula_units_Z 56
_cell_length_a 14.149857
_cell_length_b 9.038965
_cell_length_c 21.977418
_cell_angle_alpha 90.000000
_cell_angle_beta 90.000000
_cell_angle_gamma 90.000000
_cell_volume 2810.913129
_symmetry_space_group_name_H-M "P M M N"
_symmetry_group_IT_number 59
_space_group.IT_coordinate_system_code '2'
_symmetry_cell_setting 'orthorhombic'
loop_
_space_group_symop_operation_xyz
x,y,z
1/2-x,1/2-y,z
1/2+x,-y,-z
-x,1/2+y,-z
-x,-y,-z
1/2+x,1/2+y,-z
1/2-x,y,z
x,1/2-y,z
loop_
_atom_site_type_symbol
_atom_site_label
_atom_site_fract_x
_atom_site_fract_y
_atom_site_fract_z
Si Si1 0.461366 0.423909 0.291284
Si Si2 0.966612 0.423106 0.589483
Si Si3 0.145734 0.088041 0.874656
Si Si4 0.854016 0.583926 0.268616
Si Si5 0.509465 0.578473 0.935992
Si Si6 0.643275 0.573866 0.830126
Si Si7 0.859520 0.423295 0.467079
O O1 0.446856 0.250000 0.297313
O O2 0.418534 0.503270 0.350866
O O3 0.572214 0.463408 0.291836
O O4 0.411272 0.485580 0.229908
O O5 0.977777 0.250000 0.599863
O O6 0.072316 0.488346 0.578895
O O7 0.894948 0.460284 0.535072
O O8 0.250000 0.073780 0.902969
O O9 0.103502 0.250000 0.893094
O O10 0.150995 0.074883 0.803206
O O11 0.086510 0.951832 0.900038
O O12 0.750000 0.545803 0.295340
O O13 0.884362 0.750000 0.288804
O O14 0.523086 0.750000 0.948305
O O15 0.594124 0.517422 0.892639
O O16 0.500000 0.500000 0.000000
O O17 0.750000 0.512838 0.829066
O O18 0.640667 0.750000 0.828956
O O19 0.750000 0.473792 0.460165
O O20 0.870358 0.250000 0.453197
#
# Coordination Sequence:
#
# PCOD8245074 Si02
#       7
#     8   8   8   8   8   8   8
#     4  11  21  35  57  84 113 148 191 236 280 332
#     4  10  21  36  56  85 117 150 187 231 284 339
#     4   9  18  34  56  80 107 140 176 220 280 341
#     4   9  18  33  54  79 108 142 178 221 278 340
#     4  11  22  37  58  84 112 147 190 238 287 339
#     4   9  20  39  59  80 110 149 191 233 280 335
#     4   9  19  38  61  83 112 150 192 237 281 328
#
# _framework density 19.922350999999999
#
# number of rings (size 3 to 8) (size 9 to 14) (size 15 to 20)
#    0.000    2.286    1.429    2.143    0.000    3.143 
#    0.000    2.857    0.000    6.000    0.000    0.000 
#    0.000    0.000    0.000    0.000    0.000    0.000 
#
# Total GULP energy -694145.678794 kJ/mol
# GULP energy per Si atom -12395.458550 kJ/mol
# Density = 1.987701 g / cm^3
# Si number density = 19.922351 Si / 1000 Ang^3
#
#
#
# Elastic Constant Matrix: (Units=GPa)
#
#
# Indices 1 2 3 4 5 6 
#
# 1 92.8100 26.3003 38.1990 0.0000 0.0000 0.0000
# 2 26.3003 59.4178 37.3083 0.0000 0.0000 0.0000
# 3 38.1990 37.3083 114.3952 0.0000 0.0000 0.0000
# 4 0.0000 0.0000 0.0000 34.3717 0.0000 0.0000
# 5 0.0000 0.0000 0.0000 0.0000 13.7529 0.0000
# 6 0.0000 0.0000 0.0000 0.0000 0.0000 27.6371
#
#
#
# Elastic Compliance Matrix: (Units=1/GPa)
#
#
# Indices 1 2 3 4 5 6 
#
# 1 0.013158 -0.003855 -0.003137 0.000000 0.000000 0.000000
# 2 -0.003855 0.022293 -0.005983 0.000000 0.000000 0.000000
# 3 -0.003137 -0.005983 0.011740 0.000000 0.000000 0.000000
# 4 0.000000 0.000000 0.000000 0.029094 0.000000 0.000000
# 5 0.000000 0.000000 0.000000 0.000000 0.072712 0.000000
# 6 0.000000 0.000000 0.000000 0.000000 0.000000 0.036183
#
#
# Mechanical properties :
#
#
# Convention : Reuss Voigt Hill
#
# Bulk Modulus (GPa) = 47.07622 52.24869 49.66246
# Shear Modulus (GPa) = 22.91366 26.14005 24.52685
#
# Velocity S-wave (km/s) = 3.39506 3.62622 3.51254
# Velocity P-wave (km/s) = 6.24898 6.61934 6.43683
#
# Compressibility (1/GPa) = 0.02124215
#
# Stress axis : x y z
#
# Youngs Moduli (GPa) = 75.99937 44.85680 85.17598
#
# Poissons Ratio (x) = 0.17291 0.26716
# Poissons Ratio (y) = 0.29296 0.50964
# Poissons Ratio (z) = 0.23838 0.26840
#
# Static dielectric constant tensor:
#      x y z
#    x 3.213210 0.000000 0.000000 
#    y 0.000000 3.344910 0.000000 
#    z 0.000000 0.000000 4.181360 
# 
# 
# High freq. dielectric constant tensor:
#      x y z
#    x 1.771150 0.000000 0.000000 
#    y 0.000000 1.759110 0.000000 
#    z 0.000000 0.000000 1.784870 
# 
# From -- ./inp_files/30351.got.cif
#   From: 2010.03.12/outbox.cif.g09.slc.cpg/sg59_16_cif.got.tgz:30351.got - 2010.04.16 16:29:54.
