data_PCOD8245943
_publ_section_title
;
Structure prediction by ZEFSAII (Michael W. Deem and Ramdas Pophale) SiO2 
 PCOD8245943
Probable space group: P M M N
;
_chemical_formula_sum "Si O2"
_cell_formula_units_Z 64
_cell_length_a 8.782601
_cell_length_b 28.776395
_cell_length_c 15.751888
_cell_angle_alpha 90.000000
_cell_angle_beta 90.000000
_cell_angle_gamma 90.000000
_cell_volume 3980.999786
_symmetry_space_group_name_H-M "P M M N"
_symmetry_group_IT_number 59
_space_group.IT_coordinate_system_code '2'
_symmetry_cell_setting 'orthorhombic'
loop_
_space_group_symop_operation_xyz
x,y,z
1/2-x,1/2-y,z
1/2+x,-y,-z
-x,1/2+y,-z
-x,-y,-z
1/2+x,1/2+y,-z
1/2-x,y,z
x,1/2-y,z
loop_
_atom_site_type_symbol
_atom_site_label
_atom_site_fract_x
_atom_site_fract_y
_atom_site_fract_z
Si Si1 0.069033 0.554653 0.827610
Si Si2 0.931099 0.300332 0.410798
Si Si3 0.071447 0.449637 0.004017
Si Si4 0.069129 0.949263 0.498018
Si Si5 0.930684 0.606470 0.341924
Si Si6 0.428269 0.697439 0.395998
Si Si7 0.930862 0.393835 0.337116
Si Si8 0.071513 0.449393 0.819023
O O1 0.250000 0.555819 0.832006
O O2 0.004151 0.585846 0.750692
O O3 0.006775 0.502106 0.813697
O O4 0.004414 0.576585 0.915742
O O5 0.750000 0.300320 0.410709
O O6 0.991510 0.250000 0.378381
O O7 0.984594 0.308760 0.507220
O O8 0.994227 0.341333 0.350543
O O9 0.250000 0.453366 0.019435
O O10 0.035713 0.426401 0.911790
O O11 0.000000 0.500000 0.000000
O O12 0.250000 0.951864 0.491358
O O13 0.014504 0.925175 0.584727
O O14 0.006594 0.919775 0.420082
O O15 0.000000 0.000000 0.500000
O O16 0.750000 0.602400 0.349012
O O17 0.995202 0.582849 0.255519
O O18 0.979532 0.660513 0.339343
O O19 0.250000 0.686557 0.388278
O O20 0.463525 0.750000 0.364616
O O21 0.750000 0.393570 0.333890
O O22 0.250000 0.453462 0.805370
#
# Coordination Sequence:
#
# PCOD8245943 Si02
#       8
#     8   8   8   8   8   8   8   8
#     4   9  16  28  45  64  87 116 150 185 219 260
#     4   8  13  24  44  66  85 111 150 187 218 261
#     4   9  16  29  46  63  85 113 146 183 223 266
#     4  11  21  33  45  61  90 127 161 187 220 266
#     4  11  20  31  47  68  92 120 155 192 227 268
#     4   9  17  31  49  67  90 120 154 192 233 273
#     4   9  16  27  44  63  88 121 152 181 220 270
#     4   8  16  29  43  60  87 121 149 177 222 272
#
# _framework density 16.076363000000001
#
# number of rings (size 3 to 8) (size 9 to 14) (size 15 to 20)
#    0.000    2.750    1.250    3.375    0.000    2.250 
#    0.000   10.000    0.000    0.000    0.000    0.875 
#    0.000    3.000    0.000    0.000    0.000    0.000 
#
# Total GULP energy -793053.793146 kJ/mol
# GULP energy per Si atom -12391.465518 kJ/mol
# Density = 1.603977 g / cm^3
# Si number density = 16.076363 Si / 1000 Ang^3
#
#
#
# Elastic Constant Matrix: (Units=GPa)
#
#
# Indices 1 2 3 4 5 6 
#
# 1 38.0913 22.2252 30.0684 0.0000 0.0000 0.0000
# 2 22.2252 113.3825 64.4623 0.0000 0.0000 0.0000
# 3 30.0684 64.4623 139.3249 0.0000 0.0000 0.0000
# 4 0.0000 0.0000 0.0000 12.7885 0.0000 0.0000
# 5 0.0000 0.0000 0.0000 0.0000 22.2433 0.0000
# 6 0.0000 0.0000 0.0000 0.0000 0.0000 19.8202
#
#
#
# Elastic Compliance Matrix: (Units=1/GPa)
#
#
# Indices 1 2 3 4 5 6 
#
# 1 0.032494 -0.003233 -0.005517 0.000000 0.000000 0.000000
# 2 -0.003233 0.012289 -0.004988 0.000000 0.000000 0.000000
# 3 -0.005517 -0.004988 0.010676 0.000000 0.000000 0.000000
# 4 0.000000 0.000000 0.000000 0.078195 0.000000 0.000000
# 5 0.000000 0.000000 0.000000 0.000000 0.044957 0.000000
# 6 0.000000 0.000000 0.000000 0.000000 0.000000 0.050454
#
#
# Mechanical properties :
#
#
# Convention : Reuss Voigt Hill
#
# Bulk Modulus (GPa) = 35.73563 58.25670 46.99617
# Shear Modulus (GPa) = 18.80619 22.57324 20.68971
#
# Velocity S-wave (km/s) = 3.42395 3.75123 3.59132
# Velocity P-wave (km/s) = 6.15696 7.42149 6.81860
#
# Compressibility (1/GPa) = 0.02798327
#
# Stress axis : x y z
#
# Youngs Moduli (GPa) = 30.77494 81.37047 93.66726
#
# Poissons Ratio (x) = 0.26306 0.51675
# Poissons Ratio (y) = 0.09949 0.46724
# Poissons Ratio (z) = 0.16978 0.40590
#
# Static dielectric constant tensor:
#      x y z
#    x 2.882140 0.000000 0.000000 
#    y 0.000000 3.223650 0.000000 
#    z 0.000000 0.000000 3.437920 
# 
# 
# High freq. dielectric constant tensor:
#      x y z
#    x 1.593420 0.000000 0.000000 
#    y 0.000000 1.600930 0.000000 
#    z 0.000000 0.000000 1.613020 
# 
# From -- ./inp_files/21837.got.cif
#   From: 2010.03.12/outbox.cif.g09.slc.cpg/sg59_11_cif.got.tgz:21837.got - 2010.04.16 16:29:54.
