data_PCOD8245300
_publ_section_title
;
Structure prediction by ZEFSAII (Michael W. Deem and Ramdas Pophale) SiO2 
 PCOD8245300
Probable space group: P M M N
;
_chemical_formula_sum "Si O2"
_cell_formula_units_Z 32
_cell_length_a 16.544764
_cell_length_b 8.528852
_cell_length_c 11.122424
_cell_angle_alpha 90.000000
_cell_angle_beta 90.000000
_cell_angle_gamma 90.000000
_cell_volume 1569.461265
_symmetry_space_group_name_H-M "P M M N"
_symmetry_group_IT_number 59
_space_group.IT_coordinate_system_code '2'
_symmetry_cell_setting 'orthorhombic'
loop_
_space_group_symop_operation_xyz
x,y,z
1/2-x,1/2-y,z
1/2+x,-y,-z
-x,1/2+y,-z
-x,-y,-z
1/2+x,1/2+y,-z
1/2-x,y,z
x,1/2-y,z
loop_
_atom_site_type_symbol
_atom_site_label
_atom_site_fract_x
_atom_site_fract_y
_atom_site_fract_z
Si Si1 0.750000 0.928238 0.694741
Si Si2 0.921011 0.567746 0.066670
Si Si3 0.556660 0.427586 0.319336
Si Si4 0.250000 0.073577 0.021771
Si Si5 0.598836 0.430196 0.575082
O O1 0.750000 0.750000 0.644731
O O2 0.750000 0.928256 0.836511
O O3 0.823797 0.029059 0.650142
O O4 0.921104 0.750000 0.035478
O O5 0.925744 0.542901 0.209516
O O6 0.834543 0.492963 0.023045
O O7 0.000000 0.500000 0.000000
O O8 0.563200 0.250000 0.271001
O O9 0.616607 0.458297 0.432423
O O10 0.468509 0.453420 0.374585
O O11 0.250000 0.250000 0.970355
O O12 0.572979 0.250000 0.596765
#
# Coordination Sequence:
#
# PCOD8245300 Si02
#       5
#     4   8   8   4   8
#     4  11  21  36  59  84 114 149 188 239 296 347
#     4  11  22  39  62  87 118 157 199 244 296 353
#     4  10  21  38  58  83 115 149 190 239 292 349
#     4   9  22  40  57  82 116 153 194 239 288 351
#     4  10  21  37  58  84 114 149 190 238 291 350
#
# _framework density 20.389161999999999
#
# number of rings (size 3 to 8) (size 9 to 14) (size 15 to 20)
#    0.000    1.750    0.000    4.125    0.000    6.000 
#    0.000    8.750    0.000    0.000    0.000    0.000 
#    0.000    0.000    0.000    0.000    0.000    0.000 
#
# Total GULP energy -396647.477288 kJ/mol
# GULP energy per Si atom -12395.233665 kJ/mol
# Density = 2.034275 g / cm^3
# Si number density = 20.389162 Si / 1000 Ang^3
#
#
#
# Elastic Constant Matrix: (Units=GPa)
#
#
# Indices 1 2 3 4 5 6 
#
# 1 120.1122 21.1721 46.5329 0.0000 0.0000 0.0000
# 2 21.1721 51.2171 23.7430 0.0000 0.0000 0.0000
# 3 46.5329 23.7430 109.2953 0.0000 0.0000 0.0000
# 4 0.0000 0.0000 0.0000 33.1109 0.0000 0.0000
# 5 0.0000 0.0000 0.0000 0.0000 30.1652 0.0000
# 6 0.0000 0.0000 0.0000 0.0000 0.0000 26.5206
#
#
#
# Elastic Compliance Matrix: (Units=1/GPa)
#
#
# Indices 1 2 3 4 5 6 
#
# 1 0.010241 -0.002460 -0.003826 0.000000 0.000000 0.000000
# 2 -0.002460 0.022302 -0.003797 0.000000 0.000000 0.000000
# 3 -0.003826 -0.003797 0.011603 0.000000 0.000000 0.000000
# 4 0.000000 0.000000 0.000000 0.030202 0.000000 0.000000
# 5 0.000000 0.000000 0.000000 0.000000 0.033151 0.000000
# 6 0.000000 0.000000 0.000000 0.000000 0.000000 0.037706
#
#
# Mechanical properties :
#
#
# Convention : Reuss Voigt Hill
#
# Bulk Modulus (GPa) = 41.70133 51.50228 46.60181
# Shear Modulus (GPa) = 28.84078 30.57113 29.70595
#
# Velocity S-wave (km/s) = 3.76508 3.87639 3.82114
# Velocity P-wave (km/s) = 6.27680 6.73421 6.50953
#
# Compressibility (1/GPa) = 0.02398005
#
# Stress axis : x y z
#
# Youngs Moduli (GPa) = 97.64320 44.83895 86.18183
#
# Poissons Ratio (x) = 0.11030 0.32972
# Poissons Ratio (y) = 0.24020 0.32727
# Poissons Ratio (z) = 0.37357 0.17028
#
# Static dielectric constant tensor:
#      x y z
#    x 3.988120 0.000000 0.000000 
#    y 0.000000 3.714010 0.000000 
#    z 0.000000 0.000000 3.788630 
# 
# 
# High freq. dielectric constant tensor:
#      x y z
#    x 1.796160 0.000000 0.000000 
#    y 0.000000 1.790230 0.000000 
#    z 0.000000 0.000000 1.807690 
# 
# From -- ./inp_files/13649.got.cif
#   From: 2010.03.12/outbox.cif.g09.slc.cpg/sg59_7_cif.got.tgz:13649.got - 2010.04.16 16:29:54.
