data_PCOD8245638
_publ_section_title
;
Structure prediction by ZEFSAII (Michael W. Deem and Ramdas Pophale) SiO2 
 PCOD8245638
Probable space group: P M M N
;
_chemical_formula_sum "Si O2"
_cell_formula_units_Z 56
_cell_length_a 25.605826
_cell_length_b 21.417581
_cell_length_c 5.086966
_cell_angle_alpha 90.000000
_cell_angle_beta 90.000000
_cell_angle_gamma 90.000000
_cell_volume 2789.767708
_symmetry_space_group_name_H-M "P M M N"
_symmetry_group_IT_number 59
_space_group.IT_coordinate_system_code '2'
_symmetry_cell_setting 'orthorhombic'
loop_
_space_group_symop_operation_xyz
x,y,z
1/2-x,1/2-y,z
1/2+x,-y,-z
-x,1/2+y,-z
-x,-y,-z
1/2+x,1/2+y,-z
1/2-x,y,z
x,1/2-y,z
loop_
_atom_site_type_symbol
_atom_site_label
_atom_site_fract_x
_atom_site_fract_y
_atom_site_fract_z
Si Si1 0.522500 0.676133 0.965358
Si Si2 0.192218 0.620917 0.931281
Si Si3 0.350737 0.680648 0.428989
Si Si4 0.190283 0.008574 0.170785
Si Si5 0.039531 0.862675 0.465351
Si Si6 0.597993 0.927736 0.023672
Si Si7 0.908865 0.003173 0.539375
O O1 0.529069 0.750000 0.000937
O O2 0.482754 0.646731 0.174314
O O3 0.579223 0.643960 0.008055
O O4 0.503229 0.658181 0.675834
O O5 0.250000 0.644303 0.004588
O O6 0.153196 0.654507 0.132919
O O7 0.180210 0.637095 0.630973
O O8 0.188576 0.546467 0.956158
O O9 0.327343 0.750000 0.444652
O O10 0.411467 0.683063 0.503036
O O11 0.250000 0.024843 0.255594
O O12 0.161026 0.067833 0.031151
O O13 0.154281 0.986373 0.419217
O O14 0.059933 0.933135 0.507723
O O15 0.581182 0.956483 0.300445
O O16 0.568622 0.969276 0.800265
#
# Coordination Sequence:
#
# PCOD8245638 Si02
#       7
#     8   8   8   8   8   8   8
#     4  12  26  42  62  88 123 167 205 246 299 364
#     4  11  23  38  57  80 113 154 194 249 308 351
#     4  12  23  38  55  77 113 157 208 249 283 349
#     4   9  21  40  64  91 122 152 192 247 314 367
#     4  12  24  41  62  87 122 162 209 250 303 354
#     4  10  22  40  62  94 122 157 199 248 306 362
#     4  10  21  39  62  93 122 155 197 255 304 353
#
# _framework density 20.073357000000001
#
# number of rings (size 3 to 8) (size 9 to 14) (size 15 to 20)
#    0.857    0.286    1.429    5.571    0.000    5.714 
#    0.000    0.000    0.000    0.429    0.000    0.000 
#    0.000    0.000    0.000    0.000    0.000    0.000 
#
# Total GULP energy -694098.282438 kJ/mol
# GULP energy per Si atom -12394.612186 kJ/mol
# Density = 2.002767 g / cm^3
# Si number density = 20.073357 Si / 1000 Ang^3
#
#
#
# Elastic Constant Matrix: (Units=GPa)
#
#
# Indices 1 2 3 4 5 6 
#
# 1 86.6850 56.3648 7.5351 0.0000 0.0000 0.0000
# 2 56.3648 89.5230 14.2501 0.0000 0.0000 0.0000
# 3 7.5351 14.2501 89.2524 0.0000 0.0000 0.0000
# 4 0.0000 0.0000 0.0000 14.3881 0.0000 0.0000
# 5 0.0000 0.0000 0.0000 0.0000 21.3570 0.0000
# 6 0.0000 0.0000 0.0000 0.0000 0.0000 15.4643
#
#
#
# Elastic Compliance Matrix: (Units=1/GPa)
#
#
# Indices 1 2 3 4 5 6 
#
# 1 0.019541 -0.012355 0.000323 0.000000 0.000000 0.000000
# 2 -0.012355 0.019273 -0.002034 0.000000 0.000000 0.000000
# 3 0.000323 -0.002034 0.011502 0.000000 0.000000 0.000000
# 4 0.000000 0.000000 0.000000 0.069502 0.000000 0.000000
# 5 0.000000 0.000000 0.000000 0.000000 0.046823 0.000000
# 6 0.000000 0.000000 0.000000 0.000000 0.000000 0.064665
#
#
# Mechanical properties :
#
#
# Convention : Reuss Voigt Hill
#
# Bulk Modulus (GPa) = 45.07817 46.86228 45.97023
# Shear Modulus (GPa) = 18.73831 22.72923 20.73377
#
# Velocity S-wave (km/s) = 3.05862 3.36863 3.21736
# Velocity P-wave (km/s) = 5.91431 6.20697 6.06240
#
# Compressibility (1/GPa) = 0.02218369
#
# Stress axis : x y z
#
# Youngs Moduli (GPa) = 51.17324 51.88625 86.94372
#
# Poissons Ratio (x) = 0.64105 -0.02807
# Poissons Ratio (y) = 0.63224 0.17685
# Poissons Ratio (z) = -0.01652 0.10554
#
# Static dielectric constant tensor:
#      x y z
#    x 3.726320 0.000000 0.000000 
#    y 0.000000 3.477340 0.000000 
#    z 0.000000 0.000000 3.605620 
# 
# 
# High freq. dielectric constant tensor:
#      x y z
#    x 1.769900 0.000000 0.000000 
#    y 0.000000 1.759400 0.000000 
#    z 0.000000 0.000000 1.796440 
# 
# From -- ./inp_files/4297.got.cif
#   From: 2010.03.12/outbox.cif.g09.slc.cpg/sg59_3_cif.got.tgz:4297.got - 2010.04.16 16:29:54.
