data_PCOD8245417
_publ_section_title
;
Structure prediction by ZEFSAII (Michael W. Deem and Ramdas Pophale) SiO2 
 PCOD8245417
Probable space group: P M M N
;
_chemical_formula_sum "Si O2"
_cell_formula_units_Z 48
_cell_length_a 29.937954
_cell_length_b 8.834154
_cell_length_c 10.022232
_cell_angle_alpha 90.000000
_cell_angle_beta 90.000000
_cell_angle_gamma 90.000000
_cell_volume 2650.644802
_symmetry_space_group_name_H-M "P M M N"
_symmetry_group_IT_number 59
_space_group.IT_coordinate_system_code '2'
_symmetry_cell_setting 'orthorhombic'
loop_
_space_group_symop_operation_xyz
x,y,z
1/2-x,1/2-y,z
1/2+x,-y,-z
-x,1/2+y,-z
-x,-y,-z
1/2+x,1/2+y,-z
1/2-x,y,z
x,1/2-y,z
loop_
_atom_site_type_symbol
_atom_site_label
_atom_site_fract_x
_atom_site_fract_y
_atom_site_fract_z
Si Si1 0.963573 0.930069 0.403769
Si Si2 0.700644 0.570327 0.886181
Si Si3 0.802287 0.924594 0.586297
Si Si4 0.630183 0.072027 0.390655
Si Si5 0.633732 0.927606 0.109558
Si Si6 0.467418 0.424450 0.896627
O O1 0.963016 0.750000 0.416317
O O2 0.975380 0.984074 0.253708
O O3 0.914700 0.990705 0.442436
O O4 0.000000 0.000000 0.500000
O O5 0.750000 0.506408 0.920086
O O6 0.701740 0.750000 0.892287
O O7 0.686481 0.522190 0.737136
O O8 0.665774 0.506748 0.994204
O O9 0.750000 0.945780 0.556744
O O10 0.816175 0.750000 0.563979
O O11 0.829666 0.032561 0.489336
O O12 0.621876 0.250000 0.388652
O O13 0.644413 0.016296 0.244440
O O14 0.641408 0.750000 0.137425
O O15 0.583388 0.957995 0.060725
O O16 0.478651 0.250000 0.901386
O O17 0.500000 0.500000 0.000000
#
# Coordination Sequence:
#
# PCOD8245417 Si02
#       6
#     8   8   8   8   8   8
#     4  10  21  38  57  79 106 137 175 216 260 310
#     4   8  15  30  54  80 101 126 168 217 261 309
#     4   9  18  34  55  78 105 139 178 219 264 313
#     4  11  22  35  52  77 108 141 177 216 259 308
#     4   9  18  34  53  75 103 134 170 213 259 305
#     4   9  19  33  50  74 104 135 169 209 253 305
#
# _framework density 18.108801
#
# number of rings (size 3 to 8) (size 9 to 14) (size 15 to 20)
#    0.000    2.667    0.000    4.000    0.000    5.667 
#    0.000    4.167    0.000    1.000    0.000    0.000 
#    0.000    0.000    0.000    0.000    0.000    0.000 
#
# Total GULP energy -595156.297309 kJ/mol
# GULP energy per Si atom -12399.089527 kJ/mol
# Density = 1.806759 g / cm^3
# Si number density = 18.108801 Si / 1000 Ang^3
#
#
#
# Elastic Constant Matrix: (Units=GPa)
#
#
# Indices 1 2 3 4 5 6 
#
# 1 104.2022 40.0113 78.3740 0.0000 0.0000 0.0000
# 2 40.0113 66.1880 40.9244 0.0000 0.0000 0.0000
# 3 78.3740 40.9244 106.9907 0.0000 0.0000 0.0000
# 4 0.0000 0.0000 0.0000 25.6202 0.0000 0.0000
# 5 0.0000 0.0000 0.0000 0.0000 42.5237 0.0000
# 6 0.0000 0.0000 0.0000 0.0000 0.0000 28.1910
#
#
#
# Elastic Compliance Matrix: (Units=1/GPa)
#
#
# Indices 1 2 3 4 5 6 
#
# 1 0.022322 -0.004432 -0.014656 0.000000 0.000000 0.000000
# 2 -0.004432 0.020668 -0.004659 0.000000 0.000000 0.000000
# 3 -0.014656 -0.004659 0.021865 0.000000 0.000000 0.000000
# 4 0.000000 0.000000 0.000000 0.039032 0.000000 0.000000
# 5 0.000000 0.000000 0.000000 0.000000 0.023516 0.000000
# 6 0.000000 0.000000 0.000000 0.000000 0.000000 0.035472
#
#
# Mechanical properties :
#
#
# Convention : Reuss Voigt Hill
#
# Bulk Modulus (GPa) = 57.60202 66.22227 61.91214
# Shear Modulus (GPa) = 23.13129 27.13841 25.13485
#
# Velocity S-wave (km/s) = 3.57788 3.87542 3.72962
# Velocity P-wave (km/s) = 6.99616 7.52819 7.26704
#
# Compressibility (1/GPa) = 0.01736050
#
# Stress axis : x y z
#
# Youngs Moduli (GPa) = 44.79897 48.38301 45.73503
#
# Poissons Ratio (x) = 0.21442 0.67031
# Poissons Ratio (y) = 0.19854 0.21310
# Poissons Ratio (z) = 0.65659 0.22544
#
# Static dielectric constant tensor:
#      x y z
#    x 3.537790 0.000000 0.000000 
#    y 0.000000 3.127950 0.000000 
#    z 0.000000 0.000000 4.100990 
# 
# 
# High freq. dielectric constant tensor:
#      x y z
#    x 1.705790 0.000000 0.000000 
#    y 0.000000 1.681460 0.000000 
#    z 0.000000 0.000000 1.706220 
# 
# From -- ./inp_files/12922.got.cif
#   From: 2010.03.12/outbox.cif.g09.slc.cpg/sg59_7_cif.got.tgz:12922.got - 2010.04.16 16:29:54.
