data_PCOD8245202
_publ_section_title
;
Structure prediction by ZEFSAII (Michael W. Deem and Ramdas Pophale) SiO2 
 PCOD8245202
Probable space group: P M M N
;
_chemical_formula_sum "Si O2"
_cell_formula_units_Z 48
_cell_length_a 14.253472
_cell_length_b 8.955105
_cell_length_c 19.300931
_cell_angle_alpha 90.000000
_cell_angle_beta 90.000000
_cell_angle_gamma 90.000000
_cell_volume 2463.596665
_symmetry_space_group_name_H-M "P M M N"
_symmetry_group_IT_number 59
_space_group.IT_coordinate_system_code '2'
_symmetry_cell_setting 'orthorhombic'
loop_
_space_group_symop_operation_xyz
x,y,z
1/2-x,1/2-y,z
1/2+x,-y,-z
-x,1/2+y,-z
-x,-y,-z
1/2+x,1/2+y,-z
1/2-x,y,z
x,1/2-y,z
loop_
_atom_site_type_symbol
_atom_site_label
_atom_site_fract_x
_atom_site_fract_y
_atom_site_fract_z
Si Si1 0.861908 0.580597 0.864751
Si Si2 0.645090 0.927522 0.162349
Si Si3 0.142405 0.425100 0.521802
Si Si4 0.645733 0.926928 0.013158
Si Si5 0.012712 0.074902 0.394169
Si Si6 0.974299 0.426166 0.749512
O O1 0.750000 0.576531 0.867355
O O2 0.896375 0.750000 0.849607
O O3 0.895601 0.470655 0.804801
O O4 0.901738 0.521015 0.940318
O O5 0.750000 0.992246 0.175516
O O6 0.650282 0.750000 0.162822
O O7 0.601473 0.978881 0.087106
O O8 0.575428 0.983056 0.222340
O O9 0.250000 0.480530 0.519965
O O10 0.136818 0.250000 0.536695
O O11 0.093618 0.466359 0.449163
O O12 0.087508 0.507160 0.583576
O O13 0.750000 0.992827 0.016099
O O14 0.649568 0.750000 0.008955
O O15 0.000219 0.250000 0.385977
O O16 0.047130 0.006098 0.322413
O O17 0.971690 0.250000 0.738077
#
# Coordination Sequence:
#
# PCOD8245202 Si02
#       6
#     8   8   8   8   8   8
#     4   9  18  33  52  72  97 134 178 222 269 318
#     4   8  15  29  48  70  98 134 176 219 263 313
#     4   9  19  38  63  85 104 132 170 211 258 309
#     4   7  11  24  47  70  91 123 173 225 265 308
#     4  10  21  37  56  81 112 141 172 211 252 303
#     4  11  22  33  49  77 110 142 174 212 260 309
#
# _framework density 19.483709999999999
#
# number of rings (size 3 to 8) (size 9 to 14) (size 15 to 20)
#    0.000    3.000    0.000    3.000    0.000    3.333 
#    0.000    3.333    0.000    2.500    0.000    4.667 
#    0.000    0.000    0.000    0.000    0.000    0.000 
#
# Total GULP energy -594680.946463 kJ/mol
# GULP energy per Si atom -12389.186385 kJ/mol
# Density = 1.943936 g / cm^3
# Si number density = 19.483710 Si / 1000 Ang^3
#
#
#
# Elastic Constant Matrix: (Units=GPa)
#
#
# Indices 1 2 3 4 5 6 
#
# 1 40.3154 7.5694 -15.6213 0.0000 0.0000 0.0000
# 2 7.5694 27.6381 13.1882 0.0000 0.0000 0.0000
# 3 -15.6213 13.1882 72.0606 0.0000 0.0000 0.0000
# 4 0.0000 0.0000 0.0000 14.9835 0.0000 0.0000
# 5 0.0000 0.0000 0.0000 0.0000 24.1635 0.0000
# 6 0.0000 0.0000 0.0000 0.0000 0.0000 23.8003
#
#
#
# Elastic Compliance Matrix: (Units=1/GPa)
#
#
# Indices 1 2 3 4 5 6 
#
# 1 0.030658 -0.012675 0.008966 0.000000 0.000000 0.000000
# 2 -0.012675 0.044884 -0.010962 0.000000 0.000000 0.000000
# 3 0.008966 -0.010962 0.017827 0.000000 0.000000 0.000000
# 4 0.000000 0.000000 0.000000 0.066740 0.000000 0.000000
# 5 0.000000 0.000000 0.000000 0.000000 0.041385 0.000000
# 6 0.000000 0.000000 0.000000 0.000000 0.000000 0.042016
#
#
# Mechanical properties :
#
#
# Convention : Reuss Voigt Hill
#
# Bulk Modulus (GPa) = 15.61839 16.69851 16.15845
# Shear Modulus (GPa) = 16.99552 21.58130 19.28841
#
# Velocity S-wave (km/s) = 2.95667 3.33176 3.14980
# Velocity P-wave (km/s) = 4.43727 4.83632 4.64108
#
# Compressibility (1/GPa) = 0.06402710
#
# Stress axis : x y z
#
# Youngs Moduli (GPa) = 32.61773 22.27957 56.09450
#
# Poissons Ratio (x) = 0.28239 -0.50293
# Poissons Ratio (y) = 0.41342 0.61492
# Poissons Ratio (z) = -0.29244 0.24423
#
# Static dielectric constant tensor:
#      x y z
#    x 3.547100 0.000000 0.000000 
#    y 0.000000 3.205140 0.000000 
#    z 0.000000 0.000000 3.776790 
# 
# 
# High freq. dielectric constant tensor:
#      x y z
#    x 1.748470 0.000000 0.000000 
#    y 0.000000 1.723740 0.000000 
#    z 0.000000 0.000000 1.770720 
# 
# From -- ./inp_files/25487.got.cif
#   From: 2010.03.12/outbox.cif.g09.slc.cpg/sg59_13_cif.got.tgz:25487.got - 2010.04.16 16:29:54.
