data_PCOD8245492
_publ_section_title
;
Structure prediction by ZEFSAII (Michael W. Deem and Ramdas Pophale) SiO2 
 PCOD8245492
Probable space group: P M M N
;
_chemical_formula_sum "Si O2"
_cell_formula_units_Z 48
_cell_length_a 17.932391
_cell_length_b 9.096621
_cell_length_c 15.311550
_cell_angle_alpha 90.000000
_cell_angle_beta 90.000000
_cell_angle_gamma 90.000000
_cell_volume 2497.683802
_symmetry_space_group_name_H-M "P M M N"
_symmetry_group_IT_number 59
_space_group.IT_coordinate_system_code '2'
_symmetry_cell_setting 'orthorhombic'
loop_
_space_group_symop_operation_xyz
x,y,z
1/2-x,1/2-y,z
1/2+x,-y,-z
-x,1/2+y,-z
-x,-y,-z
1/2+x,1/2+y,-z
1/2-x,y,z
x,1/2-y,z
loop_
_atom_site_type_symbol
_atom_site_label
_atom_site_fract_x
_atom_site_fract_y
_atom_site_fract_z
Si Si1 0.376963 0.922581 0.376361
Si Si2 0.250000 0.421947 0.270424
Si Si3 0.750000 0.580270 0.934161
Si Si4 0.490320 0.583433 0.862436
Si Si5 0.106810 0.584093 0.034611
Si Si6 0.459921 0.079729 0.691860
Si Si7 0.164102 0.419116 0.551712
O O1 0.361038 0.750000 0.369664
O O2 0.462997 0.960710 0.356700
O O3 0.324637 0.005996 0.308050
O O4 0.357413 0.975466 0.472840
O O5 0.250000 0.250000 0.294043
O O6 0.250000 0.452034 0.168169
O O7 0.750000 0.750000 0.956602
O O8 0.680278 0.508200 0.981395
O O9 0.515885 0.750000 0.843217
O O10 0.562571 0.487081 0.884547
O O11 0.449783 0.517110 0.778324
O O12 0.435638 0.577333 0.943825
O O13 0.125424 0.750000 0.062260
O O14 0.458888 0.250000 0.718663
O O15 0.389615 0.039447 0.631675
O O16 0.250000 0.445608 0.579563
O O17 0.151550 0.250000 0.523198
#
# Coordination Sequence:
#
# PCOD8245492 Si02
#       7
#     8   4   4   8   8   8   8
#     4  11  22  36  57  85 115 149 191 236 287 343
#     4  11  23  37  55  82 117 150 185 237 290 341
#     4  11  23  37  57  88 117 150 195 237 284 347
#     4  10  21  38  60  86 114 151 196 240 285 341
#     4  10  21  38  60  84 118 155 188 237 295 345
#     4  10  22  38  58  86 117 152 194 238 286 344
#     4  10  21  39  60  82 115 155 193 235 287 343
#
# _framework density 19.217804999999998
#
# number of rings (size 3 to 8) (size 9 to 14) (size 15 to 20)
#    0.000    1.667    0.833    3.500    0.000    8.000 
#    1.500    0.000    0.000    0.000    0.000    0.000 
#    0.000    0.000    0.000    0.000    0.000    0.000 
#
# Total GULP energy -595421.100485 kJ/mol
# GULP energy per Si atom -12404.606260 kJ/mol
# Density = 1.917406 g / cm^3
# Si number density = 19.217805 Si / 1000 Ang^3
#
#
#
# Elastic Constant Matrix: (Units=GPa)
#
#
# Indices 1 2 3 4 5 6 
#
# 1 105.9136 46.2354 15.6848 0.0000 0.0000 0.0000
# 2 46.2354 118.5720 36.8004 0.0000 0.0000 0.0000
# 3 15.6848 36.8004 40.6792 0.0000 0.0000 0.0000
# 4 0.0000 0.0000 0.0000 34.5867 0.0000 0.0000
# 5 0.0000 0.0000 0.0000 0.0000 22.6856 0.0000
# 6 0.0000 0.0000 0.0000 0.0000 0.0000 29.6580
#
#
#
# Elastic Compliance Matrix: (Units=1/GPa)
#
#
# Indices 1 2 3 4 5 6 
#
# 1 0.011386 -0.004279 -0.000520 0.000000 0.000000 0.000000
# 2 -0.004279 0.013334 -0.010413 0.000000 0.000000 0.000000
# 3 -0.000520 -0.010413 0.034203 0.000000 0.000000 0.000000
# 4 0.000000 0.000000 0.000000 0.028913 0.000000 0.000000
# 5 0.000000 0.000000 0.000000 0.000000 0.044081 0.000000
# 6 0.000000 0.000000 0.000000 0.000000 0.000000 0.033718
#
#
# Mechanical properties :
#
#
# Convention : Reuss Voigt Hill
#
# Bulk Modulus (GPa) = 35.08640 51.40066 43.24353
# Shear Modulus (GPa) = 24.32419 28.48232 26.40326
#
# Velocity S-wave (km/s) = 3.56154 3.85396 3.71063
# Velocity P-wave (km/s) = 5.93377 6.82703 6.39602
#
# Compressibility (1/GPa) = 0.02850107
#
# Stress axis : x y z
#
# Youngs Moduli (GPa) = 87.82381 74.99727 29.23746
#
# Poissons Ratio (x) = 0.32089 0.01519
# Poissons Ratio (y) = 0.37577 0.30444
# Poissons Ratio (z) = 0.04563 0.78092
#
# Static dielectric constant tensor:
#      x y z
#    x 3.958780 0.000000 0.000000 
#    y 0.000000 3.704500 0.000000 
#    z 0.000000 0.000000 3.395880 
# 
# 
# High freq. dielectric constant tensor:
#      x y z
#    x 1.755060 0.000000 0.000000 
#    y 0.000000 1.759580 0.000000 
#    z 0.000000 0.000000 1.744460 
# 
# From -- ./inp_files/20492.got.cif
#   From: 2010.03.12/outbox.cif.g09.slc.cpg/sg59_11_cif.got.tgz:20492.got - 2010.04.16 16:29:54.
