data_PCOD8245935
_publ_section_title
;
Structure prediction by ZEFSAII (Michael W. Deem and Ramdas Pophale) SiO2 
 PCOD8245935
Probable space group: P M M N
;
_chemical_formula_sum "Si O2"
_cell_formula_units_Z 48
_cell_length_a 31.152845
_cell_length_b 8.860899
_cell_length_c 9.828100
_cell_angle_alpha 90.000000
_cell_angle_beta 90.000000
_cell_angle_gamma 90.000000
_cell_volume 2712.970475
_symmetry_space_group_name_H-M "P M M N"
_symmetry_group_IT_number 59
_space_group.IT_coordinate_system_code '2'
_symmetry_cell_setting 'orthorhombic'
loop_
_space_group_symop_operation_xyz
x,y,z
1/2-x,1/2-y,z
1/2+x,-y,-z
-x,1/2+y,-z
-x,-y,-z
1/2+x,1/2+y,-z
1/2-x,y,z
x,1/2-y,z
loop_
_atom_site_type_symbol
_atom_site_label
_atom_site_fract_x
_atom_site_fract_y
_atom_site_fract_z
Si Si1 0.512065 0.071934 0.857086
Si Si2 0.369492 0.570619 0.500914
Si Si3 0.392502 0.930084 0.207647
Si Si4 0.201969 0.930571 0.702658
Si Si5 0.860530 0.073137 0.072230
Si Si6 0.064587 0.573991 0.724220
O O1 0.511208 0.250000 0.874595
O O2 0.558713 0.014676 0.809678
O O3 0.478802 0.021165 0.740357
O O4 0.500000 0.000000 0.000000
O O5 0.368438 0.750000 0.498774
O O6 0.373033 0.504309 0.348349
O O7 0.325774 0.512187 0.572984
O O8 0.411139 0.520089 0.587473
O O9 0.391361 0.750000 0.209664
O O10 0.363760 0.992836 0.081278
O O11 0.250000 0.996896 0.692421
O O12 0.202604 0.750000 0.704789
O O13 0.179514 0.993438 0.841250
O O14 0.853409 0.250000 0.063826
O O15 0.905231 0.038677 0.146901
O O16 0.052928 0.750000 0.717823
#
# Coordination Sequence:
#
# PCOD8245935 Si02
#       6
#     8   8   8   8   8   8
#     4  11  20  29  44  64  87 116 154 191 220 254
#     4   8  15  26  41  59  84 116 145 175 218 268
#     4   9  16  26  39  58  82 112 147 180 218 261
#     4   8  13  22  37  57  81 112 147 177 209 258
#     4   8  13  23  39  56  80 110 141 174 212 256
#     4   9  16  29  45  62  84 117 152 178 213 258
#
# _framework density 17.692782999999999
#
# number of rings (size 3 to 8) (size 9 to 14) (size 15 to 20)
#    0.000    3.167    1.667    2.500    0.000    0.667 
#    0.000    0.833    0.000    6.000    0.000    0.000 
#    0.000   10.667    0.000    0.000    0.000    2.000 
#
# Total GULP energy -594778.696846 kJ/mol
# GULP energy per Si atom -12391.222851 kJ/mol
# Density = 1.765251 g / cm^3
# Si number density = 17.692783 Si / 1000 Ang^3
#
#
#
# Elastic Constant Matrix: (Units=GPa)
#
#
# Indices 1 2 3 4 5 6 
#
# 1 142.2431 17.8640 80.9886 0.0000 0.0000 0.0000
# 2 17.8640 10.6143 14.7212 0.0000 0.0000 0.0000
# 3 80.9886 14.7212 171.5566 0.0000 0.0000 0.0000
# 4 0.0000 0.0000 0.0000 9.7173 0.0000 0.0000
# 5 0.0000 0.0000 0.0000 0.0000 19.0286 0.0000
# 6 0.0000 0.0000 0.0000 0.0000 0.0000 14.6190
#
#
#
# Elastic Compliance Matrix: (Units=1/GPa)
#
#
# Indices 1 2 3 4 5 6 
#
# 1 0.010956 -0.012788 -0.004075 0.000000 0.000000 0.000000
# 2 -0.012788 0.121865 -0.004420 0.000000 0.000000 0.000000
# 3 -0.004075 -0.004420 0.008132 0.000000 0.000000 0.000000
# 4 0.000000 0.000000 0.000000 0.102909 0.000000 0.000000
# 5 0.000000 0.000000 0.000000 0.000000 0.052553 0.000000
# 6 0.000000 0.000000 0.000000 0.000000 0.000000 0.068404
#
#
# Mechanical properties :
#
#
# Convention : Reuss Voigt Hill
#
# Bulk Modulus (GPa) = 10.16395 61.28462 35.72428
# Shear Modulus (GPa) = 11.35897 22.72900 17.04398
#
# Velocity S-wave (km/s) = 2.53654 3.58809 3.10712
# Velocity P-wave (km/s) = 3.78628 7.20272 5.75392
#
# Compressibility (1/GPa) = 0.09838692
#
# Stress axis : x y z
#
# Youngs Moduli (GPa) = 91.27101 8.20581 122.97114
#
# Poissons Ratio (x) = 0.10494 0.50110
# Poissons Ratio (y) = 1.16717 0.54356
# Poissons Ratio (z) = 0.37193 0.03627
#
# Static dielectric constant tensor:
#      x y z
#    x 3.523430 0.000000 0.000000 
#    y 0.000000 2.640380 0.000000 
#    z 0.000000 0.000000 3.793250 
# 
# 
# High freq. dielectric constant tensor:
#      x y z
#    x 1.676870 0.000000 0.000000 
#    y 0.000000 1.613440 0.000000 
#    z 0.000000 0.000000 1.691820 
# 
# From -- ./inp_files/13104.got.cif
#   From: 2010.03.12/outbox.cif.g09.slc.cpg/sg59_7_cif.got.tgz:13104.got - 2010.04.16 16:29:54.
