data_PCOD8245933
_publ_section_title
;
Structure prediction by ZEFSAII (Michael W. Deem and Ramdas Pophale) SiO2 
 PCOD8245933
Probable space group: P M M N
;
_chemical_formula_sum "Si O2"
_cell_formula_units_Z 56
_cell_length_a 20.769935
_cell_length_b 9.163713
_cell_length_c 16.697197
_cell_angle_alpha 90.000000
_cell_angle_beta 90.000000
_cell_angle_gamma 90.000000
_cell_volume 3177.972886
_symmetry_space_group_name_H-M "P M M N"
_symmetry_group_IT_number 59
_space_group.IT_coordinate_system_code '2'
_symmetry_cell_setting 'orthorhombic'
loop_
_space_group_symop_operation_xyz
x,y,z
1/2-x,1/2-y,z
1/2+x,-y,-z
-x,1/2+y,-z
-x,-y,-z
1/2+x,1/2+y,-z
1/2-x,y,z
x,1/2-y,z
loop_
_atom_site_type_symbol
_atom_site_label
_atom_site_fract_x
_atom_site_fract_y
_atom_site_fract_z
Si Si1 0.987327 0.580802 0.237593
Si Si2 0.447336 0.077644 0.942847
Si Si3 0.823715 0.407204 0.822092
Si Si4 0.610004 0.579224 0.699570
Si Si5 0.938662 0.588895 0.401938
Si Si6 0.324669 0.579218 0.000989
Si Si7 0.913083 0.412203 0.547487
O O1 0.006647 0.750000 0.247079
O O2 0.962402 0.544617 0.149834
O O3 0.935063 0.543073 0.307901
O O4 0.049120 0.482620 0.253116
O O5 0.448576 0.250000 0.961412
O O6 0.500000 0.000000 0.000000
O O7 0.374756 0.015934 0.949784
O O8 0.750000 0.381034 0.839031
O O9 0.853839 0.250000 0.793771
O O10 0.831274 0.534495 0.756916
O O11 0.851229 0.449920 0.908984
O O12 0.603653 0.750000 0.688815
O O13 0.623187 0.511091 0.612542
O O14 0.909002 0.750000 0.414259
O O15 0.900498 0.476487 0.458523
O O16 0.012472 0.589088 0.429650
O O17 0.250000 0.528037 0.987358
O O18 0.330836 0.750000 0.979147
O O19 0.883861 0.250000 0.548624
#
# Coordination Sequence:
#
# PCOD8245933 Si02
#       7
#     8   8   8   8   8   8   8
#     4   9  19  33  46  63  93 129 158 189 236 288
#     4  11  22  34  50  74 103 134 167 205 251 299
#     4   9  18  33  50  65  86 120 157 191 232 282
#     4  11  20  28  43  68  95 122 154 191 230 275
#     4   8  14  26  42  60  84 115 152 190 224 265
#     4   9  19  36  55  73  96 129 167 206 249 296
#     4   9  16  26  41  61  88 120 149 180 223 276
#
# _framework density 17.621295
#
# number of rings (size 3 to 8) (size 9 to 14) (size 15 to 20)
#    0.000    2.571    0.000    4.714    0.000    9.143 
#    0.000    1.429    0.000    0.000    0.000    1.000 
#    0.000    5.714    0.000    0.000    0.000    0.000 
#
# Total GULP energy -693865.824672 kJ/mol
# GULP energy per Si atom -12390.461155 kJ/mol
# Density = 1.758119 g / cm^3
# Si number density = 17.621295 Si / 1000 Ang^3
#
#
#
# Elastic Constant Matrix: (Units=GPa)
#
#
# Indices 1 2 3 4 5 6 
#
# 1 45.3276 24.7060 29.1827 0.0000 0.0000 0.0000
# 2 24.7060 109.1517 63.9169 0.0000 0.0000 0.0000
# 3 29.1827 63.9169 141.8839 0.0000 0.0000 0.0000
# 4 0.0000 0.0000 0.0000 32.0640 0.0000 0.0000
# 5 0.0000 0.0000 0.0000 0.0000 15.3178 0.0000
# 6 0.0000 0.0000 0.0000 0.0000 0.0000 22.0130
#
#
#
# Elastic Compliance Matrix: (Units=1/GPa)
#
#
# Indices 1 2 3 4 5 6 
#
# 1 0.026552 -0.003819 -0.003741 0.000000 0.000000 0.000000
# 2 -0.003819 0.012994 -0.005068 0.000000 0.000000 0.000000
# 3 -0.003741 -0.005068 0.010100 0.000000 0.000000 0.000000
# 4 0.000000 0.000000 0.000000 0.031188 0.000000 0.000000
# 5 0.000000 0.000000 0.000000 0.000000 0.065284 0.000000
# 6 0.000000 0.000000 0.000000 0.000000 0.000000 0.045428
#
#
# Mechanical properties :
#
#
# Convention : Reuss Voigt Hill
#
# Bulk Modulus (GPa) = 41.00051 59.10828 50.05440
# Shear Modulus (GPa) = 22.22906 25.78278 24.00592
#
# Velocity S-wave (km/s) = 3.55560 3.82928 3.69497
# Velocity P-wave (km/s) = 6.33833 7.29161 6.83162
#
# Compressibility (1/GPa) = 0.02438994
#
# Stress axis : x y z
#
# Youngs Moduli (GPa) = 37.66245 76.95996 99.00588
#
# Poissons Ratio (x) = 0.29395 0.37033
# Poissons Ratio (y) = 0.14385 0.50176
# Poissons Ratio (z) = 0.14088 0.39003
#
# Static dielectric constant tensor:
#      x y z
#    x 2.879970 0.000000 0.000000 
#    y 0.000000 3.386230 0.000000 
#    z 0.000000 0.000000 3.620430 
# 
# 
# High freq. dielectric constant tensor:
#      x y z
#    x 1.629990 0.000000 0.000000 
#    y 0.000000 1.684290 0.000000 
#    z 0.000000 0.000000 1.689370 
# 
# From -- ./inp_files/24294.got.cif
#   From: 2010.03.12/outbox.cif.g09.slc.cpg/sg59_13_cif.got.tgz:24294.got - 2010.04.16 16:29:54.
