data_PCOD8245201
_publ_section_title
;
Structure prediction by ZEFSAII (Michael W. Deem and Ramdas Pophale) SiO2 
 PCOD8245201
Probable space group: P M M N
;
_chemical_formula_sum "Si O2"
_cell_formula_units_Z 48
_cell_length_a 14.621999
_cell_length_b 8.627951
_cell_length_c 19.543050
_cell_angle_alpha 90.000000
_cell_angle_beta 90.000000
_cell_angle_gamma 90.000000
_cell_volume 2465.509970
_symmetry_space_group_name_H-M "P M M N"
_symmetry_group_IT_number 59
_space_group.IT_coordinate_system_code '2'
_symmetry_cell_setting 'orthorhombic'
loop_
_space_group_symop_operation_xyz
x,y,z
1/2-x,1/2-y,z
1/2+x,-y,-z
-x,1/2+y,-z
-x,-y,-z
1/2+x,1/2+y,-z
1/2-x,y,z
x,1/2-y,z
loop_
_atom_site_type_symbol
_atom_site_label
_atom_site_fract_x
_atom_site_fract_y
_atom_site_fract_z
Si Si1 0.647929 0.069487 0.415037
Si Si2 0.939273 0.431605 0.820082
Si Si3 0.750000 0.567522 0.026777
Si Si4 0.558245 0.066973 0.062035
Si Si5 0.852806 0.932823 0.555784
Si Si6 0.517185 0.568082 0.676676
Si Si7 0.250000 0.066848 0.132439
O O1 0.750000 0.007728 0.398384
O O2 0.647968 0.250000 0.430501
O O3 0.584950 0.032534 0.349900
O O4 0.607657 0.991154 0.483421
O O5 0.943191 0.250000 0.836184
O O6 0.966895 0.464138 0.742608
O O7 0.837858 0.493952 0.832161
O O8 0.011207 0.520701 0.867350
O O9 0.750000 0.750000 0.037903
O O10 0.839067 0.496954 0.062388
O O11 0.750000 0.523245 0.947171
O O12 0.560351 0.250000 0.054605
O O13 0.500000 0.000000 0.000000
O O14 0.750000 0.996626 0.566158
O O15 0.855311 0.750000 0.554311
O O16 0.913246 0.992262 0.618732
O O17 0.531235 0.750000 0.693519
O O18 0.250000 0.250000 0.144216
#
# Coordination Sequence:
#
# PCOD8245201 Si02
#       7
#     8   8   4   8   8   8   4
#     4   9  18  34  56  81 110 148 194 249 300 352
#     4  12  26  42  62  91 126 161 203 252 303 362
#     4  11  23  41  69  99 124 159 204 255 306 360
#     4  12  24  42  67  95 126 164 206 252 304 361
#     4   9  18  32  53  82 111 146 191 242 297 359
#     4  10  21  37  56  80 115 157 199 241 300 363
#     4  11  23  41  67  93 124 161 196 243 304 366
#
# _framework density 19.468589999999999
#
# number of rings (size 3 to 8) (size 9 to 14) (size 15 to 20)
#    0.000    1.500    1.667    4.000    1.167    2.000 
#    1.500    0.000    0.000    0.000    0.000    0.000 
#    0.000    0.000    0.000    0.000    0.000    0.000 
#
# Total GULP energy -595372.174661 kJ/mol
# GULP energy per Si atom -12403.586972 kJ/mol
# Density = 1.942428 g / cm^3
# Si number density = 19.468590 Si / 1000 Ang^3
#
#
#
# Elastic Constant Matrix: (Units=GPa)
#
#
# Indices 1 2 3 4 5 6 
#
# 1 143.4596 40.2775 64.6231 0.0000 0.0000 0.0000
# 2 40.2775 73.5486 36.8894 0.0000 0.0000 0.0000
# 3 64.6231 36.8894 113.2594 0.0000 0.0000 0.0000
# 4 0.0000 0.0000 0.0000 34.2639 0.0000 0.0000
# 5 0.0000 0.0000 0.0000 0.0000 26.3123 0.0000
# 6 0.0000 0.0000 0.0000 0.0000 0.0000 19.9568
#
#
#
# Elastic Compliance Matrix: (Units=1/GPa)
#
#
# Indices 1 2 3 4 5 6 
#
# 1 0.009943 -0.003107 -0.004661 0.000000 0.000000 0.000000
# 2 -0.003107 0.017222 -0.003837 0.000000 0.000000 0.000000
# 3 -0.004661 -0.003837 0.012738 0.000000 0.000000 0.000000
# 4 0.000000 0.000000 0.000000 0.029185 0.000000 0.000000
# 5 0.000000 0.000000 0.000000 0.000000 0.038005 0.000000
# 6 0.000000 0.000000 0.000000 0.000000 0.000000 0.050108
#
#
# Mechanical properties :
#
#
# Convention : Reuss Voigt Hill
#
# Bulk Modulus (GPa) = 59.90227 68.20530 64.05378
# Shear Modulus (GPa) = 26.88526 28.67177 27.77852
#
# Velocity S-wave (km/s) = 3.72015 3.84177 3.78145
# Velocity P-wave (km/s) = 7.02055 7.40192 7.21376
#
# Compressibility (1/GPa) = 0.01669386
#
# Stress axis : x y z
#
# Youngs Moduli (GPa) = 100.57805 58.06433 78.50318
#
# Poissons Ratio (x) = 0.18041 0.36590
# Poissons Ratio (y) = 0.31250 0.30119
# Poissons Ratio (z) = 0.46879 0.22277
#
# Static dielectric constant tensor:
#      x y z
#    x 4.009740 0.000000 0.000000 
#    y 0.000000 3.544330 0.000000 
#    z 0.000000 0.000000 3.527600 
# 
# 
# High freq. dielectric constant tensor:
#      x y z
#    x 1.773590 0.000000 0.000000 
#    y 0.000000 1.758430 0.000000 
#    z 0.000000 0.000000 1.754590 
# 
# From -- ./inp_files/27462.got.cif
#   From: 2010.03.12/outbox.cif.g09.slc.cpg/sg59_14_cif.got.tgz:27462.got - 2010.04.16 16:29:54.
