data_PCOD8245876
_publ_section_title
;
Structure prediction by ZEFSAII (Michael W. Deem and Ramdas Pophale) SiO2 
 PCOD8245876
Probable space group: P M M N
;
_chemical_formula_sum "Si O2"
_cell_formula_units_Z 48
_cell_length_a 18.372776
_cell_length_b 8.448507
_cell_length_c 14.505221
_cell_angle_alpha 90.000000
_cell_angle_beta 90.000000
_cell_angle_gamma 90.000000
_cell_volume 2251.537053
_symmetry_space_group_name_H-M "P M M N"
_symmetry_group_IT_number 59
_space_group.IT_coordinate_system_code '2'
_symmetry_cell_setting 'orthorhombic'
loop_
_space_group_symop_operation_xyz
x,y,z
1/2-x,1/2-y,z
1/2+x,-y,-z
-x,1/2+y,-z
-x,-y,-z
1/2+x,1/2+y,-z
1/2-x,y,z
x,1/2-y,z
loop_
_atom_site_type_symbol
_atom_site_label
_atom_site_fract_x
_atom_site_fract_y
_atom_site_fract_z
Si Si1 0.250000 0.064205 0.503113
Si Si2 0.102252 0.064982 0.755411
Si Si3 0.750000 0.066156 0.293341
Si Si4 0.135462 0.569000 0.366899
Si Si5 0.989278 0.067273 0.399190
Si Si6 0.827196 0.432068 0.835820
Si Si7 0.481422 0.938762 0.100076
O O1 0.250000 0.250000 0.484814
O O2 0.250000 0.031898 0.611692
O O3 0.321087 0.988457 0.456494
O O4 0.114963 0.250000 0.768019
O O5 0.043508 0.999103 0.829499
O O6 0.179504 0.977706 0.768191
O O7 0.074104 0.028405 0.652487
O O8 0.750000 0.250000 0.317528
O O9 0.110982 0.750000 0.384227
O O10 0.065242 0.461057 0.347653
O O11 0.181517 0.552954 0.274258
O O12 0.967395 0.250000 0.400608
O O13 0.000000 0.000000 0.500000
O O14 0.750000 0.504530 0.875104
O O15 0.830855 0.250000 0.865231
O O16 0.901652 0.511443 0.873565
O O17 0.479686 0.750000 0.104660
O O18 0.500000 0.000000 0.000000
#
# Coordination Sequence:
#
# PCOD8245876 Si02
#       7
#     4   8   4   8   8   8   8
#     4  12  24  38  56  89 132 173 216 267 325 381
#     4  11  23  44  68  91 126 171 218 270 328 387
#     4  12  26  44  64  91 124 169 224 273 325 381
#     4  11  20  36  60  86 120 165 212 258 315 379
#     4  12  24  38  58  88 124 165 214 266 318 382
#     4   9  17  35  64  94 123 160 204 252 311 376
#     4  10  22  42  69  98 130 168 210 264 329 392
#
# _framework density 21.318770000000001
#
# number of rings (size 3 to 8) (size 9 to 14) (size 15 to 20)
#    0.000    1.167    2.500    5.000    0.000    1.333 
#    1.500    0.000    0.000    0.000    0.000    0.000 
#    0.000    0.000    0.000    0.000    0.000    0.000 
#
# Total GULP energy -595072.041447 kJ/mol
# GULP energy per Si atom -12397.334197 kJ/mol
# Density = 2.127025 g / cm^3
# Si number density = 21.318770 Si / 1000 Ang^3
#
#
#
# Elastic Constant Matrix: (Units=GPa)
#
#
# Indices 1 2 3 4 5 6 
#
# 1 188.3722 17.7984 56.2123 0.0000 0.0000 0.0000
# 2 17.7984 55.3334 16.1111 0.0000 0.0000 0.0000
# 3 56.2123 16.1111 100.7777 0.0000 0.0000 0.0000
# 4 0.0000 0.0000 0.0000 30.0651 0.0000 0.0000
# 5 0.0000 0.0000 0.0000 0.0000 25.1331 0.0000
# 6 0.0000 0.0000 0.0000 0.0000 0.0000 31.6089
#
#
#
# Elastic Compliance Matrix: (Units=1/GPa)
#
#
# Indices 1 2 3 4 5 6 
#
# 1 0.006429 -0.001074 -0.003414 0.000000 0.000000 0.000000
# 2 -0.001074 0.019134 -0.002460 0.000000 0.000000 0.000000
# 3 -0.003414 -0.002460 0.012221 0.000000 0.000000 0.000000
# 4 0.000000 0.000000 0.000000 0.033261 0.000000 0.000000
# 5 0.000000 0.000000 0.000000 0.000000 0.039788 0.000000
# 6 0.000000 0.000000 0.000000 0.000000 0.000000 0.031637
#
#
# Mechanical properties :
#
#
# Convention : Reuss Voigt Hill
#
# Bulk Modulus (GPa) = 41.86323 58.30300 50.08311
# Shear Modulus (GPa) = 30.42695 34.31885 32.37290
#
# Velocity S-wave (km/s) = 3.78198 4.01658 3.90104
# Velocity P-wave (km/s) = 6.22500 6.99415 6.62075
#
# Compressibility (1/GPa) = 0.02388731
#
# Stress axis : x y z
#
# Youngs Moduli (GPa) = 155.54599 52.26319 81.82936
#
# Poissons Ratio (x) = 0.05612 0.27939
# Poissons Ratio (y) = 0.16702 0.20130
# Poissons Ratio (z) = 0.53108 0.12856
#
# Static dielectric constant tensor:
#      x y z
#    x 4.920660 0.000000 0.000000 
#    y 0.000000 3.987670 0.000000 
#    z 0.000000 0.000000 3.326370 
# 
# 
# High freq. dielectric constant tensor:
#      x y z
#    x 1.862820 0.000000 0.000000 
#    y 0.000000 1.814340 0.000000 
#    z 0.000000 0.000000 1.814430 
# 
# From -- ./inp_files/23737.got.cif
#   From: 2010.03.12/outbox.cif.g09.slc.cpg/sg59_12_cif.got.tgz:23737.got - 2010.04.16 16:29:54.
