data_PCOD8245341
_publ_section_title
;
Structure prediction by ZEFSAII (Michael W. Deem and Ramdas Pophale) SiO2 
 PCOD8245341
Probable space group: P M M N
;
_chemical_formula_sum "Si O2"
_cell_formula_units_Z 48
_cell_length_a 9.268102
_cell_length_b 28.173805
_cell_length_c 9.847442
_cell_angle_alpha 90.000000
_cell_angle_beta 90.000000
_cell_angle_gamma 90.000000
_cell_volume 2571.341391
_symmetry_space_group_name_H-M "P M M N"
_symmetry_group_IT_number 59
_space_group.IT_coordinate_system_code '2'
_symmetry_cell_setting 'orthorhombic'
loop_
_space_group_symop_operation_xyz
x,y,z
1/2-x,1/2-y,z
1/2+x,-y,-z
-x,1/2+y,-z
-x,-y,-z
1/2+x,1/2+y,-z
1/2-x,y,z
x,1/2-y,z
loop_
_atom_site_type_symbol
_atom_site_label
_atom_site_fract_x
_atom_site_fract_y
_atom_site_fract_z
Si Si1 0.417999 0.882125 0.707230
Si Si2 0.418090 0.633694 0.018286
Si Si3 0.413563 0.306074 0.777858
Si Si4 0.083102 0.804344 0.486556
Si Si5 0.914459 0.030935 0.895134
Si Si6 0.418295 0.476132 0.377088
O O1 0.250000 0.896622 0.696838
O O2 0.453737 0.836131 0.616942
O O3 0.514110 0.925433 0.656468
O O4 0.461101 0.869500 0.860634
O O5 0.250000 0.645585 0.035095
O O6 0.509448 0.675068 0.087184
O O7 0.462660 0.585453 0.095253
O O8 0.250000 0.324720 0.772755
O O9 0.421024 0.250000 0.786598
O O10 0.493285 0.323750 0.641566
O O11 0.250000 0.808736 0.446108
O O12 0.042294 0.750000 0.522634
O O13 0.750000 0.026359 0.940649
O O14 0.941745 0.012745 0.744724
O O15 0.000000 0.000000 0.000000
O O16 0.500000 0.500000 0.500000
O O17 0.250000 0.469194 0.410992
#
# Coordination Sequence:
#
# PCOD8245341 Si02
#       6
#     8   8   8   8   8   8
#     4  10  21  38  60  86 115 146 188 237 283 337
#     4  10  21  37  59  86 114 148 188 233 284 337
#     4  10  22  39  58  84 116 149 188 232 280 336
#     4   9  19  37  60  84 111 145 185 231 282 335
#     4  10  21  38  59  83 113 150 189 231 279 333
#     4  11  24  39  57  84 117 153 192 235 282 337
#
# _framework density 18.667299
#
# number of rings (size 3 to 8) (size 9 to 14) (size 15 to 20)
#    0.000    2.000    1.667    1.000    2.333    4.333 
#    0.000    1.667    0.000    2.000    0.000    0.000 
#    0.000    0.000    0.000    0.000    0.000    0.000 
#
# Total GULP energy -595366.633781 kJ/mol
# GULP energy per Si atom -12403.471537 kJ/mol
# Density = 1.862481 g / cm^3
# Si number density = 18.667299 Si / 1000 Ang^3
#
#
#
# Elastic Constant Matrix: (Units=GPa)
#
#
# Indices 1 2 3 4 5 6 
#
# 1 95.2829 50.6967 74.6102 0.0000 0.0000 0.0000
# 2 50.6967 74.2542 66.5514 0.0000 0.0000 0.0000
# 3 74.6102 66.5514 137.6394 0.0000 0.0000 0.0000
# 4 0.0000 0.0000 0.0000 40.2737 0.0000 0.0000
# 5 0.0000 0.0000 0.0000 0.0000 28.8327 0.0000
# 6 0.0000 0.0000 0.0000 0.0000 0.0000 33.1126
#
#
#
# Elastic Compliance Matrix: (Units=1/GPa)
#
#
# Indices 1 2 3 4 5 6 
#
# 1 0.020097 -0.006984 -0.007517 0.000000 0.000000 0.000000
# 2 -0.006984 0.026194 -0.008880 0.000000 0.000000 0.000000
# 3 -0.007517 -0.008880 0.015634 0.000000 0.000000 0.000000
# 4 0.000000 0.000000 0.000000 0.024830 0.000000 0.000000
# 5 0.000000 0.000000 0.000000 0.000000 0.034683 0.000000
# 6 0.000000 0.000000 0.000000 0.000000 0.000000 0.030200
#
#
# Mechanical properties :
#
#
# Convention : Reuss Voigt Hill
#
# Bulk Modulus (GPa) = 65.94786 76.76589 71.35687
# Shear Modulus (GPa) = 24.57564 28.13167 26.35365
#
# Velocity S-wave (km/s) = 3.63231 3.88622 3.76141
# Velocity P-wave (km/s) = 7.27985 7.83259 7.56127
#
# Compressibility (1/GPa) = 0.01516349
#
# Stress axis : x y z
#
# Youngs Moduli (GPa) = 49.75805 38.17693 63.96438
#
# Poissons Ratio (x) = 0.26662 0.48084
# Poissons Ratio (y) = 0.34750 0.56797
# Poissons Ratio (z) = 0.37405 0.33899
#
# Static dielectric constant tensor:
#      x y z
#    x 3.556650 0.000000 0.000000 
#    y 0.000000 3.844380 0.000000 
#    z 0.000000 0.000000 3.507220 
# 
# 
# High freq. dielectric constant tensor:
#      x y z
#    x 1.725600 0.000000 0.000000 
#    y 0.000000 1.728190 0.000000 
#    z 0.000000 0.000000 1.733590 
# 
# From -- ./inp_files/6202.got.cif
#   From: 2010.03.12/outbox.cif.g09.slc.cpg/sg59_4_cif.got.tgz:6202.got - 2010.04.16 16:29:54.
