data_PCOD8245513
_publ_section_title
;
Structure prediction by ZEFSAII (Michael W. Deem and Ramdas Pophale) SiO2 
 PCOD8245513
Probable space group: P M M N
;
_chemical_formula_sum "Si O2"
_cell_formula_units_Z 64
_cell_length_a 24.644695
_cell_length_b 8.922557
_cell_length_c 14.671335
_cell_angle_alpha 90.000000
_cell_angle_beta 90.000000
_cell_angle_gamma 90.000000
_cell_volume 3226.134077
_symmetry_space_group_name_H-M "P M M N"
_symmetry_group_IT_number 59
_space_group.IT_coordinate_system_code '2'
_symmetry_cell_setting 'orthorhombic'
loop_
_space_group_symop_operation_xyz
x,y,z
1/2-x,1/2-y,z
1/2+x,-y,-z
-x,1/2+y,-z
-x,-y,-z
1/2+x,1/2+y,-z
1/2-x,y,z
x,1/2-y,z
loop_
_atom_site_type_symbol
_atom_site_label
_atom_site_fract_x
_atom_site_fract_y
_atom_site_fract_z
Si Si1 0.558336 0.072289 0.019705
Si Si2 0.988806 0.918653 0.723695
Si Si3 0.689789 0.921057 0.329930
Si Si4 0.811617 0.578232 0.703184
Si Si5 0.954739 0.080136 0.557228
Si Si6 0.834911 0.419281 0.514035
Si Si7 0.090524 0.427386 0.792684
Si Si8 0.605649 0.580486 0.855370
O O1 0.551338 0.250000 0.021360
O O2 0.583916 0.017401 0.114077
O O3 0.500000 0.000000 0.000000
O O4 0.602773 0.025144 0.943684
O O5 0.006665 0.750000 0.696546
O O6 0.955838 0.917259 0.817454
O O7 0.041095 0.025388 0.727274
O O8 0.947489 0.987363 0.650103
O O9 0.750000 0.937611 0.286703
O O10 0.675415 0.750000 0.352493
O O11 0.646139 0.980600 0.256408
O O12 0.690627 0.005415 0.425848
O O13 0.750000 0.563142 0.738764
O O14 0.828130 0.750000 0.685387
O O15 0.816692 0.494249 0.607785
O O16 0.851275 0.513502 0.782249
O O17 0.971781 0.250000 0.578988
O O18 0.899389 0.073008 0.501402
O O19 0.000000 0.000000 0.500000
O O20 0.813834 0.250000 0.518122
O O21 0.089336 0.250000 0.811418
O O22 0.622796 0.750000 0.882817
#
# Coordination Sequence:
#
# PCOD8245513 Si02
#       8
#     8   8   8   8   8   8   8   8
#     4  12  24  39  63  92 123 157 194 240 295 358
#     4  11  21  35  58  86 120 156 191 239 298 356
#     4  10  23  43  64  86 115 156 204 249 293 345
#     4  10  21  39  63  88 117 158 205 247 290 345
#     4  11  23  36  52  79 118 160 202 245 297 357
#     4  11  23  37  57  87 121 157 199 247 297 350
#     4  11  23  40  64  91 120 155 197 246 298 354
#     4  10  21  38  60  88 121 156 194 242 293 347
#
# _framework density 19.837985
#
# number of rings (size 3 to 8) (size 9 to 14) (size 15 to 20)
#    0.000    1.250    2.500    3.750    0.000    7.500 
#    0.000    0.625    0.000    3.750    0.000    0.000 
#    0.000    0.000    0.000    0.000    0.000    0.000 
#
# Total GULP energy -793672.184503 kJ/mol
# GULP energy per Si atom -12401.127883 kJ/mol
# Density = 1.979283 g / cm^3
# Si number density = 19.837985 Si / 1000 Ang^3
#
#
#
# Elastic Constant Matrix: (Units=GPa)
#
#
# Indices 1 2 3 4 5 6 
#
# 1 108.5593 37.5735 45.4741 0.0000 0.0000 0.0000
# 2 37.5735 108.1776 50.3461 0.0000 0.0000 0.0000
# 3 45.4741 50.3461 112.4798 0.0000 0.0000 0.0000
# 4 0.0000 0.0000 0.0000 35.0336 0.0000 0.0000
# 5 0.0000 0.0000 0.0000 0.0000 21.5663 0.0000
# 6 0.0000 0.0000 0.0000 0.0000 0.0000 23.4960
#
#
#
# Elastic Compliance Matrix: (Units=1/GPa)
#
#
# Indices 1 2 3 4 5 6 
#
# 1 0.011532 -0.002319 -0.003625 0.000000 0.000000 0.000000
# 2 -0.002319 0.012143 -0.004498 0.000000 0.000000 0.000000
# 3 -0.003625 -0.004498 0.012369 0.000000 0.000000 0.000000
# 4 0.000000 0.000000 0.000000 0.028544 0.000000 0.000000
# 5 0.000000 0.000000 0.000000 0.000000 0.046369 0.000000
# 6 0.000000 0.000000 0.000000 0.000000 0.000000 0.042561
#
#
# Mechanical properties :
#
#
# Convention : Reuss Voigt Hill
#
# Bulk Modulus (GPa) = 65.95331 66.22270 66.08801
# Shear Modulus (GPa) = 27.86248 29.07404 28.46826
#
# Velocity S-wave (km/s) = 3.75173 3.83244 3.79230
# Velocity P-wave (km/s) = 7.21703 7.28270 7.24994
#
# Compressibility (1/GPa) = 0.01516224
#
# Stress axis : x y z
#
# Youngs Moduli (GPa) = 86.71263 82.35451 80.84740
#
# Poissons Ratio (x) = 0.19095 0.29303
# Poissons Ratio (y) = 0.20106 0.36362
# Poissons Ratio (z) = 0.31429 0.37040
#
# Static dielectric constant tensor:
#      x y z
#    x 3.733470 0.000000 0.000000 
#    y 0.000000 3.706230 0.000000 
#    z 0.000000 0.000000 3.714260 
# 
# 
# High freq. dielectric constant tensor:
#      x y z
#    x 1.773470 0.000000 0.000000 
#    y 0.000000 1.776500 0.000000 
#    z 0.000000 0.000000 1.770140 
# 
# From -- ./inp_files/24749.got.cif
#   From: 2010.03.12/outbox.cif.g09.slc.cpg/sg59_13_cif.got.tgz:24749.got - 2010.04.16 16:29:54.
