data_PCOD8245099
_publ_section_title
;
Structure prediction by ZEFSAII (Michael W. Deem and Ramdas Pophale) SiO2 
 PCOD8245099
Probable space group: P M M N
;
_chemical_formula_sum "Si O2"
_cell_formula_units_Z 48
_cell_length_a 16.995782
_cell_length_b 9.057536
_cell_length_c 16.455533
_cell_angle_alpha 90.000000
_cell_angle_beta 90.000000
_cell_angle_gamma 90.000000
_cell_volume 2533.163225
_symmetry_space_group_name_H-M "P M M N"
_symmetry_group_IT_number 59
_space_group.IT_coordinate_system_code '2'
_symmetry_cell_setting 'orthorhombic'
loop_
_space_group_symop_operation_xyz
x,y,z
1/2-x,1/2-y,z
1/2+x,-y,-z
-x,1/2+y,-z
-x,-y,-z
1/2+x,1/2+y,-z
1/2-x,y,z
x,1/2-y,z
loop_
_atom_site_type_symbol
_atom_site_label
_atom_site_fract_x
_atom_site_fract_y
_atom_site_fract_z
Si Si1 0.750000 0.425220 0.350098
Si Si2 0.064517 0.922664 0.105217
Si Si3 0.398372 0.420959 0.573456
Si Si4 0.446614 0.419830 0.392272
Si Si5 0.092580 0.923192 0.920048
Si Si6 0.750000 0.074829 0.164777
Si Si7 0.159321 0.079271 0.240602
O O1 0.750000 0.250000 0.355142
O O2 0.826256 0.485558 0.394384
O O3 0.750000 0.480581 0.257186
O O4 0.053732 0.750000 0.117509
O O5 0.130024 0.981753 0.166058
O O6 0.094518 0.962076 0.015153
O O7 0.980925 0.998701 0.123485
O O8 0.386016 0.250000 0.594776
O O9 0.403010 0.448169 0.477209
O O10 0.477377 0.477203 0.617024
O O11 0.473819 0.250000 0.385359
O O12 0.386501 0.464987 0.322032
O O13 0.083243 0.750000 0.904456
O O14 0.172378 0.986374 0.880326
O O15 0.750000 0.250000 0.159282
O O16 0.250000 0.042912 0.256411
O O17 0.146116 0.250000 0.218619
#
# Coordination Sequence:
#
# PCOD8245099 Si02
#       7
#     4   8   8   8   8   4   8
#     4  11  23  37  57  86 117 150 194 233 277 339
#     4  10  21  36  58  86 116 146 183 235 290 332
#     4  10  21  38  61  86 115 148 188 238 290 332
#     4   9  20  39  62  83 111 152 192 229 279 345
#     4   9  19  38  61  81 109 151 193 229 277 341
#     4   9  20  37  59  82 105 148 196 229 267 333
#     4  10  22  38  59  84 112 150 193 229 272 337
#
# _framework density 18.948640999999999
#
# number of rings (size 3 to 8) (size 9 to 14) (size 15 to 20)
#    0.000    2.333    0.000    1.250    4.667    2.333 
#    0.000    1.250    0.000    0.000    0.000    0.000 
#    0.000    0.000    0.000    0.000    0.000    0.000 
#
# Total GULP energy -595409.846137 kJ/mol
# GULP energy per Si atom -12404.371795 kJ/mol
# Density = 1.890551 g / cm^3
# Si number density = 18.948641 Si / 1000 Ang^3
#
#
#
# Elastic Constant Matrix: (Units=GPa)
#
#
# Indices 1 2 3 4 5 6 
#
# 1 144.5509 55.0863 69.9842 0.0000 0.0000 0.0000
# 2 55.0863 68.3825 44.4562 0.0000 0.0000 0.0000
# 3 69.9842 44.4562 92.9158 0.0000 0.0000 0.0000
# 4 0.0000 0.0000 0.0000 29.6586 0.0000 0.0000
# 5 0.0000 0.0000 0.0000 0.0000 32.6268 0.0000
# 6 0.0000 0.0000 0.0000 0.0000 0.0000 45.8024
#
#
#
# Elastic Compliance Matrix: (Units=1/GPa)
#
#
# Indices 1 2 3 4 5 6 
#
# 1 0.012205 -0.005596 -0.006515 0.000000 0.000000 0.000000
# 2 -0.005596 0.023792 -0.007168 0.000000 0.000000 0.000000
# 3 -0.006515 -0.007168 0.019099 0.000000 0.000000 0.000000
# 4 0.000000 0.000000 0.000000 0.033717 0.000000 0.000000
# 5 0.000000 0.000000 0.000000 0.000000 0.030650 0.000000
# 6 0.000000 0.000000 0.000000 0.000000 0.000000 0.021833
#
#
# Mechanical properties :
#
#
# Convention : Reuss Voigt Hill
#
# Bulk Modulus (GPa) = 60.47131 71.65585 66.06358
# Shear Modulus (GPa) = 26.97340 30.70572 28.83956
#
# Velocity S-wave (km/s) = 3.77702 4.02987 3.90550
# Velocity P-wave (km/s) = 7.14169 7.71694 7.43488
#
# Compressibility (1/GPa) = 0.01653677
#
# Stress axis : x y z
#
# Youngs Moduli (GPa) = 81.93391 42.03103 52.35760
#
# Poissons Ratio (x) = 0.23522 0.34112
# Poissons Ratio (y) = 0.45852 0.37532
# Poissons Ratio (z) = 0.53382 0.30129
#
# Static dielectric constant tensor:
#      x y z
#    x 3.636100 0.000000 0.000000 
#    y 0.000000 3.400390 0.000000 
#    z 0.000000 0.000000 3.537070 
# 
# 
# High freq. dielectric constant tensor:
#      x y z
#    x 1.745930 0.000000 0.000000 
#    y 0.000000 1.728840 0.000000 
#    z 0.000000 0.000000 1.741260 
# 
# From -- ./inp_files/23760.got.cif
#   From: 2010.03.12/outbox.cif.g09.slc.cpg/sg59_12_cif.got.tgz:23760.got - 2010.04.16 16:29:54.
