data_PCOD8245537
_publ_section_title
;
Structure prediction by ZEFSAII (Michael W. Deem and Ramdas Pophale) SiO2 
 PCOD8245537
Probable space group: P M M N
;
_chemical_formula_sum "Si O2"
_cell_formula_units_Z 56
_cell_length_a 15.421890
_cell_length_b 14.086713
_cell_length_c 12.433595
_cell_angle_alpha 90.000000
_cell_angle_beta 90.000000
_cell_angle_gamma 90.000000
_cell_volume 2701.120659
_symmetry_space_group_name_H-M "P M M N"
_symmetry_group_IT_number 59
_space_group.IT_coordinate_system_code '2'
_symmetry_cell_setting 'orthorhombic'
loop_
_space_group_symop_operation_xyz
x,y,z
1/2-x,1/2-y,z
1/2+x,-y,-z
-x,1/2+y,-z
-x,-y,-z
1/2+x,1/2+y,-z
1/2-x,y,z
x,1/2-y,z
loop_
_atom_site_type_symbol
_atom_site_label
_atom_site_fract_x
_atom_site_fract_y
_atom_site_fract_z
Si Si1 0.841166 0.644810 0.086694
Si Si2 0.848892 0.142945 0.518685
Si Si3 0.981182 0.044296 0.668671
Si Si4 0.346368 0.637675 0.919076
Si Si5 0.437405 0.642451 0.702750
Si Si6 0.154946 0.355760 0.658446
Si Si7 0.474047 0.864110 0.102958
O O1 0.750000 0.592473 0.051229
O O2 0.837821 0.750000 0.037069
O O3 0.844140 0.650878 0.214240
O O4 0.933113 0.597083 0.053678
O O5 0.750000 0.113118 0.538826
O O6 0.866056 0.250000 0.561290
O O7 0.909481 0.069690 0.581259
O O8 0.867140 0.139401 0.391785
O O9 0.954585 0.092954 0.780560
O O10 0.075780 0.076618 0.623067
O O11 0.983162 0.929654 0.679987
O O12 0.250000 0.594479 0.926572
O O13 0.342712 0.750000 0.917096
O O14 0.390439 0.602006 0.809428
O O15 0.399620 0.601435 0.022180
O O16 0.473468 0.750000 0.718713
O O17 0.250000 0.393303 0.617999
O O18 0.138435 0.250000 0.611322
O O19 0.477920 0.750000 0.113836
#
# Coordination Sequence:
#
# PCOD8245537 Si02
#       7
#     8   8   8   8   8   8   8
#     4   7  10  19  36  60  95 134 165 200 253 317
#     4  10  21  38  61  88 116 145 181 230 289 350
#     4  11  20  33  57  86 116 147 183 235 295 350
#     4   9  18  34  55  78 110 153 195 235 280 331
#     4  10  22  39  57  77 107 153 204 244 273 316
#     4   8  14  25  43  73 112 145 173 213 273 341
#     4   9  17  29  50  83 116 142 176 228 290 346
#
# _framework density 20.732135
#
# number of rings (size 3 to 8) (size 9 to 14) (size 15 to 20)
#    0.000    2.857    0.000    3.857    0.000    4.000 
#    0.000    1.429    0.000    1.286    0.000    2.000 
#    0.000    1.143    0.000    0.000    0.000    0.000 
#
# Total GULP energy -693795.145238 kJ/mol
# GULP energy per Si atom -12389.199022 kJ/mol
# Density = 2.068495 g / cm^3
# Si number density = 20.732135 Si / 1000 Ang^3
#
#
#
# Elastic Constant Matrix: (Units=GPa)
#
#
# Indices 1 2 3 4 5 6 
#
# 1 109.3511 32.3088 46.4318 0.0000 0.0000 0.0000
# 2 32.3088 80.2424 19.9497 0.0000 0.0000 0.0000
# 3 46.4318 19.9497 78.7796 0.0000 0.0000 0.0000
# 4 0.0000 0.0000 0.0000 10.8506 0.0000 0.0000
# 5 0.0000 0.0000 0.0000 0.0000 26.6239 0.0000
# 6 0.0000 0.0000 0.0000 0.0000 0.0000 7.4320
#
#
#
# Elastic Compliance Matrix: (Units=1/GPa)
#
#
# Indices 1 2 3 4 5 6 
#
# 1 0.013095 -0.003579 -0.006811 0.000000 0.000000 0.000000
# 2 -0.003579 0.014278 -0.001506 0.000000 0.000000 0.000000
# 3 -0.006811 -0.001506 0.017090 0.000000 0.000000 0.000000
# 4 0.000000 0.000000 0.000000 0.092161 0.000000 0.000000
# 5 0.000000 0.000000 0.000000 0.000000 0.037560 0.000000
# 6 0.000000 0.000000 0.000000 0.000000 0.000000 0.134554
#
#
# Mechanical properties :
#
#
# Convention : Reuss Voigt Hill
#
# Bulk Modulus (GPa) = 48.38234 51.75041 50.06637
# Shear Modulus (GPa) = 14.73104 20.29349 17.51227
#
# Velocity S-wave (km/s) = 2.66849 3.13204 2.90951
# Velocity P-wave (km/s) = 5.73428 6.17213 5.95723
#
# Compressibility (1/GPa) = 0.02066870
#
# Stress axis : x y z
#
# Youngs Moduli (GPa) = 76.36793 70.03907 58.51490
#
# Poissons Ratio (x) = 0.25067 0.39857
# Poissons Ratio (y) = 0.27332 0.08814
# Poissons Ratio (z) = 0.52018 0.10549
#
# Static dielectric constant tensor:
#      x y z
#    x 4.294520 0.000000 0.000000 
#    y 0.000000 3.716040 0.000000 
#    z 0.000000 0.000000 3.393650 
# 
# 
# High freq. dielectric constant tensor:
#      x y z
#    x 1.808020 0.000000 0.000000 
#    y 0.000000 1.808240 0.000000 
#    z 0.000000 0.000000 1.771190 
# 
# From -- ./inp_files/16918.got.cif
#   From: 2010.03.12/outbox.cif.g09.slc.cpg/sg59_9_cif.got.tgz:16918.got - 2010.04.16 16:29:54.
