data_PCOD8245119
_publ_section_title
;
Structure prediction by ZEFSAII (Michael W. Deem and Ramdas Pophale) SiO2 
 PCOD8245119
Probable space group: P M M N
;
_chemical_formula_sum "Si O2"
_cell_formula_units_Z 40
_cell_length_a 9.001528
_cell_length_b 19.975519
_cell_length_c 12.803833
_cell_angle_alpha 90.000000
_cell_angle_beta 90.000000
_cell_angle_gamma 90.000000
_cell_volume 2302.259690
_symmetry_space_group_name_H-M "P M M N"
_symmetry_group_IT_number 59
_space_group.IT_coordinate_system_code '2'
_symmetry_cell_setting 'orthorhombic'
loop_
_space_group_symop_operation_xyz
x,y,z
1/2-x,1/2-y,z
1/2+x,-y,-z
-x,1/2+y,-z
-x,-y,-z
1/2+x,1/2+y,-z
1/2-x,y,z
x,1/2-y,z
loop_
_atom_site_type_symbol
_atom_site_label
_atom_site_fract_x
_atom_site_fract_y
_atom_site_fract_z
Si Si1 0.426310 0.431938 0.037893
Si Si2 0.077799 0.672701 0.108298
Si Si3 0.424493 0.071423 0.488064
Si Si4 0.576562 0.546300 0.734579
Si Si5 0.575882 0.399128 0.683942
O O1 0.250000 0.438495 0.027378
O O2 0.479829 0.420004 0.158146
O O3 0.500000 0.500000 0.000000
O O4 0.480040 0.368826 0.972275
O O5 0.250000 0.655492 0.088669
O O6 0.042103 0.750000 0.089532
O O7 0.035227 0.654705 0.227463
O O8 0.250000 0.065652 0.507745
O O9 0.458415 0.093027 0.367085
O O10 0.495418 0.121273 0.574349
O O11 0.500000 0.000000 0.500000
O O12 0.750000 0.534952 0.745692
O O13 0.511155 0.471154 0.721154
O O14 0.750000 0.401165 0.660755
#
# Coordination Sequence:
#
# PCOD8245119 Si02
#       5
#     8   8   8   8   8
#     4  11  20  33  53  77 105 137 176 218 260 313
#     4  10  21  37  54  73 103 141 176 215 268 319
#     4   9  16  27  44  69  98 128 160 198 246 300
#     4   8  15  28  46  69 100 130 159 203 256 303
#     4   9  16  30  48  69  99 131 164 205 255 309
#
# _framework density 17.374234999999999
#
# number of rings (size 3 to 8) (size 9 to 14) (size 15 to 20)
#    0.000    2.600    2.000    2.400    0.000    1.200 
#    0.000    3.000    0.000    1.200    0.000    5.600 
#    0.000    0.000    0.000    0.000    0.000    0.000 
#
# Total GULP energy -495601.835772 kJ/mol
# GULP energy per Si atom -12390.045894 kJ/mol
# Density = 1.733469 g / cm^3
# Si number density = 17.374235 Si / 1000 Ang^3
#
#
#
# Elastic Constant Matrix: (Units=GPa)
#
#
# Indices 1 2 3 4 5 6 
#
# 1 69.7087 32.4044 67.1683 0.0000 0.0000 0.0000
# 2 32.4044 64.9286 53.5800 0.0000 0.0000 0.0000
# 3 67.1683 53.5800 182.3572 0.0000 0.0000 0.0000
# 4 0.0000 0.0000 0.0000 21.5651 0.0000 0.0000
# 5 0.0000 0.0000 0.0000 0.0000 31.2774 0.0000
# 6 0.0000 0.0000 0.0000 0.0000 0.0000 18.8406
#
#
#
# Elastic Compliance Matrix: (Units=1/GPa)
#
#
# Indices 1 2 3 4 5 6 
#
# 1 0.023978 -0.006176 -0.007017 0.000000 0.000000 0.000000
# 2 -0.006176 0.021922 -0.004166 0.000000 0.000000 0.000000
# 3 -0.007017 -0.004166 0.009293 0.000000 0.000000 0.000000
# 4 0.000000 0.000000 0.000000 0.046371 0.000000 0.000000
# 5 0.000000 0.000000 0.000000 0.000000 0.031972 0.000000
# 6 0.000000 0.000000 0.000000 0.000000 0.000000 0.053077
#
#
# Mechanical properties :
#
#
# Convention : Reuss Voigt Hill
#
# Bulk Modulus (GPa) = 48.84416 69.25552 59.04984
# Shear Modulus (GPa) = 21.91485 25.25942 23.58714
#
# Velocity S-wave (km/s) = 3.55539 3.81707 3.68855
# Velocity P-wave (km/s) = 6.71032 7.70547 7.22505
#
# Compressibility (1/GPa) = 0.02047328
#
# Stress axis : x y z
#
# Youngs Moduli (GPa) = 41.70514 45.61647 107.61341
#
# Poissons Ratio (x) = 0.28173 0.75514
# Poissons Ratio (y) = 0.25758 0.44834
# Poissons Ratio (z) = 0.29265 0.19005
#
# Static dielectric constant tensor:
#      x y z
#    x 3.218060 0.000000 0.000000 
#    y 0.000000 2.915500 0.000000 
#    z 0.000000 0.000000 4.102200 
# 
# 
# High freq. dielectric constant tensor:
#      x y z
#    x 1.660160 0.000000 0.000000 
#    y 0.000000 1.614790 0.000000 
#    z 0.000000 0.000000 1.697130 
# 
# From -- ./inp_files/14069.got.cif
#   From: 2010.03.12/outbox.cif.g09.slc.cpg/sg59_8_cif.got.tgz:14069.got - 2010.04.16 16:29:54.
