data_PCOD8245961
_publ_section_title
;
Structure prediction by ZEFSAII (Michael W. Deem and Ramdas Pophale) SiO2 
 PCOD8245961
Probable space group: P M M N
;
_chemical_formula_sum "Si O2"
_cell_formula_units_Z 56
_cell_length_a 9.148541
_cell_length_b 19.176087
_cell_length_c 18.077615
_cell_angle_alpha 90.000000
_cell_angle_beta 90.000000
_cell_angle_gamma 90.000000
_cell_volume 3171.414176
_symmetry_space_group_name_H-M "P M M N"
_symmetry_group_IT_number 59
_space_group.IT_coordinate_system_code '2'
_symmetry_cell_setting 'orthorhombic'
loop_
_space_group_symop_operation_xyz
x,y,z
1/2-x,1/2-y,z
1/2+x,-y,-z
-x,1/2+y,-z
-x,-y,-z
1/2+x,1/2+y,-z
1/2-x,y,z
x,1/2-y,z
loop_
_atom_site_type_symbol
_atom_site_label
_atom_site_fract_x
_atom_site_fract_y
_atom_site_fract_z
Si Si1 0.922059 0.828925 0.640892
Si Si2 0.087105 0.918223 0.071357
Si Si3 0.588214 0.167196 0.500595
Si Si4 0.080912 0.832002 0.334803
Si Si5 0.576182 0.575150 0.218598
Si Si6 0.911314 0.916075 0.933514
Si Si7 0.923061 0.929595 0.771196
O O1 0.750000 0.830419 0.634706
O O2 0.978933 0.750000 0.653873
O O3 0.976010 0.875712 0.709005
O O4 0.982894 0.860827 0.564107
O O5 0.250000 0.887526 0.082615
O O6 0.986162 0.897406 0.140402
O O7 0.093643 0.000752 0.063674
O O8 0.020504 0.885990 0.995623
O O9 0.750000 0.138613 0.483492
O O10 0.588746 0.250000 0.501261
O O11 0.538799 0.142371 0.582184
O O12 0.250000 0.851152 0.317740
O O13 0.056303 0.750000 0.325962
O O14 0.970306 0.869888 0.280279
O O15 0.750000 0.569940 0.213207
O O16 0.510568 0.500617 0.240775
O O17 0.750000 0.885927 0.950067
O O18 0.962090 0.894854 0.850747
O O19 0.750000 0.946148 0.767294
#
# Coordination Sequence:
#
# PCOD8245961 Si02
#       7
#     8   8   8   8   8   8   8
#     4   9  17  30  50  74  97 123 157 196 236 278
#     4   9  16  27  44  65  91 123 156 191 235 282
#     4   8  15  29  49  71  93 120 155 192 230 277
#     4   9  18  34  54  72  93 124 158 191 234 287
#     4  11  21  31  47  72  99 124 156 198 238 277
#     4   8  14  25  42  64  89 120 158 196 231 270
#     4   9  18  32  48  68  98 131 159 191 237 288
#
# _framework density 17.657737000000001
#
# number of rings (size 3 to 8) (size 9 to 14) (size 15 to 20)
#    0.000    3.000    0.000    3.429    0.000    4.857 
#    0.000    2.143    0.000    0.857    0.000    2.000 
#    0.000    0.000    0.000    0.000    0.000    0.000 
#
# Total GULP energy -694105.191846 kJ/mol
# GULP energy per Si atom -12394.735569 kJ/mol
# Density = 1.761755 g / cm^3
# Si number density = 17.657737 Si / 1000 Ang^3
#
#
#
# Elastic Constant Matrix: (Units=GPa)
#
#
# Indices 1 2 3 4 5 6 
#
# 1 89.6583 31.6673 65.2211 0.0000 0.0000 0.0000
# 2 31.6673 35.2601 43.8794 0.0000 0.0000 0.0000
# 3 65.2211 43.8794 157.1079 0.0000 0.0000 0.0000
# 4 0.0000 0.0000 0.0000 -4.3314 0.0000 0.0000
# 5 0.0000 0.0000 0.0000 0.0000 36.0965 0.0000
# 6 0.0000 0.0000 0.0000 0.0000 0.0000 16.1672
#
#
#
# Elastic Compliance Matrix: (Units=1/GPa)
#
#
# Indices 1 2 3 4 5 6 
#
# 1 0.018276 -0.010686 -0.004602 0.000000 0.000000 0.000000
# 2 -0.010686 0.049718 -0.009450 0.000000 0.000000 0.000000
# 3 -0.004602 -0.009450 0.010915 0.000000 0.000000 0.000000
# 4 0.000000 0.000000 0.000000 -0.230874 0.000000 0.000000
# 5 0.000000 0.000000 0.000000 0.000000 0.027704 0.000000
# 6 0.000000 0.000000 0.000000 0.000000 0.000000 0.061854
#
#
# Mechanical properties :
#
#
# Convention : Reuss Voigt Hill
#
# Bulk Modulus (GPa) = 33.97669 62.61799 48.29734
# Shear Modulus (GPa) = -1601.50242 19.00370 -791.24936
#
# Velocity S-wave (km/s) = -30.14860 3.28415 -21.19142
# Velocity P-wave (km/s) = 34.53453 7.06540 23.90308
#
# Compressibility (1/GPa) = 0.02943194
#
# Stress axis : x y z
#
# Youngs Moduli (GPa) = 54.71739 20.11357 91.61812
#
# Poissons Ratio (x) = 0.21494 0.42165
# Poissons Ratio (y) = 0.58472 0.86576
# Poissons Ratio (z) = 0.25183 0.19007
#
# Static dielectric constant tensor:
#      x y z
#    x 3.352030 0.000000 0.000000 
#    y 0.000000 2.835040 0.000000 
#    z 0.000000 0.000000 3.675380 
# 
# 
# High freq. dielectric constant tensor:
#      x y z
#    x 1.679470 0.000000 0.000000 
#    y 0.000000 1.626010 0.000000 
#    z 0.000000 0.000000 1.701640 
# 
# From -- ./inp_files/26126.got.cif
#   From: 2010.03.12/outbox.cif.g09.slc.cpg/sg59_14_cif.got.tgz:26126.got - 2010.04.16 16:29:54.
