data_PCOD8245672
_publ_section_title
;
Structure prediction by ZEFSAII (Michael W. Deem and Ramdas Pophale) SiO2 
 PCOD8245672
Probable space group: P M M N
;
_chemical_formula_sum "Si O2"
_cell_formula_units_Z 56
_cell_length_a 15.105126
_cell_length_b 8.576391
_cell_length_c 21.054661
_cell_angle_alpha 90.000000
_cell_angle_beta 90.000000
_cell_angle_gamma 90.000000
_cell_volume 2727.577994
_symmetry_space_group_name_H-M "P M M N"
_symmetry_group_IT_number 59
_space_group.IT_coordinate_system_code '2'
_symmetry_cell_setting 'orthorhombic'
loop_
_space_group_symop_operation_xyz
x,y,z
1/2-x,1/2-y,z
1/2+x,-y,-z
-x,1/2+y,-z
-x,-y,-z
1/2+x,1/2+y,-z
1/2-x,y,z
x,1/2-y,z
loop_
_atom_site_type_symbol
_atom_site_label
_atom_site_fract_x
_atom_site_fract_y
_atom_site_fract_z
Si Si1 0.351395 0.068228 0.423607
Si Si2 0.150652 0.427659 0.871864
Si Si3 0.597363 0.432603 0.000874
Si Si4 0.505683 0.429269 0.215306
Si Si5 0.990317 0.930062 0.350687
Si Si6 0.850108 0.428727 0.860073
Si Si7 0.649300 0.430333 0.442934
O O1 0.250000 0.017355 0.411392
O O2 0.365617 0.250000 0.411537
O O3 0.412154 0.974274 0.374945
O O4 0.378971 0.029816 0.495703
O O5 0.250000 0.441270 0.844457
O O6 0.116155 0.250000 0.867997
O O7 0.152718 0.481956 0.944678
O O8 0.086461 0.537288 0.831790
O O9 0.594998 0.250000 0.015500
O O10 0.500000 0.500000 0.000000
O O11 0.644068 0.469672 0.934308
O O12 0.508523 0.250000 0.236486
O O13 0.515329 0.538066 0.276264
O O14 0.413099 0.460495 0.180471
O O15 0.971825 0.750000 0.363891
O O16 0.914769 0.029416 0.385214
O O17 0.750000 0.457497 0.836980
O O18 0.879115 0.250000 0.848871
O O19 0.750000 0.469394 0.422528
O O20 0.638762 0.250000 0.460861
#
# Coordination Sequence:
#
# PCOD8245672 Si02
#       7
#     8   8   8   8   8   8   8
#     4  10  21  39  64  94 127 161 202 251 300 353
#     4  11  24  42  64  90 122 160 203 251 305 365
#     4  11  21  36  63  94 125 159 198 248 305 360
#     4  12  26  43  63  87 119 160 205 255 304 361
#     4  12  25  41  63  88 122 164 205 250 302 362
#     4  10  22  41  64  89 121 160 201 247 302 363
#     4  10  21  39  64  94 127 161 201 249 300 356
#
# _framework density 20.531034999999999
#
# number of rings (size 3 to 8) (size 9 to 14) (size 15 to 20)
#    0.000    1.143    1.429    5.143    0.000    5.429 
#    0.000    0.000    0.000    0.000    0.000    0.000 
#    0.000    0.000    0.000    0.000    0.000    0.000 
#
# Total GULP energy -694791.821657 kJ/mol
# GULP energy per Si atom -12406.996815 kJ/mol
# Density = 2.048431 g / cm^3
# Si number density = 20.531035 Si / 1000 Ang^3
#
#
#
# Elastic Constant Matrix: (Units=GPa)
#
#
# Indices 1 2 3 4 5 6 
#
# 1 80.7343 13.4166 10.9841 0.0000 0.0000 0.0000
# 2 13.4166 70.8649 1.3331 0.0000 0.0000 0.0000
# 3 10.9841 1.3331 66.4550 0.0000 0.0000 0.0000
# 4 0.0000 0.0000 0.0000 31.5046 0.0000 0.0000
# 5 0.0000 0.0000 0.0000 0.0000 -22.7576 0.0000
# 6 0.0000 0.0000 0.0000 0.0000 0.0000 22.0531
#
#
#
# Elastic Compliance Matrix: (Units=1/GPa)
#
#
# Indices 1 2 3 4 5 6 
#
# 1 0.013079 -0.002436 -0.002113 0.000000 0.000000 0.000000
# 2 -0.002436 0.014571 0.000110 0.000000 0.000000 0.000000
# 3 -0.002113 0.000110 0.015395 0.000000 0.000000 0.000000
# 4 0.000000 0.000000 0.000000 0.031741 0.000000 0.000000
# 5 0.000000 0.000000 0.000000 0.000000 -0.043941 0.000000
# 6 0.000000 0.000000 0.000000 0.000000 0.000000 0.045345
#
#
# Mechanical properties :
#
#
# Convention : Reuss Voigt Hill
#
# Bulk Modulus (GPa) = 29.26855 29.94685 29.60770
# Shear Modulus (GPa) = 51.83735 18.98138 35.40937
#
# Velocity S-wave (km/s) = 5.03022 3.04389 4.15743
# Velocity P-wave (km/s) = 6.92995 5.19341 6.12355
#
# Compressibility (1/GPa) = 0.03416637
#
# Stress axis : x y z
#
# Youngs Moduli (GPa) = 76.46044 68.63153 64.95709
#
# Poissons Ratio (x) = 0.16721 0.13724
# Poissons Ratio (y) = 0.18629 -0.00717
# Poissons Ratio (z) = 0.16155 -0.00758
#
# Static dielectric constant tensor:
#      x y z
#    x 3.759560 0.000000 0.000000 
#    y 0.000000 3.799330 0.000000 
#    z 0.000000 0.000000 3.646370 
# 
# 
# High freq. dielectric constant tensor:
#      x y z
#    x 1.815380 0.000000 0.000000 
#    y 0.000000 1.811170 0.000000 
#    z 0.000000 0.000000 1.796200 
# 
# From -- ./inp_files/29160.got.cif
#   From: 2010.03.12/outbox.cif.g09.slc.cpg/sg59_15_cif.got.tgz:29160.got - 2010.04.16 16:29:54.
