data_PCOD8245979
_publ_section_title
;
Structure prediction by ZEFSAII (Michael W. Deem and Ramdas Pophale) SiO2 
 PCOD8245979
Probable space group: P M M N
;
_chemical_formula_sum "Si O2"
_cell_formula_units_Z 56
_cell_length_a 14.339443
_cell_length_b 9.097008
_cell_length_c 22.590551
_cell_angle_alpha 90.000000
_cell_angle_beta 90.000000
_cell_angle_gamma 90.000000
_cell_volume 2946.847641
_symmetry_space_group_name_H-M "P M M N"
_symmetry_group_IT_number 59
_space_group.IT_coordinate_system_code '2'
_symmetry_cell_setting 'orthorhombic'
loop_
_space_group_symop_operation_xyz
x,y,z
1/2-x,1/2-y,z
1/2+x,-y,-z
-x,1/2+y,-z
-x,-y,-z
1/2+x,1/2+y,-z
1/2-x,y,z
x,1/2-y,z
loop_
_atom_site_type_symbol
_atom_site_label
_atom_site_fract_x
_atom_site_fract_y
_atom_site_fract_z
Si Si1 0.350257 0.582401 0.591250
Si Si2 0.641904 0.417165 0.962732
Si Si3 0.357391 0.923852 0.250714
Si Si4 0.544720 0.923428 0.858654
Si Si5 0.954568 0.919071 0.642497
Si Si6 0.406126 0.418691 0.486034
Si Si7 0.351350 0.576259 0.904398
O O1 0.250000 0.570018 0.625612
O O2 0.373240 0.750000 0.574165
O O3 0.438496 0.526139 0.629826
O O4 0.332419 0.494928 0.529640
O O5 0.750000 0.420424 0.945124
O O6 0.604035 0.250000 0.955383
O O7 0.587680 0.528981 0.920828
O O8 0.626965 0.479214 0.029107
O O9 0.250000 0.975381 0.253710
O O10 0.364924 0.750000 0.246468
O O11 0.405475 0.991828 0.193706
O O12 0.411667 0.977154 0.308372
O O13 0.558215 0.750000 0.849769
O O14 0.434512 0.967797 0.859660
O O15 0.955447 0.750000 0.664531
O O16 0.888317 0.934884 0.584380
O O17 0.500000 0.500000 0.500000
O O18 0.412608 0.250000 0.504124
O O19 0.250000 0.514297 0.882470
O O20 0.344111 0.750000 0.909194
#
# Coordination Sequence:
#
# PCOD8245979 Si02
#       7
#     8   8   8   8   8   8   8
#     4   9  18  33  54  82 115 146 174 207 254 315
#     4   9  17  31  52  77 108 143 172 203 250 306
#     4  11  25  42  57  73  97 134 176 216 263 317
#     4  11  21  33  54  80 104 134 173 217 259 299
#     4   9  19  36  56  78 105 138 176 219 261 300
#     4   9  17  30  50  77 108 140 174 213 259 307
#     4   8  16  32  53  78 107 138 171 205 248 307
#
# _framework density 19.003357000000001
#
# number of rings (size 3 to 8) (size 9 to 14) (size 15 to 20)
#    0.000    2.571    0.000    3.857    0.000    6.857 
#    0.000    4.286    0.000    7.714    0.000    0.000 
#    0.000    0.000    0.000    0.000    0.000    0.000 
#
# Total GULP energy -693871.504264 kJ/mol
# GULP energy per Si atom -12390.562576 kJ/mol
# Density = 1.896010 g / cm^3
# Si number density = 19.003357 Si / 1000 Ang^3
#
#
#
# Elastic Constant Matrix: (Units=GPa)
#
#
# Indices 1 2 3 4 5 6 
#
# 1 140.2422 44.7581 68.9247 0.0000 0.0000 0.0000
# 2 44.7581 65.7597 37.6774 0.0000 0.0000 0.0000
# 3 68.9247 37.6774 76.0899 0.0000 0.0000 0.0000
# 4 0.0000 0.0000 0.0000 28.8844 0.0000 0.0000
# 5 0.0000 0.0000 0.0000 0.0000 24.4136 0.0000
# 6 0.0000 0.0000 0.0000 0.0000 0.0000 21.4897
#
#
#
# Elastic Compliance Matrix: (Units=1/GPa)
#
#
# Indices 1 2 3 4 5 6 
#
# 1 0.013261 -0.002992 -0.010530 0.000000 0.000000 0.000000
# 2 -0.002992 0.021905 -0.008136 0.000000 0.000000 0.000000
# 3 -0.010530 -0.008136 0.026710 0.000000 0.000000 0.000000
# 4 0.000000 0.000000 0.000000 0.034621 0.000000 0.000000
# 5 0.000000 0.000000 0.000000 0.000000 0.040961 0.000000
# 6 0.000000 0.000000 0.000000 0.000000 0.000000 0.046534
#
#
# Mechanical properties :
#
#
# Convention : Reuss Voigt Hill
#
# Bulk Modulus (GPa) = 53.88490 64.97915 59.43202
# Shear Modulus (GPa) = 21.41365 23.67298 22.54331
#
# Velocity S-wave (km/s) = 3.36048 3.53331 3.44798
# Velocity P-wave (km/s) = 6.59349 7.13537 6.86977
#
# Compressibility (1/GPa) = 0.01855808
#
# Stress axis : x y z
#
# Youngs Moduli (GPa) = 75.40961 45.65113 37.43910
#
# Poissons Ratio (x) = 0.13660 0.39425
# Poissons Ratio (y) = 0.22565 0.30462
# Poissons Ratio (z) = 0.79410 0.37143
#
# Static dielectric constant tensor:
#      x y z
#    x 3.954460 0.000000 0.000000 
#    y 0.000000 3.535450 0.000000 
#    z 0.000000 0.000000 3.474650 
# 
# 
# High freq. dielectric constant tensor:
#      x y z
#    x 1.750160 0.000000 0.000000 
#    y 0.000000 1.726590 0.000000 
#    z 0.000000 0.000000 1.717930 
# 
# From -- ./inp_files/30371.got.cif
#   From: 2010.03.12/outbox.cif.g09.slc.cpg/sg59_16_cif.got.tgz:30371.got - 2010.04.16 16:29:54.
