data_PCOD8245784
_publ_section_title
;
Structure prediction by ZEFSAII (Michael W. Deem and Ramdas Pophale) SiO2 
 PCOD8245784
Probable space group: P M M N
;
_chemical_formula_sum "Si O2"
_cell_formula_units_Z 64
_cell_length_a 14.341920
_cell_length_b 8.956138
_cell_length_c 28.234197
_cell_angle_alpha 90.000000
_cell_angle_beta 90.000000
_cell_angle_gamma 90.000000
_cell_volume 3626.632198
_symmetry_space_group_name_H-M "P M M N"
_symmetry_group_IT_number 59
_space_group.IT_coordinate_system_code '2'
_symmetry_cell_setting 'orthorhombic'
loop_
_space_group_symop_operation_xyz
x,y,z
1/2-x,1/2-y,z
1/2+x,-y,-z
-x,1/2+y,-z
-x,-y,-z
1/2+x,1/2+y,-z
1/2-x,y,z
x,1/2-y,z
loop_
_atom_site_type_symbol
_atom_site_label
_atom_site_fract_x
_atom_site_fract_y
_atom_site_fract_z
Si Si1 0.353687 0.419112 0.606696
Si Si2 0.146395 0.427241 0.154575
Si Si3 0.851263 0.582380 0.577611
Si Si4 0.964685 0.077930 0.657044
Si Si5 0.855791 0.574079 0.738924
Si Si6 0.642835 0.574121 0.021998
Si Si7 0.476222 0.425987 0.069102
Si Si8 0.597917 0.426932 0.488654
O O1 0.250000 0.442233 0.627317
O O2 0.367849 0.250000 0.587446
O O3 0.424510 0.447715 0.650354
O O4 0.368781 0.533130 0.563822
O O5 0.250000 0.489426 0.142177
O O6 0.150515 0.250000 0.151075
O O7 0.118560 0.476007 0.207693
O O8 0.069321 0.487943 0.117771
O O9 0.750000 0.591619 0.602440
O O10 0.891710 0.750000 0.570174
O O11 0.919828 0.490243 0.610265
O O12 0.834750 0.499051 0.527774
O O13 0.936840 0.250000 0.660167
O O14 0.930482 0.000266 0.704621
O O15 0.750000 0.523516 0.726764
O O16 0.864552 0.750000 0.732910
O O17 0.750000 0.514720 0.024645
O O18 0.641912 0.750000 0.029600
O O19 0.577728 0.501004 0.062481
O O20 0.597361 0.529552 0.971782
O O21 0.492381 0.250000 0.070444
O O22 0.500000 0.500000 0.500000
O O23 0.595696 0.250000 0.494224
#
# Coordination Sequence:
#
# PCOD8245784 Si02
#       8
#     8   8   8   8   8   8   8   8
#     4  10  22  40  58  75  98 130 166 204 246 289
#     4   8  14  27  49  74  97 125 163 203 246 297
#     4  11  23  37  54  76 104 136 163 194 239 288
#     4  11  22  35  54  77 101 130 162 201 243 291
#     4   9  18  33  53  76 102 130 158 196 249 303
#     4   9  17  28  42  64  98 136 169 205 252 302
#     4   9  16  27  46  70  94 126 171 215 249 291
#     4  12  23  36  55  78 104 133 165 200 239 285
#
# _framework density 17.647224999999999
#
# number of rings (size 3 to 8) (size 9 to 14) (size 15 to 20)
#    0.000    2.125    1.250    3.750    0.000    6.750 
#    0.000    0.625    0.000    2.625    0.000    3.500 
#    0.000    0.000    0.000    0.000    0.000    0.000 
#
# Total GULP energy -793341.077125 kJ/mol
# GULP energy per Si atom -12395.954330 kJ/mol
# Density = 1.760706 g / cm^3
# Si number density = 17.647225 Si / 1000 Ang^3
#
#
#
# Elastic Constant Matrix: (Units=GPa)
#
#
# Indices 1 2 3 4 5 6 
#
# 1 139.5714 36.6518 65.0422 0.0000 0.0000 0.0000
# 2 36.6518 57.6316 37.1461 0.0000 0.0000 0.0000
# 3 65.0422 37.1461 111.5463 0.0000 0.0000 0.0000
# 4 0.0000 0.0000 0.0000 23.4504 0.0000 0.0000
# 5 0.0000 0.0000 0.0000 0.0000 29.5597 0.0000
# 6 0.0000 0.0000 0.0000 0.0000 0.0000 24.2633
#
#
#
# Elastic Compliance Matrix: (Units=1/GPa)
#
#
# Indices 1 2 3 4 5 6 
#
# 1 0.010343 -0.003426 -0.004890 0.000000 0.000000 0.000000
# 2 -0.003426 0.023229 -0.005738 0.000000 0.000000 0.000000
# 3 -0.004890 -0.005738 0.013727 0.000000 0.000000 0.000000
# 4 0.000000 0.000000 0.000000 0.042643 0.000000 0.000000
# 5 0.000000 0.000000 0.000000 0.000000 0.033830 0.000000
# 6 0.000000 0.000000 0.000000 0.000000 0.000000 0.041214
#
#
# Mechanical properties :
#
#
# Convention : Reuss Voigt Hill
#
# Bulk Modulus (GPa) = 52.10743 65.15883 58.63313
# Shear Modulus (GPa) = 25.06371 26.78197 25.92284
#
# Velocity S-wave (km/s) = 3.77273 3.89990 3.83684
# Velocity P-wave (km/s) = 6.96917 7.56850 7.27501
#
# Compressibility (1/GPa) = 0.01919112
#
# Stress axis : x y z
#
# Youngs Moduli (GPa) = 96.67970 43.05039 72.84861
#
# Poissons Ratio (x) = 0.14749 0.35625
# Poissons Ratio (y) = 0.33123 0.41798
# Poissons Ratio (z) = 0.47279 0.24701
#
# Static dielectric constant tensor:
#      x y z
#    x 3.487110 0.000000 0.000000 
#    y 0.000000 3.190000 0.000000 
#    z 0.000000 0.000000 3.326840 
# 
# 
# High freq. dielectric constant tensor:
#      x y z
#    x 1.686330 0.000000 0.000000 
#    y 0.000000 1.672720 0.000000 
#    z 0.000000 0.000000 1.661310 
# 
# From -- ./inp_files/33345.got.cif
#   From: 2010.03.12/outbox.cif.g09.slc.cpg/sg59_17_cif.got.tgz:33345.got - 2010.04.16 16:29:54.
