data_PCOD8245346
_publ_section_title
;
Structure prediction by ZEFSAII (Michael W. Deem and Ramdas Pophale) SiO2 
 PCOD8245346
Probable space group: P M M N
;
_chemical_formula_sum "Si O2"
_cell_formula_units_Z 48
_cell_length_a 20.168593
_cell_length_b 13.559270
_cell_length_c 9.074399
_cell_angle_alpha 90.000000
_cell_angle_beta 90.000000
_cell_angle_gamma 90.000000
_cell_volume 2481.588581
_symmetry_space_group_name_H-M "P M M N"
_symmetry_group_IT_number 59
_space_group.IT_coordinate_system_code '2'
_symmetry_cell_setting 'orthorhombic'
loop_
_space_group_symop_operation_xyz
x,y,z
1/2-x,1/2-y,z
1/2+x,-y,-z
-x,1/2+y,-z
-x,-y,-z
1/2+x,1/2+y,-z
1/2-x,y,z
x,1/2-y,z
loop_
_atom_site_type_symbol
_atom_site_label
_atom_site_fract_x
_atom_site_fract_y
_atom_site_fract_z
Si Si1 0.442470 0.364498 0.642604
Si Si2 0.826126 0.008647 0.325313
Si Si3 0.595366 0.138159 0.126128
Si Si4 0.464590 0.359417 0.302193
Si Si5 0.932712 0.442952 0.814927
Si Si6 0.674870 0.138362 0.607949
O O1 0.437705 0.250000 0.681261
O O2 0.371299 0.411537 0.678885
O O3 0.462939 0.383521 0.474662
O O4 0.497138 0.414292 0.745187
O O5 0.750000 0.974922 0.317147
O O6 0.840615 0.080272 0.186678
O O7 0.842289 0.066687 0.474598
O O8 0.615015 0.250000 0.083805
O O9 0.541053 0.136043 0.255150
O O10 0.565061 0.081069 0.986866
O O11 0.435025 0.250000 0.270064
O O12 0.421583 0.439810 0.212038
O O13 0.872521 0.382364 0.745108
O O14 0.750000 0.122871 0.662935
O O15 0.663530 0.250000 0.552505
#
# Coordination Sequence:
#
# PCOD8245346 Si02
#       6
#     8   8   8   8   8   8
#     4  11  22  38  62  90 116 154 203 251 295 347
#     4  11  23  40  59  83 118 160 199 245 298 349
#     4  11  23  37  58  90 123 156 193 240 297 360
#     4  10  21  37  60  89 120 153 193 243 298 349
#     4  12  21  39  61  91 123 155 195 243 299 352
#     4  10  21  37  59  86 117 153 195 244 298 355
#
# _framework density 19.342448999999998
#
# number of rings (size 3 to 8) (size 9 to 14) (size 15 to 20)
#    0.000    1.167    3.333    4.000    0.000    3.333 
#    0.000    0.000    0.000    0.500    0.000    0.000 
#    0.000    0.000    0.000    0.000    0.000    0.000 
#
# Total GULP energy -595406.214605 kJ/mol
# GULP energy per Si atom -12404.296138 kJ/mol
# Density = 1.929843 g / cm^3
# Si number density = 19.342449 Si / 1000 Ang^3
#
#
#
# Elastic Constant Matrix: (Units=GPa)
#
#
# Indices 1 2 3 4 5 6 
#
# 1 104.4763 42.7475 43.1562 0.0000 0.0000 0.0000
# 2 42.7475 119.4885 37.8517 0.0000 0.0000 0.0000
# 3 43.1562 37.8517 92.6191 0.0000 0.0000 0.0000
# 4 0.0000 0.0000 0.0000 29.7904 0.0000 0.0000
# 5 0.0000 0.0000 0.0000 0.0000 20.2993 0.0000
# 6 0.0000 0.0000 0.0000 0.0000 0.0000 23.6450
#
#
#
# Elastic Compliance Matrix: (Units=1/GPa)
#
#
# Indices 1 2 3 4 5 6 
#
# 1 0.012770 -0.003083 -0.004691 0.000000 0.000000 0.000000
# 2 -0.003083 0.010358 -0.002797 0.000000 0.000000 0.000000
# 3 -0.004691 -0.002797 0.014125 0.000000 0.000000 0.000000
# 4 0.000000 0.000000 0.000000 0.033568 0.000000 0.000000
# 5 0.000000 0.000000 0.000000 0.000000 0.049263 0.000000
# 6 0.000000 0.000000 0.000000 0.000000 0.000000 0.042292
#
#
# Mechanical properties :
#
#
# Convention : Reuss Voigt Hill
#
# Bulk Modulus (GPa) = 62.05880 62.67719 62.36800
# Shear Modulus (GPa) = 26.47076 27.60217 27.03646
#
# Velocity S-wave (km/s) = 3.70338 3.78170 3.74274
# Velocity P-wave (km/s) = 7.10216 7.17932 7.14084
#
# Compressibility (1/GPa) = 0.01611375
#
# Stress axis : x y z
#
# Youngs Moduli (GPa) = 78.30584 96.54557 70.79446
#
# Poissons Ratio (x) = 0.29763 0.33206
# Poissons Ratio (y) = 0.24140 0.19798
# Poissons Ratio (z) = 0.36730 0.27000
#
# Static dielectric constant tensor:
#      x y z
#    x 3.358660 0.000000 0.000000 
#    y 0.000000 3.852640 0.000000 
#    z 0.000000 0.000000 3.432930 
# 
# 
# High freq. dielectric constant tensor:
#      x y z
#    x 1.736080 0.000000 0.000000 
#    y 0.000000 1.768070 0.000000 
#    z 0.000000 0.000000 1.749480 
# 
# From -- ./inp_files/9004.got.cif
#   From: 2010.03.12/outbox.cif.g09.slc.cpg/sg59_5_cif.got.tgz:9004.got - 2010.04.16 16:29:54.
