data_PCOD8245445
_publ_section_title
;
Structure prediction by ZEFSAII (Michael W. Deem and Ramdas Pophale) SiO2 
 PCOD8245445
Probable space group: P M M N
;
_chemical_formula_sum "Si O2"
_cell_formula_units_Z 56
_cell_length_a 8.943049
_cell_length_b 14.730971
_cell_length_c 21.563372
_cell_angle_alpha 90.000000
_cell_angle_beta 90.000000
_cell_angle_gamma 90.000000
_cell_volume 2840.754217
_symmetry_space_group_name_H-M "P M M N"
_symmetry_group_IT_number 59
_space_group.IT_coordinate_system_code '2'
_symmetry_cell_setting 'orthorhombic'
loop_
_space_group_symop_operation_xyz
x,y,z
1/2-x,1/2-y,z
1/2+x,-y,-z
-x,1/2+y,-z
-x,-y,-z
1/2+x,1/2+y,-z
1/2-x,y,z
x,1/2-y,z
loop_
_atom_site_type_symbol
_atom_site_label
_atom_site_fract_x
_atom_site_fract_y
_atom_site_fract_z
Si Si1 0.073504 0.017857 0.844047
Si Si2 0.080507 0.856471 0.061429
Si Si3 0.072493 0.849721 0.922812
Si Si4 0.418156 0.357864 0.485555
Si Si5 0.073618 0.994044 0.285608
Si Si6 0.424806 0.853781 0.391067
Si Si7 0.074426 0.855268 0.638976
O O1 0.250000 0.017174 0.831950
O O2 0.033089 0.097589 0.891150
O O3 0.987210 0.035873 0.780678
O O4 0.015944 0.922531 0.872844
O O5 0.250000 0.893085 0.070851
O O6 0.076884 0.750000 0.074076
O O7 0.020883 0.877822 0.992005
O O8 0.250000 0.845360 0.923707
O O9 0.008393 0.750000 0.904952
O O10 0.250000 0.395604 0.480910
O O11 0.422020 0.250000 0.487148
O O12 0.493568 0.394589 0.548335
O O13 0.508324 0.392505 0.425746
O O14 0.250000 0.007759 0.282965
O O15 0.027516 0.914045 0.332645
O O16 0.998314 0.088791 0.305081
O O17 0.250000 0.859319 0.404646
O O18 0.473861 0.750000 0.377440
O O19 0.250000 0.871354 0.638375
O O20 0.033989 0.750000 0.649575
#
# Coordination Sequence:
#
# PCOD8245445 Si02
#       7
#     8   8   8   8   8   8   8
#     4  11  22  35  54  81 113 146 181 225 274 324
#     4   9  18  35  59  83 108 142 182 222 268 323
#     4   8  16  33  57  83 109 140 179 221 269 326
#     4   9  17  31  55  85 111 136 171 220 277 330
#     4  11  24  39  55  78 109 148 191 228 268 323
#     4   9  19  37  58  78 103 138 181 227 273 323
#     4  10  21  38  59  81 108 143 182 226 275 326
#
# _framework density 19.713073000000001
#
# number of rings (size 3 to 8) (size 9 to 14) (size 15 to 20)
#    0.000    2.429    0.000    3.000    0.000    5.714 
#    0.000    3.571    0.000    3.000    0.000    0.000 
#    0.000    0.000    0.000    0.000    0.000    0.000 
#
# Total GULP energy -694494.734689 kJ/mol
# GULP energy per Si atom -12401.691691 kJ/mol
# Density = 1.966821 g / cm^3
# Si number density = 19.713073 Si / 1000 Ang^3
#
#
#
# Elastic Constant Matrix: (Units=GPa)
#
#
# Indices 1 2 3 4 5 6 
#
# 1 59.3443 19.4943 18.2774 0.0000 0.0000 0.0000
# 2 19.4943 49.4879 16.9086 0.0000 0.0000 0.0000
# 3 18.2774 16.9086 77.7029 0.0000 0.0000 0.0000
# 4 0.0000 0.0000 0.0000 22.4696 0.0000 0.0000
# 5 0.0000 0.0000 0.0000 0.0000 29.2985 0.0000
# 6 0.0000 0.0000 0.0000 0.0000 0.0000 26.3456
#
#
#
# Elastic Compliance Matrix: (Units=1/GPa)
#
#
# Indices 1 2 3 4 5 6 
#
# 1 0.020085 -0.006803 -0.003244 0.000000 0.000000 0.000000
# 2 -0.006803 0.024135 -0.003652 0.000000 0.000000 0.000000
# 3 -0.003244 -0.003652 0.014427 0.000000 0.000000 0.000000
# 4 0.000000 0.000000 0.000000 0.044505 0.000000 0.000000
# 5 0.000000 0.000000 0.000000 0.000000 0.034131 0.000000
# 6 0.000000 0.000000 0.000000 0.000000 0.000000 0.037957
#
#
# Mechanical properties :
#
#
# Convention : Reuss Voigt Hill
#
# Bulk Modulus (GPa) = 32.00125 32.87732 32.43929
# Shear Modulus (GPa) = 23.46828 24.41307 23.94067
#
# Velocity S-wave (km/s) = 3.45410 3.52294 3.48869
# Velocity P-wave (km/s) = 5.67243 5.76734 5.72008
#
# Compressibility (1/GPa) = 0.03124878
#
# Stress axis : x y z
#
# Youngs Moduli (GPa) = 49.78881 41.43432 69.31371
#
# Poissons Ratio (x) = 0.28190 0.22485
# Poissons Ratio (y) = 0.33874 0.25310
# Poissons Ratio (z) = 0.16151 0.15130
#
# Static dielectric constant tensor:
#      x y z
#    x 3.495680 0.000000 0.000000 
#    y 0.000000 3.696240 0.000000 
#    z 0.000000 0.000000 3.608650 
# 
# 
# High freq. dielectric constant tensor:
#      x y z
#    x 1.757490 0.000000 0.000000 
#    y 0.000000 1.768710 0.000000 
#    z 0.000000 0.000000 1.768320 
# 
# From -- ./inp_files/29053.got.cif
#   From: 2010.03.12/outbox.cif.g09.slc.cpg/sg59_15_cif.got.tgz:29053.got - 2010.04.16 16:29:54.
