data_PCOD8245147
_publ_section_title
;
Structure prediction by ZEFSAII (Michael W. Deem and Ramdas Pophale) SiO2 
 PCOD8245147
Probable space group: P M M N
;
_chemical_formula_sum "Si O2"
_cell_formula_units_Z 64
_cell_length_a 15.242146
_cell_length_b 8.874697
_cell_length_c 24.033657
_cell_angle_alpha 90.000000
_cell_angle_beta 90.000000
_cell_angle_gamma 90.000000
_cell_volume 3251.019020
_symmetry_space_group_name_H-M "P M M N"
_symmetry_group_IT_number 59
_space_group.IT_coordinate_system_code '2'
_symmetry_cell_setting 'orthorhombic'
loop_
_space_group_symop_operation_xyz
x,y,z
1/2-x,1/2-y,z
1/2+x,-y,-z
-x,1/2+y,-z
-x,-y,-z
1/2+x,1/2+y,-z
1/2-x,y,z
x,1/2-y,z
loop_
_atom_site_type_symbol
_atom_site_label
_atom_site_fract_x
_atom_site_fract_y
_atom_site_fract_z
Si Si1 0.988222 0.429612 0.760217
Si Si2 0.155139 0.077537 0.572096
Si Si3 0.851880 0.572601 0.843739
Si Si4 0.414025 0.926686 0.474788
Si Si5 0.510368 0.426833 0.636426
Si Si6 0.354231 0.580561 0.042412
Si Si7 0.148522 0.572260 0.819242
Si Si8 0.853678 0.581527 0.066638
O O1 0.986660 0.250000 0.765516
O O2 0.968941 0.490297 0.697560
O O3 0.084903 0.488822 0.776129
O O4 0.910452 0.497697 0.796530
O O5 0.250000 0.061572 0.601421
O O6 0.130408 0.250000 0.560018
O O7 0.081623 0.005359 0.612575
O O8 0.163817 0.996782 0.511456
O O9 0.750000 0.531936 0.832652
O O10 0.867295 0.750000 0.843879
O O11 0.884258 0.508402 0.902779
O O12 0.415535 0.750000 0.483846
O O13 0.411694 0.963896 0.408151
O O14 0.500000 0.000000 0.500000
O O15 0.497458 0.250000 0.643183
O O16 0.250000 0.584048 0.038320
O O17 0.391937 0.750000 0.044811
O O18 0.393742 0.496127 0.988456
O O19 0.250000 0.528835 0.806413
O O20 0.134119 0.750000 0.815453
O O21 0.120120 0.518667 0.880540
O O22 0.750000 0.590973 0.060711
O O23 0.892909 0.750000 0.073132
#
# Coordination Sequence:
#
# PCOD8245147 Si02
#       8
#     8   8   8   8   8   8   8   8
#     4  11  22  37  58  81 106 141 188 234 273 319
#     4   9  17  31  52  79 110 140 171 211 259 310
#     4  10  21  38  58  79 106 140 178 224 279 336
#     4   9  16  30  51  73  99 130 165 204 248 298
#     4   8  17  33  52  74 101 138 179 216 258 310
#     4   9  16  28  50  79 107 136 173 219 274 333
#     4  10  21  37  55  77 110 149 185 224 272 326
#     4   9  16  28  49  77 107 140 179 221 269 327
#
# _framework density 19.686136000000001
#
# number of rings (size 3 to 8) (size 9 to 14) (size 15 to 20)
#    0.000    2.625    0.000    3.000    0.000    5.250 
#    0.000    8.750    0.000    3.750    0.000    0.000 
#    0.000    0.000    0.000    0.000    0.000    0.000 
#
# Total GULP energy -793121.467013 kJ/mol
# GULP energy per Si atom -12392.522922 kJ/mol
# Density = 1.964133 g / cm^3
# Si number density = 19.686136 Si / 1000 Ang^3
#
#
#
# Elastic Constant Matrix: (Units=GPa)
#
#
# Indices 1 2 3 4 5 6 
#
# 1 34.5097 13.0994 12.4396 0.0000 0.0000 0.0000
# 2 13.0994 92.6432 35.3337 0.0000 0.0000 0.0000
# 3 12.4396 35.3337 127.5904 0.0000 0.0000 0.0000
# 4 0.0000 0.0000 0.0000 27.9604 0.0000 0.0000
# 5 0.0000 0.0000 0.0000 0.0000 14.7930 0.0000
# 6 0.0000 0.0000 0.0000 0.0000 0.0000 23.6613
#
#
#
# Elastic Compliance Matrix: (Units=1/GPa)
#
#
# Indices 1 2 3 4 5 6 
#
# 1 0.031083 -0.003622 -0.002028 0.000000 0.000000 0.000000
# 2 -0.003622 0.012491 -0.003106 0.000000 0.000000 0.000000
# 3 -0.002028 -0.003106 0.008895 0.000000 0.000000 0.000000
# 4 0.000000 0.000000 0.000000 0.035765 0.000000 0.000000
# 5 0.000000 0.000000 0.000000 0.000000 0.067600 0.000000
# 6 0.000000 0.000000 0.000000 0.000000 0.000000 0.042263
#
#
# Mechanical properties :
#
#
# Convention : Reuss Voigt Hill
#
# Bulk Modulus (GPa) = 28.60514 41.83208 35.21861
# Shear Modulus (GPa) = 22.00121 26.20764 24.10442
#
# Velocity S-wave (km/s) = 3.34668 3.65262 3.50299
# Velocity P-wave (km/s) = 5.43101 6.25176 5.85578
#
# Compressibility (1/GPa) = 0.03495875
#
# Stress axis : x y z
#
# Youngs Moduli (GPa) = 32.17193 80.05888 112.41768
#
# Poissons Ratio (x) = 0.28995 0.22793
# Poissons Ratio (y) = 0.11652 0.34917
# Poissons Ratio (z) = 0.06523 0.24866
#
# Static dielectric constant tensor:
#      x y z
#    x 3.451460 0.000000 0.000000 
#    y 0.000000 3.746720 0.000000 
#    z 0.000000 0.000000 3.963660 
# 
# 
# High freq. dielectric constant tensor:
#      x y z
#    x 1.746140 0.000000 0.000000 
#    y 0.000000 1.765150 0.000000 
#    z 0.000000 0.000000 1.767290 
# 
# From -- ./inp_files/32326.got.cif
#   From: 2010.03.12/outbox.cif.g09.slc.cpg/sg59_17_cif.got.tgz:32326.got - 2010.04.16 16:29:54.
