data_PCOD8245174
_publ_section_title
;
Structure prediction by ZEFSAII (Michael W. Deem and Ramdas Pophale) SiO2 
 PCOD8245174
Probable space group: P M M N
;
_chemical_formula_sum "Si O2"
_cell_formula_units_Z 56
_cell_length_a 9.094368
_cell_length_b 13.602893
_cell_length_c 23.642202
_cell_angle_alpha 90.000000
_cell_angle_beta 90.000000
_cell_angle_gamma 90.000000
_cell_volume 2924.770067
_symmetry_space_group_name_H-M "P M M N"
_symmetry_group_IT_number 59
_space_group.IT_coordinate_system_code '2'
_symmetry_cell_setting 'orthorhombic'
loop_
_space_group_symop_operation_xyz
x,y,z
1/2-x,1/2-y,z
1/2+x,-y,-z
-x,1/2+y,-z
-x,-y,-z
1/2+x,1/2+y,-z
1/2-x,y,z
x,1/2-y,z
loop_
_atom_site_type_symbol
_atom_site_label
_atom_site_fract_x
_atom_site_fract_y
_atom_site_fract_z
Si Si1 0.922329 0.446188 0.418551
Si Si2 0.083095 0.867032 0.026246
Si Si3 0.078285 0.364479 0.860371
Si Si4 0.079254 0.140990 0.522405
Si Si5 0.076777 0.472906 0.197210
Si Si6 0.421251 0.865428 0.701441
Si Si7 0.579093 0.862640 0.916660
O O1 0.750000 0.429268 0.424097
O O2 0.967781 0.559730 0.431002
O O3 0.975157 0.417045 0.356211
O O4 0.995896 0.374369 0.463693
O O5 0.250000 0.905646 0.030159
O O6 0.075768 0.750000 0.023007
O O7 0.998566 0.902708 0.082168
O O8 0.006448 0.910916 0.969900
O O9 0.250000 0.387976 0.864350
O O10 0.048510 0.250000 0.849901
O O11 0.005180 0.421930 0.807531
O O12 0.250000 0.130001 0.508456
O O13 0.042213 0.250000 0.546098
O O14 0.250000 0.489139 0.203464
O O15 0.032796 0.414040 0.141060
O O16 0.019106 0.411752 0.249844
O O17 0.250000 0.886444 0.713388
O O18 0.453137 0.750000 0.697483
O O19 0.750000 0.874166 0.929936
O O20 0.533039 0.750000 0.909360
#
# Coordination Sequence:
#
# PCOD8245174 Si02
#       7
#     8   8   8   8   8   8   8
#     4   9  18  33  53  78 110 148 187 223 263 313
#     4   9  17  30  51  78 104 131 166 210 261 316
#     4  10  21  38  58  77 100 133 172 215 265 323
#     4   9  17  30  51  81 114 145 179 223 271 315
#     4  11  23  37  55  78 104 136 176 223 270 315
#     4  10  21  37  56  78 107 143 181 220 262 314
#     4   9  18  33  51  73 103 136 169 208 259 318
#
# _framework density 19.146803999999999
#
# number of rings (size 3 to 8) (size 9 to 14) (size 15 to 20)
#    0.000    2.429    0.000    2.143    0.000    6.571 
#    0.000    2.143    0.000    2.571    0.000    0.000 
#    0.000    0.000    0.000    0.000    0.000    0.000 
#
# Total GULP energy -694477.034425 kJ/mol
# GULP energy per Si atom -12401.375615 kJ/mol
# Density = 1.910322 g / cm^3
# Si number density = 19.146804 Si / 1000 Ang^3
#
#
#
# Elastic Constant Matrix: (Units=GPa)
#
#
# Indices 1 2 3 4 5 6 
#
# 1 84.5241 44.2992 56.8826 0.0000 0.0000 0.0000
# 2 44.2992 97.0162 68.2684 0.0000 0.0000 0.0000
# 3 56.8826 68.2684 121.9610 0.0000 0.0000 0.0000
# 4 0.0000 0.0000 0.0000 29.3737 0.0000 0.0000
# 5 0.0000 0.0000 0.0000 0.0000 33.9378 0.0000
# 6 0.0000 0.0000 0.0000 0.0000 0.0000 24.5959
#
#
#
# Elastic Compliance Matrix: (Units=1/GPa)
#
#
# Indices 1 2 3 4 5 6 
#
# 1 0.018065 -0.003828 -0.006283 0.000000 0.000000 0.000000
# 2 -0.003828 0.017817 -0.008188 0.000000 0.000000 0.000000
# 3 -0.006283 -0.008188 0.015713 0.000000 0.000000 0.000000
# 4 0.000000 0.000000 0.000000 0.034044 0.000000 0.000000
# 5 0.000000 0.000000 0.000000 0.000000 0.029466 0.000000
# 6 0.000000 0.000000 0.000000 0.000000 0.000000 0.040657
#
#
# Mechanical properties :
#
#
# Convention : Reuss Voigt Hill
#
# Bulk Modulus (GPa) = 66.67565 71.37796 69.02681
# Shear Modulus (GPa) = 25.33449 26.51822 25.92636
#
# Velocity S-wave (km/s) = 3.64149 3.72559 3.68378
# Velocity P-wave (km/s) = 7.25118 7.47442 7.36364
#
# Compressibility (1/GPa) = 0.01499798
#
# Stress axis : x y z
#
# Youngs Moduli (GPa) = 55.35436 56.12603 63.64114
#
# Poissons Ratio (x) = 0.21483 0.39987
# Poissons Ratio (y) = 0.21187 0.52109
# Poissons Ratio (z) = 0.34780 0.45956
#
# Static dielectric constant tensor:
#      x y z
#    x 3.474900 0.000000 0.000000 
#    y 0.000000 3.729270 0.000000 
#    z 0.000000 0.000000 3.433830 
# 
# 
# High freq. dielectric constant tensor:
#      x y z
#    x 1.744130 0.000000 0.000000 
#    y 0.000000 1.758700 0.000000 
#    z 0.000000 0.000000 1.727320 
# 
# From -- ./inp_files/29142.got.cif
#   From: 2010.03.12/outbox.cif.g09.slc.cpg/sg59_15_cif.got.tgz:29142.got - 2010.04.16 16:29:54.
