data_PCOD8245243
_publ_section_title
;
Structure prediction by ZEFSAII (Michael W. Deem and Ramdas Pophale) SiO2 
 PCOD8245243
Probable space group: P M M N
;
_chemical_formula_sum "Si O2"
_cell_formula_units_Z 64
_cell_length_a 28.469749
_cell_length_b 9.366913
_cell_length_c 12.101975
_cell_angle_alpha 90.000000
_cell_angle_beta 90.000000
_cell_angle_gamma 90.000000
_cell_volume 3227.277991
_symmetry_space_group_name_H-M "P M M N"
_symmetry_group_IT_number 59
_space_group.IT_coordinate_system_code '2'
_symmetry_cell_setting 'orthorhombic'
loop_
_space_group_symop_operation_xyz
x,y,z
1/2-x,1/2-y,z
1/2+x,-y,-z
-x,1/2+y,-z
-x,-y,-z
1/2+x,1/2+y,-z
1/2-x,y,z
x,1/2-y,z
loop_
_atom_site_type_symbol
_atom_site_label
_atom_site_fract_x
_atom_site_fract_y
_atom_site_fract_z
Si Si1 0.194118 0.911713 0.707759
Si Si2 0.435545 0.913505 0.026746
Si Si3 0.534763 0.917179 0.418978
Si Si4 0.696614 0.590725 0.688438
Si Si5 0.525734 0.582674 0.165109
Si Si6 0.858265 0.910813 0.467185
Si Si7 0.832549 0.415255 0.892792
Si Si8 0.696522 0.593702 0.093055
O O1 0.250000 0.918972 0.701213
O O2 0.176705 0.750000 0.721352
O O3 0.172971 0.976956 0.597774
O O4 0.172522 0.000178 0.810645
O O5 0.441858 0.750000 0.991171
O O6 0.475103 0.959077 0.115017
O O7 0.387490 0.941484 0.090430
O O8 0.436174 0.005110 0.913609
O O9 0.522980 0.750000 0.427231
O O10 0.528753 0.970558 0.291944
O O11 0.587195 0.951903 0.459503
O O12 0.500000 0.000000 0.500000
O O13 0.750000 0.565310 0.645718
O O14 0.692918 0.750000 0.741171
O O15 0.658773 0.577695 0.592040
O O16 0.682956 0.468302 0.773574
O O17 0.536188 0.750000 0.159655
O O18 0.850278 0.750000 0.421033
O O19 0.818750 0.250000 0.905843
O O20 0.803988 0.507849 0.979833
O O21 0.750000 0.617355 0.127089
O O22 0.671946 0.750000 0.083160
#
# Coordination Sequence:
#
# PCOD8245243 Si02
#       8
#     8   8   8   8   8   8   8   8
#     4  10  21  37  59  89 122 154 192 240 295 354
#     4   9  20  37  57  84 115 150 188 231 291 352
#     4  10  23  40  61  89 120 155 198 245 296 353
#     4  10  22  40  60  82 114 157 202 247 295 352
#     4   9  19  38  60  83 115 151 191 238 288 346
#     4  10  22  40  61  88 118 155 204 249 295 355
#     4  11  23  36  56  86 118 149 191 243 295 352
#     4  10  21  37  57  81 113 153 191 229 282 345
#
# _framework density 19.830953000000001
#
# number of rings (size 3 to 8) (size 9 to 14) (size 15 to 20)
#    0.000    2.125    0.000    1.875    3.500    6.250 
#    0.000    0.000    0.000    0.000    0.000    0.000 
#    0.000    0.000    0.000    0.000    0.000    0.000 
#
# Total GULP energy -793631.016517 kJ/mol
# GULP energy per Si atom -12400.484633 kJ/mol
# Density = 1.978582 g / cm^3
# Si number density = 19.830953 Si / 1000 Ang^3
#
#
#
# Elastic Constant Matrix: (Units=GPa)
#
#
# Indices 1 2 3 4 5 6 
#
# 1 59.0642 37.0889 37.2644 0.0000 0.0000 0.0000
# 2 37.0889 125.5102 62.7823 0.0000 0.0000 0.0000
# 3 37.2644 62.7823 120.4893 0.0000 0.0000 0.0000
# 4 0.0000 0.0000 0.0000 32.8564 0.0000 0.0000
# 5 0.0000 0.0000 0.0000 0.0000 14.0041 0.0000
# 6 0.0000 0.0000 0.0000 0.0000 0.0000 19.6562
#
#
#
# Elastic Compliance Matrix: (Units=1/GPa)
#
#
# Indices 1 2 3 4 5 6 
#
# 1 0.022638 -0.004311 -0.004755 0.000000 0.000000 0.000000
# 2 -0.004311 0.011597 -0.004710 0.000000 0.000000 0.000000
# 3 -0.004755 -0.004710 0.012224 0.000000 0.000000 0.000000
# 4 0.000000 0.000000 0.000000 0.030435 0.000000 0.000000
# 5 0.000000 0.000000 0.000000 0.000000 0.071408 0.000000
# 6 0.000000 0.000000 0.000000 0.000000 0.000000 0.050875
#
#
# Mechanical properties :
#
#
# Convention : Reuss Voigt Hill
#
# Bulk Modulus (GPa) = 52.88803 64.37054 58.62928
# Shear Modulus (GPa) = 21.45640 24.49855 22.97748
#
# Velocity S-wave (km/s) = 3.29289 3.51859 3.40761
# Velocity P-wave (km/s) = 6.41754 7.00267 6.71648
#
# Compressibility (1/GPa) = 0.01890787
#
# Stress axis : x y z
#
# Youngs Moduli (GPa) = 44.17392 86.22762 81.80595
#
# Poissons Ratio (x) = 0.37173 0.38899
# Poissons Ratio (y) = 0.19044 0.38527
# Poissons Ratio (z) = 0.21005 0.40609
#
# Static dielectric constant tensor:
#      x y z
#    x 3.691680 0.000000 0.000000 
#    y 0.000000 3.800600 0.000000 
#    z 0.000000 0.000000 3.579610 
# 
# 
# High freq. dielectric constant tensor:
#      x y z
#    x 1.772040 0.000000 0.000000 
#    y 0.000000 1.777630 0.000000 
#    z 0.000000 0.000000 1.772840 
# 
# From -- ./inp_files/19311.got.cif
#   From: 2010.03.12/outbox.cif.g09.slc.cpg/sg59_10_cif.got.tgz:19311.got - 2010.04.16 16:29:54.
