data_PCOD8245807
_publ_section_title
;
Structure prediction by ZEFSAII (Michael W. Deem and Ramdas Pophale) SiO2 
 PCOD8245807
Probable space group: P M M N
;
_chemical_formula_sum "Si O2"
_cell_formula_units_Z 56
_cell_length_a 20.578314
_cell_length_b 8.902168
_cell_length_c 15.190253
_cell_angle_alpha 90.000000
_cell_angle_beta 90.000000
_cell_angle_gamma 90.000000
_cell_volume 2782.726879
_symmetry_space_group_name_H-M "P M M N"
_symmetry_group_IT_number 59
_space_group.IT_coordinate_system_code '2'
_symmetry_cell_setting 'orthorhombic'
loop_
_space_group_symop_operation_xyz
x,y,z
1/2-x,1/2-y,z
1/2+x,-y,-z
-x,1/2+y,-z
-x,-y,-z
1/2+x,1/2+y,-z
1/2-x,y,z
x,1/2-y,z
loop_
_atom_site_type_symbol
_atom_site_label
_atom_site_fract_x
_atom_site_fract_y
_atom_site_fract_z
Si Si1 0.676810 0.578985 0.022513
Si Si2 0.056692 0.573711 0.058867
Si Si3 0.823034 0.412901 0.348246
Si Si4 0.322782 0.924456 0.447598
Si Si5 0.488975 0.076215 0.223101
Si Si6 0.615156 0.582227 0.201805
Si Si7 0.042468 0.427084 0.420652
O O1 0.750000 0.533013 0.996746
O O2 0.661738 0.750000 0.992607
O O3 0.670185 0.566096 0.128013
O O4 0.627571 0.464691 0.977754
O O5 0.044603 0.750000 0.056984
O O6 0.059561 0.516080 0.160135
O O7 0.000000 0.500000 0.000000
O O8 0.750000 0.398389 0.315202
O O9 0.857718 0.250000 0.331292
O O10 0.825935 0.453476 0.449430
O O11 0.856009 0.548553 0.297331
O O12 0.250000 0.974131 0.413669
O O13 0.333535 0.750000 0.424412
O O14 0.382543 0.020397 0.410087
O O15 0.472373 0.250000 0.212299
O O16 0.488031 0.028477 0.326034
O O17 0.559188 0.038060 0.182425
O O18 0.585519 0.750000 0.203047
O O19 0.040845 0.250000 0.436898
O O20 0.000000 0.500000 0.500000
#
# Coordination Sequence:
#
# PCOD8245807 Si02
#       7
#     8   8   8   8   8   8   8
#     4  10  22  40  61  88 125 164 202 251 309 363
#     4  12  24  41  66  93 121 159 206 252 301 362
#     4   9  18  32  50  75 111 154 196 240 297 365
#     4   9  19  37  59  82 113 157 205 255 313 370
#     4  11  24  41  61  87 119 160 206 252 307 368
#     4  11  21  33  54  85 118 154 196 245 303 365
#     4  11  24  40  61  91 126 163 207 259 313 369
#
# _framework density 20.124144999999999
#
# number of rings (size 3 to 8) (size 9 to 14) (size 15 to 20)
#    0.000    1.571    1.429    4.714    0.000    8.286 
#    0.000    2.143    0.000    0.857    0.000    0.000 
#    0.000    0.000    0.000    0.000    0.000    0.000 
#
# Total GULP energy -694059.020187 kJ/mol
# GULP energy per Si atom -12393.911075 kJ/mol
# Density = 2.007834 g / cm^3
# Si number density = 20.124145 Si / 1000 Ang^3
#
#
#
# Elastic Constant Matrix: (Units=GPa)
#
#
# Indices 1 2 3 4 5 6 
#
# 1 106.7058 45.0353 33.9259 0.0000 0.0000 0.0000
# 2 45.0353 107.3438 55.8251 0.0000 0.0000 0.0000
# 3 33.9259 55.8251 87.5456 0.0000 0.0000 0.0000
# 4 0.0000 0.0000 0.0000 15.2326 0.0000 0.0000
# 5 0.0000 0.0000 0.0000 0.0000 30.3916 0.0000
# 6 0.0000 0.0000 0.0000 0.0000 0.0000 35.2394
#
#
#
# Elastic Compliance Matrix: (Units=1/GPa)
#
#
# Indices 1 2 3 4 5 6 
#
# 1 0.011638 -0.003796 -0.002089 0.000000 0.000000 0.000000
# 2 -0.003796 0.015176 -0.008206 0.000000 0.000000 0.000000
# 3 -0.002089 -0.008206 0.017465 0.000000 0.000000 0.000000
# 4 0.000000 0.000000 0.000000 0.065649 0.000000 0.000000
# 5 0.000000 0.000000 0.000000 0.000000 0.032904 0.000000
# 6 0.000000 0.000000 0.000000 0.000000 0.000000 0.028377
#
#
# Mechanical properties :
#
#
# Convention : Reuss Voigt Hill
#
# Bulk Modulus (GPa) = 62.12753 63.46309 62.79531
# Shear Modulus (GPa) = 24.41905 27.29331 25.85618
#
# Velocity S-wave (km/s) = 3.48720 3.68672 3.58835
# Velocity P-wave (km/s) = 6.86682 7.05172 6.95989
#
# Compressibility (1/GPa) = 0.01609592
#
# Stress axis : x y z
#
# Youngs Moduli (GPa) = 85.92560 65.89238 57.25657
#
# Poissons Ratio (x) = 0.25013 0.11963
# Poissons Ratio (y) = 0.32618 0.46987
# Poissons Ratio (z) = 0.17953 0.54074
#
# Static dielectric constant tensor:
#      x y z
#    x 3.930040 0.000000 0.000000 
#    y 0.000000 3.666450 0.000000 
#    z 0.000000 0.000000 3.712200 
# 
# 
# High freq. dielectric constant tensor:
#      x y z
#    x 1.786140 0.000000 0.000000 
#    y 0.000000 1.784540 0.000000 
#    z 0.000000 0.000000 1.775130 
# 
# From -- ./inp_files/24278.got.cif
#   From: 2010.03.12/outbox.cif.g09.slc.cpg/sg59_13_cif.got.tgz:24278.got - 2010.04.16 16:29:54.
