data_PCOD8245332
_publ_section_title
;
Structure prediction by ZEFSAII (Michael W. Deem and Ramdas Pophale) SiO2 
 PCOD8245332
Probable space group: P M M N
;
_chemical_formula_sum "Si O2"
_cell_formula_units_Z 56
_cell_length_a 8.781407
_cell_length_b 22.452444
_cell_length_c 14.177985
_cell_angle_alpha 90.000000
_cell_angle_beta 90.000000
_cell_angle_gamma 90.000000
_cell_volume 2795.388928
_symmetry_space_group_name_H-M "P M M N"
_symmetry_group_IT_number 59
_space_group.IT_coordinate_system_code '2'
_symmetry_cell_setting 'orthorhombic'
loop_
_space_group_symop_operation_xyz
x,y,z
1/2-x,1/2-y,z
1/2+x,-y,-z
-x,1/2+y,-z
-x,-y,-z
1/2+x,1/2+y,-z
1/2-x,y,z
x,1/2-y,z
loop_
_atom_site_type_symbol
_atom_site_label
_atom_site_fract_x
_atom_site_fract_y
_atom_site_fract_z
Si Si1 0.430400 0.124087 0.202037
Si Si2 0.573860 0.456540 0.359480
Si Si3 0.576853 0.923079 0.452840
Si Si4 0.571877 0.359820 0.862856
Si Si5 0.929580 0.250000 0.981647
Si Si6 0.576893 0.682162 0.319538
Si Si7 0.072193 0.436576 0.008125
Si Si8 0.068233 0.750000 0.808138
O O1 0.250000 0.132073 0.204059
O O2 0.476019 0.072354 0.275680
O O3 0.488360 0.102762 0.097724
O O4 0.504512 0.187633 0.234396
O O5 0.750000 0.445947 0.335289
O O6 0.535443 0.425648 0.458914
O O7 0.535973 0.527174 0.372677
O O8 0.750000 0.934918 0.486900
O O9 0.559045 0.856530 0.413513
O O10 0.750000 0.372697 0.875380
O O11 0.509965 0.305594 0.924571
O O12 0.537122 0.347074 0.754711
O O13 0.473028 0.412565 0.905272
O O14 0.750000 0.250000 0.987052
O O15 0.997059 0.250000 0.085834
O O16 0.750000 0.679241 0.281530
O O17 0.528839 0.750000 0.342188
O O18 0.250000 0.443260 0.019182
O O19 0.000000 0.500000 0.000000
O O20 0.250000 0.750000 0.798398
#
# Coordination Sequence:
#
# PCOD8245332 Si02
#       8
#     8   8   8   8   4   8   8   4
#     4  11  24  41  61  89 122 158 201 248 300 359
#     4  10  21  39  64  90 115 153 201 249 305 365
#     4   9  20  40  63  87 117 154 198 251 307 363
#     4  11  21  37  58  84 117 156 198 241 291 347
#     4   9  18  33  55  80 111 152 193 235 284 336
#     4  10  21  37  58  88 122 159 201 247 302 362
#     4  11  25  41  58  86 121 159 202 248 297 348
#     4  11  21  39  63  86 117 158 203 247 298 358
#
# _framework density 20.032990000000002
#
# number of rings (size 3 to 8) (size 9 to 14) (size 15 to 20)
#    0.000    1.714    2.143    1.929    2.000    2.857 
#    1.286    0.000    0.000    0.000    0.000    0.000 
#    0.000    0.000    0.000    0.000    0.000    0.000 
#
# Total GULP energy -694189.569254 kJ/mol
# GULP energy per Si atom -12396.242308 kJ/mol
# Density = 1.998739 g / cm^3
# Si number density = 20.032990 Si / 1000 Ang^3
#
#
#
# Elastic Constant Matrix: (Units=GPa)
#
#
# Indices 1 2 3 4 5 6 
#
# 1 69.6138 37.3021 23.6059 0.0000 0.0000 0.0000
# 2 37.3021 127.1925 33.6430 0.0000 0.0000 0.0000
# 3 23.6059 33.6430 60.8972 0.0000 0.0000 0.0000
# 4 0.0000 0.0000 0.0000 21.4656 0.0000 0.0000
# 5 0.0000 0.0000 0.0000 0.0000 33.5146 0.0000
# 6 0.0000 0.0000 0.0000 0.0000 0.0000 29.6721
#
#
#
# Elastic Compliance Matrix: (Units=1/GPa)
#
#
# Indices 1 2 3 4 5 6 
#
# 1 0.018167 -0.004058 -0.004800 0.000000 0.000000 0.000000
# 2 -0.004058 0.010114 -0.004014 0.000000 0.000000 0.000000
# 3 -0.004800 -0.004014 0.020500 0.000000 0.000000 0.000000
# 4 0.000000 0.000000 0.000000 0.046586 0.000000 0.000000
# 5 0.000000 0.000000 0.000000 0.000000 0.029838 0.000000
# 6 0.000000 0.000000 0.000000 0.000000 0.000000 0.033702
#
#
# Mechanical properties :
#
#
# Convention : Reuss Voigt Hill
#
# Bulk Modulus (GPa) = 43.41206 49.64507 46.52857
# Shear Modulus (GPa) = 25.99684 27.80730 26.90207
#
# Velocity S-wave (km/s) = 3.60627 3.72973 3.66852
# Velocity P-wave (km/s) = 6.24961 6.58660 6.42031
#
# Compressibility (1/GPa) = 0.02303507
#
# Stress axis : x y z
#
# Youngs Moduli (GPa) = 55.04388 98.87158 48.78124
#
# Poissons Ratio (x) = 0.40125 0.23416
# Poissons Ratio (y) = 0.22338 0.19583
# Poissons Ratio (z) = 0.26423 0.39692
#
# Static dielectric constant tensor:
#      x y z
#    x 3.586400 0.000000 0.000000 
#    y 0.000000 3.797950 0.000000 
#    z 0.000000 0.000000 3.479580 
# 
# 
# High freq. dielectric constant tensor:
#      x y z
#    x 1.778450 0.000000 0.000000 
#    y 0.000000 1.795160 0.000000 
#    z 0.000000 0.000000 1.766720 
# 
# From -- ./inp_files/21094.got.cif
#   From: 2010.03.12/outbox.cif.g09.slc.cpg/sg59_11_cif.got.tgz:21094.got - 2010.04.16 16:29:54.
