data_PCOD8245168
_publ_section_title
;
Structure prediction by ZEFSAII (Michael W. Deem and Ramdas Pophale) SiO2 
 PCOD8245168
Probable space group: P M M N
;
_chemical_formula_sum "Si O2"
_cell_formula_units_Z 56
_cell_length_a 19.450363
_cell_length_b 8.876379
_cell_length_c 16.219226
_cell_angle_alpha 90.000000
_cell_angle_beta 90.000000
_cell_angle_gamma 90.000000
_cell_volume 2800.229803
_symmetry_space_group_name_H-M "P M M N"
_symmetry_group_IT_number 59
_space_group.IT_coordinate_system_code '2'
_symmetry_cell_setting 'orthorhombic'
loop_
_space_group_symop_operation_xyz
x,y,z
1/2-x,1/2-y,z
1/2+x,-y,-z
-x,1/2+y,-z
-x,-y,-z
1/2+x,1/2+y,-z
1/2-x,y,z
x,1/2-y,z
loop_
_atom_site_type_symbol
_atom_site_label
_atom_site_fract_x
_atom_site_fract_y
_atom_site_fract_z
Si Si1 0.327334 0.072402 0.845958
Si Si2 0.454387 0.572147 0.571746
Si Si3 0.591268 0.074464 0.826496
Si Si4 0.671211 0.426695 0.982447
Si Si5 0.454766 0.425671 0.742076
Si Si6 0.829797 0.078306 0.669691
Si Si7 0.828828 0.574107 0.500505
O O1 0.250000 0.020307 0.821336
O O2 0.331231 0.250000 0.856358
O O3 0.380456 0.019429 0.775220
O O4 0.350449 0.002674 0.932315
O O5 0.500000 0.500000 0.500000
O O6 0.460778 0.750000 0.565558
O O7 0.478442 0.517693 0.661753
O O8 0.375451 0.518927 0.562779
O O9 0.609160 0.250000 0.828917
O O10 0.621246 0.005048 0.911300
O O11 0.510073 0.043871 0.815196
O O12 0.630644 0.007339 0.747322
O O13 0.750000 0.465336 0.959289
O O14 0.660558 0.250000 0.993820
O O15 0.453644 0.250000 0.718174
O O16 0.750000 0.073052 0.690845
O O17 0.853333 0.250000 0.649853
O O18 0.848621 0.973696 0.592746
O O19 0.750000 0.533940 0.480479
O O20 0.843704 0.750000 0.489685
#
# Coordination Sequence:
#
# PCOD8245168 Si02
#       7
#     8   8   8   8   8   8   8
#     4   9  19  36  55  76 106 143 181 222 270 322
#     4  12  25  41  61  84 113 148 188 233 282 339
#     4   9  17  30  50  76 105 137 176 221 268 323
#     4   9  17  31  53  79 106 138 176 217 263 318
#     4  10  21  37  56  78 105 141 182 224 275 329
#     4   9  16  28  49  76 106 140 177 219 271 330
#     4  10  21  37  57  82 112 145 184 232 285 338
#
# _framework density 19.998359000000001
#
# number of rings (size 3 to 8) (size 9 to 14) (size 15 to 20)
#    0.000    2.286    0.000    3.000    0.000    5.429 
#    0.000    2.857    0.000    3.429    0.000    0.000 
#    0.000    0.000    0.000    0.000    0.000    0.000 
#
# Total GULP energy -694401.069296 kJ/mol
# GULP energy per Si atom -12400.019095 kJ/mol
# Density = 1.995284 g / cm^3
# Si number density = 19.998359 Si / 1000 Ang^3
#
#
#
# Elastic Constant Matrix: (Units=GPa)
#
#
# Indices 1 2 3 4 5 6 
#
# 1 92.4417 32.0726 55.1733 0.0000 0.0000 0.0000
# 2 32.0726 64.0151 36.2269 0.0000 0.0000 0.0000
# 3 55.1733 36.2269 107.5759 0.0000 0.0000 0.0000
# 4 0.0000 0.0000 0.0000 31.4260 0.0000 0.0000
# 5 0.0000 0.0000 0.0000 0.0000 38.6124 0.0000
# 6 0.0000 0.0000 0.0000 0.0000 0.0000 21.4930
#
#
#
# Elastic Compliance Matrix: (Units=1/GPa)
#
#
# Indices 1 2 3 4 5 6 
#
# 1 0.016493 -0.004295 -0.007013 0.000000 0.000000 0.000000
# 2 -0.004295 0.020418 -0.004673 0.000000 0.000000 0.000000
# 3 -0.007013 -0.004673 0.014466 0.000000 0.000000 0.000000
# 4 0.000000 0.000000 0.000000 0.031821 0.000000 0.000000
# 5 0.000000 0.000000 0.000000 0.000000 0.025898 0.000000
# 6 0.000000 0.000000 0.000000 0.000000 0.000000 0.046527
#
#
# Mechanical properties :
#
#
# Convention : Reuss Voigt Hill
#
# Bulk Modulus (GPa) = 51.50442 56.77537 54.13989
# Shear Modulus (GPa) = 25.76577 27.67695 26.72136
#
# Velocity S-wave (km/s) = 3.59331 3.72420 3.65934
# Velocity P-wave (km/s) = 6.55943 6.85161 6.70711
#
# Compressibility (1/GPa) = 0.01941581
#
# Stress axis : x y z
#
# Youngs Moduli (GPa) = 60.63110 48.97728 69.12717
#
# Poissons Ratio (x) = 0.21035 0.48477
# Poissons Ratio (y) = 0.26040 0.32304
# Poissons Ratio (z) = 0.42519 0.22887
#
# Static dielectric constant tensor:
#      x y z
#    x 3.871100 0.000000 0.000000 
#    y 0.000000 3.416700 0.000000 
#    z 0.000000 0.000000 3.643830 
# 
# 
# High freq. dielectric constant tensor:
#      x y z
#    x 1.790870 0.000000 0.000000 
#    y 0.000000 1.752760 0.000000 
#    z 0.000000 0.000000 1.777260 
# 
# From -- ./inp_files/24246.got.cif
#   From: 2010.03.12/outbox.cif.g09.slc.cpg/sg59_13_cif.got.tgz:24246.got - 2010.04.16 16:29:54.
