data_PCOD8245556
_publ_section_title
;
Structure prediction by ZEFSAII (Michael W. Deem and Ramdas Pophale) SiO2 
 PCOD8245556
Probable space group: P M M N
;
_chemical_formula_sum "Si O2"
_cell_formula_units_Z 56
_cell_length_a 8.915494
_cell_length_b 15.349987
_cell_length_c 19.370503
_cell_angle_alpha 90.000000
_cell_angle_beta 90.000000
_cell_angle_gamma 90.000000
_cell_volume 2650.905965
_symmetry_space_group_name_H-M "P M M N"
_symmetry_group_IT_number 59
_space_group.IT_coordinate_system_code '2'
_symmetry_cell_setting 'orthorhombic'
loop_
_space_group_symop_operation_xyz
x,y,z
1/2-x,1/2-y,z
1/2+x,-y,-z
-x,1/2+y,-z
-x,-y,-z
1/2+x,1/2+y,-z
1/2-x,y,z
x,1/2-y,z
loop_
_atom_site_type_symbol
_atom_site_label
_atom_site_fract_x
_atom_site_fract_y
_atom_site_fract_z
Si Si1 0.087966 0.153373 0.442226
Si Si2 0.925561 0.651057 0.323350
Si Si3 0.576189 0.072816 0.549734
Si Si4 0.074257 0.350726 0.834974
Si Si5 0.571935 0.500411 0.925397
Si Si6 0.921151 0.647690 0.705647
Si Si7 0.924135 0.147658 0.159703
O O1 0.250000 0.114406 0.467501
O O2 0.117855 0.250000 0.417375
O O3 0.039208 0.105304 0.370207
O O4 0.964707 0.156460 0.503014
O O5 0.750000 0.642170 0.336478
O O6 0.977181 0.750000 0.339635
O O7 0.966618 0.628080 0.244581
O O8 0.009385 0.583584 0.373891
O O9 0.750000 0.056851 0.557518
O O10 0.500000 0.000000 0.500000
O O11 0.250000 0.366015 0.847782
O O12 0.032549 0.250000 0.851938
O O13 0.981556 0.415860 0.882845
O O14 0.750000 0.497234 0.930879
O O15 0.522026 0.592096 0.893038
O O16 0.500000 0.500000 0.000000
O O17 0.750000 0.624288 0.725204
O O18 0.948078 0.750000 0.704771
O O19 0.032899 0.611469 0.764019
O O20 0.750000 0.128883 0.147061
O O21 0.962311 0.250000 0.149709
#
# Coordination Sequence:
#
# PCOD8245556 Si02
#       7
#     8   8   8   8   8   8   8
#     4   9  18  34  55  77 105 142 182 227 280 337
#     4   9  19  39  66  91 117 153 197 248 308 371
#     4  12  25  37  51  75 110 151 196 247 300 353
#     4   9  20  42  71  99 127 162 205 255 313 376
#     4  12  26  43  65  93 127 164 201 246 299 361
#     4   8  15  30  53  80 109 144 186 228 275 336
#     4  10  21  38  61  89 122 160 202 248 297 355
#
# _framework density 21.124853000000002
#
# number of rings (size 3 to 8) (size 9 to 14) (size 15 to 20)
#    0.000    2.143    0.000    5.143    0.000    6.286 
#    0.000    2.857    0.000    0.000    0.000    0.000 
#    0.000    0.000    0.000    0.000    0.000    0.000 
#
# Total GULP energy -693744.192178 kJ/mol
# GULP energy per Si atom -12388.289146 kJ/mol
# Density = 2.107677 g / cm^3
# Si number density = 21.124853 Si / 1000 Ang^3
#
#
#
# Elastic Constant Matrix: (Units=GPa)
#
#
# Indices 1 2 3 4 5 6 
#
# 1 125.9175 47.2922 72.6492 0.0000 0.0000 0.0000
# 2 47.2922 82.8687 50.3156 0.0000 0.0000 0.0000
# 3 72.6492 50.3156 141.2079 0.0000 0.0000 0.0000
# 4 0.0000 0.0000 0.0000 26.8440 0.0000 0.0000
# 5 0.0000 0.0000 0.0000 0.0000 41.5115 0.0000
# 6 0.0000 0.0000 0.0000 0.0000 0.0000 28.5492
#
#
#
# Elastic Compliance Matrix: (Units=1/GPa)
#
#
# Indices 1 2 3 4 5 6 
#
# 1 0.012272 -0.004045 -0.004872 0.000000 0.000000 0.000000
# 2 -0.004045 0.016732 -0.003881 0.000000 0.000000 0.000000
# 3 -0.004872 -0.003881 0.010971 0.000000 0.000000 0.000000
# 4 0.000000 0.000000 0.000000 0.037252 0.000000 0.000000
# 5 0.000000 0.000000 0.000000 0.000000 0.024090 0.000000
# 6 0.000000 0.000000 0.000000 0.000000 0.000000 0.035027
#
#
# Mechanical properties :
#
#
# Convention : Reuss Voigt Hill
#
# Bulk Modulus (GPa) = 69.54708 76.72313 73.13511
# Shear Modulus (GPa) = 29.98771 31.36342 30.67556
#
# Velocity S-wave (km/s) = 3.77177 3.85732 3.81479
# Velocity P-wave (km/s) = 7.20845 7.49909 7.35520
#
# Compressibility (1/GPa) = 0.01437875
#
# Stress axis : x y z
#
# Youngs Moduli (GPa) = 81.48495 59.76511 91.14606
#
# Poissons Ratio (x) = 0.24176 0.44411
# Poissons Ratio (y) = 0.32962 0.35373
# Poissons Ratio (z) = 0.39703 0.23194
#
# Static dielectric constant tensor:
#      x y z
#    x 12.670150 0.000000 0.000000 
#    y 0.000000 5.633870 0.000000 
#    z 0.000000 0.000000 5.079140 
# 
# 
# High freq. dielectric constant tensor:
#      x y z
#    x 1.817240 0.000000 0.000000 
#    y 0.000000 1.829950 0.000000 
#    z 0.000000 0.000000 1.836760 
# 
# From -- ./inp_files/29153.got.cif
#   From: 2010.03.12/outbox.cif.g09.slc.cpg/sg59_15_cif.got.tgz:29153.got - 2010.04.16 16:29:54.
