data_PCOD8245823
_publ_section_title
;
Structure prediction by ZEFSAII (Michael W. Deem and Ramdas Pophale) SiO2 
 PCOD8245823
Probable space group: P M M N
;
_chemical_formula_sum "Si O2"
_cell_formula_units_Z 56
_cell_length_a 8.671906
_cell_length_b 20.739096
_cell_length_c 15.248246
_cell_angle_alpha 90.000000
_cell_angle_beta 90.000000
_cell_angle_gamma 90.000000
_cell_volume 2742.358786
_symmetry_space_group_name_H-M "P M M N"
_symmetry_group_IT_number 59
_space_group.IT_coordinate_system_code '2'
_symmetry_cell_setting 'orthorhombic'
loop_
_space_group_symop_operation_xyz
x,y,z
1/2-x,1/2-y,z
1/2+x,-y,-z
-x,1/2+y,-z
-x,-y,-z
1/2+x,1/2+y,-z
1/2-x,y,z
x,1/2-y,z
loop_
_atom_site_type_symbol
_atom_site_label
_atom_site_fract_x
_atom_site_fract_y
_atom_site_fract_z
Si Si1 0.580677 0.822571 0.351840
Si Si2 0.071718 0.509783 0.769873
Si Si3 0.573121 0.322535 0.979427
Si Si4 0.569950 0.555678 0.938056
Si Si5 0.077312 0.884106 0.198604
Si Si6 0.067637 0.320087 0.449823
Si Si7 0.566358 0.538074 0.584761
O O1 0.750000 0.856845 0.343340
O O2 0.600872 0.750000 0.320410
O O3 0.450696 0.855211 0.293923
O O4 0.517469 0.826338 0.449760
O O5 0.250000 0.525281 0.756106
O O6 0.999293 0.559490 0.839403
O O7 0.044653 0.441181 0.817469
O O8 0.988770 0.506394 0.675277
O O9 0.750000 0.335832 0.007243
O O10 0.523439 0.250000 0.005263
O O11 0.554250 0.329678 0.874731
O O12 0.461716 0.373290 0.025300
O O13 0.750000 0.542178 0.932606
O O14 0.500000 0.500000 0.000000
O O15 0.250000 0.912830 0.195139
O O16 0.250000 0.316666 0.442050
O O17 0.002885 0.250000 0.412767
O O18 0.007579 0.386771 0.406611
O O19 0.500000 0.500000 0.500000
O O20 0.750000 0.535383 0.576729
#
# Coordination Sequence:
#
# PCOD8245823 Si02
#       7
#     8   8   8   8   8   8   8
#     4   9  17  30  50  78 114 155 198 243 299 372
#     4  12  25  41  62  88 120 163 210 260 316 378
#     4  10  22  40  62  90 127 167 205 255 317 375
#     4  12  24  42  67  94 123 162 210 258 311 375
#     4  11  21  34  55  84 119 157 200 251 309 375
#     4   8  16  33  56  80 109 152 202 251 305 361
#     4  11  22  38  62  93 128 164 207 263 318 377
#
# _framework density 20.420376000000001
#
# number of rings (size 3 to 8) (size 9 to 14) (size 15 to 20)
#    0.000    1.571    1.429    5.571    0.000    2.857 
#    0.000    1.429    0.000    6.000    0.000    0.000 
#    0.000    0.000    0.000    0.000    0.000    0.000 
#
# Total GULP energy -693949.851189 kJ/mol
# GULP energy per Si atom -12391.961628 kJ/mol
# Density = 2.037390 g / cm^3
# Si number density = 20.420376 Si / 1000 Ang^3
#
#
#
# Elastic Constant Matrix: (Units=GPa)
#
#
# Indices 1 2 3 4 5 6 
#
# 1 94.9343 33.9173 37.4037 0.0000 0.0000 0.0000
# 2 33.9173 110.2841 30.3779 0.0000 0.0000 0.0000
# 3 37.4037 30.3779 88.2311 0.0000 0.0000 0.0000
# 4 0.0000 0.0000 0.0000 25.6594 0.0000 0.0000
# 5 0.0000 0.0000 0.0000 0.0000 25.0194 0.0000
# 6 0.0000 0.0000 0.0000 0.0000 0.0000 27.2264
#
#
#
# Elastic Compliance Matrix: (Units=1/GPa)
#
#
# Indices 1 2 3 4 5 6 
#
# 1 0.013397 -0.002824 -0.004707 0.000000 0.000000 0.000000
# 2 -0.002824 0.010613 -0.002457 0.000000 0.000000 0.000000
# 3 -0.004707 -0.002457 0.014175 0.000000 0.000000 0.000000
# 4 0.000000 0.000000 0.000000 0.038972 0.000000 0.000000
# 5 0.000000 0.000000 0.000000 0.000000 0.039969 0.000000
# 6 0.000000 0.000000 0.000000 0.000000 0.000000 0.036729
#
#
# Mechanical properties :
#
#
# Convention : Reuss Voigt Hill
#
# Bulk Modulus (GPa) = 54.91635 55.20526 55.06081
# Shear Modulus (GPa) = 27.79314 28.36439 28.07877
#
# Velocity S-wave (km/s) = 3.69324 3.73100 3.71217
# Velocity P-wave (km/s) = 6.71848 6.75675 6.73764
#
# Compressibility (1/GPa) = 0.01820951
#
# Stress axis : x y z
#
# Youngs Moduli (GPa) = 74.64355 94.22736 70.54514
#
# Poissons Ratio (x) = 0.26606 0.33207
# Poissons Ratio (y) = 0.21076 0.17332
# Poissons Ratio (z) = 0.35136 0.23151
#
# Static dielectric constant tensor:
#      x y z
#    x 3.581380 0.000000 0.000000 
#    y 0.000000 4.213810 0.000000 
#    z 0.000000 0.000000 3.673020 
# 
# 
# High freq. dielectric constant tensor:
#      x y z
#    x 1.783410 0.000000 0.000000 
#    y 0.000000 1.803880 0.000000 
#    z 0.000000 0.000000 1.785800 
# 
# From -- ./inp_files/20967.got.cif
#   From: 2010.03.12/outbox.cif.g09.slc.cpg/sg59_11_cif.got.tgz:20967.got - 2010.04.16 16:29:54.
