data_PCOD8245430
_publ_section_title
;
Structure prediction by ZEFSAII (Michael W. Deem and Ramdas Pophale) SiO2 
 PCOD8245430
Probable space group: P M M N
;
_chemical_formula_sum "Si O2"
_cell_formula_units_Z 40
_cell_length_a 25.378640
_cell_length_b 8.731137
_cell_length_c 9.612350
_cell_angle_alpha 90.000000
_cell_angle_beta 90.000000
_cell_angle_gamma 90.000000
_cell_volume 2129.946641
_symmetry_space_group_name_H-M "P M M N"
_symmetry_group_IT_number 59
_space_group.IT_coordinate_system_code '2'
_symmetry_cell_setting 'orthorhombic'
loop_
_space_group_symop_operation_xyz
x,y,z
1/2-x,1/2-y,z
1/2+x,-y,-z
-x,1/2+y,-z
-x,-y,-z
1/2+x,1/2+y,-z
1/2-x,y,z
x,1/2-y,z
loop_
_atom_site_type_symbol
_atom_site_label
_atom_site_fract_x
_atom_site_fract_y
_atom_site_fract_z
Si Si1 0.659118 0.068176 0.902029
Si Si2 0.543393 0.923495 0.592931
Si Si3 0.340078 0.067160 0.393480
Si Si4 0.453840 0.073305 0.087754
Si Si5 0.750000 0.568830 0.402086
Si Si6 0.750000 0.567164 0.085831
O O1 0.662581 0.250000 0.904973
O O2 0.677578 0.007599 0.751687
O O3 0.600286 0.015573 0.940377
O O4 0.697709 0.998468 0.016391
O O5 0.544698 0.750000 0.545174
O O6 0.601607 0.992989 0.566519
O O7 0.528198 0.943043 0.753275
O O8 0.500000 0.000000 0.500000
O O9 0.339565 0.250000 0.371141
O O10 0.301561 0.010679 0.515449
O O11 0.445426 0.250000 0.046460
O O12 0.500000 0.000000 0.000000
O O13 0.750000 0.750000 0.401484
O O14 0.750000 0.507165 0.245324
O O15 0.750000 0.750000 0.076547
#
# Coordination Sequence:
#
# PCOD8245430 Si02
#       6
#     8   8   8   8   4   4
#     4  11  22  37  57  83 111 146 188 228 271 328
#     4   9  19  33  52  79 110 141 178 220 268 321
#     4   9  18  36  58  80 105 139 182 227 269 321
#     4  10  21  38  58  83 112 146 185 228 274 325
#     4   9  19  35  58  82 104 135 180 227 276 326
#     4  11  22  37  56  82 114 149 184 227 280 330
#
# _framework density 18.779813000000001
#
# number of rings (size 3 to 8) (size 9 to 14) (size 15 to 20)
#    0.000    2.200    0.000    4.500    0.000    6.400 
#    0.000    4.000    0.000    0.000    0.000    0.000 
#    0.000    0.000    0.000    0.000    0.000    0.000 
#
# Total GULP energy -496003.362384 kJ/mol
# GULP energy per Si atom -12400.084060 kJ/mol
# Density = 1.873707 g / cm^3
# Si number density = 18.779813 Si / 1000 Ang^3
#
#
#
# Elastic Constant Matrix: (Units=GPa)
#
#
# Indices 1 2 3 4 5 6 
#
# 1 130.2865 44.2956 94.6258 0.0000 0.0000 0.0000
# 2 44.2956 91.2760 51.7562 0.0000 0.0000 0.0000
# 3 94.6258 51.7562 139.7895 0.0000 0.0000 0.0000
# 4 0.0000 0.0000 0.0000 27.0157 0.0000 0.0000
# 5 0.0000 0.0000 0.0000 0.0000 44.6929 0.0000
# 6 0.0000 0.0000 0.0000 0.0000 0.0000 33.9675
#
#
#
# Elastic Compliance Matrix: (Units=1/GPa)
#
#
# Indices 1 2 3 4 5 6 
#
# 1 0.015374 -0.001974 -0.009676 0.000000 0.000000 0.000000
# 2 -0.001974 0.014121 -0.003892 0.000000 0.000000 0.000000
# 3 -0.009676 -0.003892 0.015144 0.000000 0.000000 0.000000
# 4 0.000000 0.000000 0.000000 0.037015 0.000000 0.000000
# 5 0.000000 0.000000 0.000000 0.000000 0.022375 0.000000
# 6 0.000000 0.000000 0.000000 0.000000 0.000000 0.029440
#
#
# Mechanical properties :
#
#
# Convention : Reuss Voigt Hill
#
# Bulk Modulus (GPa) = 73.77290 82.52300 78.14795
# Shear Modulus (GPa) = 29.57317 32.51351 31.04334
#
# Velocity S-wave (km/s) = 3.97259 4.16540 4.07014
# Velocity P-wave (km/s) = 7.77241 8.19585 7.98694
#
# Compressibility (1/GPa) = 0.01355511
#
# Stress axis : x y z
#
# Youngs Moduli (GPa) = 65.04345 70.81864 66.03115
#
# Poissons Ratio (x) = 0.13982 0.63893
# Poissons Ratio (y) = 0.12842 0.25696
# Poissons Ratio (z) = 0.62937 0.27559
#
# Static dielectric constant tensor:
#      x y z
#    x -26.130410 0.000000 0.000000 
#    y 0.000000 3.404850 0.000000 
#    z 0.000000 0.000000 3.535980 
# 
# 
# High freq. dielectric constant tensor:
#      x y z
#    x 1.744090 0.000000 0.000000 
#    y 0.000000 1.721480 0.000000 
#    z 0.000000 0.000000 1.727610 
# 
# From -- ./inp_files/12396.got.cif
#   From: 2010.03.12/outbox.cif.g09.slc.cpg/sg59_7_cif.got.tgz:12396.got - 2010.04.16 16:29:54.
