data_PCOD8245988
_publ_section_title
;
Structure prediction by ZEFSAII (Michael W. Deem and Ramdas Pophale) SiO2 
 PCOD8245988
Probable space group: P M M N
;
_chemical_formula_sum "Si O2"
_cell_formula_units_Z 48
_cell_length_a 8.763048
_cell_length_b 19.215856
_cell_length_c 15.142654
_cell_angle_alpha 90.000000
_cell_angle_beta 90.000000
_cell_angle_gamma 90.000000
_cell_volume 2549.863459
_symmetry_space_group_name_H-M "P M M N"
_symmetry_group_IT_number 59
_space_group.IT_coordinate_system_code '2'
_symmetry_cell_setting 'orthorhombic'
loop_
_space_group_symop_operation_xyz
x,y,z
1/2-x,1/2-y,z
1/2+x,-y,-z
-x,1/2+y,-z
-x,-y,-z
1/2+x,1/2+y,-z
1/2-x,y,z
x,1/2-y,z
loop_
_atom_site_type_symbol
_atom_site_label
_atom_site_fract_x
_atom_site_fract_y
_atom_site_fract_z
Si Si1 0.568898 0.827725 0.609912
Si Si2 0.568663 0.672687 0.938294
Si Si3 0.931652 0.914511 0.775667
Si Si4 0.430036 0.430874 0.540204
Si Si5 0.070910 0.567323 0.271430
Si Si6 0.425470 0.168403 0.863908
O O1 0.750000 0.824471 0.616860
O O2 0.499566 0.750000 0.609453
O O3 0.503508 0.869741 0.693912
O O4 0.518578 0.866139 0.520383
O O5 0.750000 0.675716 0.933804
O O6 0.504668 0.750000 0.917003
O O7 0.503074 0.618104 0.866769
O O8 0.520084 0.649669 0.036733
O O9 0.750000 0.912209 0.776202
O O10 0.989360 0.993604 0.766365
O O11 0.500000 0.500000 0.500000
O O12 0.250000 0.439824 0.540573
O O13 0.487877 0.414960 0.637726
O O14 0.250000 0.564249 0.289757
O O15 0.034029 0.627199 0.201936
O O16 0.250000 0.146310 0.848891
O O17 0.445736 0.250000 0.846101
#
# Coordination Sequence:
#
# PCOD8245988 Si02
#       6
#     8   8   8   8   8   8
#     4   9  17  30  51  79 106 133 172 220 265 312
#     4   8  14  27  50  77 105 138 176 221 269 313
#     4   9  16  28  48  78 110 136 170 217 266 321
#     4  11  21  36  56  79 108 145 183 222 270 322
#     4  11  22  35  53  80 109 142 180 220 272 329
#     4   9  19  36  55  77 105 139 182 226 267 318
#
# _framework density 18.824536999999999
#
# number of rings (size 3 to 8) (size 9 to 14) (size 15 to 20)
#    0.000    2.500    1.667    2.500    0.000    3.667 
#    0.000    1.667    0.000    2.500    0.000    0.000 
#    0.000    0.000    0.000    0.000    0.000    0.000 
#
# Total GULP energy -595140.466037 kJ/mol
# GULP energy per Si atom -12398.759709 kJ/mol
# Density = 1.878169 g / cm^3
# Si number density = 18.824537 Si / 1000 Ang^3
#
#
#
# Elastic Constant Matrix: (Units=GPa)
#
#
# Indices 1 2 3 4 5 6 
#
# 1 32.8705 23.3481 24.4353 0.0000 0.0000 0.0000
# 2 23.3481 119.0535 76.0379 0.0000 0.0000 0.0000
# 3 24.4353 76.0379 159.8652 0.0000 0.0000 0.0000
# 4 0.0000 0.0000 0.0000 39.4699 0.0000 0.0000
# 5 0.0000 0.0000 0.0000 0.0000 22.3661 0.0000
# 6 0.0000 0.0000 0.0000 0.0000 0.0000 22.8617
#
#
#
# Elastic Compliance Matrix: (Units=1/GPa)
#
#
# Indices 1 2 3 4 5 6 
#
# 1 0.036394 -0.005149 -0.003114 0.000000 0.000000 0.000000
# 2 -0.005149 0.012793 -0.005298 0.000000 0.000000 0.000000
# 3 -0.003114 -0.005298 0.009251 0.000000 0.000000 0.000000
# 4 0.000000 0.000000 0.000000 0.025336 0.000000 0.000000
# 5 0.000000 0.000000 0.000000 0.000000 0.044711 0.000000
# 6 0.000000 0.000000 0.000000 0.000000 0.000000 0.043741
#
#
# Mechanical properties :
#
#
# Convention : Reuss Voigt Hill
#
# Bulk Modulus (GPa) = 31.93095 62.15908 47.04502
# Shear Modulus (GPa) = 23.83381 29.47075 26.65228
#
# Velocity S-wave (km/s) = 3.56210 3.96100 3.76683
# Velocity P-wave (km/s) = 5.82385 7.34923 6.63055
#
# Compressibility (1/GPa) = 0.03131758
#
# Stress axis : x y z
#
# Youngs Moduli (GPa) = 27.47677 78.16796 108.09526
#
# Poissons Ratio (x) = 0.40245 0.33661
# Poissons Ratio (y) = 0.14147 0.57267
# Poissons Ratio (z) = 0.08556 0.41412
#
# Static dielectric constant tensor:
#      x y z
#    x 3.003390 0.000000 0.000000 
#    y 0.000000 3.686820 0.000000 
#    z 0.000000 0.000000 3.825440 
# 
# 
# High freq. dielectric constant tensor:
#      x y z
#    x 1.681780 0.000000 0.000000 
#    y 0.000000 1.736730 0.000000 
#    z 0.000000 0.000000 1.745800 
# 
# From -- ./inp_files/20317.got.cif
#   From: 2010.03.12/outbox.cif.g09.slc.cpg/sg59_11_cif.got.tgz:20317.got - 2010.04.16 16:29:54.
