data_PCOD8245590
_publ_section_title
;
Structure prediction by ZEFSAII (Michael W. Deem and Ramdas Pophale) SiO2 
 PCOD8245590
Probable space group: P M M N
;
_chemical_formula_sum "Si O2"
_cell_formula_units_Z 64
_cell_length_a 9.129068
_cell_length_b 29.489195
_cell_length_c 11.834148
_cell_angle_alpha 90.000000
_cell_angle_beta 90.000000
_cell_angle_gamma 90.000000
_cell_volume 3185.857568
_symmetry_space_group_name_H-M "P M M N"
_symmetry_group_IT_number 59
_space_group.IT_coordinate_system_code '2'
_symmetry_cell_setting 'orthorhombic'
loop_
_space_group_symop_operation_xyz
x,y,z
1/2-x,1/2-y,z
1/2+x,-y,-z
-x,1/2+y,-z
-x,-y,-z
1/2+x,1/2+y,-z
1/2-x,y,z
x,1/2-y,z
loop_
_atom_site_type_symbol
_atom_site_label
_atom_site_fract_x
_atom_site_fract_y
_atom_site_fract_z
Si Si1 0.578308 0.869513 0.016384
Si Si2 0.077736 0.199932 0.801990
Si Si3 0.581830 0.032407 0.662664
Si Si4 0.925017 0.039099 0.926231
Si Si5 0.081486 0.064337 0.449817
Si Si6 0.918216 0.801357 0.814528
Si Si7 0.414567 0.646090 0.635226
Si Si8 0.910723 0.300306 0.587275
O O1 0.750000 0.881990 0.028890
O O2 0.515805 0.838367 0.116459
O O3 0.481509 0.914585 0.017052
O O4 0.548617 0.839789 0.906048
O O5 0.250000 0.201826 0.814801
O O6 0.012757 0.250000 0.830705
O O7 0.033411 0.185573 0.676651
O O8 0.750000 0.048027 0.654498
O O9 0.527545 0.036597 0.793249
O O10 0.490660 0.063584 0.575178
O O11 0.560960 0.981482 0.620109
O O12 0.750000 0.035167 0.937285
O O13 0.000000 0.000000 0.000000
O O14 0.250000 0.076757 0.468221
O O15 0.008981 0.100395 0.364626
O O16 0.750000 0.803465 0.776898
O O17 0.955390 0.750000 0.857046
O O18 0.017974 0.813626 0.708769
O O19 0.250000 0.635524 0.676902
O O20 0.416884 0.662800 0.508273
O O21 0.750000 0.301343 0.645093
O O22 0.942761 0.250000 0.538602
#
# Coordination Sequence:
#
# PCOD8245590 Si02
#       8
#     8   8   8   8   8   8   8   8
#     4  10  22  40  62  89 120 155 199 250 304 356
#     4   9  18  34  58  87 118 152 192 239 289 347
#     4   9  21  42  63  86 120 157 195 247 306 360
#     4  11  25  43  64  90 123 161 203 249 303 363
#     4  10  21  38  63  91 118 154 199 246 299 363
#     4  10  22  41  64  88 119 161 207 254 304 362
#     4  11  23  37  57  86 122 158 198 247 301 359
#     4   9  19  35  53  76 112 154 188 226 282 341
#
# _framework density 20.088781999999998
#
# number of rings (size 3 to 8) (size 9 to 14) (size 15 to 20)
#    0.000    2.125    0.000    1.875    3.500    5.750 
#    0.000    1.250    0.000    2.250    0.000    0.000 
#    0.000    0.000    0.000    0.000    0.000    0.000 
#
# Total GULP energy -793384.138486 kJ/mol
# GULP energy per Si atom -12396.627164 kJ/mol
# Density = 2.004306 g / cm^3
# Si number density = 20.088782 Si / 1000 Ang^3
#
#
#
# Elastic Constant Matrix: (Units=GPa)
#
#
# Indices 1 2 3 4 5 6 
#
# 1 81.5177 56.7573 41.3259 0.0000 0.0000 0.0000
# 2 56.7573 110.8260 48.5973 0.0000 0.0000 0.0000
# 3 41.3259 48.5973 85.8171 0.0000 0.0000 0.0000
# 4 0.0000 0.0000 0.0000 31.2648 0.0000 0.0000
# 5 0.0000 0.0000 0.0000 0.0000 15.7790 0.0000
# 6 0.0000 0.0000 0.0000 0.0000 0.0000 37.2005
#
#
#
# Elastic Compliance Matrix: (Units=1/GPa)
#
#
# Indices 1 2 3 4 5 6 
#
# 1 0.020720 -0.008296 -0.005280 0.000000 0.000000 0.000000
# 2 -0.008296 0.015326 -0.004684 0.000000 0.000000 0.000000
# 3 -0.005280 -0.004684 0.016848 0.000000 0.000000 0.000000
# 4 0.000000 0.000000 0.000000 0.031985 0.000000 0.000000
# 5 0.000000 0.000000 0.000000 0.000000 0.063375 0.000000
# 6 0.000000 0.000000 0.000000 0.000000 0.000000 0.026881
#
#
# Mechanical properties :
#
#
# Convention : Reuss Voigt Hill
#
# Bulk Modulus (GPa) = 61.07282 63.50243 62.28763
# Shear Modulus (GPa) = 23.02950 25.61421 24.32185
#
# Velocity S-wave (km/s) = 3.38951 3.57466 3.48331
# Velocity P-wave (km/s) = 6.76652 6.97976 6.87397
#
# Compressibility (1/GPa) = 0.01637390
#
# Stress axis : x y z
#
# Youngs Moduli (GPa) = 48.26189 65.24997 59.35564
#
# Poissons Ratio (x) = 0.54133 0.31340
# Poissons Ratio (y) = 0.40039 0.27800
# Poissons Ratio (z) = 0.25482 0.30561
#
# Static dielectric constant tensor:
#      x y z
#    x 3.749690 0.000000 0.000000 
#    y 0.000000 3.803490 0.000000 
#    z 0.000000 0.000000 3.627760 
# 
# 
# High freq. dielectric constant tensor:
#      x y z
#    x 1.779520 0.000000 0.000000 
#    y 0.000000 1.795490 0.000000 
#    z 0.000000 0.000000 1.780220 
# 
# From -- ./inp_files/14877.got.cif
#   From: 2010.03.12/outbox.cif.g09.slc.cpg/sg59_8_cif.got.tgz:14877.got - 2010.04.16 16:29:54.
