data_PCOD8245669
_publ_section_title
;
Structure prediction by ZEFSAII (Michael W. Deem and Ramdas Pophale) SiO2 
 PCOD8245669
Probable space group: P M M N
;
_chemical_formula_sum "Si O2"
_cell_formula_units_Z 64
_cell_length_a 30.641347
_cell_length_b 8.612608
_cell_length_c 11.776816
_cell_angle_alpha 90.000000
_cell_angle_beta 90.000000
_cell_angle_gamma 90.000000
_cell_volume 3107.924240
_symmetry_space_group_name_H-M "P M M N"
_symmetry_group_IT_number 59
_space_group.IT_coordinate_system_code '2'
_symmetry_cell_setting 'orthorhombic'
loop_
_space_group_symop_operation_xyz
x,y,z
1/2-x,1/2-y,z
1/2+x,-y,-z
-x,1/2+y,-z
-x,-y,-z
1/2+x,1/2+y,-z
1/2-x,y,z
x,1/2-y,z
loop_
_atom_site_type_symbol
_atom_site_label
_atom_site_fract_x
_atom_site_fract_y
_atom_site_fract_z
Si Si1 0.325797 0.430058 0.995495
Si Si2 0.375173 0.569062 0.392193
Si Si3 0.299476 0.571952 0.766496
Si Si4 0.877233 0.929270 0.364045
Si Si5 0.926614 0.930398 0.002646
Si Si6 0.799070 0.427368 0.774877
Si Si7 0.545320 0.429941 0.770860
Si Si8 0.456632 0.569734 0.769148
O O1 0.319671 0.250000 0.966839
O O2 0.302483 0.529489 0.898794
O O3 0.376190 0.477945 0.001077
O O4 0.303487 0.466132 0.115000
O O5 0.373089 0.750000 0.425202
O O6 0.376055 0.465851 0.503680
O O7 0.332601 0.517501 0.321538
O O8 0.418344 0.528566 0.321629
O O9 0.250000 0.545466 0.725052
O O10 0.313551 0.750000 0.750160
O O11 0.330459 0.465199 0.690686
O O12 0.888058 0.750000 0.344190
O O13 0.914107 0.028963 0.302705
O O14 0.932914 0.750000 0.031346
O O15 0.950195 0.030067 0.098858
O O16 0.947918 0.967380 0.882396
O O17 0.750000 0.443742 0.726467
O O18 0.809706 0.250000 0.809410
O O19 0.547733 0.250000 0.804092
O O20 0.498053 0.474473 0.720176
O O21 0.466595 0.750000 0.755368
#
# Coordination Sequence:
#
# PCOD8245669 Si02
#       8
#     8   8   8   8   8   8   8   8
#     4  11  22  36  61  94 131 167 203 253 311 369
#     4  10  23  43  65  90 122 165 212 258 309 367
#     4  11  24  42  66  94 126 166 210 255 308 372
#     4  12  26  44  66  92 124 162 208 262 314 368
#     4  11  22  38  62  94 130 166 206 253 313 374
#     4  10  21  39  64  93 126 165 209 255 306 368
#     4  11  23  41  66  94 127 165 209 257 310 371
#     4  12  25  42  66  93 126 165 208 256 312 374
#
# _framework density 20.592524000000001
#
# number of rings (size 3 to 8) (size 9 to 14) (size 15 to 20)
#    0.000    1.000    2.500    4.500    0.000    6.250 
#    0.000    1.250    0.000    0.000    0.000    0.000 
#    0.000    0.000    0.000    0.000    0.000    0.000 
#
# Total GULP energy -794097.009098 kJ/mol
# GULP energy per Si atom -12407.765767 kJ/mol
# Density = 2.054565 g / cm^3
# Si number density = 20.592524 Si / 1000 Ang^3
#
#
#
# Elastic Constant Matrix: (Units=GPa)
#
#
# Indices 1 2 3 4 5 6 
#
# 1 122.0770 29.8288 35.3054 0.0000 0.0000 0.0000
# 2 29.8288 65.0237 25.7985 0.0000 0.0000 0.0000
# 3 35.3054 25.7985 104.8338 0.0000 0.0000 0.0000
# 4 0.0000 0.0000 0.0000 28.8676 0.0000 0.0000
# 5 0.0000 0.0000 0.0000 0.0000 -5.5586 0.0000
# 6 0.0000 0.0000 0.0000 0.0000 0.0000 32.5332
#
#
#
# Elastic Compliance Matrix: (Units=1/GPa)
#
#
# Indices 1 2 3 4 5 6 
#
# 1 0.009749 -0.003513 -0.002419 0.000000 0.000000 0.000000
# 2 -0.003513 0.018309 -0.003323 0.000000 0.000000 0.000000
# 3 -0.002419 -0.003323 0.011171 0.000000 0.000000 0.000000
# 4 0.000000 0.000000 0.000000 0.034641 0.000000 0.000000
# 5 0.000000 0.000000 0.000000 0.000000 -0.179901 0.000000
# 6 0.000000 0.000000 0.000000 0.000000 0.000000 0.030738
#
#
# Mechanical properties :
#
#
# Convention : Reuss Voigt Hill
#
# Bulk Modulus (GPa) = 48.26051 52.64443 50.45247
# Shear Modulus (GPa) = -100.24532 24.56855 -37.83838
#
# Velocity S-wave (km/s) = -6.98471 3.45785 -4.29124
# Velocity P-wave (km/s) = 6.44681 6.44691 0.02511
#
# Compressibility (1/GPa) = 0.02072087
#
# Stress axis : x y z
#
# Youngs Moduli (GPa) = 102.57011 54.61891 89.51593
#
# Poissons Ratio (x) = 0.19186 0.21653
# Poissons Ratio (y) = 0.36030 0.29742
# Poissons Ratio (z) = 0.24811 0.18148
#
# Static dielectric constant tensor:
#      x y z
#    x 3.971690 0.000000 0.000000 
#    y 0.000000 3.679610 0.000000 
#    z 0.000000 0.000000 3.569070 
# 
# 
# High freq. dielectric constant tensor:
#      x y z
#    x 1.824790 0.000000 0.000000 
#    y 0.000000 1.808480 0.000000 
#    z 0.000000 0.000000 1.795780 
# 
# From -- ./inp_files/19376.got.cif
#   From: 2010.03.12/outbox.cif.g09.slc.cpg/sg59_10_cif.got.tgz:19376.got - 2010.04.16 16:29:54.
