data_PCOD8245218
_publ_section_title
;
Structure prediction by ZEFSAII (Michael W. Deem and Ramdas Pophale) SiO2 
 PCOD8245218
Probable space group: P M M N
;
_chemical_formula_sum "Si O2"
_cell_formula_units_Z 64
_cell_length_a 13.604669
_cell_length_b 9.381351
_cell_length_c 25.777323
_cell_angle_alpha 90.000000
_cell_angle_beta 90.000000
_cell_angle_gamma 90.000000
_cell_volume 3289.964249
_symmetry_space_group_name_H-M "P M M N"
_symmetry_group_IT_number 59
_space_group.IT_coordinate_system_code '2'
_symmetry_cell_setting 'orthorhombic'
loop_
_space_group_symop_operation_xyz
x,y,z
1/2-x,1/2-y,z
1/2+x,-y,-z
-x,1/2+y,-z
-x,-y,-z
1/2+x,1/2+y,-z
1/2-x,y,z
x,1/2-y,z
loop_
_atom_site_type_symbol
_atom_site_label
_atom_site_fract_x
_atom_site_fract_y
_atom_site_fract_z
Si Si1 0.862614 0.082550 0.809544
Si Si2 0.135386 0.586914 0.881297
Si Si3 0.134020 0.592360 0.074094
Si Si4 0.635749 0.586389 0.317047
Si Si5 0.859341 0.414257 0.516504
Si Si6 0.632604 0.588550 0.020992
Si Si7 0.536787 0.082582 0.227349
Si Si8 0.448657 0.415990 0.574130
O O1 0.750000 0.047561 0.795864
O O2 0.883326 0.250000 0.802982
O O3 0.887994 0.033036 0.868337
O O4 0.930004 0.992266 0.770312
O O5 0.250000 0.557964 0.873196
O O6 0.115759 0.750000 0.897335
O O7 0.092134 0.486532 0.926769
O O8 0.083533 0.546487 0.827977
O O9 0.250000 0.602845 0.066775
O O10 0.088393 0.750000 0.066946
O O11 0.088560 0.489945 0.029965
O O12 0.750000 0.566651 0.329983
O O13 0.612399 0.750000 0.301882
O O14 0.607248 0.483116 0.270458
O O15 0.573164 0.538047 0.367101
O O16 0.750000 0.446338 0.538128
O O17 0.871468 0.250000 0.500972
O O18 0.876032 0.502842 0.464409
O O19 0.937981 0.455398 0.561035
O O20 0.750000 0.579772 0.020228
O O21 0.595224 0.750000 0.020183
O O22 0.525730 0.250000 0.237202
O O23 0.426579 0.250000 0.566731
#
# Coordination Sequence:
#
# PCOD8245218 Si02
#       8
#     8   8   8   8   8   8   8   8
#     4   9  19  37  59  79 100 131 171 213 261 320
#     4   9  18  33  50  68  96 134 170 205 254 316
#     4   8  14  27  48  71  95 126 162 200 248 309
#     4  10  21  37  57  80 108 144 184 225 268 317
#     4   9  17  30  51  81 116 151 186 227 275 322
#     4   9  16  25  42  71 101 127 159 202 252 306
#     4  11  23  37  55  79 105 134 173 223 274 321
#     4   9  18  33  53  79 112 150 192 232 269 315
#
# _framework density 19.453099999999999
#
# number of rings (size 3 to 8) (size 9 to 14) (size 15 to 20)
#    0.000    2.750    0.000    2.250    0.000    5.250 
#    0.000    3.750    0.000    2.250    0.000    0.000 
#    0.000    0.000    0.000    0.000    0.000    0.000 
#
# Total GULP energy -793635.475394 kJ/mol
# GULP energy per Si atom -12400.554303 kJ/mol
# Density = 1.940882 g / cm^3
# Si number density = 19.453100 Si / 1000 Ang^3
#
#
#
# Elastic Constant Matrix: (Units=GPa)
#
#
# Indices 1 2 3 4 5 6 
#
# 1 77.5616 34.8496 42.6451 0.0000 0.0000 0.0000
# 2 34.8496 88.9583 52.6605 0.0000 0.0000 0.0000
# 3 42.6451 52.6605 76.4631 0.0000 0.0000 0.0000
# 4 0.0000 0.0000 0.0000 33.8225 0.0000 0.0000
# 5 0.0000 0.0000 0.0000 0.0000 27.7211 0.0000
# 6 0.0000 0.0000 0.0000 0.0000 0.0000 21.1431
#
#
#
# Elastic Compliance Matrix: (Units=1/GPa)
#
#
# Indices 1 2 3 4 5 6 
#
# 1 0.018794 -0.001955 -0.009136 0.000000 0.000000 0.000000
# 2 -0.001955 0.019182 -0.012121 0.000000 0.000000 0.000000
# 3 -0.009136 -0.012121 0.026521 0.000000 0.000000 0.000000
# 4 0.000000 0.000000 0.000000 0.029566 0.000000 0.000000
# 5 0.000000 0.000000 0.000000 0.000000 0.036074 0.000000
# 6 0.000000 0.000000 0.000000 0.000000 0.000000 0.047297
#
#
# Mechanical properties :
#
#
# Convention : Reuss Voigt Hill
#
# Bulk Modulus (GPa) = 55.32449 55.92149 55.62299
# Shear Modulus (GPa) = 21.75041 24.05921 22.90481
#
# Velocity S-wave (km/s) = 3.34742 3.52060 3.43510
# Velocity P-wave (km/s) = 6.59105 6.73316 6.66248
#
# Compressibility (1/GPa) = 0.01807518
#
# Stress axis : x y z
#
# Youngs Moduli (GPa) = 53.20762 52.13234 37.70598
#
# Poissons Ratio (x) = 0.10190 0.34448
# Poissons Ratio (y) = 0.10400 0.45702
# Poissons Ratio (z) = 0.48610 0.63188
#
# Static dielectric constant tensor:
#      x y z
#    x 3.568930 0.000000 0.000000 
#    y 0.000000 3.544470 0.000000 
#    z 0.000000 0.000000 3.424120 
# 
# 
# High freq. dielectric constant tensor:
#      x y z
#    x 1.766200 0.000000 0.000000 
#    y 0.000000 1.753330 0.000000 
#    z 0.000000 0.000000 1.737530 
# 
# From -- ./inp_files/32150.got.cif
#   From: 2010.03.12/outbox.cif.g09.slc.cpg/sg59_17_cif.got.tgz:32150.got - 2010.04.16 16:29:54.
