data_PCOD8245566
_publ_section_title
;
Structure prediction by ZEFSAII (Michael W. Deem and Ramdas Pophale) SiO2 
 PCOD8245566
Probable space group: P M M N
;
_chemical_formula_sum "Si O2"
_cell_formula_units_Z 40
_cell_length_a 14.691330
_cell_length_b 17.696277
_cell_length_c 7.725035
_cell_angle_alpha 90.000000
_cell_angle_beta 90.000000
_cell_angle_gamma 90.000000
_cell_volume 2008.368853
_symmetry_space_group_name_H-M "P M M N"
_symmetry_group_IT_number 59
_space_group.IT_coordinate_system_code '2'
_symmetry_cell_setting 'orthorhombic'
loop_
_space_group_symop_operation_xyz
x,y,z
1/2-x,1/2-y,z
1/2+x,-y,-z
-x,1/2+y,-z
-x,-y,-z
1/2+x,1/2+y,-z
1/2-x,y,z
x,1/2-y,z
loop_
_atom_site_type_symbol
_atom_site_label
_atom_site_fract_x
_atom_site_fract_y
_atom_site_fract_z
Si Si1 0.102117 0.016529 0.550717
Si Si2 0.145817 0.926136 0.893037
Si Si3 0.471796 0.164592 0.082469
Si Si4 0.349293 0.459495 0.190413
Si Si5 0.854789 0.664879 0.259655
O O1 0.136468 0.963400 0.704646
O O2 0.158116 0.998339 0.375529
O O3 0.117590 0.104689 0.595368
O O4 0.000000 0.000000 0.500000
O O5 0.250000 0.899277 0.920468
O O6 0.079141 0.854934 0.918456
O O7 0.115401 0.985452 0.039695
O O8 0.461094 0.250000 0.147647
O O9 0.420363 0.109058 0.214844
O O10 0.423624 0.152442 0.898458
O O11 0.250000 0.428575 0.137605
O O12 0.750000 0.651469 0.200016
O O13 0.866074 0.750000 0.334139
#
# Coordination Sequence:
#
# PCOD8245566 Si02
#       5
#     8   8   8   8   8
#     4  12  22  38  62  89 122 158 202 246 298 360
#     4  11  23  42  63  86 122 161 203 254 299 352
#     4  11  22  38  60  88 121 160 200 242 298 360
#     4  11  22  37  63  92 117 152 201 251 303 360
#     4  10  21  38  61  91 128 163 196 247 313 367
#
# _framework density 19.91666
#
# number of rings (size 3 to 8) (size 9 to 14) (size 15 to 20)
#    0.000    1.000    4.000    4.200    0.000    2.400 
#    0.000    0.000    0.000    0.000    0.000    2.800 
#    0.000    0.000    0.000    0.000    0.000    0.000 
#
# Total GULP energy -495892.262421 kJ/mol
# GULP energy per Si atom -12397.306561 kJ/mol
# Density = 1.987133 g / cm^3
# Si number density = 19.916660 Si / 1000 Ang^3
#
#
#
# Elastic Constant Matrix: (Units=GPa)
#
#
# Indices 1 2 3 4 5 6 
#
# 1 115.8064 35.8903 18.4185 0.0000 0.0000 0.0000
# 2 35.8903 62.6027 24.1436 0.0000 0.0000 0.0000
# 3 18.4185 24.1436 109.4800 0.0000 0.0000 0.0000
# 4 0.0000 0.0000 0.0000 14.3519 0.0000 0.0000
# 5 0.0000 0.0000 0.0000 0.0000 24.9214 0.0000
# 6 0.0000 0.0000 0.0000 0.0000 0.0000 29.5995
#
#
#
# Elastic Compliance Matrix: (Units=1/GPa)
#
#
# Indices 1 2 3 4 5 6 
#
# 1 0.010524 -0.005848 -0.000481 0.000000 0.000000 0.000000
# 2 -0.005848 0.020708 -0.003583 0.000000 0.000000 0.000000
# 3 -0.000481 -0.003583 0.010005 0.000000 0.000000 0.000000
# 4 0.000000 0.000000 0.000000 0.069677 0.000000 0.000000
# 5 0.000000 0.000000 0.000000 0.000000 0.040126 0.000000
# 6 0.000000 0.000000 0.000000 0.000000 0.000000 0.033784
#
#
# Mechanical properties :
#
#
# Convention : Reuss Voigt Hill
#
# Bulk Modulus (GPa) = 46.69890 49.42153 48.06022
# Shear Modulus (GPa) = 23.60870 27.73701 25.67285
#
# Velocity S-wave (km/s) = 3.44666 3.73588 3.59418
# Velocity P-wave (km/s) = 6.27195 6.59371 6.43484
#
# Compressibility (1/GPa) = 0.02141378
#
# Stress axis : x y z
#
# Youngs Moduli (GPa) = 95.02121 48.29003 99.94876
#
# Poissons Ratio (x) = 0.28240 0.04806
# Poissons Ratio (y) = 0.55568 0.35811
# Poissons Ratio (z) = 0.04569 0.17302
#
# Static dielectric constant tensor:
#      x y z
#    x 3.812300 0.000000 0.000000 
#    y 0.000000 3.603470 0.000000 
#    z 0.000000 0.000000 3.755900 
# 
# 
# High freq. dielectric constant tensor:
#      x y z
#    x 1.793340 0.000000 0.000000 
#    y 0.000000 1.753880 0.000000 
#    z 0.000000 0.000000 1.779270 
# 
# From -- ./inp_files/8612.got.cif
#   From: 2010.03.12/outbox.cif.g09.slc.cpg/sg59_5_cif.got.tgz:8612.got - 2010.04.16 16:29:54.
