data_PCOD8245698
_publ_section_title
;
Structure prediction by ZEFSAII (Michael W. Deem and Ramdas Pophale) SiO2 
 PCOD8245698
Probable space group: P M M N
;
_chemical_formula_sum "Si O2"
_cell_formula_units_Z 56
_cell_length_a 23.120335
_cell_length_b 8.954032
_cell_length_c 13.511429
_cell_angle_alpha 90.000000
_cell_angle_beta 90.000000
_cell_angle_gamma 90.000000
_cell_volume 2797.138997
_symmetry_space_group_name_H-M "P M M N"
_symmetry_group_IT_number 59
_space_group.IT_coordinate_system_code '2'
_symmetry_cell_setting 'orthorhombic'
loop_
_space_group_symop_operation_xyz
x,y,z
1/2-x,1/2-y,z
1/2+x,-y,-z
-x,1/2+y,-z
-x,-y,-z
1/2+x,1/2+y,-z
1/2-x,y,z
x,1/2-y,z
loop_
_atom_site_type_symbol
_atom_site_label
_atom_site_fract_x
_atom_site_fract_y
_atom_site_fract_z
Si Si1 0.633092 0.576950 0.565294
Si Si2 0.250000 0.925338 0.372444
Si Si3 0.590847 0.923764 0.344524
Si Si4 0.030015 0.072206 0.293933
Si Si5 0.315173 0.576809 0.794025
Si Si6 0.332159 0.418738 0.000051
Si Si7 0.540712 0.915797 0.927119
Si Si8 0.250000 0.573882 0.143525
O O1 0.645686 0.750000 0.586110
O O2 0.692719 0.489374 0.576982
O O3 0.610369 0.548430 0.455737
O O4 0.583836 0.515785 0.639855
O O5 0.250000 0.750000 0.389321
O O6 0.250000 0.969533 0.257913
O O7 0.584549 0.750000 0.318888
O O8 0.529277 0.001304 0.331297
O O9 0.639246 0.991235 0.273211
O O10 0.024782 0.250000 0.301964
O O11 0.042732 0.013875 0.182621
O O12 0.250000 0.557786 0.751080
O O13 0.332820 0.750000 0.798788
O O14 0.315821 0.510897 0.903613
O O15 0.308074 0.250000 0.990303
O O16 0.399484 0.416631 0.016739
O O17 0.306170 0.500420 0.095232
O O18 0.516061 0.750000 0.914571
O O19 0.500000 0.000000 0.000000
O O20 0.250000 0.750000 0.125762
#
# Coordination Sequence:
#
# PCOD8245698 Si02
#       8
#     8   4   8   8   8   8   8   4
#     4  10  23  43  66  91 123 163 207 262 320 376
#     4  11  25  41  62  93 126 161 207 258 308 371
#     4  11  24  40  63  93 124 159 208 264 318 375
#     4  10  21  41  65  90 123 165 209 253 312 380
#     4  11  24  41  61  88 125 167 210 258 315 377
#     4  11  22  38  62  90 120 159 205 251 300 360
#     4  10  22  37  57  87 120 157 199 244 298 358
#     4  11  23  39  58  87 122 157 195 242 300 361
#
# _framework density 20.020458000000001
#
# number of rings (size 3 to 8) (size 9 to 14) (size 15 to 20)
#    0.000    1.429    0.714    3.857    1.000    8.857 
#    0.000    0.000    0.000    0.000    0.000    0.000 
#    0.000    0.000    0.000    0.000    0.000    0.000 
#
# Total GULP energy -694508.649515 kJ/mol
# GULP energy per Si atom -12401.940170 kJ/mol
# Density = 1.997489 g / cm^3
# Si number density = 20.020458 Si / 1000 Ang^3
#
#
#
# Elastic Constant Matrix: (Units=GPa)
#
#
# Indices 1 2 3 4 5 6 
#
# 1 143.9847 47.4859 47.4566 0.0000 0.0000 0.0000
# 2 47.4859 65.7996 34.5060 0.0000 0.0000 0.0000
# 3 47.4566 34.5060 91.3108 0.0000 0.0000 0.0000
# 4 0.0000 0.0000 0.0000 32.9966 0.0000 0.0000
# 5 0.0000 0.0000 0.0000 0.0000 20.8945 0.0000
# 6 0.0000 0.0000 0.0000 0.0000 0.0000 31.1084
#
#
#
# Elastic Compliance Matrix: (Units=1/GPa)
#
#
# Indices 1 2 3 4 5 6 
#
# 1 0.009731 -0.005450 -0.002998 0.000000 0.000000 0.000000
# 2 -0.005450 0.022007 -0.005484 0.000000 0.000000 0.000000
# 3 -0.002998 -0.005484 0.014582 0.000000 0.000000 0.000000
# 4 0.000000 0.000000 0.000000 0.030306 0.000000 0.000000
# 5 0.000000 0.000000 0.000000 0.000000 0.047860 0.000000
# 6 0.000000 0.000000 0.000000 0.000000 0.000000 0.032146
#
#
# Mechanical properties :
#
#
# Convention : Reuss Voigt Hill
#
# Bulk Modulus (GPa) = 54.18280 62.22137 58.20208
# Shear Modulus (GPa) = 26.22665 28.44300 27.33483
#
# Velocity S-wave (km/s) = 3.62331 3.77330 3.69907
# Velocity P-wave (km/s) = 6.68034 7.08026 6.88321
#
# Compressibility (1/GPa) = 0.01845604
#
# Stress axis : x y z
#
# Youngs Moduli (GPa) = 102.76731 45.44065 68.57883
#
# Poissons Ratio (x) = 0.24767 0.20557
# Poissons Ratio (y) = 0.56013 0.37605
# Poissons Ratio (z) = 0.30806 0.24918
#
# Static dielectric constant tensor:
#      x y z
#    x 3.700950 0.000000 0.000000 
#    y 0.000000 3.425700 0.000000 
#    z 0.000000 0.000000 3.725380 
# 
# 
# High freq. dielectric constant tensor:
#      x y z
#    x 1.799170 0.000000 0.000000 
#    y 0.000000 1.784190 0.000000 
#    z 0.000000 0.000000 1.794320 
# 
# From -- ./inp_files/24418.got.cif
#   From: 2010.03.12/outbox.cif.g09.slc.cpg/sg59_13_cif.got.tgz:24418.got - 2010.04.16 16:29:54.
