data_PCOD8245411
_publ_section_title
;
Structure prediction by ZEFSAII (Michael W. Deem and Ramdas Pophale) SiO2 
 PCOD8245411
Probable space group: P M M N
;
_chemical_formula_sum "Si O2"
_cell_formula_units_Z 64
_cell_length_a 8.890720
_cell_length_b 23.886478
_cell_length_c 16.733898
_cell_angle_alpha 90.000000
_cell_angle_beta 90.000000
_cell_angle_gamma 90.000000
_cell_volume 3553.744244
_symmetry_space_group_name_H-M "P M M N"
_symmetry_group_IT_number 59
_space_group.IT_coordinate_system_code '2'
_symmetry_cell_setting 'orthorhombic'
loop_
_space_group_symop_operation_xyz
x,y,z
1/2-x,1/2-y,z
1/2+x,-y,-z
-x,1/2+y,-z
-x,-y,-z
1/2+x,1/2+y,-z
1/2-x,y,z
x,1/2-y,z
loop_
_atom_site_type_symbol
_atom_site_label
_atom_site_fract_x
_atom_site_fract_y
_atom_site_fract_z
Si Si1 0.573110 0.187166 0.251991
Si Si2 0.922866 0.314464 0.616219
Si Si3 0.584102 0.683632 0.906326
Si Si4 0.427306 0.977914 0.325317
Si Si5 0.928259 0.086490 0.362259
Si Si6 0.572630 0.588841 0.466921
Si Si7 0.922801 0.127448 0.777274
Si Si8 0.571593 0.687299 0.080804
O O1 0.750000 0.189315 0.246914
O O2 0.509528 0.250000 0.269721
O O3 0.517589 0.162860 0.167023
O O4 0.522150 0.145055 0.321890
O O5 0.750000 0.331974 0.598816
O O6 0.951465 0.250000 0.599025
O O7 0.961906 0.328138 0.707880
O O8 0.031937 0.347656 0.556951
O O9 0.750000 0.657449 0.894684
O O10 0.594957 0.750000 0.905434
O O11 0.515715 0.666453 0.992982
O O12 0.250000 0.988749 0.332613
O O13 0.485731 0.953494 0.409148
O O14 0.463231 0.934730 0.253613
O O15 0.516581 0.035193 0.306174
O O16 0.750000 0.083990 0.376118
O O17 0.017449 0.078569 0.443953
O O18 0.750000 0.578543 0.460520
O O19 0.750000 0.131749 0.802115
O O20 0.019284 0.142219 0.854583
O O21 0.750000 0.689503 0.079601
O O22 0.508901 0.750000 0.099969
#
# Coordination Sequence:
#
# PCOD8245411 Si02
#       8
#     8   8   8   8   8   8   8   8
#     4   9  19  35  54  77 103 129 158 196 245 298
#     4   9  18  33  50  69 100 139 172 205 250 298
#     4   8  15  29  48  71 101 134 164 196 238 287
#     4  10  21  38  55  72  98 131 168 209 253 295
#     4  11  22  36  55  77  99 126 163 205 250 300
#     4  11  22  35  52  75 101 130 168 211 252 296
#     4   9  18  31  48  71  98 130 167 205 244 288
#     4   9  17  28  45  73 106 136 165 199 241 288
#
# _framework density 18.009173000000001
#
# number of rings (size 3 to 8) (size 9 to 14) (size 15 to 20)
#    0.000    2.500    0.000    4.125    0.000    5.500 
#    0.000    2.500    0.000    0.750    0.000    0.000 
#    0.000    0.000    0.000    0.000    0.000    0.000 
#
# Total GULP energy -793423.900152 kJ/mol
# GULP energy per Si atom -12397.248440 kJ/mol
# Density = 1.796818 g / cm^3
# Si number density = 18.009173 Si / 1000 Ang^3
#
#
#
# Elastic Constant Matrix: (Units=GPa)
#
#
# Indices 1 2 3 4 5 6 
#
# 1 45.4442 27.0049 24.6562 0.0000 0.0000 0.0000
# 2 27.0049 85.8251 35.7128 0.0000 0.0000 0.0000
# 3 24.6562 35.7128 74.6092 0.0000 0.0000 0.0000
# 4 0.0000 0.0000 0.0000 16.3172 0.0000 0.0000
# 5 0.0000 0.0000 0.0000 0.0000 30.2911 0.0000
# 6 0.0000 0.0000 0.0000 0.0000 0.0000 27.1675
#
#
#
# Elastic Compliance Matrix: (Units=1/GPa)
#
#
# Indices 1 2 3 4 5 6 
#
# 1 0.029470 -0.006519 -0.006619 0.000000 0.000000 0.000000
# 2 -0.006519 0.015991 -0.005500 0.000000 0.000000 0.000000
# 3 -0.006619 -0.005500 0.018223 0.000000 0.000000 0.000000
# 4 0.000000 0.000000 0.000000 0.061285 0.000000 0.000000
# 5 0.000000 0.000000 0.000000 0.000000 0.033013 0.000000
# 6 0.000000 0.000000 0.000000 0.000000 0.000000 0.036809
#
#
# Mechanical properties :
#
#
# Convention : Reuss Voigt Hill
#
# Bulk Modulus (GPa) = 37.86556 42.29182 40.07869
# Shear Modulus (GPa) = 20.75816 22.65547 21.70681
#
# Velocity S-wave (km/s) = 3.39874 3.55067 3.47554
# Velocity P-wave (km/s) = 6.03931 6.35171 6.19748
#
# Compressibility (1/GPa) = 0.02640922
#
# Stress axis : x y z
#
# Youngs Moduli (GPa) = 33.93327 62.53358 54.87489
#
# Poissons Ratio (x) = 0.40763 0.36320
# Poissons Ratio (y) = 0.22119 0.30183
# Poissons Ratio (z) = 0.22459 0.34396
#
# Static dielectric constant tensor:
#      x y z
#    x 3.360490 0.000000 0.000000 
#    y 0.000000 3.488140 0.000000 
#    z 0.000000 0.000000 3.379530 
# 
# 
# High freq. dielectric constant tensor:
#      x y z
#    x 1.693470 0.000000 0.000000 
#    y 0.000000 1.683590 0.000000 
#    z 0.000000 0.000000 1.689780 
# 
# From -- ./inp_files/21532.got.cif
#   From: 2010.03.12/outbox.cif.g09.slc.cpg/sg59_11_cif.got.tgz:21532.got - 2010.04.16 16:29:54.
