data_PCOD8245017
_publ_section_title
;
Structure prediction by ZEFSAII (Michael W. Deem and Ramdas Pophale) SiO2 
 PCOD8245017
Probable space group: P M M N
;
_chemical_formula_sum "Si O2"
_cell_formula_units_Z 64
_cell_length_a 8.926479
_cell_length_b 14.560972
_cell_length_c 25.941887
_cell_angle_alpha 90.000000
_cell_angle_beta 90.000000
_cell_angle_gamma 90.000000
_cell_volume 3371.880056
_symmetry_space_group_name_H-M "P M M N"
_symmetry_group_IT_number 59
_space_group.IT_coordinate_system_code '2'
_symmetry_cell_setting 'orthorhombic'
loop_
_space_group_symop_operation_xyz
x,y,z
1/2-x,1/2-y,z
1/2+x,-y,-z
-x,1/2+y,-z
-x,-y,-z
1/2+x,1/2+y,-z
1/2-x,y,z
x,1/2-y,z
loop_
_atom_site_type_symbol
_atom_site_label
_atom_site_fract_x
_atom_site_fract_y
_atom_site_fract_z
Si Si1 0.577373 0.856131 0.124989
Si Si2 0.423784 0.503294 0.313841
Si Si3 0.426438 0.497257 0.055401
Si Si4 0.579803 0.643000 0.242883
Si Si5 0.926100 0.507779 0.422714
Si Si6 0.573429 0.355108 0.503390
Si Si7 0.922190 0.854807 0.769221
Si Si8 0.077924 0.642427 0.872787
O O1 0.750000 0.882561 0.115001
O O2 0.549810 0.750000 0.112420
O O3 0.534271 0.878058 0.183987
O O4 0.471374 0.913534 0.087881
O O5 0.250000 0.509492 0.328591
O O6 0.467001 0.592269 0.280928
O O7 0.520864 0.495665 0.364808
O O8 0.461817 0.412962 0.281013
O O9 0.250000 0.494540 0.048784
O O10 0.480686 0.405465 0.083534
O O11 0.500000 0.500000 0.000000
O O12 0.750000 0.610491 0.253046
O O13 0.564502 0.750000 0.254538
O O14 0.750000 0.522030 0.424119
O O15 0.973843 0.415790 0.453798
O O16 0.999183 0.599510 0.446380
O O17 0.750000 0.356834 0.511778
O O18 0.516629 0.250000 0.496275
O O19 0.750000 0.867790 0.785810
O O20 0.959043 0.750000 0.755192
O O21 0.023419 0.889651 0.816476
O O22 0.250000 0.613161 0.878796
O O23 0.053082 0.750000 0.879815
#
# Coordination Sequence:
#
# PCOD8245017 Si02
#       8
#     8   8   8   8   8   8   8   8
#     4   9  19  38  62  85 111 143 179 223 275 329
#     4  11  22  34  52  80 114 149 181 220 267 311
#     4  12  25  39  57  81 110 144 182 226 275 328
#     4   9  19  36  57  80 107 142 181 219 264 319
#     4  10  21  36  55  81 110 141 179 221 267 320
#     4   9  19  38  61  81 104 137 178 224 271 319
#     4   9  19  36  56  80 111 146 183 220 264 321
#     4  10  21  38  60  84 110 142 182 227 274 327
#
# _framework density 18.980509000000001
#
# number of rings (size 3 to 8) (size 9 to 14) (size 15 to 20)
#    0.000    2.125    0.000    3.750    0.000    7.000 
#    0.000    1.250    0.000    0.000    0.000    0.000 
#    0.000    0.000    0.000    0.000    0.000    0.000 
#
# Total GULP energy -793816.833945 kJ/mol
# GULP energy per Si atom -12403.388030 kJ/mol
# Density = 1.893731 g / cm^3
# Si number density = 18.980509 Si / 1000 Ang^3
#
#
#
# Elastic Constant Matrix: (Units=GPa)
#
#
# Indices 1 2 3 4 5 6 
#
# 1 74.6534 41.0906 43.9518 0.0000 0.0000 0.0000
# 2 41.0906 107.2556 57.0143 0.0000 0.0000 0.0000
# 3 43.9518 57.0143 121.8104 0.0000 0.0000 0.0000
# 4 0.0000 0.0000 0.0000 319.2373 0.0000 0.0000
# 5 0.0000 0.0000 0.0000 0.0000 32.0183 0.0000
# 6 0.0000 0.0000 0.0000 0.0000 0.0000 31.5770
#
#
#
# Elastic Compliance Matrix: (Units=1/GPa)
#
#
# Indices 1 2 3 4 5 6 
#
# 1 0.018667 -0.004754 -0.004510 0.000000 0.000000 0.000000
# 2 -0.004754 0.013622 -0.004661 0.000000 0.000000 0.000000
# 3 -0.004510 -0.004661 0.012018 0.000000 0.000000 0.000000
# 4 0.000000 0.000000 0.000000 0.003132 0.000000 0.000000
# 5 0.000000 0.000000 0.000000 0.000000 0.031232 0.000000
# 6 0.000000 0.000000 0.000000 0.000000 0.000000 0.031669
#
#
# Mechanical properties :
#
#
# Convention : Reuss Voigt Hill
#
# Bulk Modulus (GPa) = 60.76124 65.31476 63.03800
# Shear Modulus (GPa) = 34.80011 87.34403 61.07207
#
# Velocity S-wave (km/s) = 4.28654 6.79100 5.67856
# Velocity P-wave (km/s) = 7.52205 9.79675 8.73377
#
# Compressibility (1/GPa) = 0.01645786
#
# Stress axis : x y z
#
# Youngs Moduli (GPa) = 53.56925 73.40882 83.20560
#
# Poissons Ratio (x) = 0.34899 0.37529
# Poissons Ratio (y) = 0.25467 0.38780
# Poissons Ratio (z) = 0.24162 0.34214
#
# Static dielectric constant tensor:
#      x y z
#    x 3.499200 0.000000 0.000000 
#    y 0.000000 3.581260 0.000000 
#    z 0.000000 0.000000 3.456800 
# 
# 
# High freq. dielectric constant tensor:
#      x y z
#    x 1.739980 0.000000 0.000000 
#    y 0.000000 1.747240 0.000000 
#    z 0.000000 0.000000 1.736290 
# 
# From -- ./inp_files/31456.got.cif
#   From: 2010.03.12/outbox.cif.g09.slc.cpg/sg59_16_cif.got.tgz:31456.got - 2010.04.16 16:29:54.
