data_PCOD8245101
_publ_section_title
;
Structure prediction by ZEFSAII (Michael W. Deem and Ramdas Pophale) SiO2 
 PCOD8245101
Probable space group: P M M N
;
_chemical_formula_sum "Si O2"
_cell_formula_units_Z 48
_cell_length_a 9.889337
_cell_length_b 8.844979
_cell_length_c 28.964205
_cell_angle_alpha 90.000000
_cell_angle_beta 90.000000
_cell_angle_gamma 90.000000
_cell_volume 2533.527341
_symmetry_space_group_name_H-M "P M M N"
_symmetry_group_IT_number 59
_space_group.IT_coordinate_system_code '2'
_symmetry_cell_setting 'orthorhombic'
loop_
_space_group_symop_operation_xyz
x,y,z
1/2-x,1/2-y,z
1/2+x,-y,-z
-x,1/2+y,-z
-x,-y,-z
1/2+x,1/2+y,-z
1/2-x,y,z
x,1/2-y,z
loop_
_atom_site_type_symbol
_atom_site_label
_atom_site_fract_x
_atom_site_fract_y
_atom_site_fract_z
Si Si1 0.591263 0.924385 0.269462
Si Si2 0.250000 0.929125 0.931012
Si Si3 0.902575 0.070910 0.462731
Si Si4 0.097292 0.076267 0.195737
Si Si5 0.750000 0.070808 0.965178
Si Si6 0.018470 0.928615 0.102345
Si Si7 0.910035 0.082953 0.361164
O O1 0.750000 0.957367 0.262163
O O2 0.556880 0.750000 0.260871
O O3 0.508726 0.026092 0.234157
O O4 0.544314 0.967616 0.321247
O O5 0.250000 0.750000 0.932014
O O6 0.377729 0.987275 0.903079
O O7 0.250000 0.996100 0.983129
O O8 0.750000 0.010389 0.470767
O O9 0.905175 0.250000 0.467196
O O10 0.956810 0.023859 0.411607
O O11 0.000000 0.000000 0.500000
O O12 0.250000 0.056675 0.214720
O O13 0.067884 0.250000 0.182578
O O14 0.082611 0.972197 0.150978
O O15 0.750000 0.250000 0.965937
O O16 0.616886 0.013782 0.938480
O O17 0.995890 0.750000 0.100514
O O18 0.750000 0.096562 0.362838
O O19 0.970765 0.250000 0.350721
#
# Coordination Sequence:
#
# PCOD8245101 Si02
#       7
#     8   4   8   8   4   8   8
#     4  10  21  36  58  87 113 140 180 229 279 333
#     4  11  23  39  59  89 121 149 187 231 272 325
#     4   9  18  32  51  77 109 145 186 230 276 328
#     4  11  24  41  60  83 111 147 187 227 277 336
#     4   9  20  39  63  87 115 151 189 227 276 329
#     4  11  22  40  62  86 115 150 187 230 279 327
#     4   8  15  31  53  76 106 144 184 228 277 326
#
# _framework density 18.945917999999999
#
# number of rings (size 3 to 8) (size 9 to 14) (size 15 to 20)
#    0.000    2.167    0.833    3.250    1.167    3.000 
#    0.000    5.000    0.000    1.000    0.000    0.000 
#    0.000    0.000    0.000    0.000    0.000    0.000 
#
# Total GULP energy -595194.253596 kJ/mol
# GULP energy per Si atom -12399.880283 kJ/mol
# Density = 1.890280 g / cm^3
# Si number density = 18.945918 Si / 1000 Ang^3
#
#
#
# Elastic Constant Matrix: (Units=GPa)
#
#
# Indices 1 2 3 4 5 6 
#
# 1 88.5041 36.0870 35.3505 0.0000 0.0000 0.0000
# 2 36.0870 64.7953 31.5446 0.0000 0.0000 0.0000
# 3 35.3505 31.5446 105.2880 0.0000 0.0000 0.0000
# 4 0.0000 0.0000 0.0000 34.5050 0.0000 0.0000
# 5 0.0000 0.0000 0.0000 0.0000 33.6494 0.0000
# 6 0.0000 0.0000 0.0000 0.0000 0.0000 22.7413
#
#
#
# Elastic Compliance Matrix: (Units=1/GPa)
#
#
# Indices 1 2 3 4 5 6 
#
# 1 0.015411 -0.007099 -0.003047 0.000000 0.000000 0.000000
# 2 -0.007099 0.021339 -0.004010 0.000000 0.000000 0.000000
# 3 -0.003047 -0.004010 0.011722 0.000000 0.000000 0.000000
# 4 0.000000 0.000000 0.000000 0.028981 0.000000 0.000000
# 5 0.000000 0.000000 0.000000 0.000000 0.029718 0.000000
# 6 0.000000 0.000000 0.000000 0.000000 0.000000 0.043973
#
#
# Mechanical properties :
#
#
# Convention : Reuss Voigt Hill
#
# Bulk Modulus (GPa) = 49.60397 51.61682 50.61040
# Shear Modulus (GPa) = 26.85620 28.55283 27.70451
#
# Velocity S-wave (km/s) = 3.76908 3.88631 3.82814
# Velocity P-wave (km/s) = 6.72161 6.88777 6.80519
#
# Compressibility (1/GPa) = 0.02015968
#
# Stress axis : x y z
#
# Youngs Moduli (GPa) = 64.88978 46.86217 85.30850
#
# Poissons Ratio (x) = 0.33269 0.25995
# Poissons Ratio (y) = 0.46068 0.34206
# Poissons Ratio (z) = 0.19773 0.18790
#
# Static dielectric constant tensor:
#      x y z
#    x 3.838850 0.000000 0.000000 
#    y 0.000000 3.423550 0.000000 
#    z 0.000000 0.000000 3.896920 
# 
# 
# High freq. dielectric constant tensor:
#      x y z
#    x 1.722410 0.000000 0.000000 
#    y 0.000000 1.732560 0.000000 
#    z 0.000000 0.000000 1.745770 
# 
# From -- ./inp_files/32993.got.cif
#   From: 2010.03.12/outbox.cif.g09.slc.cpg/sg59_17_cif.got.tgz:32993.got - 2010.04.16 16:29:54.
