data_PCOD8245092
_publ_section_title
;
Structure prediction by ZEFSAII (Michael W. Deem and Ramdas Pophale) SiO2 
 PCOD8245092
Probable space group: P M M N
;
_chemical_formula_sum "Si O2"
_cell_formula_units_Z 40
_cell_length_a 14.270611
_cell_length_b 8.939345
_cell_length_c 16.978320
_cell_angle_alpha 90.000000
_cell_angle_beta 90.000000
_cell_angle_gamma 90.000000
_cell_volume 2165.922841
_symmetry_space_group_name_H-M "P M M N"
_symmetry_group_IT_number 59
_space_group.IT_coordinate_system_code '2'
_symmetry_cell_setting 'orthorhombic'
loop_
_space_group_symop_operation_xyz
x,y,z
1/2-x,1/2-y,z
1/2+x,-y,-z
-x,1/2+y,-z
-x,-y,-z
1/2+x,1/2+y,-z
1/2-x,y,z
x,1/2-y,z
loop_
_atom_site_type_symbol
_atom_site_label
_atom_site_fract_x
_atom_site_fract_y
_atom_site_fract_z
Si Si1 0.943463 0.078232 0.721795
Si Si2 0.750000 0.427482 0.650943
Si Si3 0.500008 0.425710 0.120167
Si Si4 0.062243 0.422813 0.565850
Si Si5 0.143457 0.426255 0.987147
Si Si6 0.250000 0.571655 0.528097
O O1 0.935873 0.250000 0.749325
O O2 0.841710 0.015009 0.696591
O O3 0.013467 0.061257 0.649599
O O4 0.981957 0.978821 0.791949
O O5 0.750000 0.250000 0.645665
O O6 0.750000 0.488291 0.561744
O O7 0.514148 0.250000 0.119532
O O8 0.595673 0.498865 0.088648
O O9 0.412139 0.474539 0.065858
O O10 0.076505 0.250000 0.542946
O O11 0.160444 0.507126 0.572922
O O12 0.000000 0.500000 0.500000
O O13 0.250000 0.483897 0.995050
O O14 0.140041 0.250000 0.974510
O O15 0.250000 0.750000 0.532687
#
# Coordination Sequence:
#
# PCOD8245092 Si02
#       6
#     8   4   8   8   8   4
#     4  10  21  38  58  82 116 153 187 227 283 344
#     4   9  18  35  57  83 112 147 186 227 279 340
#     4  10  21  36  57  87 117 142 183 234 278 329
#     4  11  22  38  60  85 115 154 198 240 289 346
#     4   9  19  38  61  82 111 150 184 222 279 339
#     4  11  21  39  61  83 114 151 196 247 293 344
#
# _framework density 18.467877999999999
#
# number of rings (size 3 to 8) (size 9 to 14) (size 15 to 20)
#    0.000    2.000    2.000    1.500    1.400    2.800 
#    1.800    0.000    0.000    0.000    0.000    0.000 
#    0.000    0.000    0.000    0.000    0.000    0.000 
#
# Total GULP energy -496140.284298 kJ/mol
# GULP energy per Si atom -12403.507107 kJ/mol
# Density = 1.842584 g / cm^3
# Si number density = 18.467878 Si / 1000 Ang^3
#
#
#
# Elastic Constant Matrix: (Units=GPa)
#
#
# Indices 1 2 3 4 5 6 
#
# 1 149.7031 49.6123 42.0629 0.0000 0.0000 0.0000
# 2 49.6123 62.6071 33.6875 0.0000 0.0000 0.0000
# 3 42.0629 33.6875 87.0210 0.0000 0.0000 0.0000
# 4 0.0000 0.0000 0.0000 29.9396 0.0000 0.0000
# 5 0.0000 0.0000 0.0000 0.0000 22.9959 0.0000
# 6 0.0000 0.0000 0.0000 0.0000 0.0000 30.7365
#
#
#
# Elastic Compliance Matrix: (Units=1/GPa)
#
#
# Indices 1 2 3 4 5 6 
#
# 1 0.009349 -0.006287 -0.002085 0.000000 0.000000 0.000000
# 2 -0.006287 0.024402 -0.006408 0.000000 0.000000 0.000000
# 3 -0.002085 -0.006408 0.014980 0.000000 0.000000 0.000000
# 4 0.000000 0.000000 0.000000 0.033401 0.000000 0.000000
# 5 0.000000 0.000000 0.000000 0.000000 0.043486 0.000000
# 6 0.000000 0.000000 0.000000 0.000000 0.000000 0.032535
#
#
# Mechanical properties :
#
#
# Convention : Reuss Voigt Hill
#
# Bulk Modulus (GPa) = 52.15976 61.11739 56.63857
# Shear Modulus (GPa) = 25.75947 28.33228 27.04588
#
# Velocity S-wave (km/s) = 3.73879 3.92106 3.83101
# Velocity P-wave (km/s) = 6.85149 7.32566 7.09254
#
# Compressibility (1/GPa) = 0.01917187
#
# Stress axis : x y z
#
# Youngs Moduli (GPa) = 106.96043 40.97973 66.75511
#
# Poissons Ratio (x) = 0.25762 0.13921
# Poissons Ratio (y) = 0.67242 0.42776
# Poissons Ratio (z) = 0.22306 0.26259
#
# Static dielectric constant tensor:
#      x y z
#    x 3.717380 0.000000 0.000000 
#    y 0.000000 3.355560 0.000000 
#    z 0.000000 0.000000 3.332320 
# 
# 
# High freq. dielectric constant tensor:
#      x y z
#    x 1.727650 0.000000 0.000000 
#    y 0.000000 1.712420 0.000000 
#    z 0.000000 0.000000 1.712170 
# 
# From -- ./inp_files/19936.got.cif
#   From: 2010.03.12/outbox.cif.g09.slc.cpg/sg59_10_cif.got.tgz:19936.got - 2010.04.16 16:29:54.
