data_PCOD8245618
_publ_section_title
;
Structure prediction by ZEFSAII (Michael W. Deem and Ramdas Pophale) SiO2 
 PCOD8245618
Probable space group: P M M N
;
_chemical_formula_sum "Si O2"
_cell_formula_units_Z 64
_cell_length_a 9.154739
_cell_length_b 18.511710
_cell_length_c 19.718792
_cell_angle_alpha 90.000000
_cell_angle_beta 90.000000
_cell_angle_gamma 90.000000
_cell_volume 3341.741186
_symmetry_space_group_name_H-M "P M M N"
_symmetry_group_IT_number 59
_space_group.IT_coordinate_system_code '2'
_symmetry_cell_setting 'orthorhombic'
loop_
_space_group_symop_operation_xyz
x,y,z
1/2-x,1/2-y,z
1/2+x,-y,-z
-x,1/2+y,-z
-x,-y,-z
1/2+x,1/2+y,-z
1/2-x,y,z
x,1/2-y,z
loop_
_atom_site_type_symbol
_atom_site_label
_atom_site_fract_x
_atom_site_fract_y
_atom_site_fract_z
Si Si1 0.585498 0.832823 0.269825
Si Si2 0.576943 0.602049 0.783388
Si Si3 0.911026 0.665295 0.423544
Si Si4 0.577037 0.069780 0.972113
Si Si5 0.579170 0.073376 0.477637
Si Si6 0.922409 0.333750 0.347458
Si Si7 0.913874 0.834870 0.926724
Si Si8 0.921682 0.443493 0.818788
O O1 0.750000 0.842764 0.242201
O O2 0.536565 0.750000 0.264310
O O3 0.576200 0.860808 0.346500
O O4 0.473761 0.878943 0.227437
O O5 0.750000 0.606294 0.771329
O O6 0.499772 0.642005 0.721365
O O7 0.530379 0.641707 0.852675
O O8 0.518157 0.519943 0.790800
O O9 0.750000 0.642501 0.451524
O O10 0.929464 0.750000 0.427908
O O11 0.042847 0.630953 0.464681
O O12 0.750000 0.063493 0.979510
O O13 0.526244 0.075310 0.894398
O O14 0.520800 0.138172 0.014299
O O15 0.500000 0.000000 0.000000
O O16 0.750000 0.057468 0.475617
O O17 0.527276 0.110301 0.406785
O O18 0.500000 0.000000 0.500000
O O19 0.750000 0.339314 0.337053
O O20 0.965493 0.250000 0.364812
O O21 0.750000 0.866198 0.938188
O O22 0.913377 0.750000 0.930942
O O23 0.750000 0.447809 0.816412
#
# Coordination Sequence:
#
# PCOD8245618 Si02
#       8
#     8   8   8   8   8   8   8   8
#     4   9  20  38  59  85 117 152 192 236 284 342
#     4  10  21  39  61  87 119 155 196 239 289 346
#     4   9  19  38  62  86 114 149 190 235 282 337
#     4  11  22  39  60  83 115 153 195 240 290 345
#     4  11  24  40  59  86 120 155 194 241 292 344
#     4  10  23  42  61  85 119 155 194 241 292 347
#     4  10  21  39  62  88 120 155 193 241 294 348
#     4  10  22  38  58  85 118 152 192 241 288 343
#
# _framework density 19.151692000000001
#
# number of rings (size 3 to 8) (size 9 to 14) (size 15 to 20)
#    0.000    2.000    1.250    2.250    1.750    6.000 
#    0.000    3.750    0.000    0.000    0.000    0.000 
#    0.000    0.000    0.000    0.000    0.000    0.000 
#
# Total GULP energy -793484.613717 kJ/mol
# GULP energy per Si atom -12398.197089 kJ/mol
# Density = 1.910810 g / cm^3
# Si number density = 19.151692 Si / 1000 Ang^3
#
#
#
# Elastic Constant Matrix: (Units=GPa)
#
#
# Indices 1 2 3 4 5 6 
#
# 1 38.1703 34.6045 40.8504 0.0000 0.0000 0.0000
# 2 34.6045 81.9356 70.0950 0.0000 0.0000 0.0000
# 3 40.8504 70.0950 115.3955 0.0000 0.0000 0.0000
# 4 0.0000 0.0000 0.0000 39.2337 0.0000 0.0000
# 5 0.0000 0.0000 0.0000 0.0000 36.3289 0.0000
# 6 0.0000 0.0000 0.0000 0.0000 0.0000 35.9364
#
#
#
# Elastic Compliance Matrix: (Units=1/GPa)
#
#
# Indices 1 2 3 4 5 6 
#
# 1 0.047007 -0.011693 -0.009538 0.000000 0.000000 0.000000
# 2 -0.011693 0.028317 -0.013061 0.000000 0.000000 0.000000
# 3 -0.009538 -0.013061 0.019976 0.000000 0.000000 0.000000
# 4 0.000000 0.000000 0.000000 0.025488 0.000000 0.000000
# 5 0.000000 0.000000 0.000000 0.000000 0.027526 0.000000
# 6 0.000000 0.000000 0.000000 0.000000 0.000000 0.027827
#
#
# Mechanical properties :
#
#
# Convention : Reuss Voigt Hill
#
# Bulk Modulus (GPa) = 37.43166 58.51124 47.97145
# Shear Modulus (GPa) = 19.71373 28.29656 24.00514
#
# Velocity S-wave (km/s) = 3.21182 3.84799 3.54421
# Velocity P-wave (km/s) = 5.77423 7.09651 6.46924
#
# Compressibility (1/GPa) = 0.02671536
#
# Stress axis : x y z
#
# Youngs Moduli (GPa) = 21.27358 35.31455 50.06020
#
# Poissons Ratio (x) = 0.41295 0.47745
# Poissons Ratio (y) = 0.24876 0.65384
# Poissons Ratio (z) = 0.20290 0.46125
#
# Static dielectric constant tensor:
#      x y z
#    x 2.999730 0.000000 0.000000 
#    y 0.000000 3.896990 0.000000 
#    z 0.000000 0.000000 3.787740 
# 
# 
# High freq. dielectric constant tensor:
#      x y z
#    x 1.737690 0.000000 0.000000 
#    y 0.000000 1.755780 0.000000 
#    z 0.000000 0.000000 1.752170 
# 
# From -- ./inp_files/29359.got.cif
#   From: 2010.03.12/outbox.cif.g09.slc.cpg/sg59_15_cif.got.tgz:29359.got - 2010.04.16 16:29:54.
