data_PCOD8245743
_publ_section_title
;
Structure prediction by ZEFSAII (Michael W. Deem and Ramdas Pophale) SiO2 
 PCOD8245743
Probable space group: P M M N
;
_chemical_formula_sum "Si O2"
_cell_formula_units_Z 40
_cell_length_a 7.473358
_cell_length_b 16.212814
_cell_length_c 15.737573
_cell_angle_alpha 90.000000
_cell_angle_beta 90.000000
_cell_angle_gamma 90.000000
_cell_volume 1906.829863
_symmetry_space_group_name_H-M "P M M N"
_symmetry_group_IT_number 59
_space_group.IT_coordinate_system_code '2'
_symmetry_cell_setting 'orthorhombic'
loop_
_space_group_symop_operation_xyz
x,y,z
1/2-x,1/2-y,z
1/2+x,-y,-z
-x,1/2+y,-z
-x,-y,-z
1/2+x,1/2+y,-z
1/2-x,y,z
x,1/2-y,z
loop_
_atom_site_type_symbol
_atom_site_label
_atom_site_fract_x
_atom_site_fract_y
_atom_site_fract_z
Si Si1 0.459714 0.933557 0.751525
Si Si2 0.542119 0.105667 0.666658
Si Si3 0.250000 0.348401 0.537721
Si Si4 0.750000 0.844637 0.651154
Si Si5 0.038719 0.750000 0.212878
Si Si6 0.964196 0.250000 0.977189
Si Si7 0.958271 0.079858 0.056350
O O1 0.250000 0.913148 0.744785
O O2 0.570231 0.864008 0.702887
O O3 0.528572 0.936664 0.848698
O O4 0.509973 0.017825 0.707040
O O5 0.750000 0.119314 0.643643
O O6 0.428677 0.116363 0.581387
O O7 0.471403 0.170071 0.736703
O O8 0.250000 0.250000 0.542058
O O9 0.250000 0.386144 0.442444
O O10 0.750000 0.750000 0.631596
O O11 0.250000 0.750000 0.205986
O O12 0.957908 0.750000 0.118425
O O13 0.750000 0.250000 0.978104
O O14 0.040943 0.166174 0.021172
O O15 0.750000 0.093522 0.058518
O O16 0.000000 0.000000 0.000000
#
# Coordination Sequence:
#
# PCOD8245743 Si02
#       7
#     8   8   4   4   4   4   8
#     4  11  24  43  66  97 130 175 219 268 326 387
#     4  11  21  39  66  98 132 170 211 266 329 391
#     4  11  24  44  68  98 132 163 214 272 332 393
#     4  11  28  48  68  93 127 174 217 276 332 393
#     4   9  18  31  61  95 129 170 211 255 331 388
#     4   9  18  36  58  88 123 170 209 258 318 386
#     4  10  22  38  62  93 129 169 218 268 320 381
#
# _framework density 20.977226999999999
#
# number of rings (size 3 to 8) (size 9 to 14) (size 15 to 20)
#    0.000    1.600    3.000    1.200    2.800    3.600 
#    0.000    2.500    0.000    0.000    0.000    0.000 
#    0.000    0.000    0.000    0.000    0.000    0.000 
#
# Total GULP energy -495961.197019 kJ/mol
# GULP energy per Si atom -12399.029925 kJ/mol
# Density = 2.092948 g / cm^3
# Si number density = 20.977227 Si / 1000 Ang^3
#
#
#
# Elastic Constant Matrix: (Units=GPa)
#
#
# Indices 1 2 3 4 5 6 
#
# 1 98.8882 18.0310 54.2694 0.0000 0.0000 0.0000
# 2 18.0310 106.4886 48.2185 0.0000 0.0000 0.0000
# 3 54.2694 48.2185 181.3193 0.0000 0.0000 0.0000
# 4 0.0000 0.0000 0.0000 37.5492 0.0000 0.0000
# 5 0.0000 0.0000 0.0000 0.0000 39.6846 0.0000
# 6 0.0000 0.0000 0.0000 0.0000 0.0000 97.0071
#
#
#
# Elastic Compliance Matrix: (Units=1/GPa)
#
#
# Indices 1 2 3 4 5 6 
#
# 1 0.012120 -0.000466 -0.003504 0.000000 0.000000 0.000000
# 2 -0.000466 0.010694 -0.002705 0.000000 0.000000 0.000000
# 3 -0.003504 -0.002705 0.007283 0.000000 0.000000 0.000000
# 4 0.000000 0.000000 0.000000 0.026632 0.000000 0.000000
# 5 0.000000 0.000000 0.000000 0.000000 0.025199 0.000000
# 6 0.000000 0.000000 0.000000 0.000000 0.000000 0.010309
#
#
# Mechanical properties :
#
#
# Convention : Reuss Voigt Hill
#
# Bulk Modulus (GPa) = 59.70364 69.74819 64.72592
# Shear Modulus (GPa) = 44.97718 52.59331 48.78525
#
# Velocity S-wave (km/s) = 4.63546 5.01259 4.82771
# Velocity P-wave (km/s) = 7.56128 8.17454 7.87388
#
# Compressibility (1/GPa) = 0.01674940
#
# Stress axis : x y z
#
# Youngs Moduli (GPa) = 82.50688 93.50912 137.30536
#
# Poissons Ratio (x) = 0.04355 0.48109
# Poissons Ratio (y) = 0.03842 0.37135
# Poissons Ratio (z) = 0.28908 0.25290
#
# Static dielectric constant tensor:
#      x y z
#    x 3.927430 0.000000 0.000000 
#    y 0.000000 3.797250 0.000000 
#    z 0.000000 0.000000 4.041390 
# 
# 
# High freq. dielectric constant tensor:
#      x y z
#    x 1.817690 0.000000 0.000000 
#    y 0.000000 1.828170 0.000000 
#    z 0.000000 0.000000 1.830300 
# 
# From -- ./inp_files/20052.got.cif
#   From: 2010.03.12/outbox.cif.g09.slc.cpg/sg59_11_cif.got.tgz:20052.got - 2010.04.16 16:29:54.
