data_PCOD8245664
_publ_section_title
;
Structure prediction by ZEFSAII (Michael W. Deem and Ramdas Pophale) SiO2 
 PCOD8245664
Probable space group: P M M N
;
_chemical_formula_sum "Si O2"
_cell_formula_units_Z 64
_cell_length_a 8.625432
_cell_length_b 30.922706
_cell_length_c 11.971648
_cell_angle_alpha 90.000000
_cell_angle_beta 90.000000
_cell_angle_gamma 90.000000
_cell_volume 3193.098281
_symmetry_space_group_name_H-M "P M M N"
_symmetry_group_IT_number 59
_space_group.IT_coordinate_system_code '2'
_symmetry_cell_setting 'orthorhombic'
loop_
_space_group_symop_operation_xyz
x,y,z
1/2-x,1/2-y,z
1/2+x,-y,-z
-x,1/2+y,-z
-x,-y,-z
1/2+x,1/2+y,-z
1/2-x,y,z
x,1/2-y,z
loop_
_atom_site_type_symbol
_atom_site_label
_atom_site_fract_x
_atom_site_fract_y
_atom_site_fract_z
Si Si1 0.427927 0.609470 0.133898
Si Si2 0.574141 0.979786 0.108767
Si Si3 0.072345 0.700880 0.752738
Si Si4 0.430806 0.200315 0.479760
Si Si5 0.067246 0.452447 0.478540
Si Si6 0.074220 0.563178 0.755599
Si Si7 0.929142 0.376453 0.615956
Si Si8 0.569991 0.866500 0.908776
O O1 0.250000 0.613652 0.096174
O O2 0.469127 0.559425 0.148298
O O3 0.459078 0.631665 0.252855
O O4 0.534408 0.631500 0.040280
O O5 0.750000 0.964779 0.082067
O O6 0.573009 0.013148 0.210935
O O7 0.500000 0.000000 0.000000
O O8 0.250000 0.692719 0.719641
O O9 0.041900 0.750000 0.787546
O O10 0.967877 0.687362 0.647480
O O11 0.026122 0.673009 0.859042
O O12 0.250000 0.194045 0.501417
O O13 0.482751 0.250000 0.502478
O O14 0.523000 0.168459 0.559918
O O15 0.250000 0.457142 0.471193
O O16 0.000000 0.500000 0.500000
O O17 0.003512 0.431658 0.364561
O O18 0.025072 0.418266 0.575202
O O19 0.250000 0.581086 0.749963
O O20 0.979699 0.589174 0.849051
O O21 0.750000 0.386309 0.591255
O O22 0.750000 0.858166 0.889981
#
# Coordination Sequence:
#
# PCOD8245664 Si02
#       8
#     8   8   8   8   8   8   8   8
#     4  11  24  41  60  84 118 159 204 251 297 355
#     4  11  22  36  58  84 115 155 199 248 297 351
#     4  10  21  39  64  91 121 155 191 237 294 355
#     4  10  21  39  65  96 127 158 198 249 305 366
#     4  12  25  41  61  87 122 161 204 252 305 363
#     4  11  23  39  60  86 118 155 198 245 294 349
#     4  11  24  42  64  89 121 162 207 255 308 366
#     4  12  24  38  60  88 119 153 193 242 294 350
#
# _framework density 20.043227999999999
#
# number of rings (size 3 to 8) (size 9 to 14) (size 15 to 20)
#    0.000    1.000    1.250    6.000    0.000    7.000 
#    0.000    0.625    0.000    0.750    0.000    0.000 
#    0.000    0.000    0.000    0.000    0.000    0.000 
#
# Total GULP energy -793977.206141 kJ/mol
# GULP energy per Si atom -12405.893846 kJ/mol
# Density = 1.999761 g / cm^3
# Si number density = 20.043228 Si / 1000 Ang^3
#
#
#
# Elastic Constant Matrix: (Units=GPa)
#
#
# Indices 1 2 3 4 5 6 
#
# 1 71.0679 15.1205 30.9801 0.0000 0.0000 0.0000
# 2 15.1205 96.0758 41.5391 0.0000 0.0000 0.0000
# 3 30.9801 41.5391 103.9279 0.0000 0.0000 0.0000
# 4 0.0000 0.0000 0.0000 34.6794 0.0000 0.0000
# 5 0.0000 0.0000 0.0000 0.0000 31.8523 0.0000
# 6 0.0000 0.0000 0.0000 0.0000 0.0000 33.8986
#
#
#
# Elastic Compliance Matrix: (Units=1/GPa)
#
#
# Indices 1 2 3 4 5 6 
#
# 1 0.016197 -0.000558 -0.004605 0.000000 0.000000 0.000000
# 2 -0.000558 0.012602 -0.004871 0.000000 0.000000 0.000000
# 3 -0.004605 -0.004871 0.012942 0.000000 0.000000 0.000000
# 4 0.000000 0.000000 0.000000 0.028836 0.000000 0.000000
# 5 0.000000 0.000000 0.000000 0.000000 0.031395 0.000000
# 6 0.000000 0.000000 0.000000 0.000000 0.000000 0.029500
#
#
# Mechanical properties :
#
#
# Convention : Reuss Voigt Hill
#
# Bulk Modulus (GPa) = 46.13989 49.59455 47.86722
# Shear Modulus (GPa) = 31.49338 32.31484 31.90411
#
# Velocity S-wave (km/s) = 3.96823 4.01965 3.99402
# Velocity P-wave (km/s) = 6.63822 6.80742 6.72335
#
# Compressibility (1/GPa) = 0.02167322
#
# Stress axis : x y z
#
# Youngs Moduli (GPa) = 61.73869 79.35166 77.27022
#
# Poissons Ratio (x) = 0.04428 0.35585
# Poissons Ratio (y) = 0.03445 0.37635
# Poissons Ratio (z) = 0.28432 0.38649
#
# Static dielectric constant tensor:
#      x y z
#    x 3.476330 0.000000 0.000000 
#    y 0.000000 3.590620 0.000000 
#    z 0.000000 0.000000 3.548900 
# 
# 
# High freq. dielectric constant tensor:
#      x y z
#    x 1.798600 0.000000 0.000000 
#    y 0.000000 1.778520 0.000000 
#    z 0.000000 0.000000 1.784480 
# 
# From -- ./inp_files/14892.got.cif
#   From: 2010.03.12/outbox.cif.g09.slc.cpg/sg59_8_cif.got.tgz:14892.got - 2010.04.16 16:29:54.
