data_PCOD8245989
_publ_section_title
;
Structure prediction by ZEFSAII (Michael W. Deem and Ramdas Pophale) SiO2 
 PCOD8245989
Probable space group: P M M N
;
_chemical_formula_sum "Si O2"
_cell_formula_units_Z 40
_cell_length_a 14.363535
_cell_length_b 8.740795
_cell_length_c 17.389436
_cell_angle_alpha 90.000000
_cell_angle_beta 90.000000
_cell_angle_gamma 90.000000
_cell_volume 2183.221343
_symmetry_space_group_name_H-M "P M M N"
_symmetry_group_IT_number 59
_space_group.IT_coordinate_system_code '2'
_symmetry_cell_setting 'orthorhombic'
loop_
_space_group_symop_operation_xyz
x,y,z
1/2-x,1/2-y,z
1/2+x,-y,-z
-x,1/2+y,-z
-x,-y,-z
1/2+x,1/2+y,-z
1/2-x,y,z
x,1/2-y,z
loop_
_atom_site_type_symbol
_atom_site_label
_atom_site_fract_x
_atom_site_fract_y
_atom_site_fract_z
Si Si1 0.443377 0.568491 0.285778
Si Si2 0.519356 0.431146 0.883533
Si Si3 0.059734 0.068252 0.568628
Si Si4 0.250000 0.931901 0.524522
Si Si5 0.250000 0.932153 0.348979
Si Si6 0.355308 0.430786 0.991887
O O1 0.438409 0.750000 0.283482
O O2 0.476877 0.504392 0.203355
O O3 0.515270 0.515103 0.350813
O O4 0.340953 0.502996 0.305783
O O5 0.528042 0.250000 0.884808
O O6 0.421675 0.484536 0.921569
O O7 0.607444 0.497257 0.929267
O O8 0.061726 0.250000 0.560370
O O9 0.161995 0.999149 0.568598
O O10 0.000000 0.000000 0.500000
O O11 0.250000 0.750000 0.529169
O O12 0.250000 0.990425 0.436727
O O13 0.250000 0.750000 0.349442
O O14 0.250000 0.488138 0.976048
O O15 0.358182 0.250000 0.000975
#
# Coordination Sequence:
#
# PCOD8245989 Si02
#       6
#     8   8   8   4   4   8
#     4   9  18  32  52  79 106 133 173 221 262 304
#     4   9  18  33  54  78 100 131 175 214 252 308
#     4  11  21  36  56  80 108 142 182 225 270 322
#     4  11  21  37  57  77 106 145 182 224 275 321
#     4   9  16  29  51  77 104 131 164 216 267 303
#     4   9  18  33  51  74 106 137 164 205 262 312
#
# _framework density 18.321549999999998
#
# number of rings (size 3 to 8) (size 9 to 14) (size 15 to 20)
#    0.000    2.400    2.000    0.900    1.400    0.400 
#    1.800    2.000    0.000    0.000    0.000    0.000 
#    0.000    0.000    0.000    0.000    0.000    0.000 
#
# Total GULP energy -495972.400966 kJ/mol
# GULP energy per Si atom -12399.310024 kJ/mol
# Density = 1.827985 g / cm^3
# Si number density = 18.321550 Si / 1000 Ang^3
#
#
#
# Elastic Constant Matrix: (Units=GPa)
#
#
# Indices 1 2 3 4 5 6 
#
# 1 182.7554 29.1795 95.3958 0.0000 0.0000 0.0000
# 2 29.1795 32.1793 27.2068 0.0000 0.0000 0.0000
# 3 95.3958 27.2068 178.4185 0.0000 0.0000 0.0000
# 4 0.0000 0.0000 0.0000 22.4186 0.0000 0.0000
# 5 0.0000 0.0000 0.0000 0.0000 24.1650 0.0000
# 6 0.0000 0.0000 0.0000 0.0000 0.0000 28.3032
#
#
#
# Elastic Compliance Matrix: (Units=1/GPa)
#
#
# Indices 1 2 3 4 5 6 
#
# 1 0.008057 -0.004206 -0.003667 0.000000 0.000000 0.000000
# 2 -0.004206 0.037871 -0.003526 0.000000 0.000000 0.000000
# 3 -0.003667 -0.003526 0.008103 0.000000 0.000000 0.000000
# 4 0.000000 0.000000 0.000000 0.044606 0.000000 0.000000
# 5 0.000000 0.000000 0.000000 0.000000 0.041382 0.000000
# 6 0.000000 0.000000 0.000000 0.000000 0.000000 0.035332
#
#
# Mechanical properties :
#
#
# Convention : Reuss Voigt Hill
#
# Bulk Modulus (GPa) = 32.01667 77.43525 54.72596
# Shear Modulus (GPa) = 23.97395 31.08210 27.52803
#
# Velocity S-wave (km/s) = 3.62126 4.12330 3.88041
# Velocity P-wave (km/s) = 5.91587 8.06382 7.07187
#
# Compressibility (1/GPa) = 0.03123373
#
# Stress axis : x y z
#
# Youngs Moduli (GPa) = 124.11101 26.40543 123.41207
#
# Poissons Ratio (x) = 0.11106 0.45251
# Poissons Ratio (y) = 0.52203 0.43515
# Poissons Ratio (z) = 0.45507 0.09311
#
# Static dielectric constant tensor:
#      x y z
#    x 3.712550 0.000000 0.000000 
#    y 0.000000 3.099090 0.000000 
#    z 0.000000 0.000000 3.684060 
# 
# 
# High freq. dielectric constant tensor:
#      x y z
#    x 1.721760 0.000000 0.000000 
#    y 0.000000 1.681310 0.000000 
#    z 0.000000 0.000000 1.711690 
# 
# From -- ./inp_files/23015.got.cif
#   From: 2010.03.12/outbox.cif.g09.slc.cpg/sg59_12_cif.got.tgz:23015.got - 2010.04.16 16:29:54.
