data_PCOD8245493
_publ_section_title
;
Structure prediction by ZEFSAII (Michael W. Deem and Ramdas Pophale) SiO2 
 PCOD8245493
Probable space group: P M M N
;
_chemical_formula_sum "Si O2"
_cell_formula_units_Z 48
_cell_length_a 14.927442
_cell_length_b 8.710577
_cell_length_c 19.073040
_cell_angle_alpha 90.000000
_cell_angle_beta 90.000000
_cell_angle_gamma 90.000000
_cell_volume 2480.003171
_symmetry_space_group_name_H-M "P M M N"
_symmetry_group_IT_number 59
_space_group.IT_coordinate_system_code '2'
_symmetry_cell_setting 'orthorhombic'
loop_
_space_group_symop_operation_xyz
x,y,z
1/2-x,1/2-y,z
1/2+x,-y,-z
-x,1/2+y,-z
-x,-y,-z
1/2+x,1/2+y,-z
1/2-x,y,z
x,1/2-y,z
loop_
_atom_site_type_symbol
_atom_site_label
_atom_site_fract_x
_atom_site_fract_y
_atom_site_fract_z
Si Si1 0.004285 0.069508 0.076485
Si Si2 0.145424 0.071953 0.324557
Si Si3 0.853693 0.927303 0.166647
Si Si4 0.348569 0.067634 0.675058
Si Si5 0.146509 0.930021 0.177981
Si Si6 0.505621 0.068207 0.576568
O O1 0.017567 0.250000 0.071692
O O2 0.089844 0.997639 0.114704
O O3 0.912249 0.032084 0.116049
O O4 0.000000 0.000000 0.000000
O O5 0.250000 0.042082 0.335272
O O6 0.120590 0.250000 0.327486
O O7 0.113083 0.005473 0.250256
O O8 0.097338 0.983959 0.387532
O O9 0.750000 0.948755 0.146430
O O10 0.882555 0.750000 0.157960
O O11 0.871503 0.984464 0.245943
O O12 0.250000 0.005257 0.653284
O O13 0.347271 0.250000 0.673247
O O14 0.422221 0.001891 0.621674
O O15 0.250000 0.969760 0.163415
O O16 0.129743 0.750000 0.184203
O O17 0.502337 0.250000 0.572066
O O18 0.500000 0.000000 0.500000
#
# Coordination Sequence:
#
# PCOD8245493 Si02
#       6
#     8   8   8   8   8   8
#     4  12  25  39  57  82 116 154 190 231 279 335
#     4  10  21  38  60  85 113 147 189 236 286 340
#     4   9  18  36  62  87 110 140 183 234 285 338
#     4   8  16  33  57  81 104 137 181 225 272 328
#     4  10  21  39  63  88 114 146 187 236 288 342
#     4  11  22  35  54  81 115 153 191 234 284 337
#
# _framework density 19.354813
#
# number of rings (size 3 to 8) (size 9 to 14) (size 15 to 20)
#    0.000    2.000    0.000    5.000    0.000    5.000 
#    0.000    2.500    0.000    3.500    0.000    0.000 
#    0.000    0.000    0.000    0.000    0.000    0.000 
#
# Total GULP energy -595347.612195 kJ/mol
# GULP energy per Si atom -12403.075254 kJ/mol
# Density = 1.931076 g / cm^3
# Si number density = 19.354813 Si / 1000 Ang^3
#
#
#
# Elastic Constant Matrix: (Units=GPa)
#
#
# Indices 1 2 3 4 5 6 
#
# 1 101.4150 37.7297 73.1728 0.0000 0.0000 0.0000
# 2 37.7297 62.8681 38.8621 0.0000 0.0000 0.0000
# 3 73.1728 38.8621 154.3300 0.0000 0.0000 0.0000
# 4 0.0000 0.0000 0.0000 36.7133 0.0000 0.0000
# 5 0.0000 0.0000 0.0000 0.0000 18.8431 0.0000
# 6 0.0000 0.0000 0.0000 0.0000 0.0000 31.6037
#
#
#
# Elastic Compliance Matrix: (Units=1/GPa)
#
#
# Indices 1 2 3 4 5 6 
#
# 1 0.016750 -0.006091 -0.006408 0.000000 0.000000 0.000000
# 2 -0.006091 0.021054 -0.002414 0.000000 0.000000 0.000000
# 3 -0.006408 -0.002414 0.010126 0.000000 0.000000 0.000000
# 4 0.000000 0.000000 0.000000 0.027238 0.000000 0.000000
# 5 0.000000 0.000000 0.000000 0.000000 0.053070 0.000000
# 6 0.000000 0.000000 0.000000 0.000000 0.000000 0.031642
#
#
# Mechanical properties :
#
#
# Convention : Reuss Voigt Hill
#
# Bulk Modulus (GPa) = 55.23627 68.68248 61.95937
# Shear Modulus (GPa) = 25.54417 28.68858 27.11637
#
# Velocity S-wave (km/s) = 3.63682 3.85417 3.74707
# Velocity P-wave (km/s) = 6.79971 7.44105 7.12760
#
# Compressibility (1/GPa) = 0.01810405
#
# Stress axis : x y z
#
# Youngs Moduli (GPa) = 59.70128 47.49715 98.76001
#
# Poissons Ratio (x) = 0.28932 0.63284
# Poissons Ratio (y) = 0.36366 0.23836
# Poissons Ratio (z) = 0.38256 0.11464
#
# Static dielectric constant tensor:
#      x y z
#    x 3.690510 0.000000 0.000000 
#    y 0.000000 3.438870 0.000000 
#    z 0.000000 0.000000 3.570610 
# 
# 
# High freq. dielectric constant tensor:
#      x y z
#    x 1.766690 0.000000 0.000000 
#    y 0.000000 1.745040 0.000000 
#    z 0.000000 0.000000 1.754380 
# 
# From -- ./inp_files/25448.got.cif
#   From: 2010.03.12/outbox.cif.g09.slc.cpg/sg59_13_cif.got.tgz:25448.got - 2010.04.16 16:29:54.
