data_PCOD8245103
_publ_section_title
;
Structure prediction by ZEFSAII (Michael W. Deem and Ramdas Pophale) SiO2 
 PCOD8245103
Probable space group: P M M N
;
_chemical_formula_sum "Si O2"
_cell_formula_units_Z 48
_cell_length_a 14.150599
_cell_length_b 14.894327
_cell_length_c 11.801287
_cell_angle_alpha 90.000000
_cell_angle_beta 90.000000
_cell_angle_gamma 90.000000
_cell_volume 2487.282308
_symmetry_space_group_name_H-M "P M M N"
_symmetry_group_IT_number 59
_space_group.IT_coordinate_system_code '2'
_symmetry_cell_setting 'orthorhombic'
loop_
_space_group_symop_operation_xyz
x,y,z
1/2-x,1/2-y,z
1/2+x,-y,-z
-x,1/2+y,-z
-x,-y,-z
1/2+x,1/2+y,-z
1/2-x,y,z
x,1/2-y,z
loop_
_atom_site_type_symbol
_atom_site_label
_atom_site_fract_x
_atom_site_fract_y
_atom_site_fract_z
Si Si1 0.545862 0.351268 0.287634
Si Si2 0.750000 0.977369 0.173434
Si Si3 0.923408 0.853563 0.497115
Si Si4 0.458966 0.484044 0.877078
Si Si5 0.250000 0.845526 0.745063
Si Si6 0.750000 0.973287 0.445847
Si Si7 0.750000 0.354297 0.591008
Si Si8 0.056351 0.852120 0.286360
O O1 0.520310 0.250000 0.246462
O O2 0.484062 0.380043 0.393741
O O3 0.532866 0.420679 0.185858
O O4 0.655025 0.355950 0.330794
O O5 0.649925 0.942778 0.121217
O O6 0.750000 0.965553 0.309847
O O7 0.750000 0.084333 0.151223
O O8 0.889347 0.750000 0.502112
O O9 0.838023 0.921724 0.498057
O O10 0.984020 0.871972 0.386633
O O11 0.528683 0.413403 0.819215
O O12 0.500000 0.500000 0.000000
O O13 0.250000 0.750000 0.807678
O O14 0.750000 0.076908 0.485327
O O15 0.750000 0.250000 0.545952
O O16 0.839049 0.373801 0.670896
O O17 0.048826 0.750000 0.244956
#
# Coordination Sequence:
#
# PCOD8245103 Si02
#       8
#     8   4   8   8   4   4   4   8
#     4   9  19  35  58  87 118 150 190 239 295 351
#     4  10  22  37  56  85 109 148 201 245 288 343
#     4  10  21  36  58  87 118 153 193 241 298 356
#     4  11  23  40  61  84 117 157 205 249 291 350
#     4   8  16  31  52  80 115 147 177 226 280 339
#     4  12  21  35  60  83 123 155 197 244 295 352
#     4  10  24  37  56  92 127 160 192 233 302 376
#     4  10  22  40  59  86 121 158 196 241 299 358
#
# _framework density 19.298169999999999
#
# number of rings (size 3 to 8) (size 9 to 14) (size 15 to 20)
#    0.000    2.000    1.667    1.250    4.667    3.000 
#    0.000    1.250    0.000    3.000    0.000    0.000 
#    0.000    0.000    0.000    0.000    0.000    0.000 
#
# Total GULP energy -594836.313368 kJ/mol
# GULP energy per Si atom -12392.423195 kJ/mol
# Density = 1.925425 g / cm^3
# Si number density = 19.298170 Si / 1000 Ang^3
#
#
#
# Elastic Constant Matrix: (Units=GPa)
#
#
# Indices 1 2 3 4 5 6 
#
# 1 123.4344 56.6193 52.6265 0.0000 0.0000 0.0000
# 2 56.6193 98.0315 54.1921 0.0000 0.0000 0.0000
# 3 52.6265 54.1921 119.3660 0.0000 0.0000 0.0000
# 4 0.0000 0.0000 0.0000 25.8498 0.0000 0.0000
# 5 0.0000 0.0000 0.0000 0.0000 23.3049 0.0000
# 6 0.0000 0.0000 0.0000 0.0000 0.0000 -41.5195
#
#
#
# Elastic Compliance Matrix: (Units=1/GPa)
#
#
# Indices 1 2 3 4 5 6 
#
# 1 0.011676 -0.005204 -0.002785 0.000000 0.000000 0.000000
# 2 -0.005204 0.015938 -0.004942 0.000000 0.000000 0.000000
# 3 -0.002785 -0.004942 0.011849 0.000000 0.000000 0.000000
# 4 0.000000 0.000000 0.000000 0.038685 0.000000 0.000000
# 5 0.000000 0.000000 0.000000 0.000000 0.042909 0.000000
# 6 0.000000 0.000000 0.000000 0.000000 0.000000 -0.024085
#
#
# Mechanical properties :
#
#
# Convention : Reuss Voigt Hill
#
# Bulk Modulus (GPa) = 73.51999 74.18975 73.85487
# Shear Modulus (GPa) = 39.25645 13.35332 26.30488
#
# Velocity S-wave (km/s) = 4.51511 2.63334 3.69599
# Velocity P-wave (km/s) = 8.08463 6.91183 7.52112
#
# Compressibility (1/GPa) = 0.01360174
#
# Stress axis : x y z
#
# Youngs Moduli (GPa) = 85.64589 62.74262 84.39542
#
# Poissons Ratio (x) = 0.32651 0.23505
# Poissons Ratio (y) = 0.44570 0.41704
# Poissons Ratio (z) = 0.23854 0.31005
#
# Static dielectric constant tensor:
#      x y z
#    x 3.872130 0.000000 0.000000 
#    y 0.000000 3.842150 0.000000 
#    z 0.000000 0.000000 3.101150 
# 
# 
# High freq. dielectric constant tensor:
#      x y z
#    x 1.766580 0.000000 0.000000 
#    y 0.000000 1.763240 0.000000 
#    z 0.000000 0.000000 1.713440 
# 
# From -- ./inp_files/16904.got.cif
#   From: 2010.03.12/outbox.cif.g09.slc.cpg/sg59_9_cif.got.tgz:16904.got - 2010.04.16 16:29:54.
