data_PCOD8245902
_publ_section_title
;
Structure prediction by ZEFSAII (Michael W. Deem and Ramdas Pophale) SiO2 
 PCOD8245902
Probable space group: P M M N
;
_chemical_formula_sum "Si O2"
_cell_formula_units_Z 64
_cell_length_a 13.633846
_cell_length_b 24.629208
_cell_length_c 9.797227
_cell_angle_alpha 90.000000
_cell_angle_beta 90.000000
_cell_angle_gamma 90.000000
_cell_volume 3289.818976
_symmetry_space_group_name_H-M "P M M N"
_symmetry_group_IT_number 59
_space_group.IT_coordinate_system_code '2'
_symmetry_cell_setting 'orthorhombic'
loop_
_space_group_symop_operation_xyz
x,y,z
1/2-x,1/2-y,z
1/2+x,-y,-z
-x,1/2+y,-z
-x,-y,-z
1/2+x,1/2+y,-z
1/2-x,y,z
x,1/2-y,z
loop_
_atom_site_type_symbol
_atom_site_label
_atom_site_fract_x
_atom_site_fract_y
_atom_site_fract_z
Si Si1 0.858964 0.525048 0.655790
Si Si2 0.360377 0.593652 0.429944
Si Si3 0.974452 0.811599 0.767759
Si Si4 0.861290 0.637647 0.527221
Si Si5 0.042702 0.384007 0.743406
Si Si6 0.636993 0.106057 0.255349
Si Si7 0.862227 0.687331 0.037134
Si Si8 0.469024 0.996060 0.844504
O O1 0.750000 0.529277 0.718231
O O2 0.872094 0.471145 0.567092
O O3 0.882392 0.574719 0.557255
O O4 0.932123 0.527297 0.780523
O O5 0.250000 0.611264 0.389446
O O6 0.432372 0.620773 0.318259
O O7 0.386393 0.609971 0.583486
O O8 0.012202 0.750000 0.766326
O O9 0.930346 0.824881 0.619311
O O10 0.067306 0.848461 0.810450
O O11 0.888973 0.820755 0.878531
O O12 0.750000 0.655496 0.554091
O O13 0.883876 0.641996 0.367172
O O14 0.059261 0.347409 0.876508
O O15 0.065274 0.446397 0.782754
O O16 0.750000 0.120031 0.225692
O O17 0.616369 0.047362 0.187160
O O18 0.750000 0.667216 0.058274
O O19 0.872657 0.750000 0.080233
O O20 0.500000 0.000000 0.000000
#
# Coordination Sequence:
#
# PCOD8245902 Si02
#       8
#     8   8   8   8   8   8   8   8
#     4   9  18  33  55  80 114 155 194 233 283 353
#     4   9  18  35  59  87 121 160 199 243 299 354
#     4  11  23  42  63  85 115 158 208 255 307 368
#     4  11  21  35  59  90 118 150 198 252 306 361
#     4  11  21  36  61  92 126 157 201 253 303 364
#     4  11  22  39  61  88 120 159 204 253 305 355
#     4  10  23  43  63  84 118 161 198 242 308 378
#     4  11  22  36  55  87 127 163 200 243 303 365
#
# _framework density 19.453956999999999
#
# number of rings (size 3 to 8) (size 9 to 14) (size 15 to 20)
#    0.000    1.625    2.500    2.250    0.000    6.000 
#    0.000    3.125    0.000    1.125    0.000    0.000 
#    0.000    0.000    0.000    0.000    0.000    0.000 
#
# Total GULP energy -793570.861156 kJ/mol
# GULP energy per Si atom -12399.544706 kJ/mol
# Density = 1.940968 g / cm^3
# Si number density = 19.453957 Si / 1000 Ang^3
#
#
#
# Elastic Constant Matrix: (Units=GPa)
#
#
# Indices 1 2 3 4 5 6 
#
# 1 97.9049 51.7325 28.9364 0.0000 0.0000 0.0000
# 2 51.7325 77.8701 24.9354 0.0000 0.0000 0.0000
# 3 28.9364 24.9354 82.3801 0.0000 0.0000 0.0000
# 4 0.0000 0.0000 0.0000 28.8194 0.0000 0.0000
# 5 0.0000 0.0000 0.0000 0.0000 30.0847 0.0000
# 6 0.0000 0.0000 0.0000 0.0000 0.0000 27.6512
#
#
#
# Elastic Compliance Matrix: (Units=1/GPa)
#
#
# Indices 1 2 3 4 5 6 
#
# 1 0.016266 -0.009940 -0.002705 0.000000 0.000000 0.000000
# 2 -0.009940 0.020294 -0.002651 0.000000 0.000000 0.000000
# 3 -0.002705 -0.002651 0.013891 0.000000 0.000000 0.000000
# 4 0.000000 0.000000 0.000000 0.034699 0.000000 0.000000
# 5 0.000000 0.000000 0.000000 0.000000 0.033240 0.000000
# 6 0.000000 0.000000 0.000000 0.000000 0.000000 0.036165
#
#
# Mechanical properties :
#
#
# Convention : Reuss Voigt Hill
#
# Bulk Modulus (GPa) = 50.35381 52.15153 51.25267
# Shear Modulus (GPa) = 26.07341 27.48111 26.77726
#
# Velocity S-wave (km/s) = 3.66493 3.76257 3.71407
# Velocity P-wave (km/s) = 6.62184 6.76326 6.69292
#
# Compressibility (1/GPa) = 0.01985947
#
# Stress axis : x y z
#
# Youngs Moduli (GPa) = 61.47977 49.27474 71.98675
#
# Poissons Ratio (x) = 0.48978 0.19470
# Poissons Ratio (y) = 0.61110 0.19087
# Poissons Ratio (z) = 0.16628 0.13065
#
# Static dielectric constant tensor:
#      x y z
#    x 3.644610 0.000000 0.000000 
#    y 0.000000 2.912170 0.000000 
#    z 0.000000 0.000000 9.822450 
# 
# 
# High freq. dielectric constant tensor:
#      x y z
#    x 1.763550 0.000000 0.000000 
#    y 0.000000 1.745420 0.000000 
#    z 0.000000 0.000000 1.753190 
# 
# From -- ./inp_files/9575.got.cif
#   From: 2010.03.12/outbox.cif.g09.slc.cpg/sg59_5_cif.got.tgz:9575.got - 2010.04.16 16:29:54.
