data_PCOD8245088
_publ_section_title
;
Structure prediction by ZEFSAII (Michael W. Deem and Ramdas Pophale) SiO2 
 PCOD8245088
Probable space group: P M M N
;
_chemical_formula_sum "Si O2"
_cell_formula_units_Z 40
_cell_length_a 16.886981
_cell_length_b 9.218347
_cell_length_c 12.733862
_cell_angle_alpha 90.000000
_cell_angle_beta 90.000000
_cell_angle_gamma 90.000000
_cell_volume 1982.280942
_symmetry_space_group_name_H-M "P M M N"
_symmetry_group_IT_number 59
_space_group.IT_coordinate_system_code '2'
_symmetry_cell_setting 'orthorhombic'
loop_
_space_group_symop_operation_xyz
x,y,z
1/2-x,1/2-y,z
1/2+x,-y,-z
-x,1/2+y,-z
-x,-y,-z
1/2+x,1/2+y,-z
1/2-x,y,z
x,1/2-y,z
loop_
_atom_site_type_symbol
_atom_site_label
_atom_site_fract_x
_atom_site_fract_y
_atom_site_fract_z
Si Si1 0.157508 0.090996 0.328030
Si Si2 0.921960 0.580384 0.462628
Si Si3 0.419499 0.077796 0.966144
Si Si4 0.840046 0.921838 0.251294
Si Si5 0.658043 0.408879 0.859482
O O1 0.250000 0.097004 0.307365
O O2 0.120091 0.250000 0.306100
O O3 0.142851 0.046848 0.448065
O O4 0.118846 0.977196 0.246063
O O5 0.940861 0.750000 0.450638
O O6 0.886031 0.517652 0.353942
O O7 0.000000 0.500000 0.500000
O O8 0.427725 0.250000 0.977123
O O9 0.391729 0.031712 0.849712
O O10 0.500000 0.000000 0.000000
O O11 0.352772 0.018414 0.044281
O O12 0.750000 0.985189 0.245211
O O13 0.833672 0.750000 0.258502
O O14 0.750000 0.386144 0.841555
O O15 0.618161 0.250000 0.878709
#
# Coordination Sequence:
#
# PCOD8245088 Si02
#       5
#     8   8   8   8   8
#     4   9  18  34  57  83 111 147 191 236 283 341
#     4  10  21  36  57  86 117 150 189 238 292 348
#     4  11  23  38  59  87 119 155 197 245 297 355
#     4   9  19  38  63  87 113 153 202 245 288 347
#     4  10  21  37  58  84 115 151 192 240 293 348
#
# _framework density 20.178775000000002
#
# number of rings (size 3 to 8) (size 9 to 14) (size 15 to 20)
#    0.000    2.200    0.000    2.400    2.800    5.200 
#    0.000    1.000    0.000    4.200    0.000    0.000 
#    0.000    0.000    0.000    0.000    0.000    0.000 
#
# Total GULP energy -495798.823658 kJ/mol
# GULP energy per Si atom -12394.970591 kJ/mol
# Density = 2.013285 g / cm^3
# Si number density = 20.178775 Si / 1000 Ang^3
#
#
#
# Elastic Constant Matrix: (Units=GPa)
#
#
# Indices 1 2 3 4 5 6 
#
# 1 84.0152 34.7918 54.1592 0.0000 0.0000 0.0000
# 2 34.7918 88.2493 68.2521 0.0000 0.0000 0.0000
# 3 54.1592 68.2521 194.4074 0.0000 0.0000 0.0000
# 4 0.0000 0.0000 0.0000 23.0007 0.0000 0.0000
# 5 0.0000 0.0000 0.0000 0.0000 36.1193 0.0000
# 6 0.0000 0.0000 0.0000 0.0000 0.0000 27.2283
#
#
#
# Elastic Compliance Matrix: (Units=1/GPa)
#
#
# Indices 1 2 3 4 5 6 
#
# 1 0.015372 -0.003773 -0.002958 0.000000 0.000000 0.000000
# 2 -0.003773 0.016481 -0.004735 0.000000 0.000000 0.000000
# 3 -0.002958 -0.004735 0.007630 0.000000 0.000000 0.000000
# 4 0.000000 0.000000 0.000000 0.043477 0.000000 0.000000
# 5 0.000000 0.000000 0.000000 0.000000 0.027686 0.000000
# 6 0.000000 0.000000 0.000000 0.000000 0.000000 0.036727
#
#
# Mechanical properties :
#
#
# Convention : Reuss Voigt Hill
#
# Bulk Modulus (GPa) = 60.41652 75.67536 68.04594
# Shear Modulus (GPa) = 28.43805 31.23424 29.83614
#
# Velocity S-wave (km/s) = 3.75814 3.93857 3.84942
# Velocity P-wave (km/s) = 6.98836 7.63328 7.31793
#
# Compressibility (1/GPa) = 0.01655176
#
# Stress axis : x y z
#
# Youngs Moduli (GPa) = 65.05497 60.67588 131.05734
#
# Poissons Ratio (x) = 0.22890 0.38765
# Poissons Ratio (y) = 0.24543 0.62057
# Poissons Ratio (z) = 0.19242 0.28731
#
# Static dielectric constant tensor:
#      x y z
#    x 3.607260 0.000000 0.000000 
#    y 0.000000 3.898080 0.000000 
#    z 0.000000 0.000000 4.130450 
# 
# 
# High freq. dielectric constant tensor:
#      x y z
#    x 1.778720 0.000000 0.000000 
#    y 0.000000 1.768600 0.000000 
#    z 0.000000 0.000000 1.804210 
# 
# From -- ./inp_files/13828.got.cif
#   From: 2010.03.12/outbox.cif.g09.slc.cpg/sg59_7_cif.got.tgz:13828.got - 2010.04.16 16:29:54.
