data_PCOD8245340
_publ_section_title
;
Structure prediction by ZEFSAII (Michael W. Deem and Ramdas Pophale) SiO2 
 PCOD8245340
Probable space group: P M M N
;
_chemical_formula_sum "Si O2"
_cell_formula_units_Z 64
_cell_length_a 22.786439
_cell_length_b 8.923100
_cell_length_c 16.609142
_cell_angle_alpha 90.000000
_cell_angle_beta 90.000000
_cell_angle_gamma 90.000000
_cell_volume 3377.064989
_symmetry_space_group_name_H-M "P M M N"
_symmetry_group_IT_number 59
_space_group.IT_coordinate_system_code '2'
_symmetry_cell_setting 'orthorhombic'
loop_
_space_group_symop_operation_xyz
x,y,z
1/2-x,1/2-y,z
1/2+x,-y,-z
-x,1/2+y,-z
-x,-y,-z
1/2+x,1/2+y,-z
1/2-x,y,z
x,1/2-y,z
loop_
_atom_site_type_symbol
_atom_site_label
_atom_site_fract_x
_atom_site_fract_y
_atom_site_fract_z
Si Si1 0.463564 0.424197 0.623546
Si Si2 0.684957 0.424922 0.637686
Si Si3 0.183659 0.410230 0.212107
Si Si4 0.429917 0.573983 0.789499
Si Si5 0.864691 0.575173 0.949272
Si Si6 0.420444 0.575595 0.467952
Si Si7 0.017324 0.571223 0.083723
Si Si8 0.317523 0.924392 0.889974
O O1 0.452849 0.250000 0.642464
O O2 0.440922 0.519721 0.699019
O O3 0.426852 0.472528 0.545697
O O4 0.531464 0.457236 0.601747
O O5 0.750000 0.489393 0.619045
O O6 0.687593 0.250000 0.645469
O O7 0.656196 0.477056 0.722827
O O8 0.642548 0.473241 0.565767
O O9 0.250000 0.394716 0.239528
O O10 0.150722 0.250000 0.220779
O O11 0.184505 0.455249 0.118107
O O12 0.443315 0.750000 0.795956
O O13 0.474287 0.485640 0.846955
O O14 0.361887 0.541541 0.815640
O O15 0.880221 0.750000 0.963023
O O16 0.917072 0.486673 0.904753
O O17 0.842647 0.511133 0.033286
O O18 0.423745 0.750000 0.493149
O O19 0.014671 0.750000 0.080614
O O20 0.000000 0.500000 0.000000
O O21 0.250000 0.974576 0.869643
O O22 0.318609 0.750000 0.911631
#
# Coordination Sequence:
#
# PCOD8245340 Si02
#       8
#     8   8   8   8   8   8   8   8
#     4  10  21  37  59  86 113 145 185 233 284 343
#     4   9  18  33  54  80 110 146 187 230 280 339
#     4   9  19  34  50  75 112 149 187 229 273 326
#     4  11  23  40  61  86 117 151 189 236 288 345
#     4  11  22  36  56  83 113 152 195 237 287 340
#     4   9  19  37  58  83 112 144 183 229 283 342
#     4  12  24  39  58  83 116 151 188 235 284 337
#     4  10  22  40  61  83 110 150 198 245 292 341
#
# _framework density 18.951367000000001
#
# number of rings (size 3 to 8) (size 9 to 14) (size 15 to 20)
#    0.000    1.875    1.250    2.625    1.750    3.250 
#    0.000    1.875    0.000    3.750    0.000    0.000 
#    0.000    0.000    0.000    0.000    0.000    0.000 
#
# Total GULP energy -793020.343601 kJ/mol
# GULP energy per Si atom -12390.942869 kJ/mol
# Density = 1.890823 g / cm^3
# Si number density = 18.951367 Si / 1000 Ang^3
#
#
#
# Elastic Constant Matrix: (Units=GPa)
#
#
# Indices 1 2 3 4 5 6 
#
# 1 109.2479 50.7022 57.9475 0.0000 0.0000 0.0000
# 2 50.7022 85.7332 50.2781 0.0000 0.0000 0.0000
# 3 57.9475 50.2781 101.7967 0.0000 0.0000 0.0000
# 4 0.0000 0.0000 0.0000 36.8429 0.0000 0.0000
# 5 0.0000 0.0000 0.0000 0.0000 4.8043 0.0000
# 6 0.0000 0.0000 0.0000 0.0000 0.0000 23.6383
#
#
#
# Elastic Compliance Matrix: (Units=1/GPa)
#
#
# Indices 1 2 3 4 5 6 
#
# 1 0.014651 -0.005312 -0.005716 0.000000 0.000000 0.000000
# 2 -0.005312 0.018346 -0.006037 0.000000 0.000000 0.000000
# 3 -0.005716 -0.006037 0.016059 0.000000 0.000000 0.000000
# 4 0.000000 0.000000 0.000000 0.027142 0.000000 0.000000
# 5 0.000000 0.000000 0.000000 0.000000 0.208147 0.000000
# 6 0.000000 0.000000 0.000000 0.000000 0.000000 0.042304
#
#
# Mechanical properties :
#
#
# Convention : Reuss Voigt Hill
#
# Bulk Modulus (GPa) = 67.00222 68.29259 67.64740
# Shear Modulus (GPa) = 13.67030 22.24711 17.95870
#
# Velocity S-wave (km/s) = 2.68868 3.42995 3.08168
# Velocity P-wave (km/s) = 6.71344 7.19722 6.95953
#
# Compressibility (1/GPa) = 0.01492488
#
# Stress axis : x y z
#
# Youngs Moduli (GPa) = 68.25506 54.50677 62.26874
#
# Poissons Ratio (x) = 0.28955 0.35595
# Poissons Ratio (y) = 0.36258 0.37594
# Poissons Ratio (z) = 0.39016 0.32908
#
# Static dielectric constant tensor:
#      x y z
#    x -3.852800 0.000000 0.000000 
#    y 0.000000 3.558690 0.000000 
#    z 0.000000 0.000000 3.395050 
# 
# 
# High freq. dielectric constant tensor:
#      x y z
#    x 1.736710 0.000000 0.000000 
#    y 0.000000 1.741510 0.000000 
#    z 0.000000 0.000000 1.732790 
# 
# From -- ./inp_files/24681.got.cif
#   From: 2010.03.12/outbox.cif.g09.slc.cpg/sg59_13_cif.got.tgz:24681.got - 2010.04.16 16:29:54.
