data_PCOD8245234
_publ_section_title
;
Structure prediction by ZEFSAII (Michael W. Deem and Ramdas Pophale) SiO2 
 PCOD8245234
Probable space group: P M M N
;
_chemical_formula_sum "Si O2"
_cell_formula_units_Z 40
_cell_length_a 9.011507
_cell_length_b 8.960812
_cell_length_c 25.578827
_cell_angle_alpha 90.000000
_cell_angle_beta 90.000000
_cell_angle_gamma 90.000000
_cell_volume 2065.501025
_symmetry_space_group_name_H-M "P M M N"
_symmetry_group_IT_number 59
_space_group.IT_coordinate_system_code '2'
_symmetry_cell_setting 'orthorhombic'
loop_
_space_group_symop_operation_xyz
x,y,z
1/2-x,1/2-y,z
1/2+x,-y,-z
-x,1/2+y,-z
-x,-y,-z
1/2+x,1/2+y,-z
1/2-x,y,z
x,1/2-y,z
loop_
_atom_site_type_symbol
_atom_site_label
_atom_site_fract_x
_atom_site_fract_y
_atom_site_fract_z
Si Si1 0.919661 0.925776 0.048258
Si Si2 0.079742 0.923753 0.752162
Si Si3 0.578691 0.575090 0.355740
Si Si4 0.924593 0.921957 0.548711
Si Si5 0.576120 0.421410 0.846176
O O1 0.750000 0.978638 0.049512
O O2 0.934752 0.750000 0.041899
O O3 0.996044 0.979648 0.101674
O O4 0.000000 0.000000 0.000000
O O5 0.250000 0.958515 0.766989
O O6 0.054032 0.750000 0.741512
O O7 0.032483 0.012612 0.700538
O O8 0.975222 0.976413 0.798685
O O9 0.750000 0.538371 0.368214
O O10 0.547717 0.750000 0.356608
O O11 0.475914 0.497511 0.398045
O O12 0.750000 0.940883 0.542933
O O13 0.972552 0.750000 0.549436
O O14 0.000000 0.000000 0.500000
O O15 0.750000 0.440681 0.854643
O O16 0.532918 0.250000 0.834346
#
# Coordination Sequence:
#
# PCOD8245234 Si02
#       5
#     8   8   8   8   8
#     4  10  21  37  58  83 111 145 185 229 278 332
#     4  10  21  37  58  84 113 147 186 228 277 331
#     4  10  21  38  61  87 114 147 188 232 279 332
#     4  11  24  40  59  85 116 150 189 232 279 332
#     4  10  21  37  57  81 110 146 187 230 277 329
#
# _framework density 19.365760000000002
#
# number of rings (size 3 to 8) (size 9 to 14) (size 15 to 20)
#    0.000    1.800    0.000    3.600    0.000   10.400 
#    0.000    0.000    0.000    0.000    0.000    0.000 
#    0.000    0.000    0.000    0.000    0.000    0.000 
#
# Total GULP energy -496246.710500 kJ/mol
# GULP energy per Si atom -12406.167763 kJ/mol
# Density = 1.932168 g / cm^3
# Si number density = 19.365760 Si / 1000 Ang^3
#
#
#
# Elastic Constant Matrix: (Units=GPa)
#
#
# Indices 1 2 3 4 5 6 
#
# 1 94.1823 50.5337 67.5505 0.0000 0.0000 0.0000
# 2 50.5337 97.2167 65.4432 0.0000 0.0000 0.0000
# 3 67.5505 65.4432 150.0158 0.0000 0.0000 0.0000
# 4 0.0000 0.0000 0.0000 42.1488 0.0000 0.0000
# 5 0.0000 0.0000 0.0000 0.0000 43.6159 0.0000
# 6 0.0000 0.0000 0.0000 0.0000 0.0000 32.1947
#
#
#
# Elastic Compliance Matrix: (Units=1/GPa)
#
#
# Indices 1 2 3 4 5 6 
#
# 1 0.017451 -0.005354 -0.005523 0.000000 0.000000 0.000000
# 2 -0.005354 0.016205 -0.004659 0.000000 0.000000 0.000000
# 3 -0.005523 -0.004659 0.011185 0.000000 0.000000 0.000000
# 4 0.000000 0.000000 0.000000 0.023725 0.000000 0.000000
# 5 0.000000 0.000000 0.000000 0.000000 0.022927 0.000000
# 6 0.000000 0.000000 0.000000 0.000000 0.000000 0.031061
#
#
# Mechanical properties :
#
#
# Convention : Reuss Voigt Hill
#
# Bulk Modulus (GPa) = 72.61309 78.71885 75.66597
# Shear Modulus (GPa) = 31.60240 34.11771 32.86006
#
# Velocity S-wave (km/s) = 4.04402 4.20188 4.12371
# Velocity P-wave (km/s) = 7.70600 8.01734 7.86321
#
# Compressibility (1/GPa) = 0.01377162
#
# Stress axis : x y z
#
# Youngs Moduli (GPa) = 57.30273 61.70844 89.40458
#
# Poissons Ratio (x) = 0.33036 0.49375
# Poissons Ratio (y) = 0.30677 0.41652
# Poissons Ratio (z) = 0.31646 0.28749
#
# Static dielectric constant tensor:
#      x y z
#    x 3.506820 0.000000 0.000000 
#    y 0.000000 3.633120 0.000000 
#    z 0.000000 0.000000 3.638520 
# 
# 
# High freq. dielectric constant tensor:
#      x y z
#    x 1.758960 0.000000 0.000000 
#    y 0.000000 1.759380 0.000000 
#    z 0.000000 0.000000 1.768680 
# 
# From -- ./inp_files/31113.got.cif
#   From: 2010.03.12/outbox.cif.g09.slc.cpg/sg59_16_cif.got.tgz:31113.got - 2010.04.16 16:29:54.
