data_PCOD8245759
_publ_section_title
;
Structure prediction by ZEFSAII (Michael W. Deem and Ramdas Pophale) SiO2 
 PCOD8245759
Probable space group: P M M N
;
_chemical_formula_sum "Si O2"
_cell_formula_units_Z 64
_cell_length_a 24.731537
_cell_length_b 21.453750
_cell_length_c 5.084953
_cell_angle_alpha 90.000000
_cell_angle_beta 90.000000
_cell_angle_gamma 90.000000
_cell_volume 2697.995780
_symmetry_space_group_name_H-M "P M M N"
_symmetry_group_IT_number 59
_space_group.IT_coordinate_system_code '2'
_symmetry_cell_setting 'orthorhombic'
loop_
_space_group_symop_operation_xyz
x,y,z
1/2-x,1/2-y,z
1/2+x,-y,-z
-x,1/2+y,-z
-x,-y,-z
1/2+x,1/2+y,-z
1/2-x,y,z
x,1/2-y,z
loop_
_atom_site_type_symbol
_atom_site_label
_atom_site_fract_x
_atom_site_fract_y
_atom_site_fract_z
Si Si1 0.589287 0.318295 0.416812
Si Si2 0.634561 0.917391 0.713598
Si Si3 0.491720 0.373821 0.572762
Si Si4 0.874076 0.416678 0.062488
Si Si5 0.813722 0.529674 0.222688
Si Si6 0.810571 0.318782 0.761740
Si Si7 0.959460 0.492628 0.757531
Si Si8 0.936222 0.676828 0.925030
O O1 0.575912 0.250000 0.302463
O O2 0.547639 0.337758 0.651612
O O3 0.582186 0.372024 0.199373
O O4 0.650773 0.320853 0.511291
O O5 0.665265 0.919784 0.435481
O O6 0.622371 0.847127 0.815067
O O7 0.571750 0.943249 0.668670
O O8 0.672450 0.950425 0.925912
O O9 0.507326 0.449377 0.540922
O O10 0.479863 0.339258 0.297371
O O11 0.448583 0.360893 0.803355
O O12 0.845888 0.464935 0.268882
O O13 0.825258 0.374442 0.956348
O O14 0.906535 0.453150 0.838498
O O15 0.750000 0.520750 0.253226
O O16 0.750000 0.329259 0.658689
O O17 0.816573 0.250000 0.898006
O O18 0.000000 0.500000 0.000000
O O19 0.933012 0.750000 0.984327
#
# Coordination Sequence:
#
# PCOD8245759 Si02
#       8
#     8   8   8   8   8   8   8   8
#     4  11  23  39  59  87 126 170 223 274 320 385
#     4  11  25  45  69 102 135 175 220 267 338 395
#     4  12  24  42  65  98 135 179 226 268 325 391
#     4  11  23  41  61  92 122 173 222 270 336 390
#     4  11  25  45  72 100 132 170 220 280 335 397
#     4  10  22  39  58  83 120 166 220 278 329 378
#     4  11  23  42  64  96 135 176 218 275 329 399
#     4  12  26  44  69 100 138 178 217 268 329 404
#
# _framework density 23.721314
#
# number of rings (size 3 to 8) (size 9 to 14) (size 15 to 20)
#    0.000    0.875    2.500    4.500    3.500    2.500 
#    0.000    1.250    0.000    2.250    0.000    0.000 
#    0.000    0.000    0.000    0.000    0.000    0.000 
#
# Total GULP energy -793228.039442 kJ/mol
# GULP energy per Si atom -12394.188116 kJ/mol
# Density = 2.366732 g / cm^3
# Si number density = 23.721314 Si / 1000 Ang^3
#
#
#
# Elastic Constant Matrix: (Units=GPa)
#
#
# Indices 1 2 3 4 5 6 
#
# 1 74.8343 3.7551 -8.6642 0.0000 0.0000 0.0000
# 2 3.7551 116.2734 -5.1741 0.0000 0.0000 0.0000
# 3 -8.6642 -5.1741 54.3453 0.0000 0.0000 0.0000
# 4 0.0000 0.0000 0.0000 25.8384 0.0000 0.0000
# 5 0.0000 0.0000 0.0000 0.0000 35.6255 0.0000
# 6 0.0000 0.0000 0.0000 0.0000 0.0000 31.0782
#
#
#
# Elastic Compliance Matrix: (Units=1/GPa)
#
#
# Indices 1 2 3 4 5 6 
#
# 1 0.013628 -0.000345 0.002140 0.000000 0.000000 0.000000
# 2 -0.000345 0.008646 0.000768 0.000000 0.000000 0.000000
# 3 0.002140 0.000768 0.018815 0.000000 0.000000 0.000000
# 4 0.000000 0.000000 0.000000 0.038702 0.000000 0.000000
# 5 0.000000 0.000000 0.000000 0.000000 0.028070 0.000000
# 6 0.000000 0.000000 0.000000 0.000000 0.000000 0.032177
#
#
# Mechanical properties :
#
#
# Convention : Reuss Voigt Hill
#
# Bulk Modulus (GPa) = 21.63800 25.03185 23.33492
# Shear Modulus (GPa) = 33.26319 35.54418 34.40368
#
# Velocity S-wave (km/s) = 3.74872 3.87513 3.81245
# Velocity P-wave (km/s) = 5.28004 5.53150 5.40723
#
# Compressibility (1/GPa) = 0.04621500
#
# Stress axis : x y z
#
# Youngs Moduli (GPa) = 73.37881 115.66393 53.14872
#
# Poissons Ratio (x) = 0.03989 -0.11373
# Poissons Ratio (y) = 0.02531 -0.04083
# Poissons Ratio (z) = -0.15702 -0.08885
#
# Static dielectric constant tensor:
#      x y z
#    x 4.310180 0.000000 0.000000 
#    y 0.000000 4.607220 0.000000 
#    z 0.000000 0.000000 4.042300 
# 
# 
# High freq. dielectric constant tensor:
#      x y z
#    x 1.940600 0.000000 0.000000 
#    y 0.000000 1.949200 0.000000 
#    z 0.000000 0.000000 1.931410 
# 
# From -- ./inp_files/4312.got.cif
#   From: 2010.03.12/outbox.cif.g09.slc.cpg/sg59_3_cif.got.tgz:4312.got - 2010.04.16 16:29:54.
