data_PCOD8245200
_publ_section_title
;
Structure prediction by ZEFSAII (Michael W. Deem and Ramdas Pophale) SiO2 
 PCOD8245200
Probable space group: P M M N
;
_chemical_formula_sum "Si O2"
_cell_formula_units_Z 48
_cell_length_a 14.559719
_cell_length_b 8.786331
_cell_length_c 19.571840
_cell_angle_alpha 90.000000
_cell_angle_beta 90.000000
_cell_angle_gamma 90.000000
_cell_volume 2503.757193
_symmetry_space_group_name_H-M "P M M N"
_symmetry_group_IT_number 59
_space_group.IT_coordinate_system_code '2'
_symmetry_cell_setting 'orthorhombic'
loop_
_space_group_symop_operation_xyz
x,y,z
1/2-x,1/2-y,z
1/2+x,-y,-z
-x,1/2+y,-z
-x,-y,-z
1/2+x,1/2+y,-z
1/2-x,y,z
x,1/2-y,z
loop_
_atom_site_type_symbol
_atom_site_label
_atom_site_fract_x
_atom_site_fract_y
_atom_site_fract_z
Si Si1 0.050706 0.572537 0.564125
Si Si2 0.250000 0.070842 0.369821
Si Si3 0.936961 0.429278 0.681639
Si Si4 0.750000 0.423823 0.486006
Si Si5 0.018311 0.428180 0.176508
Si Si6 0.354018 0.429059 0.053602
Si Si7 0.852475 0.427052 0.085087
O O1 0.026074 0.750000 0.566399
O O2 0.160083 0.545186 0.559605
O O3 0.000000 0.500000 0.500000
O O4 0.015933 0.494047 0.632734
O O5 0.250000 0.250000 0.358278
O O6 0.160879 0.002001 0.334460
O O7 0.250000 0.036026 0.450007
O O8 0.929973 0.250000 0.671087
O O9 0.964866 0.468702 0.758200
O O10 0.750000 0.250000 0.513416
O O11 0.032623 0.250000 0.194151
O O12 0.087599 0.485377 0.117979
O O13 0.915407 0.462118 0.150451
O O14 0.250000 0.485643 0.064927
O O15 0.360932 0.250000 0.047691
O O16 0.393345 0.495425 0.982875
O O17 0.750000 0.487870 0.101621
O O18 0.852226 0.250000 0.069058
#
# Coordination Sequence:
#
# PCOD8245200 Si02
#       7
#     8   4   8   4   8   8   8
#     4  11  22  40  65  93 123 159 200 247 297 349
#     4  12  24  40  66  92 120 157 194 239 298 358
#     4  12  26  42  60  88 125 159 198 246 297 358
#     4  10  22  40  66  94 122 153 198 249 294 350
#     4  10  21  37  56  80 113 154 198 239 293 354
#     4   9  18  32  53  82 111 143 187 240 292 350
#     4   9  18  34  56  81 110 147 192 244 295 348
#
# _framework density 19.171188999999998
#
# number of rings (size 3 to 8) (size 9 to 14) (size 15 to 20)
#    0.000    1.667    1.667    3.250    1.167    2.000 
#    1.500    0.000    0.000    0.000    0.000    0.000 
#    0.000    0.000    0.000    0.000    0.000    0.000 
#
# Total GULP energy -595340.055595 kJ/mol
# GULP energy per Si atom -12402.917825 kJ/mol
# Density = 1.912755 g / cm^3
# Si number density = 19.171189 Si / 1000 Ang^3
#
#
#
# Elastic Constant Matrix: (Units=GPa)
#
#
# Indices 1 2 3 4 5 6 
#
# 1 132.8333 54.8979 67.1960 0.0000 0.0000 0.0000
# 2 54.8979 104.9939 56.3796 0.0000 0.0000 0.0000
# 3 67.1960 56.3796 124.8268 0.0000 0.0000 0.0000
# 4 0.0000 0.0000 0.0000 37.8192 0.0000 0.0000
# 5 0.0000 0.0000 0.0000 0.0000 380.7871 0.0000
# 6 0.0000 0.0000 0.0000 0.0000 0.0000 24.3999
#
#
#
# Elastic Compliance Matrix: (Units=1/GPa)
#
#
# Indices 1 2 3 4 5 6 
#
# 1 0.011225 -0.003465 -0.004478 0.000000 0.000000 0.000000
# 2 -0.003465 0.013643 -0.004297 0.000000 0.000000 0.000000
# 3 -0.004478 -0.004297 0.012362 0.000000 0.000000 0.000000
# 4 0.000000 0.000000 0.000000 0.026442 0.000000 0.000000
# 5 0.000000 0.000000 0.000000 0.000000 0.002626 0.000000
# 6 0.000000 0.000000 0.000000 0.000000 0.000000 0.040984
#
#
# Mechanical properties :
#
#
# Convention : Reuss Voigt Hill
#
# Bulk Modulus (GPa) = 78.42074 79.95568 79.18821
# Shear Modulus (GPa) = 36.76122 100.87993 68.82058
#
# Velocity S-wave (km/s) = 4.38371 7.26187 5.99799
# Velocity P-wave (km/s) = 8.16191 10.58819 9.45322
#
# Compressibility (1/GPa) = 0.01275173
#
# Stress axis : x y z
#
# Youngs Moduli (GPa) = 89.08371 73.29517 80.89058
#
# Poissons Ratio (x) = 0.25396 0.36221
# Poissons Ratio (y) = 0.30867 0.34759
# Poissons Ratio (z) = 0.39890 0.31495
#
# Static dielectric constant tensor:
#      x y z
#    x 4.099480 0.000000 0.000000 
#    y 0.000000 3.506520 0.000000 
#    z 0.000000 0.000000 3.131340 
# 
# 
# High freq. dielectric constant tensor:
#      x y z
#    x 1.760940 0.000000 0.000000 
#    y 0.000000 1.744790 0.000000 
#    z 0.000000 0.000000 1.740280 
# 
# From -- ./inp_files/27400.got.cif
#   From: 2010.03.12/outbox.cif.g09.slc.cpg/sg59_14_cif.got.tgz:27400.got - 2010.04.16 16:29:54.
