data_PCOD8245318
_publ_section_title
;
Structure prediction by ZEFSAII (Michael W. Deem and Ramdas Pophale) SiO2 
 PCOD8245318
Probable space group: P M M N
;
_chemical_formula_sum "Si O2"
_cell_formula_units_Z 56
_cell_length_a 13.981351
_cell_length_b 9.215234
_cell_length_c 21.258206
_cell_angle_alpha 90.000000
_cell_angle_beta 90.000000
_cell_angle_gamma 90.000000
_cell_volume 2738.937471
_symmetry_space_group_name_H-M "P M M N"
_symmetry_group_IT_number 59
_space_group.IT_coordinate_system_code '2'
_symmetry_cell_setting 'orthorhombic'
loop_
_space_group_symop_operation_xyz
x,y,z
1/2-x,1/2-y,z
1/2+x,-y,-z
-x,1/2+y,-z
-x,-y,-z
1/2+x,1/2+y,-z
1/2-x,y,z
x,1/2-y,z
loop_
_atom_site_type_symbol
_atom_site_label
_atom_site_fract_x
_atom_site_fract_y
_atom_site_fract_z
Si Si1 0.361498 0.917698 0.158033
Si Si2 0.363298 0.910709 0.919244
Si Si3 0.639477 0.582191 0.471295
Si Si4 0.523986 0.918761 0.595554
Si Si5 0.863996 0.913994 0.963234
Si Si6 0.139446 0.580829 0.779176
Si Si7 0.975934 0.421350 0.718804
O O1 0.250000 0.949770 0.166247
O O2 0.381664 0.750000 0.143739
O O3 0.410530 0.968045 0.222509
O O4 0.404348 0.007900 0.099314
O O5 0.250000 0.902631 0.925131
O O6 0.406147 0.750000 0.928939
O O7 0.389173 0.969730 0.849862
O O8 0.406858 0.012562 0.973630
O O9 0.750000 0.535068 0.467595
O O10 0.625696 0.750000 0.452387
O O11 0.578907 0.484519 0.423448
O O12 0.602561 0.555217 0.541892
O O13 0.509375 0.750000 0.610627
O O14 0.564856 0.001462 0.656594
O O15 0.750000 0.925466 0.964206
O O16 0.899932 0.750000 0.961921
O O17 0.250000 0.551829 0.765766
O O18 0.114605 0.750000 0.769895
O O19 0.082516 0.481349 0.730376
O O20 0.977633 0.250000 0.708393
#
# Coordination Sequence:
#
# PCOD8245318 Si02
#       7
#     8   8   8   8   8   8   8
#     4   9  19  36  54  72 100 140 183 224 269 324
#     4   8  14  27  48  71  96 130 171 216 270 329
#     4   9  19  38  63  89 116 145 179 219 260 303
#     4  10  21  37  58  85 116 148 180 216 261 312
#     4   9  16  26  45  74 102 129 168 221 277 327
#     4   9  19  36  56  77 103 139 182 225 272 327
#     4  11  23  37  55  80 110 145 183 223 267 313
#
# _framework density 20.445884
#
# number of rings (size 3 to 8) (size 9 to 14) (size 15 to 20)
#    0.000    2.714    0.000    2.143    0.000    5.714 
#    0.000    2.143    0.000    0.000    0.000    0.000 
#    0.000    0.000    0.000    0.000    0.000    0.000 
#
# Total GULP energy -694442.213476 kJ/mol
# GULP energy per Si atom -12400.753812 kJ/mol
# Density = 2.039935 g / cm^3
# Si number density = 20.445884 Si / 1000 Ang^3
#
#
#
# Elastic Constant Matrix: (Units=GPa)
#
#
# Indices 1 2 3 4 5 6 
#
# 1 28.0084 2.6537 -7.4478 0.0000 0.0000 0.0000
# 2 2.6537 89.2611 41.1929 0.0000 0.0000 0.0000
# 3 -7.4478 41.1929 87.5974 0.0000 0.0000 0.0000
# 4 0.0000 0.0000 0.0000 41.3446 0.0000 0.0000
# 5 0.0000 0.0000 0.0000 0.0000 21.8628 0.0000
# 6 0.0000 0.0000 0.0000 0.0000 0.0000 18.2810
#
#
#
# Elastic Compliance Matrix: (Units=1/GPa)
#
#
# Indices 1 2 3 4 5 6 
#
# 1 0.037268 -0.003283 0.004712 0.000000 0.000000 0.000000
# 2 -0.003283 0.014597 -0.007144 0.000000 0.000000 0.000000
# 3 0.004712 -0.007144 0.015176 0.000000 0.000000 0.000000
# 4 0.000000 0.000000 0.000000 0.024187 0.000000 0.000000
# 5 0.000000 0.000000 0.000000 0.000000 0.045740 0.000000
# 6 0.000000 0.000000 0.000000 0.000000 0.000000 0.054701
#
#
# Mechanical properties :
#
#
# Convention : Reuss Voigt Hill
#
# Bulk Modulus (GPa) = 17.98140 30.85162 24.41651
# Shear Modulus (GPa) = 22.55968 27.52890 25.04429
#
# Velocity S-wave (km/s) = 3.32533 3.67335 3.50366
# Velocity P-wave (km/s) = 4.85360 5.75443 5.32311
#
# Compressibility (1/GPa) = 0.05561303
#
# Stress axis : x y z
#
# Youngs Moduli (GPa) = 26.83291 68.50567 65.89446
#
# Poissons Ratio (x) = 0.22488 -0.31051
# Poissons Ratio (y) = 0.08808 0.47072
# Poissons Ratio (z) = -0.12644 0.48937
#
# Static dielectric constant tensor:
#      x y z
#    x 3.481210 0.000000 0.000000 
#    y 0.000000 3.693650 0.000000 
#    z 0.000000 0.000000 3.821770 
# 
# 
# High freq. dielectric constant tensor:
#      x y z
#    x 1.791050 0.000000 0.000000 
#    y 0.000000 1.795290 0.000000 
#    z 0.000000 0.000000 1.803630 
# 
# From -- ./inp_files/30399.got.cif
#   From: 2010.03.12/outbox.cif.g09.slc.cpg/sg59_16_cif.got.tgz:30399.got - 2010.04.16 16:29:54.
