data_PCOD8245842
_publ_section_title
;
Structure prediction by ZEFSAII (Michael W. Deem and Ramdas Pophale) SiO2 
 PCOD8245842
Probable space group: P M M N
;
_chemical_formula_sum "Si O2"
_cell_formula_units_Z 48
_cell_length_a 27.997855
_cell_length_b 8.664435
_cell_length_c 10.078432
_cell_angle_alpha 90.000000
_cell_angle_beta 90.000000
_cell_angle_gamma 90.000000
_cell_volume 2444.882421
_symmetry_space_group_name_H-M "P M M N"
_symmetry_group_IT_number 59
_space_group.IT_coordinate_system_code '2'
_symmetry_cell_setting 'orthorhombic'
loop_
_space_group_symop_operation_xyz
x,y,z
1/2-x,1/2-y,z
1/2+x,-y,-z
-x,1/2+y,-z
-x,-y,-z
1/2+x,1/2+y,-z
1/2-x,y,z
x,1/2-y,z
loop_
_atom_site_type_symbol
_atom_site_label
_atom_site_fract_x
_atom_site_fract_y
_atom_site_fract_z
Si Si1 0.250000 0.433133 0.073589
Si Si2 0.002774 0.068796 0.646533
Si Si3 0.250000 0.434389 0.376764
Si Si4 0.394654 0.068430 0.763032
Si Si5 0.849891 0.431475 0.981360
Si Si6 0.909400 0.567693 0.741356
Si Si7 0.345973 0.067666 0.500143
O O1 0.250000 0.250000 0.062846
O O2 0.250000 0.491662 0.225377
O O3 0.297215 0.496453 0.001294
O O4 0.996387 0.250000 0.632534
O O5 0.052288 0.026060 0.716662
O O6 0.962543 0.000760 0.744593
O O7 0.000000 0.000000 0.500000
O O8 0.250000 0.250000 0.378486
O O9 0.204126 0.504283 0.452177
O O10 0.389476 0.250000 0.792078
O O11 0.358440 0.012220 0.647759
O O12 0.382202 0.972588 0.892794
O O13 0.845085 0.250000 0.966730
O O14 0.875766 0.498471 0.853200
O O15 0.911318 0.750000 0.761800
O O16 0.887920 0.518287 0.599467
O O17 0.341672 0.250000 0.497166
#
# Coordination Sequence:
#
# PCOD8245842 Si02
#       7
#     4   8   4   8   8   8   8
#     4  11  21  40  69  92 120 168 211 249 310 379
#     4  11  22  38  63  94 127 163 209 263 319 378
#     4   9  16  30  61  96 118 144 197 257 304 359
#     4  10  22  41  62  89 125 167 210 254 310 379
#     4  12  26  42  61  93 132 166 206 262 317 370
#     4  11  21  39  65  92 122 163 212 258 309 377
#     4   9  17  33  59  92 120 150 202 257 300 360
#
# _framework density 19.632845
#
# number of rings (size 3 to 8) (size 9 to 14) (size 15 to 20)
#    0.000    1.500    3.333    2.750    0.000    2.667 
#    0.000    1.667    0.000    0.000    0.000    0.000 
#    0.000    0.000    0.000    0.000    0.000    0.000 
#
# Total GULP energy -595297.281875 kJ/mol
# GULP energy per Si atom -12402.026706 kJ/mol
# Density = 1.958816 g / cm^3
# Si number density = 19.632845 Si / 1000 Ang^3
#
#
#
# Elastic Constant Matrix: (Units=GPa)
#
#
# Indices 1 2 3 4 5 6 
#
# 1 122.6455 58.0727 21.8632 0.0000 0.0000 0.0000
# 2 58.0727 75.8082 31.0544 0.0000 0.0000 0.0000
# 3 21.8632 31.0544 61.1134 0.0000 0.0000 0.0000
# 4 0.0000 0.0000 0.0000 24.8282 0.0000 0.0000
# 5 0.0000 0.0000 0.0000 0.0000 37.7394 0.0000
# 6 0.0000 0.0000 0.0000 0.0000 0.0000 30.9095
#
#
#
# Elastic Compliance Matrix: (Units=1/GPa)
#
#
# Indices 1 2 3 4 5 6 
#
# 1 0.012807 -0.010020 0.000510 0.000000 0.000000 0.000000
# 2 -0.010020 0.024498 -0.008864 0.000000 0.000000 0.000000
# 3 0.000510 -0.008864 0.020685 0.000000 0.000000 0.000000
# 4 0.000000 0.000000 0.000000 0.040277 0.000000 0.000000
# 5 0.000000 0.000000 0.000000 0.000000 0.026498 0.000000
# 6 0.000000 0.000000 0.000000 0.000000 0.000000 0.032353
#
#
# Mechanical properties :
#
#
# Convention : Reuss Voigt Hill
#
# Bulk Modulus (GPa) = 47.07650 53.50528 50.29089
# Shear Modulus (GPa) = 24.88253 28.60055 26.74154
#
# Velocity S-wave (km/s) = 3.56391 3.82091 3.69464
# Velocity P-wave (km/s) = 6.40045 6.83944 6.62358
#
# Compressibility (1/GPa) = 0.02124202
#
# Stress axis : x y z
#
# Youngs Moduli (GPa) = 78.08244 40.82024 48.34472
#
# Poissons Ratio (x) = 0.40900 -0.02464
# Poissons Ratio (y) = 0.78235 0.42852
# Poissons Ratio (z) = -0.03980 0.36182
#
# Static dielectric constant tensor:
#      x y z
#    x 3.958390 0.000000 0.000000 
#    y 0.000000 3.410230 0.000000 
#    z 0.000000 0.000000 3.612230 
# 
# 
# High freq. dielectric constant tensor:
#      x y z
#    x 1.783760 0.000000 0.000000 
#    y 0.000000 1.745470 0.000000 
#    z 0.000000 0.000000 1.764210 
# 
# From -- ./inp_files/13020.got.cif
#   From: 2010.03.12/outbox.cif.g09.slc.cpg/sg59_7_cif.got.tgz:13020.got - 2010.04.16 16:29:54.
