data_PCOD8245166
_publ_section_title
;
Structure prediction by ZEFSAII (Michael W. Deem and Ramdas Pophale) SiO2 
 PCOD8245166
Probable space group: P M M N
;
_chemical_formula_sum "Si O2"
_cell_formula_units_Z 56
_cell_length_a 9.191589
_cell_length_b 14.559583
_cell_length_c 22.544478
_cell_angle_alpha 90.000000
_cell_angle_beta 90.000000
_cell_angle_gamma 90.000000
_cell_volume 3017.030616
_symmetry_space_group_name_H-M "P M M N"
_symmetry_group_IT_number 59
_space_group.IT_coordinate_system_code '2'
_symmetry_cell_setting 'orthorhombic'
loop_
_space_group_symop_operation_xyz
x,y,z
1/2-x,1/2-y,z
1/2+x,-y,-z
-x,1/2+y,-z
-x,-y,-z
1/2+x,1/2+y,-z
1/2-x,y,z
x,1/2-y,z
loop_
_atom_site_type_symbol
_atom_site_label
_atom_site_fract_x
_atom_site_fract_y
_atom_site_fract_z
Si Si1 0.578962 0.854971 0.481124
Si Si2 0.420930 0.090243 0.168581
Si Si3 0.579641 0.460519 0.418364
Si Si4 0.418618 0.889327 0.128788
Si Si5 0.919340 0.460900 0.284841
Si Si6 0.921959 0.250000 0.967128
Si Si7 0.923955 0.250000 0.100383
Si Si8 0.913202 0.847280 0.241544
O O1 0.750000 0.854969 0.492040
O O2 0.528668 0.750000 0.464053
O O3 0.504296 0.886961 0.541939
O O4 0.536433 0.932272 0.431671
O O5 0.250000 0.114321 0.170608
O O6 0.480102 0.088566 0.236149
O O7 0.513404 0.162452 0.132918
O O8 0.452849 0.997192 0.132273
O O9 0.750000 0.448482 0.430112
O O10 0.539192 0.431467 0.351210
O O11 0.250000 0.869507 0.134938
O O12 0.475112 0.842111 0.067789
O O13 0.489351 0.838929 0.183847
O O14 0.750000 0.440177 0.270833
O O15 0.955920 0.569596 0.284258
O O16 0.750000 0.250000 0.973290
O O17 0.986401 0.250000 0.033281
O O18 0.750000 0.250000 0.103769
O O19 0.750000 0.862821 0.218422
O O20 0.927647 0.750000 0.276655
#
# Coordination Sequence:
#
# PCOD8245166 Si02
#       8
#     8   8   8   8   8   4   4   8
#     4   9  18  33  53  77 107 141 174 213 261 305
#     4  10  21  37  56  78 105 137 174 219 265 308
#     4   9  18  33  53  77 105 138 177 216 255 305
#     4   9  17  32  54  76 102 135 168 205 255 316
#     4   9  18  33  52  75 104 139 176 214 260 314
#     4   9  18  33  55  81 105 135 174 209 254 319
#     4  11  23  39  57  75 101 139 178 219 266 311
#     4   9  16  26  44  73 105 133 165 209 260 310
#
# _framework density 18.561297
#
# number of rings (size 3 to 8) (size 9 to 14) (size 15 to 20)
#    0.000    2.714    0.714    0.643    0.000    2.571 
#    1.286    4.286    0.000    0.000    0.000    8.000 
#    0.000    0.000    0.000    0.000    0.000    0.000 
#
# Total GULP energy -693864.399753 kJ/mol
# GULP energy per Si atom -12390.435710 kJ/mol
# Density = 1.851905 g / cm^3
# Si number density = 18.561297 Si / 1000 Ang^3
#
#
#
# Elastic Constant Matrix: (Units=GPa)
#
#
# Indices 1 2 3 4 5 6 
#
# 1 47.8148 28.2619 33.6472 0.0000 0.0000 0.0000
# 2 28.2619 76.6077 28.7728 0.0000 0.0000 0.0000
# 3 33.6472 28.7728 103.9761 0.0000 0.0000 0.0000
# 4 0.0000 0.0000 0.0000 15.6943 0.0000 0.0000
# 5 0.0000 0.0000 0.0000 0.0000 23.8701 0.0000
# 6 0.0000 0.0000 0.0000 0.0000 0.0000 17.1197
#
#
#
# Elastic Compliance Matrix: (Units=1/GPa)
#
#
# Indices 1 2 3 4 5 6 
#
# 1 0.031551 -0.008710 -0.007800 0.000000 0.000000 0.000000
# 2 -0.008710 0.016972 -0.001878 0.000000 0.000000 0.000000
# 3 -0.007800 -0.001878 0.012661 0.000000 0.000000 0.000000
# 4 0.000000 0.000000 0.000000 0.063717 0.000000 0.000000
# 5 0.000000 0.000000 0.000000 0.000000 0.041893 0.000000
# 6 0.000000 0.000000 0.000000 0.000000 0.000000 0.058412
#
#
# Mechanical properties :
#
#
# Convention : Reuss Voigt Hill
#
# Bulk Modulus (GPa) = 40.96901 45.52916 43.24909
# Shear Modulus (GPa) = 18.51030 20.51793 19.51412
#
# Velocity S-wave (km/s) = 3.16136 3.32838 3.24595
# Velocity P-wave (km/s) = 5.95363 6.27321 6.11551
#
# Compressibility (1/GPa) = 0.02440869
#
# Stress axis : x y z
#
# Youngs Moduli (GPa) = 31.69464 58.91987 78.98078
#
# Poissons Ratio (x) = 0.51321 0.61603
# Poissons Ratio (y) = 0.27607 0.14832
# Poissons Ratio (z) = 0.24721 0.11065
#
# Static dielectric constant tensor:
#      x y z
#    x 3.327270 0.000000 0.000000 
#    y 0.000000 3.855170 0.000000 
#    z 0.000000 0.000000 3.452470 
# 
# 
# High freq. dielectric constant tensor:
#      x y z
#    x 1.709170 0.000000 0.000000 
#    y 0.000000 1.725660 0.000000 
#    z 0.000000 0.000000 1.708040 
# 
# From -- ./inp_files/29247.got.cif
#   From: 2010.03.12/outbox.cif.g09.slc.cpg/sg59_15_cif.got.tgz:29247.got - 2010.04.16 16:29:54.
