data_PCOD8245186
_publ_section_title
;
Structure prediction by ZEFSAII (Michael W. Deem and Ramdas Pophale) SiO2 
 PCOD8245186
Probable space group: P M M N
;
_chemical_formula_sum "Si O2"
_cell_formula_units_Z 40
_cell_length_a 9.456726
_cell_length_b 8.888287
_cell_length_c 25.721662
_cell_angle_alpha 90.000000
_cell_angle_beta 90.000000
_cell_angle_gamma 90.000000
_cell_volume 2162.011015
_symmetry_space_group_name_H-M "P M M N"
_symmetry_group_IT_number 59
_space_group.IT_coordinate_system_code '2'
_symmetry_cell_setting 'orthorhombic'
loop_
_space_group_symop_operation_xyz
x,y,z
1/2-x,1/2-y,z
1/2+x,-y,-z
-x,1/2+y,-z
-x,-y,-z
1/2+x,1/2+y,-z
1/2-x,y,z
x,1/2-y,z
loop_
_atom_site_type_symbol
_atom_site_label
_atom_site_fract_x
_atom_site_fract_y
_atom_site_fract_z
Si Si1 0.414092 0.428002 0.953156
Si Si2 0.086648 0.426352 0.137401
Si Si3 0.913697 0.422145 0.755357
Si Si4 0.912512 0.574277 0.454932
Si Si5 0.908016 0.929112 0.340631
O O1 0.250000 0.477921 0.955728
O O2 0.427762 0.250000 0.957077
O O3 0.482440 0.483267 0.899782
O O4 0.500000 0.500000 0.000000
O O5 0.250000 0.467153 0.124597
O O6 0.059879 0.250000 0.130596
O O7 0.047498 0.475210 0.195596
O O8 0.750000 0.431172 0.741880
O O9 0.959350 0.250000 0.767187
O O10 0.993143 0.490913 0.705333
O O11 0.750000 0.531880 0.463280
O O12 0.937654 0.750000 0.458712
O O13 0.961103 0.515889 0.397587
O O14 0.000000 0.500000 0.500000
O O15 0.750000 0.989132 0.330312
O O16 0.908920 0.750000 0.340528
#
# Coordination Sequence:
#
# PCOD8245186 Si02
#       5
#     8   8   8   8   8
#     4  11  24  40  59  84 111 140 176 216 258 304
#     4  10  21  37  56  79 109 143 176 211 254 304
#     4   9  17  30  50  75 100 129 168 211 254 301
#     4   9  18  32  49  71  99 131 168 210 257 308
#     4   8  15  29  48  69  95 127 164 208 255 303
#
# _framework density 18.501294999999999
#
# number of rings (size 3 to 8) (size 9 to 14) (size 15 to 20)
#    0.000    2.600    0.000    3.000    0.000    7.200 
#    0.000    5.000    0.000    3.600    0.000    0.000 
#    0.000    0.000    0.000    0.000    0.000    0.000 
#
# Total GULP energy -495904.601575 kJ/mol
# GULP energy per Si atom -12397.615039 kJ/mol
# Density = 1.845918 g / cm^3
# Si number density = 18.501295 Si / 1000 Ang^3
#
#
#
# Elastic Constant Matrix: (Units=GPa)
#
#
# Indices 1 2 3 4 5 6 
#
# 1 108.9785 47.1869 94.7208 0.0000 0.0000 0.0000
# 2 47.1869 39.8789 41.2123 0.0000 0.0000 0.0000
# 3 94.7208 41.2123 161.2192 0.0000 0.0000 0.0000
# 4 0.0000 0.0000 0.0000 32.1791 0.0000 0.0000
# 5 0.0000 0.0000 0.0000 0.0000 43.9170 0.0000
# 6 0.0000 0.0000 0.0000 0.0000 0.0000 25.1523
#
#
#
# Elastic Compliance Matrix: (Units=1/GPa)
#
#
# Indices 1 2 3 4 5 6 
#
# 1 0.028296 -0.022153 -0.010962 0.000000 0.000000 0.000000
# 2 -0.022153 0.051422 -0.000130 0.000000 0.000000 0.000000
# 3 -0.010962 -0.000130 0.012676 0.000000 0.000000 0.000000
# 4 0.000000 0.000000 0.000000 0.031076 0.000000 0.000000
# 5 0.000000 0.000000 0.000000 0.000000 0.022770 0.000000
# 6 0.000000 0.000000 0.000000 0.000000 0.000000 0.039758
#
#
# Mechanical properties :
#
#
# Convention : Reuss Voigt Hill
#
# Bulk Modulus (GPa) = 38.60113 75.14627 56.87370
# Shear Modulus (GPa) = 19.14821 28.71345 23.93083
#
# Velocity S-wave (km/s) = 3.22058 3.94378 3.60038
# Velocity P-wave (km/s) = 5.89396 7.83855 6.93475
#
# Compressibility (1/GPa) = 0.02590597
#
# Stress axis : x y z
#
# Youngs Moduli (GPa) = 35.34130 19.44686 78.88879
#
# Poissons Ratio (x) = 0.43080 0.86474
# Poissons Ratio (y) = 0.78291 0.01023
# Poissons Ratio (z) = 0.38739 0.00252
#
# Static dielectric constant tensor:
#      x y z
#    x 3.477190 0.000000 0.000000 
#    y 0.000000 3.198320 0.000000 
#    z 0.000000 0.000000 3.637820 
# 
# 
# High freq. dielectric constant tensor:
#      x y z
#    x 1.715520 0.000000 0.000000 
#    y 0.000000 1.695490 0.000000 
#    z 0.000000 0.000000 1.735000 
# 
# From -- ./inp_files/31123.got.cif
#   From: 2010.03.12/outbox.cif.g09.slc.cpg/sg59_16_cif.got.tgz:31123.got - 2010.04.16 16:29:54.
