data_PCOD8245367
_publ_section_title
;
Structure prediction by ZEFSAII (Michael W. Deem and Ramdas Pophale) SiO2 
 PCOD8245367
Probable space group: P M M N
;
_chemical_formula_sum "Si O2"
_cell_formula_units_Z 48
_cell_length_a 9.180176
_cell_length_b 27.683379
_cell_length_c 9.624409
_cell_angle_alpha 90.000000
_cell_angle_beta 90.000000
_cell_angle_gamma 90.000000
_cell_volume 2445.930860
_symmetry_space_group_name_H-M "P M M N"
_symmetry_group_IT_number 59
_space_group.IT_coordinate_system_code '2'
_symmetry_cell_setting 'orthorhombic'
loop_
_space_group_symop_operation_xyz
x,y,z
1/2-x,1/2-y,z
1/2+x,-y,-z
-x,1/2+y,-z
-x,-y,-z
1/2+x,1/2+y,-z
1/2-x,y,z
x,1/2-y,z
loop_
_atom_site_type_symbol
_atom_site_label
_atom_site_fract_x
_atom_site_fract_y
_atom_site_fract_z
Si Si1 0.423012 0.458450 0.913365
Si Si2 0.422141 0.041169 0.587692
Si Si3 0.915328 0.196684 0.702348
Si Si4 0.917041 0.805507 0.803485
Si Si5 0.580027 0.137714 0.971194
Si Si6 0.417747 0.355932 0.480470
O O1 0.250000 0.460829 0.933927
O O2 0.465493 0.461933 0.750432
O O3 0.483123 0.409920 0.983983
O O4 0.500000 0.500000 0.000000
O O5 0.250000 0.035311 0.568715
O O6 0.480062 0.091443 0.521664
O O7 0.500000 0.000000 0.500000
O O8 0.750000 0.193500 0.653049
O O9 0.952747 0.250000 0.759609
O O10 0.948937 0.157634 0.818633
O O11 0.010777 0.186327 0.568633
O O12 0.750000 0.810163 0.853718
O O13 0.950577 0.750000 0.760947
O O14 0.947066 0.842823 0.678780
O O15 0.026425 0.821302 0.923608
O O16 0.750000 0.126419 0.998248
O O17 0.250000 0.355116 0.519112
#
# Coordination Sequence:
#
# PCOD8245367 Si02
#       6
#     8   8   8   8   8   8
#     4  11  24  43  65  93 124 158 202 250 305 367
#     4  10  23  41  63  91 123 157 200 247 302 363
#     4  10  21  37  59  88 120 156 198 245 298 355
#     4  10  22  39  60  89 124 163 206 251 303 360
#     4  11  23  40  62  89 123 162 203 251 302 358
#     4  10  21  40  62  88 120 157 200 250 301 358
#
# _framework density 19.62443
#
# number of rings (size 3 to 8) (size 9 to 14) (size 15 to 20)
#    0.000    1.667    1.667    2.000    2.333    5.333 
#    0.000    0.000    0.000    0.000    0.000    0.000 
#    0.000    0.000    0.000    0.000    0.000    0.000 
#
# Total GULP energy -595270.514515 kJ/mol
# GULP energy per Si atom -12401.469052 kJ/mol
# Density = 1.957976 g / cm^3
# Si number density = 19.624430 Si / 1000 Ang^3
#
#
#
# Elastic Constant Matrix: (Units=GPa)
#
#
# Indices 1 2 3 4 5 6 
#
# 1 71.4886 43.4400 48.7526 0.0000 0.0000 0.0000
# 2 43.4400 120.0006 42.1989 0.0000 0.0000 0.0000
# 3 48.7526 42.1989 83.3664 0.0000 0.0000 0.0000
# 4 0.0000 0.0000 0.0000 29.0512 0.0000 0.0000
# 5 0.0000 0.0000 0.0000 0.0000 36.5301 0.0000
# 6 0.0000 0.0000 0.0000 0.0000 0.0000 36.9633
#
#
#
# Elastic Compliance Matrix: (Units=1/GPa)
#
#
# Indices 1 2 3 4 5 6 
#
# 1 0.025375 -0.004826 -0.012396 0.000000 0.000000 0.000000
# 2 -0.004826 0.011056 -0.002774 0.000000 0.000000 0.000000
# 3 -0.012396 -0.002774 0.020648 0.000000 0.000000 0.000000
# 4 0.000000 0.000000 0.000000 0.034422 0.000000 0.000000
# 5 0.000000 0.000000 0.000000 0.000000 0.027375 0.000000
# 6 0.000000 0.000000 0.000000 0.000000 0.000000 0.027054
#
#
# Mechanical properties :
#
#
# Convention : Reuss Voigt Hill
#
# Bulk Modulus (GPa) = 58.52582 60.40426 59.46504
# Shear Modulus (GPa) = 26.09364 29.87318 27.98341
#
# Velocity S-wave (km/s) = 3.65039 3.90583 3.78027
# Velocity P-wave (km/s) = 6.90325 7.15455 7.03002
#
# Compressibility (1/GPa) = 0.01708648
#
# Stress axis : x y z
#
# Youngs Moduli (GPa) = 39.40946 90.44949 48.42979
#
# Poissons Ratio (x) = 0.43655 0.60033
# Poissons Ratio (y) = 0.19021 0.13434
# Poissons Ratio (z) = 0.48852 0.25089
#
# Static dielectric constant tensor:
#      x y z
#    x 3.530760 0.000000 0.000000 
#    y 0.000000 3.656330 0.000000 
#    z 0.000000 0.000000 3.528420 
# 
# 
# High freq. dielectric constant tensor:
#      x y z
#    x 1.763360 0.000000 0.000000 
#    y 0.000000 1.779900 0.000000 
#    z 0.000000 0.000000 1.765710 
# 
# From -- ./inp_files/6287.got.cif
#   From: 2010.03.12/outbox.cif.g09.slc.cpg/sg59_4_cif.got.tgz:6287.got - 2010.04.16 16:29:54.
