data_PCOD8245395
_publ_section_title
;
Structure prediction by ZEFSAII (Michael W. Deem and Ramdas Pophale) SiO2 
 PCOD8245395
Probable space group: P M M N
;
_chemical_formula_sum "Si O2"
_cell_formula_units_Z 48
_cell_length_a 14.509232
_cell_length_b 8.750989
_cell_length_c 19.571252
_cell_angle_alpha 90.000000
_cell_angle_beta 90.000000
_cell_angle_gamma 90.000000
_cell_volume 2484.964403
_symmetry_space_group_name_H-M "P M M N"
_symmetry_group_IT_number 59
_space_group.IT_coordinate_system_code '2'
_symmetry_cell_setting 'orthorhombic'
loop_
_space_group_symop_operation_xyz
x,y,z
1/2-x,1/2-y,z
1/2+x,-y,-z
-x,1/2+y,-z
-x,-y,-z
1/2+x,1/2+y,-z
1/2-x,y,z
x,1/2-y,z
loop_
_atom_site_type_symbol
_atom_site_label
_atom_site_fract_x
_atom_site_fract_y
_atom_site_fract_z
Si Si1 0.050811 0.572173 0.564257
Si Si2 0.250000 0.070751 0.368914
Si Si3 0.937489 0.429663 0.682126
Si Si4 0.750000 0.424407 0.486606
Si Si5 0.009322 0.571532 0.165063
Si Si6 0.358055 0.425780 0.059212
Si Si7 0.855031 0.428128 0.082491
O O1 0.025771 0.750000 0.566554
O O2 0.160303 0.544040 0.559356
O O3 0.000000 0.500000 0.500000
O O4 0.016743 0.493295 0.633084
O O5 0.250000 0.250000 0.357693
O O6 0.160646 0.002360 0.333381
O O7 0.250000 0.036047 0.449133
O O8 0.929313 0.250000 0.671172
O O9 0.965054 0.475078 0.758421
O O10 0.750000 0.250000 0.513965
O O11 0.989816 0.750000 0.158123
O O12 0.093438 0.525707 0.116641
O O13 0.916876 0.480565 0.145822
O O14 0.250000 0.449869 0.069180
O O15 0.387776 0.250000 0.066998
O O16 0.388997 0.482418 0.984643
O O17 0.750000 0.469279 0.100680
O O18 0.867736 0.250000 0.068153
#
# Coordination Sequence:
#
# PCOD8245395 Si02
#       7
#     8   4   8   4   8   8   8
#     4  11  22  39  64  92 122 159 202 249 297 353
#     4  12  24  38  64  94 120 157 198 243 298 360
#     4  11  25  43  61  87 125 163 198 245 301 358
#     4  10  22  40  64  90 122 157 196 249 304 354
#     4  11  24  40  60  85 119 162 199 242 299 356
#     4  10  21  37  60  90 121 154 196 247 295 350
#     4  10  21  39  63  88 116 154 199 248 298 352
#
# _framework density 19.316172000000002
#
# number of rings (size 3 to 8) (size 9 to 14) (size 15 to 20)
#    0.000    1.333    1.667    3.750    1.167    5.333 
#    1.500    0.000    0.000    0.000    0.000    0.000 
#    0.000    0.000    0.000    0.000    0.000    0.000 
#
# Total GULP energy -595499.812892 kJ/mol
# GULP energy per Si atom -12406.246102 kJ/mol
# Density = 1.927221 g / cm^3
# Si number density = 19.316172 Si / 1000 Ang^3
#
#
#
# Elastic Constant Matrix: (Units=GPa)
#
#
# Indices 1 2 3 4 5 6 
#
# 1 135.2831 49.3332 74.6978 0.0000 0.0000 0.0000
# 2 49.3332 76.6896 49.2793 0.0000 0.0000 0.0000
# 3 74.6978 49.2793 131.6303 0.0000 0.0000 0.0000
# 4 0.0000 0.0000 0.0000 34.5686 0.0000 0.0000
# 5 0.0000 0.0000 0.0000 0.0000 11.5794 0.0000
# 6 0.0000 0.0000 0.0000 0.0000 0.0000 32.4322
#
#
#
# Elastic Compliance Matrix: (Units=1/GPa)
#
#
# Indices 1 2 3 4 5 6 
#
# 1 0.011757 -0.004314 -0.005057 0.000000 0.000000 0.000000
# 2 -0.004314 0.018753 -0.004573 0.000000 0.000000 0.000000
# 3 -0.005057 -0.004573 0.012179 0.000000 0.000000 0.000000
# 4 0.000000 0.000000 0.000000 0.028928 0.000000 0.000000
# 5 0.000000 0.000000 0.000000 0.000000 0.086360 0.000000
# 6 0.000000 0.000000 0.000000 0.000000 0.000000 0.030834
#
#
# Mechanical properties :
#
#
# Convention : Reuss Voigt Hill
#
# Bulk Modulus (GPa) = 67.55877 76.69152 72.12514
# Shear Modulus (GPa) = 22.55999 27.06889 24.81444
#
# Velocity S-wave (km/s) = 3.42121 3.74753 3.58808
# Velocity P-wave (km/s) = 7.11740 7.64950 7.38824
#
# Compressibility (1/GPa) = 0.01480193
#
# Stress axis : x y z
#
# Youngs Moduli (GPa) = 85.05361 53.32533 82.11020
#
# Poissons Ratio (x) = 0.23003 0.41524
# Poissons Ratio (y) = 0.36689 0.37546
# Poissons Ratio (z) = 0.43013 0.24384
#
# Static dielectric constant tensor:
#      x y z
#    x 3.754530 0.000000 0.000000 
#    y 0.000000 3.687250 0.000000 
#    z 0.000000 0.000000 3.497910 
# 
# 
# High freq. dielectric constant tensor:
#      x y z
#    x 1.767430 0.000000 0.000000 
#    y 0.000000 1.767970 0.000000 
#    z 0.000000 0.000000 1.745940 
# 
# From -- ./inp_files/25562.got.cif
#   From: 2010.03.12/outbox.cif.g09.slc.cpg/sg59_13_cif.got.tgz:25562.got - 2010.04.16 16:29:54.
