data_PCOD8245345
_publ_section_title
;
Structure prediction by ZEFSAII (Michael W. Deem and Ramdas Pophale) SiO2 
 PCOD8245345
Probable space group: P M M N
;
_chemical_formula_sum "Si O2"
_cell_formula_units_Z 56
_cell_length_a 14.647474
_cell_length_b 15.507249
_cell_length_c 12.012899
_cell_angle_alpha 90.000000
_cell_angle_beta 90.000000
_cell_angle_gamma 90.000000
_cell_volume 2728.634223
_symmetry_space_group_name_H-M "P M M N"
_symmetry_group_IT_number 59
_space_group.IT_coordinate_system_code '2'
_symmetry_cell_setting 'orthorhombic'
loop_
_space_group_symop_operation_xyz
x,y,z
1/2-x,1/2-y,z
1/2+x,-y,-z
-x,1/2+y,-z
-x,-y,-z
1/2+x,1/2+y,-z
1/2-x,y,z
x,1/2-y,z
loop_
_atom_site_type_symbol
_atom_site_label
_atom_site_fract_x
_atom_site_fract_y
_atom_site_fract_z
Si Si1 0.853438 0.153282 0.407204
Si Si2 0.853276 0.057784 0.184573
Si Si3 0.458758 0.984971 0.180707
Si Si4 0.857888 0.849245 0.754157
Si Si5 0.018709 0.921893 0.420051
Si Si6 0.152173 0.150555 0.499006
Si Si7 0.646582 0.347591 0.964284
O O1 0.750000 0.134004 0.440761
O O2 0.866870 0.250000 0.363943
O O3 0.883279 0.092083 0.305801
O O4 0.911062 0.141162 0.518924
O O5 0.750000 0.017545 0.186171
O O6 0.855447 0.135792 0.096550
O O7 0.932375 0.988818 0.154526
O O8 0.439310 0.946317 0.302224
O O9 0.416404 0.918839 0.093404
O O10 0.413010 0.080772 0.171222
O O11 0.750000 0.862065 0.772915
O O12 0.885132 0.750000 0.785506
O O13 0.884214 0.868941 0.625764
O O14 0.919759 0.877106 0.406928
O O15 0.000000 0.000000 0.500000
O O16 0.250000 0.102951 0.518922
O O17 0.170610 0.250000 0.510630
O O18 0.750000 0.357610 0.919334
O O19 0.611332 0.250000 0.941612
#
# Coordination Sequence:
#
# PCOD8245345 Si02
#       7
#     8   8   8   8   8   8   8
#     4  10  21  37  59  86 116 155 203 253 302 353
#     4  10  21  40  64  88 115 152 206 263 308 351
#     4  12  23  37  60  91 122 161 197 244 305 369
#     4   9  18  33  54  82 115 150 190 238 290 346
#     4  12  22  34  50  84 122 155 186 233 294 357
#     4   9  18  33  52  72 102 149 198 236 275 337
#     4  10  23  43  65  89 119 157 203 255 310 368
#
# _framework density 20.523088000000001
#
# number of rings (size 3 to 8) (size 9 to 14) (size 15 to 20)
#    0.000    1.714    2.857    2.571    0.000    7.429 
#    0.000    1.429    0.000    0.429    0.000    0.000 
#    0.000    0.000    0.000    0.000    0.000    0.000 
#
# Total GULP energy -694112.419786 kJ/mol
# GULP energy per Si atom -12394.864639 kJ/mol
# Density = 2.047638 g / cm^3
# Si number density = 20.523088 Si / 1000 Ang^3
#
#
#
# Elastic Constant Matrix: (Units=GPa)
#
#
# Indices 1 2 3 4 5 6 
#
# 1 118.9603 54.3674 31.7554 0.0000 0.0000 0.0000
# 2 54.3674 86.1569 29.4998 0.0000 0.0000 0.0000
# 3 31.7554 29.4998 64.7602 0.0000 0.0000 0.0000
# 4 0.0000 0.0000 0.0000 26.6480 0.0000 0.0000
# 5 0.0000 0.0000 0.0000 0.0000 44.0797 0.0000
# 6 0.0000 0.0000 0.0000 0.0000 0.0000 32.2366
#
#
#
# Elastic Compliance Matrix: (Units=1/GPa)
#
#
# Indices 1 2 3 4 5 6 
#
# 1 0.012271 -0.006733 -0.002950 0.000000 0.000000 0.000000
# 2 -0.006733 0.017446 -0.004645 0.000000 0.000000 0.000000
# 3 -0.002950 -0.004645 0.019004 0.000000 0.000000 0.000000
# 4 0.000000 0.000000 0.000000 0.037526 0.000000 0.000000
# 5 0.000000 0.000000 0.000000 0.000000 0.022686 0.000000
# 6 0.000000 0.000000 0.000000 0.000000 0.000000 0.031021
#
#
# Mechanical properties :
#
#
# Convention : Reuss Voigt Hill
#
# Bulk Modulus (GPa) = 49.84050 55.68029 52.76040
# Shear Modulus (GPa) = 28.52260 30.87651 29.69956
#
# Velocity S-wave (km/s) = 3.73202 3.88297 3.80824
# Velocity P-wave (km/s) = 6.55045 6.87697 6.71570
#
# Compressibility (1/GPa) = 0.02006400
#
# Stress axis : x y z
#
# Youngs Moduli (GPa) = 81.49394 57.31917 52.61992
#
# Poissons Ratio (x) = 0.38594 0.15523
# Poissons Ratio (y) = 0.54872 0.24444
# Poissons Ratio (z) = 0.24040 0.26627
#
# Static dielectric constant tensor:
#      x y z
#    x 3.871240 0.000000 0.000000 
#    y 0.000000 3.621290 0.000000 
#    z 0.000000 0.000000 3.635360 
# 
# 
# High freq. dielectric constant tensor:
#      x y z
#    x 1.819940 0.000000 0.000000 
#    y 0.000000 1.792110 0.000000 
#    z 0.000000 0.000000 1.772160 
# 
# From -- ./inp_files/16909.got.cif
#   From: 2010.03.12/outbox.cif.g09.slc.cpg/sg59_9_cif.got.tgz:16909.got - 2010.04.16 16:29:54.
