data_PCOD8245658
_publ_section_title
;
Structure prediction by ZEFSAII (Michael W. Deem and Ramdas Pophale) SiO2 
 PCOD8245658
Probable space group: P M M N
;
_chemical_formula_sum "Si O2"
_cell_formula_units_Z 48
_cell_length_a 8.635383
_cell_length_b 9.685240
_cell_length_c 28.515786
_cell_angle_alpha 90.000000
_cell_angle_beta 90.000000
_cell_angle_gamma 90.000000
_cell_volume 2384.939344
_symmetry_space_group_name_H-M "P M M N"
_symmetry_group_IT_number 59
_space_group.IT_coordinate_system_code '2'
_symmetry_cell_setting 'orthorhombic'
loop_
_space_group_symop_operation_xyz
x,y,z
1/2-x,1/2-y,z
1/2+x,-y,-z
-x,1/2+y,-z
-x,-y,-z
1/2+x,1/2+y,-z
1/2-x,y,z
x,1/2-y,z
loop_
_atom_site_type_symbol
_atom_site_label
_atom_site_fract_x
_atom_site_fract_y
_atom_site_fract_z
Si Si1 0.925263 0.094298 0.794638
Si Si2 0.932403 0.591431 0.458449
Si Si3 0.568280 0.250000 0.068810
Si Si4 0.566692 0.537881 0.106506
Si Si5 0.065006 0.750000 0.036580
Si Si6 0.426744 0.907183 0.718564
Si Si7 0.069496 0.408156 0.379289
O O1 0.750000 0.038001 0.793070
O O2 0.932599 0.250000 0.775330
O O3 0.985829 0.094939 0.847401
O O4 0.033587 0.000796 0.762673
O O5 0.750000 0.594083 0.463966
O O6 0.995709 0.750000 0.459891
O O7 0.000000 0.500000 0.500000
O O8 0.976652 0.518222 0.409970
O O9 0.750000 0.250000 0.061501
O O10 0.515884 0.380200 0.099346
O O11 0.498756 0.250000 0.016404
O O12 0.750000 0.558240 0.111079
O O13 0.503751 0.615674 0.061202
O O14 0.250000 0.750000 0.039814
O O15 0.250000 0.933210 0.703373
O O16 0.452768 0.750000 0.734467
O O17 0.535697 0.943942 0.674704
O O18 0.250000 0.426054 0.389638
O O19 0.017144 0.250000 0.390544
#
# Coordination Sequence:
#
# PCOD8245658 Si02
#       7
#     8   8   4   8   4   8   8
#     4  11  24  41  60  85 118 154 194 243 297 352
#     4  11  24  40  60  89 124 164 210 257 306 361
#     4   9  22  39  59  87 117 149 191 241 290 345
#     4  11  22  39  61  86 115 152 194 239 291 350
#     4  11  21  39  61  85 119 153 189 237 290 349
#     4  10  22  40  64  92 121 156 198 245 297 356
#     4  10  21  39  63  91 123 159 201 249 302 359
#
# _framework density 20.126298999999999
#
# number of rings (size 3 to 8) (size 9 to 14) (size 15 to 20)
#    0.000    1.500    0.833    3.750    1.167    7.000 
#    0.000    3.750    0.000    0.000    0.000    0.000 
#    0.000    0.000    0.000    0.000    0.000    0.000 
#
# Total GULP energy -595358.285010 kJ/mol
# GULP energy per Si atom -12403.297604 kJ/mol
# Density = 2.008049 g / cm^3
# Si number density = 20.126299 Si / 1000 Ang^3
#
#
#
# Elastic Constant Matrix: (Units=GPa)
#
#
# Indices 1 2 3 4 5 6 
#
# 1 69.4850 34.9133 16.7976 0.0000 0.0000 0.0000
# 2 34.9133 125.1865 41.8873 0.0000 0.0000 0.0000
# 3 16.7976 41.8873 85.7041 0.0000 0.0000 0.0000
# 4 0.0000 0.0000 0.0000 43.7383 0.0000 0.0000
# 5 0.0000 0.0000 0.0000 0.0000 34.9369 0.0000
# 6 0.0000 0.0000 0.0000 0.0000 0.0000 32.4593
#
#
#
# Elastic Compliance Matrix: (Units=1/GPa)
#
#
# Indices 1 2 3 4 5 6 
#
# 1 0.016840 -0.004294 -0.001202 0.000000 0.000000 0.000000
# 2 -0.004294 0.010645 -0.004361 0.000000 0.000000 0.000000
# 3 -0.001202 -0.004361 0.014035 0.000000 0.000000 0.000000
# 4 0.000000 0.000000 0.000000 0.022863 0.000000 0.000000
# 5 0.000000 0.000000 0.000000 0.000000 0.028623 0.000000
# 6 0.000000 0.000000 0.000000 0.000000 0.000000 0.030808
#
#
# Mechanical properties :
#
#
# Convention : Reuss Voigt Hill
#
# Bulk Modulus (GPa) = 45.85957 51.95242 48.90599
# Shear Modulus (GPa) = 33.15727 34.67871 33.91799
#
# Velocity S-wave (km/s) = 4.06329 4.15547 4.10964
# Velocity P-wave (km/s) = 6.69695 6.99237 6.84625
#
# Compressibility (1/GPa) = 0.02180570
#
# Stress axis : x y z
#
# Youngs Moduli (GPa) = 59.38298 93.94152 71.25063
#
# Poissons Ratio (x) = 0.40342 0.08562
# Poissons Ratio (y) = 0.25501 0.31072
# Poissons Ratio (z) = 0.07136 0.40967
#
# Static dielectric constant tensor:
#      x y z
#    x 3.701340 0.000000 0.000000 
#    y 0.000000 3.961250 0.000000 
#    z 0.000000 0.000000 3.606230 
# 
# 
# High freq. dielectric constant tensor:
#      x y z
#    x 1.789350 0.000000 0.000000 
#    y 0.000000 1.796160 0.000000 
#    z 0.000000 0.000000 1.790070 
# 
# From -- ./inp_files/33022.got.cif
#   From: 2010.03.12/outbox.cif.g09.slc.cpg/sg59_17_cif.got.tgz:33022.got - 2010.04.16 16:29:54.
