data_PCOD8245888
_publ_section_title
;
Structure prediction by ZEFSAII (Michael W. Deem and Ramdas Pophale) SiO2 
 PCOD8245888
Probable space group: P M M N
;
_chemical_formula_sum "Si O2"
_cell_formula_units_Z 48
_cell_length_a 25.732471
_cell_length_b 15.717739
_cell_length_c 5.183654
_cell_angle_alpha 90.000000
_cell_angle_beta 90.000000
_cell_angle_gamma 90.000000
_cell_volume 2096.561326
_symmetry_space_group_name_H-M "P M M N"
_symmetry_group_IT_number 59
_space_group.IT_coordinate_system_code '2'
_symmetry_cell_setting 'orthorhombic'
loop_
_space_group_symop_operation_xyz
x,y,z
1/2-x,1/2-y,z
1/2+x,-y,-z
-x,1/2+y,-z
-x,-y,-z
1/2+x,1/2+y,-z
1/2-x,y,z
x,1/2-y,z
loop_
_atom_site_type_symbol
_atom_site_label
_atom_site_fract_x
_atom_site_fract_y
_atom_site_fract_z
Si Si1 0.866965 0.846791 0.838953
Si Si2 0.477638 0.594972 0.466423
Si Si3 0.690544 0.402638 0.175879
Si Si4 0.977639 0.905028 0.966423
Si Si5 0.866965 0.346792 0.661047
Si Si6 0.809456 0.902638 0.324121
O O1 0.884343 0.750000 0.788179
O O2 0.916431 0.904592 0.911883
O O3 0.841703 0.884085 0.581296
O O4 0.827639 0.847506 0.079844
O O5 0.500000 0.500000 0.500000
O O6 0.491410 0.642384 0.734310
O O7 0.416431 0.595408 0.411883
O O8 0.508590 0.642384 0.234310
O O9 0.750000 0.379379 0.115798
O O10 0.672362 0.347507 0.420160
O O11 0.683315 0.500000 0.249997
O O12 0.658297 0.384084 0.918707
O O13 0.000000 0.000000 0.000000
O O14 0.884343 0.250000 0.711816
O O15 0.750000 0.879379 0.384201
#
# Coordination Sequence:
#
# PCOD8245888 Si02
#       6
#     8   8   8   8   8   8
#     4  12  26  43  71 106 142 181 232 296 355 412
#     4  10  23  40  65  98 130 184 227 280 336 412
#     4  11  26  46  72 102 138 187 236 284 345 430
#     4  10  23  40  65  98 130 184 227 280 336 412
#     4  12  26  43  71 106 142 181 232 296 355 412
#     4  11  26  46  72 102 138 187 236 284 345 430
#
# _framework density 22.894634
#
# number of rings (size 3 to 8) (size 9 to 14) (size 15 to 20)
#    0.000    1.000    0.000    5.000   14.000    8.000 
#    0.000    0.000    0.000    0.000    0.000    0.000 
#    0.000    0.000    0.000    0.000    0.000    0.000 
#
# Total GULP energy -595130.152375 kJ/mol
# GULP energy per Si atom -12398.544841 kJ/mol
# Density = 2.284252 g / cm^3
# Si number density = 22.894634 Si / 1000 Ang^3
#
#
#
# Elastic Constant Matrix: (Units=GPa)
#
#
# Indices 1 2 3 4 5 6 
#
# 1 151.0501 66.1377 80.0084 0.0000 0.0000 0.0000
# 2 66.1377 79.1411 24.6200 0.0000 0.0000 0.0000
# 3 80.0084 24.6200 235.5224 0.0000 0.0000 0.0000
# 4 0.0000 0.0000 0.0000 17.6750 0.0000 0.0000
# 5 0.0000 0.0000 0.0000 0.0000 53.2455 0.0000
# 6 0.0000 0.0000 0.0000 0.0000 0.0000 15.8136
#
#
#
# Elastic Compliance Matrix: (Units=1/GPa)
#
#
# Indices 1 2 3 4 5 6 
#
# 1 0.012457 -0.009399 -0.003249 0.000000 0.000000 0.000000
# 2 -0.009399 0.020153 0.001086 0.000000 0.000000 0.000000
# 3 -0.003249 0.001086 0.005236 0.000000 0.000000 0.000000
# 4 0.000000 0.000000 0.000000 0.056577 0.000000 0.000000
# 5 0.000000 0.000000 0.000000 0.000000 0.018781 0.000000
# 6 0.000000 0.000000 0.000000 0.000000 0.000000 0.063237
#
#
# Mechanical properties :
#
#
# Convention : Reuss Voigt Hill
#
# Bulk Modulus (GPa) = 67.92823 89.69400 78.81111
# Shear Modulus (GPa) = 24.45327 37.00998 30.73163
#
# Velocity S-wave (km/s) = 3.27169 4.02498 3.66773
# Velocity P-wave (km/s) = 6.63373 7.80144 7.24116
#
# Compressibility (1/GPa) = 0.01472142
#
# Stress axis : x y z
#
# Youngs Moduli (GPa) = 80.27718 49.62122 190.98317
#
# Poissons Ratio (x) = 0.46641 0.62053
# Poissons Ratio (y) = 0.75455 -0.20748
# Poissons Ratio (z) = 0.26083 -0.05391
#
# Static dielectric constant tensor:
#      x y z
#    x 4.177320 0.000000 0.000000 
#    y 0.000000 3.777820 0.000000 
#    z 0.000000 0.000000 1.148910 
# 
# 
# High freq. dielectric constant tensor:
#      x y z
#    x 1.910680 0.000000 0.000000 
#    y 0.000000 1.884410 0.000000 
#    z 0.000000 0.000000 1.941010 
# 
# From -- ./inp_files/3810.got.cif
#   From: 2010.03.12/outbox.cif.g09.slc.cpg/sg59_2_cif.got.tgz:3810.got - 2010.04.16 16:29:54.
