data_PCOD8245815
_publ_section_title
;
Structure prediction by ZEFSAII (Michael W. Deem and Ramdas Pophale) SiO2 
 PCOD8245815
Probable space group: P M M N
;
_chemical_formula_sum "Si O2"
_cell_formula_units_Z 64
_cell_length_a 30.688301
_cell_length_b 8.860143
_cell_length_c 11.932020
_cell_angle_alpha 90.000000
_cell_angle_beta 90.000000
_cell_angle_gamma 90.000000
_cell_volume 3244.348875
_symmetry_space_group_name_H-M "P M M N"
_symmetry_group_IT_number 59
_space_group.IT_coordinate_system_code '2'
_symmetry_cell_setting 'orthorhombic'
loop_
_space_group_symop_operation_xyz
x,y,z
1/2-x,1/2-y,z
1/2+x,-y,-z
-x,1/2+y,-z
-x,-y,-z
1/2+x,1/2+y,-z
1/2-x,y,z
x,1/2-y,z
loop_
_atom_site_type_symbol
_atom_site_label
_atom_site_fract_x
_atom_site_fract_y
_atom_site_fract_z
Si Si1 0.298139 0.429160 0.989892
Si Si2 0.412301 0.578699 0.755035
Si Si3 0.676859 0.927082 0.256370
Si Si4 0.878913 0.928420 0.865428
Si Si5 0.798758 0.077966 0.477141
Si Si6 0.045289 0.922133 0.523293
Si Si7 0.375702 0.072572 0.393287
Si Si8 0.046906 0.927433 0.990823
O O1 0.250000 0.485806 0.028120
O O2 0.299740 0.250000 0.991271
O O3 0.307051 0.486950 0.864068
O O4 0.335429 0.491973 0.072843
O O5 0.394098 0.750000 0.762877
O O6 0.373975 0.462300 0.729024
O O7 0.447102 0.564853 0.655919
O O8 0.434996 0.529113 0.869324
O O9 0.685073 0.750000 0.270487
O O10 0.703302 0.014325 0.351343
O O11 0.883389 0.750000 0.882500
O O12 0.875631 0.974217 0.736284
O O13 0.921612 0.006206 0.914728
O O14 0.750000 0.068465 0.527325
O O15 0.815746 0.250000 0.474260
O O16 0.830345 0.980901 0.554498
O O17 0.042648 0.750000 0.483965
O O18 0.083678 0.998669 0.454295
O O19 0.000000 0.000000 0.500000
O O20 0.379379 0.250000 0.409225
O O21 0.042922 0.750000 0.008215
O O22 0.000000 0.000000 0.000000
#
# Coordination Sequence:
#
# PCOD8245815 Si02
#       8
#     8   8   8   8   8   8   8   8
#     4   9  18  34  58  89 121 154 194 242 295 348
#     4  10  22  40  62  88 123 161 196 248 305 356
#     4  11  20  34  62  93 123 156 199 251 297 355
#     4  10  22  41  62  87 122 160 200 250 303 355
#     4  11  24  41  61  87 124 165 202 247 306 366
#     4  11  24  42  64  90 123 160 201 248 304 362
#     4  11  24  41  63  90 121 159 206 256 304 359
#     4  11  24  41  63  91 123 159 202 248 299 360
#
# _framework density 19.726607999999999
#
# number of rings (size 3 to 8) (size 9 to 14) (size 15 to 20)
#    0.000    1.500    2.500    2.250    1.750    4.000 
#    0.000    1.250    0.000    1.125    0.000    0.000 
#    0.000    0.000    0.000    0.000    0.000    0.000 
#
# Total GULP energy -793818.982277 kJ/mol
# GULP energy per Si atom -12403.421598 kJ/mol
# Density = 1.968171 g / cm^3
# Si number density = 19.726608 Si / 1000 Ang^3
#
#
#
# Elastic Constant Matrix: (Units=GPa)
#
#
# Indices 1 2 3 4 5 6 
#
# 1 136.5168 36.4533 49.5290 0.0000 0.0000 0.0000
# 2 36.4533 68.6376 45.1668 0.0000 0.0000 0.0000
# 3 49.5290 45.1668 126.0975 0.0000 0.0000 0.0000
# 4 0.0000 0.0000 0.0000 27.0953 0.0000 0.0000
# 5 0.0000 0.0000 0.0000 0.0000 26.5724 0.0000
# 6 0.0000 0.0000 0.0000 0.0000 0.0000 30.2388
#
#
#
# Elastic Compliance Matrix: (Units=1/GPa)
#
#
# Indices 1 2 3 4 5 6 
#
# 1 0.009059 -0.003231 -0.002401 0.000000 0.000000 0.000000
# 2 -0.003231 0.020215 -0.005972 0.000000 0.000000 0.000000
# 3 -0.002401 -0.005972 0.011012 0.000000 0.000000 0.000000
# 4 0.000000 0.000000 0.000000 0.036907 0.000000 0.000000
# 5 0.000000 0.000000 0.000000 0.000000 0.037633 0.000000
# 6 0.000000 0.000000 0.000000 0.000000 0.000000 0.033070
#
#
# Mechanical properties :
#
#
# Convention : Reuss Voigt Hill
#
# Bulk Modulus (GPa) = 58.55191 65.95001 62.25096
# Shear Modulus (GPa) = 28.28109 30.12149 29.20129
#
# Velocity S-wave (km/s) = 3.79047 3.91186 3.85164
# Velocity P-wave (km/s) = 6.99307 7.34221 7.16976
#
# Compressibility (1/GPa) = 0.01707886
#
# Stress axis : x y z
#
# Youngs Moduli (GPa) = 110.38784 49.46813 90.80746
#
# Poissons Ratio (x) = 0.15985 0.21801
# Poissons Ratio (y) = 0.35670 0.54226
# Poissons Ratio (z) = 0.26502 0.29540
#
# Static dielectric constant tensor:
#      x y z
#    x 3.953470 0.000000 0.000000 
#    y 0.000000 3.582340 0.000000 
#    z 0.000000 0.000000 3.785260 
# 
# 
# High freq. dielectric constant tensor:
#      x y z
#    x 1.781190 0.000000 0.000000 
#    y 0.000000 1.763480 0.000000 
#    z 0.000000 0.000000 1.775230 
# 
# From -- ./inp_files/19207.got.cif
#   From: 2010.03.12/outbox.cif.g09.slc.cpg/sg59_10_cif.got.tgz:19207.got - 2010.04.16 16:29:54.
