data_PCOD8245703
_publ_section_title
;
Structure prediction by ZEFSAII (Michael W. Deem and Ramdas Pophale) SiO2 
 PCOD8245703
Probable space group: P M M N
;
_chemical_formula_sum "Si O2"
_cell_formula_units_Z 44
_cell_length_a 14.772175
_cell_length_b 13.525851
_cell_length_c 11.344269
_cell_angle_alpha 90.000000
_cell_angle_beta 90.000000
_cell_angle_gamma 90.000000
_cell_volume 2266.655712
_symmetry_space_group_name_H-M "P M M N"
_symmetry_group_IT_number 59
_space_group.IT_coordinate_system_code '2'
_symmetry_cell_setting 'orthorhombic'
loop_
_space_group_symop_operation_xyz
x,y,z
1/2-x,1/2-y,z
1/2+x,-y,-z
-x,1/2+y,-z
-x,-y,-z
1/2+x,1/2+y,-z
1/2-x,y,z
x,1/2-y,z
loop_
_atom_site_type_symbol
_atom_site_label
_atom_site_fract_x
_atom_site_fract_y
_atom_site_fract_z
Si Si1 0.750000 0.136034 0.136380
Si Si2 0.647844 0.964686 0.510387
Si Si3 0.978381 0.250000 0.667278
Si Si4 0.750000 0.367401 0.857881
Si Si5 0.849768 0.750000 0.479979
Si Si6 0.923617 0.051413 0.739055
Si Si7 0.909169 0.436928 0.286741
Si Si8 0.360641 0.750000 0.562555
O O1 0.750000 0.250000 0.183586
O O2 0.662380 0.077448 0.182251
O O3 0.750000 0.135197 0.997253
O O4 0.750000 0.003363 0.509577
O O5 0.639124 0.850781 0.555989
O O6 0.595931 0.034591 0.600497
O O7 0.610985 0.972011 0.376307
O O8 0.971572 0.156452 0.752517
O O9 0.897286 0.250000 0.570624
O O10 0.078834 0.250000 0.621764
O O11 0.750000 0.250000 0.812737
O O12 0.666584 0.436583 0.816435
O O13 0.750000 0.750000 0.421425
O O14 0.993558 0.962609 0.775421
O O15 0.905586 0.342253 0.371214
O O16 0.250000 0.750000 0.564131
#
# Coordination Sequence:
#
# PCOD8245703 Si02
#       8
#     4   8   4   4   4   8   8   4
#     4  11  24  45  67  91 116 157 216 268 310 353
#     4  11  20  35  57  89 123 163 195 234 301 371
#     4  12  22  34  54  96 128 154 206 243 301 382
#     4  11  26  45  65  87 120 159 212 272 314 353
#     4  10  22  36  50  82 137 168 191 241 299 369
#     4  12  24  37  63  91 123 163 199 251 311 373
#     4  12  21  37  63  93 122 161 204 249 306 373
#     4  12  22  34  60  98 131 162 199 254 310 361
#
# _framework density 19.411857999999999
#
# number of rings (size 3 to 8) (size 9 to 14) (size 15 to 20)
#    0.000    0.545    8.182    1.636    1.273    0.727 
#    0.000    0.000    0.000    0.000    0.000    5.091 
#    0.000    0.000    0.000    0.000    0.000    0.000 
#
# Total GULP energy -545078.211498 kJ/mol
# GULP energy per Si atom -12388.141170 kJ/mol
# Density = 1.936768 g / cm^3
# Si number density = 19.411858 Si / 1000 Ang^3
#
#
#
# Elastic Constant Matrix: (Units=GPa)
#
#
# Indices 1 2 3 4 5 6 
#
# 1 135.3264 40.6557 30.8678 0.0000 0.0000 0.0000
# 2 40.6557 99.9799 20.6545 0.0000 0.0000 0.0000
# 3 30.8678 20.6545 63.8599 0.0000 0.0000 0.0000
# 4 0.0000 0.0000 0.0000 12.2055 0.0000 0.0000
# 5 0.0000 0.0000 0.0000 0.0000 5.4957 0.0000
# 6 0.0000 0.0000 0.0000 0.0000 0.0000 34.1237
#
#
#
# Elastic Compliance Matrix: (Units=1/GPa)
#
#
# Indices 1 2 3 4 5 6 
#
# 1 0.009064 -0.002980 -0.003418 0.000000 0.000000 0.000000
# 2 -0.002980 0.011698 -0.002343 0.000000 0.000000 0.000000
# 3 -0.003418 -0.002343 0.018069 0.000000 0.000000 0.000000
# 4 0.000000 0.000000 0.000000 0.081930 0.000000 0.000000
# 5 0.000000 0.000000 0.000000 0.000000 0.181962 0.000000
# 6 0.000000 0.000000 0.000000 0.000000 0.000000 0.029305
#
#
# Mechanical properties :
#
#
# Convention : Reuss Voigt Hill
#
# Bulk Modulus (GPa) = 46.83833 53.72471 50.28152
# Shear Modulus (GPa) = 14.02028 24.16419 19.09223
#
# Velocity S-wave (km/s) = 2.69039 3.53202 3.13954
# Velocity P-wave (km/s) = 5.81653 6.66107 6.25308
#
# Compressibility (1/GPa) = 0.02135003
#
# Stress axis : x y z
#
# Youngs Moduli (GPa) = 110.32261 85.48622 55.34323
#
# Poissons Ratio (x) = 0.25474 0.18914
# Poissons Ratio (y) = 0.32875 0.12967
# Poissons Ratio (z) = 0.37704 0.20030
#
# Static dielectric constant tensor:
#      x y z
#    x 3.882710 0.000000 0.000000 
#    y 0.000000 3.991440 0.000000 
#    z 0.000000 0.000000 3.070110 
# 
# 
# High freq. dielectric constant tensor:
#      x y z
#    x 1.774450 0.000000 0.000000 
#    y 0.000000 1.771370 0.000000 
#    z 0.000000 0.000000 1.698910 
# 
# From -- ./inp_files/16791.got.cif
#   From: 2010.03.12/outbox.cif.g09.slc.cpg/sg59_9_cif.got.tgz:16791.got - 2010.04.16 16:29:54.
