data_PCOD8245558
_publ_section_title
;
Structure prediction by ZEFSAII (Michael W. Deem and Ramdas Pophale) SiO2 
 PCOD8245558
Probable space group: P M M N
;
_chemical_formula_sum "Si O2"
_cell_formula_units_Z 40
_cell_length_a 17.627279
_cell_length_b 14.309201
_cell_length_c 7.740957
_cell_angle_alpha 90.000000
_cell_angle_beta 90.000000
_cell_angle_gamma 90.000000
_cell_volume 1952.519220
_symmetry_space_group_name_H-M "P M M N"
_symmetry_group_IT_number 59
_space_group.IT_coordinate_system_code '2'
_symmetry_cell_setting 'orthorhombic'
loop_
_space_group_symop_operation_xyz
x,y,z
1/2-x,1/2-y,z
1/2+x,-y,-z
-x,1/2+y,-z
-x,-y,-z
1/2+x,1/2+y,-z
1/2-x,y,z
x,1/2-y,z
loop_
_atom_site_type_symbol
_atom_site_label
_atom_site_fract_x
_atom_site_fract_y
_atom_site_fract_z
Si Si1 0.336884 0.352680 0.218994
Si Si2 0.077997 0.857967 0.378898
Si Si3 0.163237 0.539889 0.683423
Si Si4 0.097829 0.354554 0.586383
Si Si5 0.337564 0.953820 0.070202
O O1 0.250000 0.360026 0.284205
O O2 0.351476 0.250000 0.134041
O O3 0.391734 0.366408 0.381562
O O4 0.355516 0.435112 0.084681
O O5 0.098792 0.750000 0.402119
O O6 0.110129 0.912260 0.543430
O O7 0.112271 0.894103 0.200009
O O8 0.988983 0.875583 0.369120
O O9 0.250000 0.561497 0.635650
O O10 0.150525 0.428251 0.685340
O O11 0.143817 0.577999 0.874864
O O12 0.121264 0.250000 0.644960
O O13 0.250000 0.934544 0.115053
#
# Coordination Sequence:
#
# PCOD8245558 Si02
#       5
#     8   8   8   8   8
#     4   9  17  33  58  86 118 153 187 231 291 355
#     4  11  24  42  60  83 119 158 198 245 293 340
#     4  11  23  39  63  91 117 152 198 244 292 347
#     4  10  21  38  61  90 120 154 193 236 295 360
#     4  10  22  38  60  89 116 151 197 240 289 348
#
# _framework density 20.486355
#
# number of rings (size 3 to 8) (size 9 to 14) (size 15 to 20)
#    0.000    1.800    2.000    1.800    0.000    5.200 
#    0.000    4.000    0.000    0.000    0.000    0.000 
#    0.000    0.000    0.000    0.000    0.000    0.000 
#
# Total GULP energy -496000.869809 kJ/mol
# GULP energy per Si atom -12400.021745 kJ/mol
# Density = 2.043973 g / cm^3
# Si number density = 20.486355 Si / 1000 Ang^3
#
#
#
# Elastic Constant Matrix: (Units=GPa)
#
#
# Indices 1 2 3 4 5 6 
#
# 1 22.6557 11.8362 10.0423 0.0000 0.0000 0.0000
# 2 11.8362 82.9743 19.7455 0.0000 0.0000 0.0000
# 3 10.0423 19.7455 77.6311 0.0000 0.0000 0.0000
# 4 0.0000 0.0000 0.0000 13.2048 0.0000 0.0000
# 5 0.0000 0.0000 0.0000 0.0000 7.3574 0.0000
# 6 0.0000 0.0000 0.0000 0.0000 0.0000 33.2695
#
#
#
# Elastic Compliance Matrix: (Units=1/GPa)
#
#
# Indices 1 2 3 4 5 6 
#
# 1 0.049379 -0.005880 -0.004892 0.000000 0.000000 0.000000
# 2 -0.005880 0.013529 -0.002680 0.000000 0.000000 0.000000
# 3 -0.004892 -0.002680 0.014196 0.000000 0.000000 0.000000
# 4 0.000000 0.000000 0.000000 0.075730 0.000000 0.000000
# 5 0.000000 0.000000 0.000000 0.000000 0.135918 0.000000
# 6 0.000000 0.000000 0.000000 0.000000 0.000000 0.030058
#
#
# Mechanical properties :
#
#
# Convention : Reuss Voigt Hill
#
# Bulk Modulus (GPa) = 19.92059 29.61212 24.76636
# Shear Modulus (GPa) = 13.79511 20.20881 17.00196
#
# Velocity S-wave (km/s) = 2.59777 3.14419 2.88395
# Velocity P-wave (km/s) = 4.32930 5.25996 4.81716
#
# Compressibility (1/GPa) = 0.05019932
#
# Stress axis : x y z
#
# Youngs Moduli (GPa) = 20.25142 73.91800 70.44220
#
# Poissons Ratio (x) = 0.43462 0.34461
# Poissons Ratio (y) = 0.11907 0.18881
# Poissons Ratio (z) = 0.09907 0.19813
#
# Static dielectric constant tensor:
#      x y z
#    x 3.630350 0.000000 0.000000 
#    y 0.000000 3.943840 0.000000 
#    z 0.000000 0.000000 3.504770 
# 
# 
# High freq. dielectric constant tensor:
#      x y z
#    x 1.797680 0.000000 0.000000 
#    y 0.000000 1.808500 0.000000 
#    z 0.000000 0.000000 1.791080 
# 
# From -- ./inp_files/8624.got.cif
#   From: 2010.03.12/outbox.cif.g09.slc.cpg/sg59_5_cif.got.tgz:8624.got - 2010.04.16 16:29:54.
