data_PCOD8245964
_publ_section_title
;
Structure prediction by ZEFSAII (Michael W. Deem and Ramdas Pophale) SiO2 
 PCOD8245964
Probable space group: P M M N
;
_chemical_formula_sum "Si O2"
_cell_formula_units_Z 48
_cell_length_a 15.410945
_cell_length_b 9.178530
_cell_length_c 18.256650
_cell_angle_alpha 90.000000
_cell_angle_beta 90.000000
_cell_angle_gamma 90.000000
_cell_volume 2582.399875
_symmetry_space_group_name_H-M "P M M N"
_symmetry_group_IT_number 59
_space_group.IT_coordinate_system_code '2'
_symmetry_cell_setting 'orthorhombic'
loop_
_space_group_symop_operation_xyz
x,y,z
1/2-x,1/2-y,z
1/2+x,-y,-z
-x,1/2+y,-z
-x,-y,-z
1/2+x,1/2+y,-z
1/2-x,y,z
x,1/2-y,z
loop_
_atom_site_type_symbol
_atom_site_label
_atom_site_fract_x
_atom_site_fract_y
_atom_site_fract_z
Si Si1 0.845857 0.922773 0.564168
Si Si2 0.349809 0.420029 0.601817
Si Si3 0.006305 0.423381 0.326382
Si Si4 0.083106 0.918065 0.029463
Si Si5 0.655363 0.584705 0.090981
Si Si6 0.989484 0.417818 0.820252
O O1 0.750000 0.981663 0.587572
O O2 0.843812 0.750000 0.566955
O O3 0.866442 0.972616 0.481402
O O4 0.920614 0.983346 0.617426
O O5 0.250000 0.450375 0.624099
O O6 0.371579 0.250000 0.611100
O O7 0.412372 0.512075 0.654084
O O8 0.001038 0.250000 0.326881
O O9 0.035215 0.478796 0.246772
O O10 0.078829 0.750000 0.007891
O O11 0.085665 0.936264 0.117781
O O12 0.161526 0.992223 0.984869
O O13 0.000000 0.000000 0.000000
O O14 0.750000 0.574111 0.128859
O O15 0.631692 0.750000 0.069237
O O16 0.582621 0.529035 0.147665
O O17 0.995285 0.250000 0.794145
#
# Coordination Sequence:
#
# PCOD8245964 Si02
#       6
#     8   8   8   8   8   8
#     4   8  16  33  54  74  97 129 171 213 254 305
#     4   9  18  34  55  74  97 135 174 205 248 311
#     4  11  21  31  50  79 106 132 166 214 261 296
#     4   9  17  31  51  71  92 122 159 198 239 284
#     4   9  18  33  53  75  97 125 164 206 246 293
#     4   9  19  34  49  68 100 138 168 195 236 299
#
# _framework density 18.58736
#
# number of rings (size 3 to 8) (size 9 to 14) (size 15 to 20)
#    0.000    2.833    0.000    3.500    0.000    4.667 
#    0.000    3.333    0.000    7.000    0.000    0.000 
#    0.000    0.000    0.000    0.000    0.000    0.000 
#
# Total GULP energy -594865.929002 kJ/mol
# GULP energy per Si atom -12393.040188 kJ/mol
# Density = 1.854505 g / cm^3
# Si number density = 18.587360 Si / 1000 Ang^3
#
#
#
# Elastic Constant Matrix: (Units=GPa)
#
#
# Indices 1 2 3 4 5 6 
#
# 1 47.6139 13.9269 13.2846 0.0000 0.0000 0.0000
# 2 13.9269 63.2613 31.6699 0.0000 0.0000 0.0000
# 3 13.2846 31.6699 78.7432 0.0000 0.0000 0.0000
# 4 0.0000 0.0000 0.0000 32.4001 0.0000 0.0000
# 5 0.0000 0.0000 0.0000 0.0000 19.6729 0.0000
# 6 0.0000 0.0000 0.0000 0.0000 0.0000 22.6183
#
#
#
# Elastic Compliance Matrix: (Units=1/GPa)
#
#
# Indices 1 2 3 4 5 6 
#
# 1 0.022772 -0.003869 -0.002286 0.000000 0.000000 0.000000
# 2 -0.003869 0.020450 -0.007572 0.000000 0.000000 0.000000
# 3 -0.002286 -0.007572 0.016131 0.000000 0.000000 0.000000
# 4 0.000000 0.000000 0.000000 0.030864 0.000000 0.000000
# 5 0.000000 0.000000 0.000000 0.000000 0.050831 0.000000
# 6 0.000000 0.000000 0.000000 0.000000 0.000000 0.044212
#
#
# Mechanical properties :
#
#
# Convention : Reuss Voigt Hill
#
# Bulk Modulus (GPa) = 31.34919 34.15347 32.75133
# Shear Modulus (GPa) = 22.38679 23.65405 23.02042
#
# Velocity S-wave (km/s) = 3.47423 3.57121 3.52305
# Velocity P-wave (km/s) = 5.74423 5.95140 5.84873
#
# Compressibility (1/GPa) = 0.03189875
#
# Stress axis : x y z
#
# Youngs Moduli (GPa) = 43.91433 48.89990 61.99410
#
# Poissons Ratio (x) = 0.18919 0.14170
# Poissons Ratio (y) = 0.16990 0.46943
# Poissons Ratio (z) = 0.10038 0.37028
#
# Static dielectric constant tensor:
#      x y z
#    x 3.352720 0.000000 0.000000 
#    y 0.000000 3.385960 0.000000 
#    z 0.000000 0.000000 3.170710 
# 
# 
# High freq. dielectric constant tensor:
#      x y z
#    x 1.713490 0.000000 0.000000 
#    y 0.000000 1.704830 0.000000 
#    z 0.000000 0.000000 1.714270 
# 
# From -- ./inp_files/27786.got.cif
#   From: 2010.03.12/outbox.cif.g09.slc.cpg/sg59_14_cif.got.tgz:27786.got - 2010.04.16 16:29:54.
