data_PCOD8245373
_publ_section_title
;
Structure prediction by ZEFSAII (Michael W. Deem and Ramdas Pophale) SiO2 
 PCOD8245373
Probable space group: P M M N
;
_chemical_formula_sum "Si O2"
_cell_formula_units_Z 64
_cell_length_a 13.920043
_cell_length_b 18.568739
_cell_length_c 12.187631
_cell_angle_alpha 90.000000
_cell_angle_beta 90.000000
_cell_angle_gamma 90.000000
_cell_volume 3150.230163
_symmetry_space_group_name_H-M "P M M N"
_symmetry_group_IT_number 59
_space_group.IT_coordinate_system_code '2'
_symmetry_cell_setting 'orthorhombic'
loop_
_space_group_symop_operation_xyz
x,y,z
1/2-x,1/2-y,z
1/2+x,-y,-z
-x,1/2+y,-z
-x,-y,-z
1/2+x,1/2+y,-z
1/2-x,y,z
x,1/2-y,z
loop_
_atom_site_type_symbol
_atom_site_label
_atom_site_fract_x
_atom_site_fract_y
_atom_site_fract_z
Si Si1 0.137430 0.334074 0.460187
Si Si2 0.944284 0.546572 0.686972
Si Si3 0.856065 0.416207 0.366893
Si Si4 0.142803 0.902165 0.384005
Si Si5 0.637171 0.833187 0.093815
Si Si6 0.477227 0.071006 0.067396
Si Si7 0.955496 0.834382 0.315867
Si Si8 0.358790 0.668277 0.847459
O O1 0.250000 0.349285 0.454984
O O2 0.113844 0.250000 0.444596
O O3 0.084287 0.376155 0.362735
O O4 0.098196 0.364405 0.576312
O O5 0.876946 0.486604 0.633643
O O6 0.930160 0.548869 0.817152
O O7 0.056560 0.528362 0.658137
O O8 0.750000 0.453546 0.355596
O O9 0.867496 0.383159 0.487880
O O10 0.865464 0.350545 0.281456
O O11 0.250000 0.883871 0.342238
O O12 0.067827 0.854893 0.315385
O O13 0.750000 0.842246 0.103803
O O14 0.608048 0.750000 0.075442
O O15 0.591243 0.865738 0.205263
O O16 0.600629 0.879752 0.992505
O O17 0.575513 0.115535 0.081059
O O18 0.500000 0.000000 0.000000
O O19 0.941788 0.750000 0.313862
O O20 0.250000 0.658830 0.890171
O O21 0.394224 0.750000 0.862741
#
# Coordination Sequence:
#
# PCOD8245373 Si02
#       8
#     8   8   8   8   8   8   8   8
#     4  10  21  37  59  89 121 155 197 246 306 372
#     4  11  22  39  60  85 124 162 200 249 309 367
#     4   9  19  34  56  87 121 154 196 244 295 361
#     4  11  22  37  57  88 126 162 198 239 296 371
#     4  10  22  42  66  89 115 157 215 268 310 359
#     4  11  24  41  61  88 123 163 208 260 314 365
#     4  10  21  39  61  86 119 156 197 249 306 367
#     4   9  19  38  64  92 121 157 204 256 311 371
#
# _framework density 20.315974000000001
#
# number of rings (size 3 to 8) (size 9 to 14) (size 15 to 20)
#    0.000    1.875    1.250    2.250    0.000    6.250 
#    0.000    7.500    0.000    0.750    0.000    0.000 
#    0.000    0.000    0.000    0.000    0.000    0.000 
#
# Total GULP energy -793673.373824 kJ/mol
# GULP energy per Si atom -12401.146466 kJ/mol
# Density = 2.026973 g / cm^3
# Si number density = 20.315974 Si / 1000 Ang^3
#
#
#
# Elastic Constant Matrix: (Units=GPa)
#
#
# Indices 1 2 3 4 5 6 
#
# 1 117.3850 26.4174 56.0112 0.0000 0.0000 0.0000
# 2 26.4174 57.1577 42.3952 0.0000 0.0000 0.0000
# 3 56.0112 42.3952 110.6930 0.0000 0.0000 0.0000
# 4 0.0000 0.0000 0.0000 26.9720 0.0000 0.0000
# 5 0.0000 0.0000 0.0000 0.0000 33.3340 0.0000
# 6 0.0000 0.0000 0.0000 0.0000 0.0000 33.1541
#
#
#
# Elastic Compliance Matrix: (Units=1/GPa)
#
#
# Indices 1 2 3 4 5 6 
#
# 1 0.011307 -0.001372 -0.005196 0.000000 0.000000 0.000000
# 2 -0.001372 0.024604 -0.008729 0.000000 0.000000 0.000000
# 3 -0.005196 -0.008729 0.015006 0.000000 0.000000 0.000000
# 4 0.000000 0.000000 0.000000 0.037075 0.000000 0.000000
# 5 0.000000 0.000000 0.000000 0.000000 0.029999 0.000000
# 6 0.000000 0.000000 0.000000 0.000000 0.000000 0.030162
#
#
# Mechanical properties :
#
#
# Convention : Reuss Voigt Hill
#
# Bulk Modulus (GPa) = 49.20414 59.43149 54.31781
# Shear Modulus (GPa) = 26.95081 29.38615 28.16848
#
# Velocity S-wave (km/s) = 3.64618 3.80736 3.72764
# Velocity P-wave (km/s) = 6.48060 6.97460 6.73213
#
# Compressibility (1/GPa) = 0.02032349
#
# Stress axis : x y z
#
# Youngs Moduli (GPa) = 88.44064 40.64354 66.63822
#
# Poissons Ratio (x) = 0.05576 0.34625
# Poissons Ratio (y) = 0.12134 0.58169
# Poissons Ratio (z) = 0.45953 0.35478
#
# Static dielectric constant tensor:
#      x y z
#    x 3.895800 0.000000 0.000000 
#    y 0.000000 3.525720 0.000000 
#    z 0.000000 0.000000 3.724440 
# 
# 
# High freq. dielectric constant tensor:
#      x y z
#    x 1.806750 0.000000 0.000000 
#    y 0.000000 1.781240 0.000000 
#    z 0.000000 0.000000 1.791260 
# 
# From -- ./inp_files/17181.got.cif
#   From: 2010.03.12/outbox.cif.g09.slc.cpg/sg59_9_cif.got.tgz:17181.got - 2010.04.16 16:29:54.
