data_PCOD8245040
_publ_section_title
;
Structure prediction by ZEFSAII (Michael W. Deem and Ramdas Pophale) SiO2 
 PCOD8245040
Probable space group: P M M N
;
_chemical_formula_sum "Si O2"
_cell_formula_units_Z 64
_cell_length_a 21.575760
_cell_length_b 9.216538
_cell_length_c 16.491614
_cell_angle_alpha 90.000000
_cell_angle_beta 90.000000
_cell_angle_gamma 90.000000
_cell_volume 3279.420309
_symmetry_space_group_name_H-M "P M M N"
_symmetry_group_IT_number 59
_space_group.IT_coordinate_system_code '2'
_symmetry_cell_setting 'orthorhombic'
loop_
_space_group_symop_operation_xyz
x,y,z
1/2-x,1/2-y,z
1/2+x,-y,-z
-x,1/2+y,-z
-x,-y,-z
1/2+x,1/2+y,-z
1/2-x,y,z
x,1/2-y,z
loop_
_atom_site_type_symbol
_atom_site_label
_atom_site_fract_x
_atom_site_fract_y
_atom_site_fract_z
Si Si1 0.126104 0.416030 0.384716
Si Si2 0.985407 0.084972 0.361068
Si Si3 0.818841 0.413424 0.290268
Si Si4 0.679014 0.580316 0.932144
Si Si5 0.822123 0.084304 0.766807
Si Si6 0.559360 0.919910 0.035788
Si Si7 0.131178 0.915278 0.539494
Si Si8 0.570674 0.580203 0.221342
O O1 0.148418 0.250000 0.377012
O O2 0.143162 0.500331 0.303897
O O3 0.155653 0.487504 0.464846
O O4 0.052876 0.429410 0.398319
O O5 0.968761 0.250000 0.337941
O O6 0.935859 0.030104 0.427563
O O7 0.980917 0.993905 0.278003
O O8 0.750000 0.442881 0.259088
O O9 0.840468 0.250000 0.268459
O O10 0.820252 0.432868 0.387516
O O11 0.861062 0.528925 0.245421
O O12 0.750000 0.543761 0.962074
O O13 0.674436 0.750000 0.911560
O O14 0.662722 0.491568 0.851624
O O15 0.626304 0.534794 0.997381
O O16 0.750000 0.077623 0.746887
O O17 0.845808 0.250000 0.770896
O O18 0.549078 0.750000 0.023054
O O19 0.559738 0.964925 0.129210
O O20 0.500000 0.000000 0.000000
O O21 0.127143 0.750000 0.508134
O O22 0.566023 0.750000 0.234534
#
# Coordination Sequence:
#
# PCOD8245040 Si02
#       8
#     8   8   8   8   8   8   8   8
#     4  11  22  34  54  82 109 142 184 229 277 331
#     4   9  20  37  55  76 108 148 185 223 275 334
#     4   9  19  37  59  81 110 150 189 226 276 335
#     4   9  19  39  63  83 110 150 192 235 287 343
#     4  10  22  39  57  79 108 142 183 230 278 331
#     4  10  23  39  58  88 121 153 188 235 291 343
#     4   9  18  34  53  77 110 145 183 228 276 327
#     4  10  21  36  55  84 115 144 183 230 277 328
#
# _framework density 19.515643000000001
#
# number of rings (size 3 to 8) (size 9 to 14) (size 15 to 20)
#    0.000    2.375    0.000    2.250    1.750    6.500 
#    0.000    2.500    0.000    1.500    0.000    0.000 
#    0.000    0.000    0.000    0.000    0.000    0.000 
#
# Total GULP energy -793499.267086 kJ/mol
# GULP energy per Si atom -12398.426048 kJ/mol
# Density = 1.947122 g / cm^3
# Si number density = 19.515643 Si / 1000 Ang^3
#
#
#
# Elastic Constant Matrix: (Units=GPa)
#
#
# Indices 1 2 3 4 5 6 
#
# 1 61.9582 19.9508 22.9620 0.0000 0.0000 0.0000
# 2 19.9508 80.8713 54.9488 0.0000 0.0000 0.0000
# 3 22.9620 54.9488 102.0199 0.0000 0.0000 0.0000
# 4 0.0000 0.0000 0.0000 34.8835 0.0000 0.0000
# 5 0.0000 0.0000 0.0000 0.0000 19.8324 0.0000
# 6 0.0000 0.0000 0.0000 0.0000 0.0000 28.5023
#
#
#
# Elastic Compliance Matrix: (Units=1/GPa)
#
#
# Indices 1 2 3 4 5 6 
#
# 1 0.017963 -0.002657 -0.002612 0.000000 0.000000 0.000000
# 2 -0.002657 0.019895 -0.010118 0.000000 0.000000 0.000000
# 3 -0.002612 -0.010118 0.015840 0.000000 0.000000 0.000000
# 4 0.000000 0.000000 0.000000 0.028667 0.000000 0.000000
# 5 0.000000 0.000000 0.000000 0.000000 0.050423 0.000000
# 6 0.000000 0.000000 0.000000 0.000000 0.000000 0.035085
#
#
# Mechanical properties :
#
#
# Convention : Reuss Voigt Hill
#
# Bulk Modulus (GPa) = 43.62074 48.95253 46.28663
# Shear Modulus (GPa) = 24.23796 26.44281 25.34039
#
# Velocity S-wave (km/s) = 3.52799 3.68496 3.60733
# Velocity P-wave (km/s) = 6.24466 6.57598 6.41246
#
# Compressibility (1/GPa) = 0.02292488
#
# Stress axis : x y z
#
# Youngs Moduli (GPa) = 55.66858 50.26277 63.13309
#
# Poissons Ratio (x) = 0.13353 0.16492
# Poissons Ratio (y) = 0.14789 0.63878
# Poissons Ratio (z) = 0.14542 0.50855
#
# Static dielectric constant tensor:
#      x y z
#    x 3.633390 0.000000 0.000000 
#    y 0.000000 3.592660 0.000000 
#    z 0.000000 0.000000 3.475260 
# 
# 
# High freq. dielectric constant tensor:
#      x y z
#    x 1.760630 0.000000 0.000000 
#    y 0.000000 1.759620 0.000000 
#    z 0.000000 0.000000 1.756920 
# 
# From -- ./inp_files/24740.got.cif
#   From: 2010.03.12/outbox.cif.g09.slc.cpg/sg59_13_cif.got.tgz:24740.got - 2010.04.16 16:29:54.
