data_PCOD8245156
_publ_section_title
;
Structure prediction by ZEFSAII (Michael W. Deem and Ramdas Pophale) SiO2 
 PCOD8245156
Probable space group: P M M N
;
_chemical_formula_sum "Si O2"
_cell_formula_units_Z 64
_cell_length_a 8.787215
_cell_length_b 19.287120
_cell_length_c 20.822228
_cell_angle_alpha 90.000000
_cell_angle_beta 90.000000
_cell_angle_gamma 90.000000
_cell_volume 3528.952663
_symmetry_space_group_name_H-M "P M M N"
_symmetry_group_IT_number 59
_space_group.IT_coordinate_system_code '2'
_symmetry_cell_setting 'orthorhombic'
loop_
_space_group_symop_operation_xyz
x,y,z
1/2-x,1/2-y,z
1/2+x,-y,-z
-x,1/2+y,-z
-x,-y,-z
1/2+x,1/2+y,-z
1/2-x,y,z
x,1/2-y,z
loop_
_atom_site_type_symbol
_atom_site_label
_atom_site_fract_x
_atom_site_fract_y
_atom_site_fract_z
Si Si1 0.930785 0.923900 0.996919
Si Si2 0.071488 0.829875 0.888916
Si Si3 0.430670 0.172541 0.889852
Si Si4 0.429856 0.422486 0.361667
Si Si5 0.927567 0.925889 0.500073
Si Si6 0.925675 0.670274 0.754791
Si Si7 0.930992 0.827260 0.252613
Si Si8 0.930174 0.926590 0.361549
O O1 0.750000 0.929894 0.997480
O O2 0.981365 0.882378 0.934094
O O3 0.994695 0.881801 0.058500
O O4 0.000000 0.000000 0.000000
O O5 0.250000 0.841540 0.897998
O O6 0.025410 0.750000 0.904230
O O7 0.026072 0.848992 0.816407
O O8 0.250000 0.174435 0.893297
O O9 0.493244 0.250000 0.905063
O O10 0.483632 0.148957 0.818639
O O11 0.250000 0.430038 0.356000
O O12 0.474865 0.389195 0.432243
O O13 0.490726 0.372717 0.305612
O O14 0.501770 0.497606 0.353029
O O15 0.750000 0.937657 0.500706
O O16 0.973049 0.891320 0.431369
O O17 0.000000 0.000000 0.500000
O O18 0.750000 0.652713 0.769943
O O19 0.945294 0.750000 0.735893
O O20 0.750000 0.827418 0.256498
O O21 0.992273 0.750000 0.266373
O O22 0.001067 0.878280 0.306001
O O23 0.750000 0.932663 0.353795
#
# Coordination Sequence:
#
# PCOD8245156 Si02
#       8
#     8   8   8   8   8   8   8   8
#     4  11  22  35  52  76 105 133 163 202 246 290
#     4  10  21  37  56  76  98 127 164 205 249 299
#     4   8  15  29  49  70  92 123 160 192 227 278
#     4   9  17  29  45  65  91 124 159 196 235 277
#     4   8  14  25  40  61  90 121 155 191 229 277
#     4   9  18  33  51  70  94 126 162 198 241 295
#     4   8  14  26  44  67  93 117 146 187 229 268
#     4   9  16  26  44  69  93 121 156 193 235 281
#
# _framework density 18.135691999999999
#
# number of rings (size 3 to 8) (size 9 to 14) (size 15 to 20)
#    0.000    3.000    0.000    1.875    0.000    2.750 
#    0.000    1.875    0.000    4.875    0.000    3.500 
#    0.000   10.000    0.000    0.000    0.000    0.000 
#
# Total GULP energy -792897.848834 kJ/mol
# GULP energy per Si atom -12389.028888 kJ/mol
# Density = 1.809441 g / cm^3
# Si number density = 18.135692 Si / 1000 Ang^3
#
#
#
# Elastic Constant Matrix: (Units=GPa)
#
#
# Indices 1 2 3 4 5 6 
#
# 1 26.1895 22.8864 27.8117 0.0000 0.0000 0.0000
# 2 22.8864 103.6963 93.4279 0.0000 0.0000 0.0000
# 3 27.8117 93.4279 176.7400 0.0000 0.0000 0.0000
# 4 0.0000 0.0000 0.0000 33.1520 0.0000 0.0000
# 5 0.0000 0.0000 0.0000 0.0000 17.6573 0.0000
# 6 0.0000 0.0000 0.0000 0.0000 0.0000 22.2078
#
#
#
# Elastic Compliance Matrix: (Units=1/GPa)
#
#
# Indices 1 2 3 4 5 6 
#
# 1 0.048592 -0.007323 -0.003775 0.000000 0.000000 0.000000
# 2 -0.007323 0.019517 -0.009165 0.000000 0.000000 0.000000
# 3 -0.003775 -0.009165 0.011097 0.000000 0.000000 0.000000
# 4 0.000000 0.000000 0.000000 0.030164 0.000000 0.000000
# 5 0.000000 0.000000 0.000000 0.000000 0.056634 0.000000
# 6 0.000000 0.000000 0.000000 0.000000 0.000000 0.045029
#
#
# Mechanical properties :
#
#
# Convention : Reuss Voigt Hill
#
# Bulk Modulus (GPa) = 25.85353 66.09755 45.97554
# Shear Modulus (GPa) = 18.90703 25.43673 22.17188
#
# Velocity S-wave (km/s) = 3.23233 3.74916 3.50030
# Velocity P-wave (km/s) = 5.31198 7.43417 6.46081
#
# Compressibility (1/GPa) = 0.03867943
#
# Stress axis : x y z
#
# Youngs Moduli (GPa) = 20.57960 51.23756 90.11698
#
# Poissons Ratio (x) = 0.37522 0.34021
# Poissons Ratio (y) = 0.15071 0.82589
# Poissons Ratio (z) = 0.07769 0.46957
#
# Static dielectric constant tensor:
#      x y z
#    x 3.139340 0.000000 0.000000 
#    y 0.000000 3.329650 0.000000 
#    z 0.000000 0.000000 4.038770 
# 
# 
# High freq. dielectric constant tensor:
#      x y z
#    x 1.674410 0.000000 0.000000 
#    y 0.000000 1.679700 0.000000 
#    z 0.000000 0.000000 1.727090 
# 
# From -- ./inp_files/29407.got.cif
#   From: 2010.03.12/outbox.cif.g09.slc.cpg/sg59_15_cif.got.tgz:29407.got - 2010.04.16 16:29:54.
