data_PCOD8245654
_publ_section_title
;
Structure prediction by ZEFSAII (Michael W. Deem and Ramdas Pophale) SiO2 
 PCOD8245654
Probable space group: P M M N
;
_chemical_formula_sum "Si O2"
_cell_formula_units_Z 32
_cell_length_a 8.820608
_cell_length_b 14.727717
_cell_length_c 12.114189
_cell_angle_alpha 90.000000
_cell_angle_beta 90.000000
_cell_angle_gamma 90.000000
_cell_volume 1573.723019
_symmetry_space_group_name_H-M "P M M N"
_symmetry_group_IT_number 59
_space_group.IT_coordinate_system_code '2'
_symmetry_cell_setting 'orthorhombic'
loop_
_space_group_symop_operation_xyz
x,y,z
1/2-x,1/2-y,z
1/2+x,-y,-z
-x,1/2+y,-z
-x,-y,-z
1/2+x,1/2+y,-z
1/2-x,y,z
x,1/2-y,z
loop_
_atom_site_type_symbol
_atom_site_label
_atom_site_fract_x
_atom_site_fract_y
_atom_site_fract_z
Si Si1 0.425246 0.903498 0.988575
Si Si2 0.926496 0.750000 0.380654
Si Si3 0.427212 0.107277 0.228677
Si Si4 0.423432 0.894542 0.232769
Si Si5 0.071108 0.750000 0.616504
O O1 0.250000 0.914143 0.957691
O O2 0.507964 0.852429 0.887328
O O3 0.444022 0.855513 0.107806
O O4 0.500000 0.000000 0.000000
O O5 0.750000 0.750000 0.411063
O O6 0.964572 0.659844 0.311651
O O7 0.026438 0.750000 0.489521
O O8 0.250000 0.126756 0.231417
O O9 0.505032 0.159136 0.329034
O O10 0.465002 0.000808 0.240159
O O11 0.250000 0.879040 0.270607
O O12 0.250000 0.750000 0.629106
#
# Coordination Sequence:
#
# PCOD8245654 Si02
#       5
#     8   4   8   8   4
#     4   9  17  32  57  89 122 155 192 235 288 348
#     4  12  26  41  60  85 114 151 199 249 289 340
#     4  10  21  39  63  90 120 153 193 242 292 346
#     4   9  20  39  62  87 119 156 191 235 289 344
#     4  12  26  43  62  83 114 155 197 243 293 350
#
# _framework density 20.333947999999999
#
# number of rings (size 3 to 8) (size 9 to 14) (size 15 to 20)
#    0.000    2.000    0.000    5.250    0.000    8.000 
#    0.000    1.250    0.000    0.000    0.000    0.000 
#    0.000    0.000    0.000    0.000    0.000    0.000 
#
# Total GULP energy -396721.715000 kJ/mol
# GULP energy per Si atom -12397.553594 kJ/mol
# Density = 2.028767 g / cm^3
# Si number density = 20.333948 Si / 1000 Ang^3
#
#
#
# Elastic Constant Matrix: (Units=GPa)
#
#
# Indices 1 2 3 4 5 6 
#
# 1 140.6961 42.4428 58.5754 0.0000 0.0000 0.0000
# 2 42.4428 86.2368 45.6999 0.0000 0.0000 0.0000
# 3 58.5754 45.6999 130.8610 0.0000 0.0000 0.0000
# 4 0.0000 0.0000 0.0000 30.3245 0.0000 0.0000
# 5 0.0000 0.0000 0.0000 0.0000 41.2920 0.0000
# 6 0.0000 0.0000 0.0000 0.0000 0.0000 33.0115
#
#
#
# Elastic Compliance Matrix: (Units=1/GPa)
#
#
# Indices 1 2 3 4 5 6 
#
# 1 0.009294 -0.002908 -0.003145 0.000000 0.000000 0.000000
# 2 -0.002908 0.015139 -0.003985 0.000000 0.000000 0.000000
# 3 -0.003145 -0.003985 0.010441 0.000000 0.000000 0.000000
# 4 0.000000 0.000000 0.000000 0.032977 0.000000 0.000000
# 5 0.000000 0.000000 0.000000 0.000000 0.024218 0.000000
# 6 0.000000 0.000000 0.000000 0.000000 0.000000 0.030292
#
#
# Mechanical properties :
#
#
# Convention : Reuss Voigt Hill
#
# Bulk Modulus (GPa) = 67.57422 72.35892 69.96657
# Shear Modulus (GPa) = 33.92840 34.99731 34.46285
#
# Velocity S-wave (km/s) = 4.08923 4.15315 4.12131
# Velocity P-wave (km/s) = 7.45655 7.65903 7.55847
#
# Compressibility (1/GPa) = 0.01479854
#
# Stress axis : x y z
#
# Youngs Moduli (GPa) = 107.59801 66.05435 95.77534
#
# Poissons Ratio (x) = 0.19206 0.30118
# Poissons Ratio (y) = 0.31286 0.38171
# Poissons Ratio (z) = 0.33836 0.26325
#
# Static dielectric constant tensor:
#      x y z
#    x 3.846220 0.000000 0.000000 
#    y 0.000000 3.494010 0.000000 
#    z 0.000000 0.000000 4.048710 
# 
# 
# High freq. dielectric constant tensor:
#      x y z
#    x 1.802910 0.000000 0.000000 
#    y 0.000000 1.784550 0.000000 
#    z 0.000000 0.000000 1.801140 
# 
# From -- ./inp_files/13641.got.cif
#   From: 2010.03.12/outbox.cif.g09.slc.cpg/sg59_7_cif.got.tgz:13641.got - 2010.04.16 16:29:54.
