data_PCOD8245311
_publ_section_title
;
Structure prediction by ZEFSAII (Michael W. Deem and Ramdas Pophale) SiO2 
 PCOD8245311
Probable space group: P M M N
;
_chemical_formula_sum "Si O2"
_cell_formula_units_Z 64
_cell_length_a 24.527447
_cell_length_b 13.932478
_cell_length_c 8.818706
_cell_angle_alpha 90.000000
_cell_angle_beta 90.000000
_cell_angle_gamma 90.000000
_cell_volume 3013.599785
_symmetry_space_group_name_H-M "P M M N"
_symmetry_group_IT_number 59
_space_group.IT_coordinate_system_code '2'
_symmetry_cell_setting 'orthorhombic'
loop_
_space_group_symop_operation_xyz
x,y,z
1/2-x,1/2-y,z
1/2+x,-y,-z
-x,1/2+y,-z
-x,-y,-z
1/2+x,1/2+y,-z
1/2-x,y,z
x,1/2-y,z
loop_
_atom_site_type_symbol
_atom_site_label
_atom_site_fract_x
_atom_site_fract_y
_atom_site_fract_z
Si Si1 0.188704 0.137114 0.876756
Si Si2 0.873945 0.141230 0.307597
Si Si3 0.025105 0.551933 0.187315
Si Si4 0.812326 0.970452 0.819638
Si Si5 0.393722 0.501055 0.432120
Si Si6 0.916626 0.863514 0.313480
Si Si7 0.021757 0.641841 0.885693
Si Si8 0.813505 0.355467 0.016341
O O1 0.250000 0.099363 0.830946
O O2 0.189860 0.250000 0.890103
O O3 0.142261 0.107111 0.756231
O O4 0.172298 0.098748 0.042013
O O5 0.856157 0.250000 0.346718
O O6 0.936404 0.137609 0.253416
O O7 0.837671 0.098958 0.170338
O O8 0.865183 0.076451 0.455048
O O9 0.061932 0.561795 0.336397
O O10 0.964528 0.594308 0.209405
O O11 0.024566 0.437961 0.146131
O O12 0.050638 0.611857 0.046008
O O13 0.750000 0.956131 0.770487
O O14 0.849125 0.949964 0.674120
O O15 0.825424 0.079197 0.871141
O O16 0.421833 0.414094 0.523158
O O17 0.923775 0.750000 0.332246
O O18 0.997210 0.750000 0.898122
O O19 0.750000 0.347807 0.044598
O O20 0.839596 0.250000 0.987988
#
# Coordination Sequence:
#
# PCOD8245311 Si02
#       8
#     8   8   8   8   8   8   8   8
#     4   9  20  41  67  90 113 150 202 257 305 354
#     4  10  21  37  58  84 115 157 200 241 294 357
#     4  11  24  41  61  89 123 159 200 256 303 356
#     4  10  22  38  61  89 120 158 199 247 300 359
#     4  12  25  39  56  87 129 164 193 240 302 371
#     4  11  24  41  63  91 122 159 203 251 306 366
#     4  10  22  40  64  86 110 153 205 250 296 350
#     4   9  18  35  59  85 112 148 199 251 292 340
#
# _framework density 21.237061000000001
#
# number of rings (size 3 to 8) (size 9 to 14) (size 15 to 20)
#    0.000    1.750    1.250    2.250    3.500    3.500 
#    0.000    0.000    0.000    0.000    0.000    0.000 
#    0.000    0.000    0.000    0.000    0.000    0.000 
#
# Total GULP energy -793498.215134 kJ/mol
# GULP energy per Si atom -12398.409611 kJ/mol
# Density = 2.118872 g / cm^3
# Si number density = 21.237061 Si / 1000 Ang^3
#
#
#
# Elastic Constant Matrix: (Units=GPa)
#
#
# Indices 1 2 3 4 5 6 
#
# 1 56.4639 1.2653 21.7161 0.0000 0.0000 0.0000
# 2 1.2653 55.8639 12.8453 0.0000 0.0000 0.0000
# 3 21.7161 12.8453 92.1872 0.0000 0.0000 0.0000
# 4 0.0000 0.0000 0.0000 23.5820 0.0000 0.0000
# 5 0.0000 0.0000 0.0000 0.0000 32.9001 0.0000
# 6 0.0000 0.0000 0.0000 0.0000 0.0000 23.1366
#
#
#
# Elastic Compliance Matrix: (Units=1/GPa)
#
#
# Indices 1 2 3 4 5 6 
#
# 1 0.019497 0.000635 -0.004681 0.000000 0.000000 0.000000
# 2 0.000635 0.018514 -0.002729 0.000000 0.000000 0.000000
# 3 -0.004681 -0.002729 0.012331 0.000000 0.000000 0.000000
# 4 0.000000 0.000000 0.000000 0.042405 0.000000 0.000000
# 5 0.000000 0.000000 0.000000 0.000000 0.030395 0.000000
# 6 0.000000 0.000000 0.000000 0.000000 0.000000 0.043222
#
#
# Mechanical properties :
#
#
# Convention : Reuss Voigt Hill
#
# Bulk Modulus (GPa) = 27.18154 30.68539 28.93346
# Shear Modulus (GPa) = 26.01763 27.16961 26.59362
#
# Velocity S-wave (km/s) = 3.50395 3.58068 3.54252
# Velocity P-wave (km/s) = 5.40343 5.61920 5.51237
#
# Compressibility (1/GPa) = 0.03678967
#
# Stress axis : x y z
#
# Youngs Moduli (GPa) = 51.29105 54.01362 81.09965
#
# Poissons Ratio (x) = -0.03429 0.37964
# Poissons Ratio (y) = -0.03256 0.22134
# Poissons Ratio (z) = 0.24010 0.14742
#
# Static dielectric constant tensor:
#      x y z
#    x 3.809010 0.000000 0.000000 
#    y 0.000000 4.231600 0.000000 
#    z 0.000000 0.000000 3.732260 
# 
# 
# High freq. dielectric constant tensor:
#      x y z
#    x 1.825190 0.000000 0.000000 
#    y 0.000000 1.842910 0.000000 
#    z 0.000000 0.000000 1.824460 
# 
# From -- ./inp_files/12185.got.cif
#   From: 2010.03.12/outbox.cif.g09.slc.cpg/sg59_7_cif.got.tgz:12185.got - 2010.04.16 16:29:54.
