data_PCOD8245962
_publ_section_title
;
Structure prediction by ZEFSAII (Michael W. Deem and Ramdas Pophale) SiO2 
 PCOD8245962
Probable space group: P M M N
;
_chemical_formula_sum "Si O2"
_cell_formula_units_Z 56
_cell_length_a 8.997916
_cell_length_b 14.356631
_cell_length_c 23.514805
_cell_angle_alpha 90.000000
_cell_angle_beta 90.000000
_cell_angle_gamma 90.000000
_cell_volume 3037.636861
_symmetry_space_group_name_H-M "P M M N"
_symmetry_group_IT_number 59
_space_group.IT_coordinate_system_code '2'
_symmetry_cell_setting 'orthorhombic'
loop_
_space_group_symop_operation_xyz
x,y,z
1/2-x,1/2-y,z
1/2+x,-y,-z
-x,1/2+y,-z
-x,-y,-z
1/2+x,1/2+y,-z
1/2-x,y,z
x,1/2-y,z
loop_
_atom_site_type_symbol
_atom_site_label
_atom_site_fract_x
_atom_site_fract_y
_atom_site_fract_z
Si Si1 0.916465 0.359532 0.930445
Si Si2 0.078494 0.142530 0.360808
Si Si3 0.575033 0.996990 0.144383
Si Si4 0.923536 0.142101 0.642995
Si Si5 0.927213 0.353053 0.056105
Si Si6 0.581149 0.502926 0.737859
Si Si7 0.926549 0.997728 0.438922
O O1 0.750000 0.399166 0.922762
O O2 0.916022 0.250000 0.922687
O O3 0.020047 0.399724 0.881046
O O4 0.979858 0.385508 0.993174
O O5 0.250000 0.131883 0.379894
O O6 0.030279 0.250000 0.356678
O O7 0.055172 0.095264 0.299552
O O8 0.975410 0.091383 0.406489
O O9 0.750000 0.999191 0.143685
O O10 0.508721 0.078351 0.104080
O O11 0.524748 0.010828 0.208570
O O12 0.750000 0.130059 0.627901
O O13 0.968822 0.250000 0.649087
O O14 0.959699 0.089624 0.701977
O O15 0.018368 0.095384 0.592925
O O16 0.750000 0.350871 0.055917
O O17 0.989250 0.250000 0.069745
O O18 0.750000 0.496733 0.759341
O O19 0.750000 0.995165 0.444151
O O20 0.000000 0.000000 0.500000
#
# Coordination Sequence:
#
# PCOD8245962 Si02
#       7
#     8   8   8   8   8   8   8
#     4   9  18  34  54  71  92 129 172 210 254 312
#     4   9  19  38  61  81 105 140 180 222 265 305
#     4  11  21  31  49  77 105 132 164 210 262 305
#     4   9  19  38  61  80 102 138 182 225 267 308
#     4   8  16  32  51  71  97 130 167 206 254 313
#     4   9  19  35  53  76 106 139 175 212 254 310
#     4  11  22  36  56  84 117 147 177 215 258 308
#
# _framework density 18.435382000000001
#
# number of rings (size 3 to 8) (size 9 to 14) (size 15 to 20)
#    0.000    2.571    0.000    3.857    0.000    4.857 
#    0.000    2.143    0.000    3.000    0.000    0.000 
#    0.000    0.000    0.000    0.000    0.000    0.000 
#
# Total GULP energy -694373.610732 kJ/mol
# GULP energy per Si atom -12399.528763 kJ/mol
# Density = 1.839342 g / cm^3
# Si number density = 18.435382 Si / 1000 Ang^3
#
#
#
# Elastic Constant Matrix: (Units=GPa)
#
#
# Indices 1 2 3 4 5 6 
#
# 1 80.1445 40.7595 54.2802 0.0000 0.0000 0.0000
# 2 40.7595 123.9341 54.1862 0.0000 0.0000 0.0000
# 3 54.2802 54.1862 122.3794 0.0000 0.0000 0.0000
# 4 0.0000 0.0000 0.0000 14.9596 0.0000 0.0000
# 5 0.0000 0.0000 0.0000 0.0000 31.9054 0.0000
# 6 0.0000 0.0000 0.0000 0.0000 0.0000 24.5510
#
#
#
# Elastic Compliance Matrix: (Units=1/GPa)
#
#
# Indices 1 2 3 4 5 6 
#
# 1 0.018772 -0.003142 -0.006935 0.000000 0.000000 0.000000
# 2 -0.003142 0.010532 -0.003270 0.000000 0.000000 0.000000
# 3 -0.006935 -0.003270 0.012695 0.000000 0.000000 0.000000
# 4 0.000000 0.000000 0.000000 0.066847 0.000000 0.000000
# 5 0.000000 0.000000 0.000000 0.000000 0.031343 0.000000
# 6 0.000000 0.000000 0.000000 0.000000 0.000000 0.040731
#
#
# Mechanical properties :
#
#
# Convention : Reuss Voigt Hill
#
# Bulk Modulus (GPa) = 65.33422 69.43442 67.38432
# Shear Modulus (GPa) = 23.50563 26.09868 24.80215
#
# Velocity S-wave (km/s) = 3.57463 3.76664 3.67189
# Velocity P-wave (km/s) = 7.24940 7.52743 7.38972
#
# Compressibility (1/GPa) = 0.01530591
#
# Stress axis : x y z
#
# Youngs Moduli (GPa) = 53.26987 94.95260 78.77058
#
# Poissons Ratio (x) = 0.29831 0.54630
# Poissons Ratio (y) = 0.16735 0.25755
# Poissons Ratio (z) = 0.36944 0.31046
#
# Static dielectric constant tensor:
#      x y z
#    x 3.244830 0.000000 0.000000 
#    y 0.000000 3.574540 0.000000 
#    z 0.000000 0.000000 3.393850 
# 
# 
# High freq. dielectric constant tensor:
#      x y z
#    x 1.698790 0.000000 0.000000 
#    y 0.000000 1.720540 0.000000 
#    z 0.000000 0.000000 1.715400 
# 
# From -- ./inp_files/29052.got.cif
#   From: 2010.03.12/outbox.cif.g09.slc.cpg/sg59_15_cif.got.tgz:29052.got - 2010.04.16 16:29:54.
