data_PCOD8245855
_publ_section_title
;
Structure prediction by ZEFSAII (Michael W. Deem and Ramdas Pophale) SiO2 
 PCOD8245855
Probable space group: P M M N
;
_chemical_formula_sum "Si O2"
_cell_formula_units_Z 48
_cell_length_a 14.561757
_cell_length_b 23.973153
_cell_length_c 6.802364
_cell_angle_alpha 90.000000
_cell_angle_beta 90.000000
_cell_angle_gamma 90.000000
_cell_volume 2374.645606
_symmetry_space_group_name_H-M "P M M N"
_symmetry_group_IT_number 59
_space_group.IT_coordinate_system_code '2'
_symmetry_cell_setting 'orthorhombic'
loop_
_space_group_symop_operation_xyz
x,y,z
1/2-x,1/2-y,z
1/2+x,-y,-z
-x,1/2+y,-z
-x,-y,-z
1/2+x,1/2+y,-z
1/2-x,y,z
x,1/2-y,z
loop_
_atom_site_type_symbol
_atom_site_label
_atom_site_fract_x
_atom_site_fract_y
_atom_site_fract_z
Si Si1 0.462676 0.314679 0.150447
Si Si2 0.036851 0.405623 0.459762
Si Si3 0.646290 0.889563 0.142184
Si Si4 0.851366 0.089885 0.660000
Si Si5 0.589789 0.985843 0.877898
Si Si6 0.851610 0.187077 0.951004
O O1 0.436954 0.250000 0.178457
O O2 0.440323 0.347595 0.349993
O O3 0.404650 0.338841 0.967892
O O4 0.571023 0.324464 0.113798
O O5 0.091755 0.405553 0.662344
O O6 0.067033 0.457910 0.330689
O O7 0.928459 0.415206 0.493961
O O8 0.750000 0.871197 0.193926
O O9 0.651909 0.944065 0.004558
O O10 0.750000 0.086516 0.562765
O O11 0.867179 0.149180 0.761991
O O12 0.857440 0.042753 0.829590
O O13 0.500000 0.000000 0.000000
O O14 0.750000 0.176790 0.043976
O O15 0.861528 0.250000 0.872409
#
# Coordination Sequence:
#
# PCOD8245855 Si02
#       6
#     8   8   8   8   8   8
#     4  10  22  41  65  90 123 162 205 254 308 372
#     4  11  23  40  61  92 125 162 204 252 309 365
#     4  11  24  42  64  88 122 163 206 261 317 359
#     4  11  21  36  61  94 123 158 205 249 300 367
#     4  11  22  42  63  87 126 166 206 253 306 366
#     4   9  18  36  62  89 121 160 198 243 303 365
#
# _framework density 20.213543999999999
#
# number of rings (size 3 to 8) (size 9 to 14) (size 15 to 20)
#    0.000    1.500    3.333    2.000    0.000    5.667 
#    0.000    0.833    0.000    0.000    0.000    0.000 
#    0.000    0.000    0.000    0.000    0.000    0.000 
#
# Total GULP energy -595221.612021 kJ/mol
# GULP energy per Si atom -12400.450250 kJ/mol
# Density = 2.016754 g / cm^3
# Si number density = 20.213544 Si / 1000 Ang^3
#
#
#
# Elastic Constant Matrix: (Units=GPa)
#
#
# Indices 1 2 3 4 5 6 
#
# 1 116.6415 30.8737 37.5208 0.0000 0.0000 0.0000
# 2 30.8737 101.6018 34.8046 0.0000 0.0000 0.0000
# 3 37.5208 34.8046 103.0064 0.0000 0.0000 0.0000
# 4 0.0000 0.0000 0.0000 21.2772 0.0000 0.0000
# 5 0.0000 0.0000 0.0000 0.0000 8.2899 0.0000
# 6 0.0000 0.0000 0.0000 0.0000 0.0000 24.4240
#
#
#
# Elastic Compliance Matrix: (Units=1/GPa)
#
#
# Indices 1 2 3 4 5 6 
#
# 1 0.010072 -0.002040 -0.002979 0.000000 0.000000 0.000000
# 2 -0.002040 0.011544 -0.003158 0.000000 0.000000 0.000000
# 3 -0.002979 -0.003158 0.011860 0.000000 0.000000 0.000000
# 4 0.000000 0.000000 0.000000 0.046999 0.000000 0.000000
# 5 0.000000 0.000000 0.000000 0.000000 0.120628 0.000000
# 6 0.000000 0.000000 0.000000 0.000000 0.000000 0.040943
#
#
# Mechanical properties :
#
#
# Convention : Reuss Voigt Hill
#
# Bulk Modulus (GPa) = 58.40361 58.62754 58.51558
# Shear Modulus (GPa) = 18.93174 25.33493 22.13333
#
# Velocity S-wave (km/s) = 3.06369 3.54413 3.31263
# Velocity P-wave (km/s) = 6.43980 6.76867 6.60628
#
# Compressibility (1/GPa) = 0.01712223
#
# Stress axis : x y z
#
# Youngs Moduli (GPa) = 99.28910 86.62642 84.31503
#
# Poissons Ratio (x) = 0.17670 0.25121
# Poissons Ratio (y) = 0.20253 0.26622
# Poissons Ratio (z) = 0.29582 0.27352
#
# Static dielectric constant tensor:
#      x y z
#    x 3.803280 0.000000 0.000000 
#    y 0.000000 3.902750 0.000000 
#    z 0.000000 0.000000 3.448350 
# 
# 
# High freq. dielectric constant tensor:
#      x y z
#    x 1.795450 0.000000 0.000000 
#    y 0.000000 1.803090 0.000000 
#    z 0.000000 0.000000 1.771650 
# 
# From -- ./inp_files/2147.got.cif
#   From: 2010.03.12/outbox.cif.g09.slc.cpg/sg59_2_cif.got.tgz:2147.got - 2010.04.16 16:29:54.
