data_PCOD8245911
_publ_section_title
;
Structure prediction by ZEFSAII (Michael W. Deem and Ramdas Pophale) SiO2 
 PCOD8245911
Probable space group: P M M N
;
_chemical_formula_sum "Si O2"
_cell_formula_units_Z 40
_cell_length_a 11.034774
_cell_length_b 20.773139
_cell_length_c 9.244152
_cell_angle_alpha 90.000000
_cell_angle_beta 90.000000
_cell_angle_gamma 90.000000
_cell_volume 2119.008252
_symmetry_space_group_name_H-M "P M M N"
_symmetry_group_IT_number 59
_space_group.IT_coordinate_system_code '2'
_symmetry_cell_setting 'orthorhombic'
loop_
_space_group_symop_operation_xyz
x,y,z
1/2-x,1/2-y,z
1/2+x,-y,-z
-x,1/2+y,-z
-x,-y,-z
1/2+x,1/2+y,-z
1/2-x,y,z
x,1/2-y,z
loop_
_atom_site_type_symbol
_atom_site_label
_atom_site_fract_x
_atom_site_fract_y
_atom_site_fract_z
Si Si1 0.750000 0.888531 0.297341
Si Si2 0.033349 0.469533 0.151537
Si Si3 0.494196 0.941504 0.394255
Si Si4 0.547475 0.750000 0.659646
Si Si5 0.250000 0.391928 0.032493
Si Si6 0.250000 0.250000 0.582247
Si Si7 0.889740 0.375120 0.350622
Si Si8 0.250000 0.250000 0.109522
O O1 0.629909 0.915010 0.373388
O O2 0.750000 0.811417 0.312262
O O3 0.750000 0.915343 0.133052
O O4 0.138286 0.417988 0.125901
O O5 0.069021 0.532792 0.246895
O O6 0.927514 0.432073 0.238585
O O7 0.000000 0.500000 0.000000
O O8 0.410835 0.890284 0.478598
O O9 0.500000 0.000000 0.500000
O O10 0.628226 0.750000 0.514409
O O11 0.464601 0.688354 0.678430
O O12 0.630959 0.750000 0.797255
O O13 0.250000 0.314902 0.015668
O O14 0.750000 0.361033 0.323060
#
# Coordination Sequence:
#
# PCOD8245911 Si02
#       8
#     4   8   8   4   4   2   8   2
#     4  12  22  43  62  93 125 165 206 258 320 372
#     4  11  24  40  61  94 126 164 206 255 309 376
#     4  10  24  36  60  90 124 158 203 252 307 372
#     4  11  21  40  64  90 119 161 216 260 312 371
#     4  12  24  41  70  89 129 169 208 261 316 373
#     4  11  23  38  66  92 129 157 208 270 310 372
#     4  11  24  41  62  87 124 169 205 257 311 375
#     4  11  23  42  62 100 121 157 220 264 306 370
#
# _framework density 18.876754999999999
#
# number of rings (size 3 to 8) (size 9 to 14) (size 15 to 20)
#    0.000    1.000    6.000    0.600    8.400    2.400 
#    0.000    0.000    0.000    0.000    0.000    5.600 
#    0.000    0.000    0.000    0.000    0.000    0.000 
#
# Total GULP energy -495678.093976 kJ/mol
# GULP energy per Si atom -12391.952349 kJ/mol
# Density = 1.883379 g / cm^3
# Si number density = 18.876755 Si / 1000 Ang^3
#
#
#
# Elastic Constant Matrix: (Units=GPa)
#
#
# Indices 1 2 3 4 5 6 
#
# 1 120.1660 43.8524 38.8780 0.0000 0.0000 0.0000
# 2 43.8524 110.1941 38.7508 0.0000 0.0000 0.0000
# 3 38.8780 38.7508 117.0166 0.0000 0.0000 0.0000
# 4 0.0000 0.0000 0.0000 35.5724 0.0000 0.0000
# 5 0.0000 0.0000 0.0000 0.0000 28.2831 0.0000
# 6 0.0000 0.0000 0.0000 0.0000 0.0000 31.8097
#
#
#
# Elastic Compliance Matrix: (Units=1/GPa)
#
#
# Indices 1 2 3 4 5 6 
#
# 1 0.010268 -0.003267 -0.002330 0.000000 0.000000 0.000000
# 2 -0.003267 0.011310 -0.002660 0.000000 0.000000 0.000000
# 3 -0.002330 -0.002660 0.010201 0.000000 0.000000 0.000000
# 4 0.000000 0.000000 0.000000 0.028112 0.000000 0.000000
# 5 0.000000 0.000000 0.000000 0.000000 0.035357 0.000000
# 6 0.000000 0.000000 0.000000 0.000000 0.000000 0.031437
#
#
# Mechanical properties :
#
#
# Convention : Reuss Voigt Hill
#
# Bulk Modulus (GPa) = 65.50617 65.59325 65.54971
# Shear Modulus (GPa) = 33.71866 34.19275 33.95570
#
# Velocity S-wave (km/s) = 4.23099 4.26063 4.24584
# Velocity P-wave (km/s) = 7.65805 7.68294 7.67051
#
# Compressibility (1/GPa) = 0.01526574
#
# Stress axis : x y z
#
# Youngs Moduli (GPa) = 97.39280 88.41390 98.03265
#
# Poissons Ratio (x) = 0.28884 0.22837
# Poissons Ratio (y) = 0.31817 0.26078
# Poissons Ratio (z) = 0.22688 0.23519
#
# Static dielectric constant tensor:
#      x y z
#    x 3.368650 0.000000 0.000000 
#    y 0.000000 3.091360 0.000000 
#    z 0.000000 0.000000 4.133540 
# 
# 
# High freq. dielectric constant tensor:
#      x y z
#    x 1.724920 0.000000 0.000000 
#    y 0.000000 1.745150 0.000000 
#    z 0.000000 0.000000 1.740730 
# 
# From -- ./inp_files/7444.got.cif
#   From: 2010.03.12/outbox.cif.g09.slc.cpg/sg59_4_cif.got.tgz:7444.got - 2010.04.16 16:29:54.
