data_PCOD8245599
_publ_section_title
;
Structure prediction by ZEFSAII (Michael W. Deem and Ramdas Pophale) SiO2 
 PCOD8245599
Probable space group: P M M N
;
_chemical_formula_sum "Si O2"
_cell_formula_units_Z 56
_cell_length_a 15.432447
_cell_length_b 30.125626
_cell_length_c 5.240813
_cell_angle_alpha 90.000000
_cell_angle_beta 90.000000
_cell_angle_gamma 90.000000
_cell_volume 2436.517517
_symmetry_space_group_name_H-M "P M M N"
_symmetry_group_IT_number 59
_space_group.IT_coordinate_system_code '2'
_symmetry_cell_setting 'orthorhombic'
loop_
_space_group_symop_operation_xyz
x,y,z
1/2-x,1/2-y,z
1/2+x,-y,-z
-x,1/2+y,-z
-x,-y,-z
1/2+x,1/2+y,-z
1/2-x,y,z
x,1/2-y,z
loop_
_atom_site_type_symbol
_atom_site_label
_atom_site_fract_x
_atom_site_fract_y
_atom_site_fract_z
Si Si1 0.850524 0.487046 0.053263
Si Si2 0.591944 0.916101 0.049666
Si Si3 0.153605 0.799088 0.806813
Si Si4 0.982091 0.700306 0.482825
Si Si5 0.847296 0.630064 0.568546
Si Si6 0.150715 0.567651 0.459457
Si Si7 0.436855 0.636764 0.147358
O O1 0.750000 0.499846 0.099578
O O2 0.908895 0.530863 0.067669
O O3 0.882887 0.454458 0.279413
O O4 0.863652 0.464749 0.779845
O O5 0.623755 0.896863 0.319456
O O6 0.493463 0.899601 0.992331
O O7 0.652405 0.901930 0.814266
O O8 0.250000 0.804094 0.683933
O O9 0.147917 0.750000 0.941930
O O10 0.077482 0.801289 0.602596
O O11 0.142463 0.841299 0.994193
O O12 0.947105 0.750000 0.448664
O O13 0.996435 0.677053 0.209370
O O14 0.909131 0.672166 0.631394
O O15 0.750000 0.647655 0.527070
O O16 0.250000 0.580954 0.490832
O O17 0.098962 0.613279 0.405245
#
# Coordination Sequence:
#
# PCOD8245599 Si02
#       7
#     8   8   8   8   8   8   8
#     4  10  21  39  58  87 124 166 214 265 315 376
#     4  11  23  39  66  94 129 170 215 266 318 383
#     4  10  21  39  64  91 122 165 213 263 322 385
#     4  10  23  42  63  92 130 167 211 267 322 386
#     4  11  22  40  66  98 129 170 217 263 319 381
#     4  10  23  38  60  89 125 168 214 263 320 378
#     4  11  23  39  61  90 129 164 214 265 327 378
#
# _framework density 22.983623999999999
#
# number of rings (size 3 to 8) (size 9 to 14) (size 15 to 20)
#    0.000    1.571    1.429    3.000    2.000    3.714 
#    0.000    1.429    0.000    1.714    0.000    0.000 
#    0.000    0.000    0.000    0.000    0.000    0.000 
#
# Total GULP energy -694165.293290 kJ/mol
# GULP energy per Si atom -12395.808809 kJ/mol
# Density = 2.293131 g / cm^3
# Si number density = 22.983624 Si / 1000 Ang^3
#
#
#
# Elastic Constant Matrix: (Units=GPa)
#
#
# Indices 1 2 3 4 5 6 
#
# 1 94.4991 27.2866 5.8860 0.0000 0.0000 0.0000
# 2 27.2866 107.4729 16.7759 0.0000 0.0000 0.0000
# 3 5.8860 16.7759 87.7024 0.0000 0.0000 0.0000
# 4 0.0000 0.0000 0.0000 29.2776 0.0000 0.0000
# 5 0.0000 0.0000 0.0000 0.0000 18.8513 0.0000
# 6 0.0000 0.0000 0.0000 0.0000 0.0000 36.4143
#
#
#
# Elastic Compliance Matrix: (Units=1/GPa)
#
#
# Indices 1 2 3 4 5 6 
#
# 1 0.011423 -0.002866 -0.000218 0.000000 0.000000 0.000000
# 2 -0.002866 0.010310 -0.001780 0.000000 0.000000 0.000000
# 3 -0.000218 -0.001780 0.011757 0.000000 0.000000 0.000000
# 4 0.000000 0.000000 0.000000 0.034156 0.000000 0.000000
# 5 0.000000 0.000000 0.000000 0.000000 0.053047 0.000000
# 6 0.000000 0.000000 0.000000 0.000000 0.000000 0.027462
#
#
# Mechanical properties :
#
#
# Convention : Reuss Voigt Hill
#
# Bulk Modulus (GPa) = 42.08399 43.28571 42.68485
# Shear Modulus (GPa) = 30.15597 32.89037 31.52317
#
# Velocity S-wave (km/s) = 3.62617 3.78701 3.70746
# Velocity P-wave (km/s) = 5.99019 6.16409 6.07776
#
# Compressibility (1/GPa) = 0.02376200
#
# Stress axis : x y z
#
# Youngs Moduli (GPa) = 87.54018 96.99138 85.05362
#
# Poissons Ratio (x) = 0.27800 0.01858
# Poissons Ratio (y) = 0.25091 0.15138
# Poissons Ratio (z) = 0.01912 0.17262
#
# Static dielectric constant tensor:
#      x y z
#    x 4.188910 0.000000 0.000000 
#    y 0.000000 4.370870 0.000000 
#    z 0.000000 0.000000 3.923560 
# 
# 
# High freq. dielectric constant tensor:
#      x y z
#    x 1.906300 0.000000 0.000000 
#    y 0.000000 1.919430 0.000000 
#    z 0.000000 0.000000 1.895230 
# 
# From -- ./inp_files/2327.got.cif
#   From: 2010.03.12/outbox.cif.g09.slc.cpg/sg59_2_cif.got.tgz:2327.got - 2010.04.16 16:29:54.
