data_PCOD8245634
_publ_section_title
;
Structure prediction by ZEFSAII (Michael W. Deem and Ramdas Pophale) SiO2 
 PCOD8245634
Probable space group: P M M N
;
_chemical_formula_sum "Si O2"
_cell_formula_units_Z 56
_cell_length_a 22.005237
_cell_length_b 13.635701
_cell_length_c 9.757349
_cell_angle_alpha 90.000000
_cell_angle_beta 90.000000
_cell_angle_gamma 90.000000
_cell_volume 2927.759231
_symmetry_space_group_name_H-M "P M M N"
_symmetry_group_IT_number 59
_space_group.IT_coordinate_system_code '2'
_symmetry_cell_setting 'orthorhombic'
loop_
_space_group_symop_operation_xyz
x,y,z
1/2-x,1/2-y,z
1/2+x,-y,-z
-x,1/2+y,-z
-x,-y,-z
1/2+x,1/2+y,-z
1/2-x,y,z
x,1/2-y,z
loop_
_atom_site_type_symbol
_atom_site_label
_atom_site_fract_x
_atom_site_fract_y
_atom_site_fract_z
Si Si1 0.250000 0.134874 0.281076
Si Si2 0.439878 0.361546 0.148985
Si Si3 0.075951 0.859671 0.785004
Si Si4 0.933919 0.636683 0.362484
Si Si5 0.066756 0.637039 0.462940
Si Si6 0.377571 0.050357 0.896057
Si Si7 0.750000 0.636370 0.043615
Si Si8 0.627138 0.549475 0.608446
O O1 0.250000 0.250000 0.321386
O O2 0.306244 0.077539 0.344189
O O3 0.250000 0.121669 0.118816
O O4 0.417856 0.250000 0.121140
O O5 0.512085 0.369977 0.135833
O O6 0.421776 0.391730 0.301813
O O7 0.405268 0.434166 0.046476
O O8 0.102203 0.750000 0.804413
O O9 0.066823 0.882905 0.625198
O O10 0.122203 0.935489 0.855600
O O11 0.925208 0.750000 0.389586
O O12 0.921469 0.610894 0.204864
O O13 0.883600 0.581031 0.452025
O O14 0.001720 0.604425 0.403084
O O15 0.081917 0.750000 0.428483
O O16 0.116593 0.568485 0.386999
O O17 0.308565 0.086490 0.888731
O O18 0.750000 0.750000 0.083401
#
# Coordination Sequence:
#
# PCOD8245634 Si02
#       8
#     4   8   8   8   8   8   4   8
#     4  11  24  41  64  87 116 160 203 239 290 365
#     4  11  21  36  62  91 123 159 196 242 304 365
#     4  10  21  39  62  90 121 160 203 245 297 360
#     4  11  21  35  61  94 125 154 196 251 305 355
#     4  10  21  39  62  90 124 159 196 248 306 353
#     4  12  23  39  60  90 125 161 200 248 299 349
#     4  11  24  43  62  83 122 164 195 237 302 361
#     4  12  21  38  62  89 119 157 204 242 293 354
#
# _framework density 19.127255000000002
#
# number of rings (size 3 to 8) (size 9 to 14) (size 15 to 20)
#    0.000    1.000    4.286    4.286    0.000    0.571 
#    0.000    4.286    0.000    2.571    0.000    0.000 
#    0.000    0.000    0.000    0.000    0.000    0.000 
#
# Total GULP energy -694571.640169 kJ/mol
# GULP energy per Si atom -12403.065003 kJ/mol
# Density = 1.908372 g / cm^3
# Si number density = 19.127255 Si / 1000 Ang^3
#
#
#
# Elastic Constant Matrix: (Units=GPa)
#
#
# Indices 1 2 3 4 5 6 
#
# 1 96.1656 80.9376 31.4125 0.0000 0.0000 0.0000
# 2 80.9376 138.9588 38.5144 0.0000 0.0000 0.0000
# 3 31.4125 38.5144 60.3260 0.0000 0.0000 0.0000
# 4 0.0000 0.0000 0.0000 34.9877 0.0000 0.0000
# 5 0.0000 0.0000 0.0000 0.0000 27.7445 0.0000
# 6 0.0000 0.0000 0.0000 0.0000 0.0000 30.8636
#
#
#
# Elastic Compliance Matrix: (Units=1/GPa)
#
#
# Indices 1 2 3 4 5 6 
#
# 1 0.021098 -0.011231 -0.003816 0.000000 0.000000 0.000000
# 2 -0.011231 0.014722 -0.003551 0.000000 0.000000 0.000000
# 3 -0.003816 -0.003551 0.020831 0.000000 0.000000 0.000000
# 4 0.000000 0.000000 0.000000 0.028581 0.000000 0.000000
# 5 0.000000 0.000000 0.000000 0.000000 0.036043 0.000000
# 6 0.000000 0.000000 0.000000 0.000000 0.000000 0.032401
#
#
# Mechanical properties :
#
#
# Convention : Reuss Voigt Hill
#
# Bulk Modulus (GPa) = 51.40016 66.35325 58.87671
# Shear Modulus (GPa) = 25.33499 28.35823 26.84661
#
# Velocity S-wave (km/s) = 3.64338 3.85464 3.75050
# Velocity P-wave (km/s) = 6.68057 7.38761 7.04297
#
# Compressibility (1/GPa) = 0.01945519
#
# Stress axis : x y z
#
# Youngs Moduli (GPa) = 47.39894 67.92501 48.00640
#
# Poissons Ratio (x) = 0.76286 0.18317
# Poissons Ratio (y) = 0.53233 0.17048
# Poissons Ratio (z) = 0.18085 0.24121
#
# Static dielectric constant tensor:
#      x y z
#    x 3.310210 0.000000 0.000000 
#    y 0.000000 3.699810 0.000000 
#    z 0.000000 0.000000 3.474160 
# 
# 
# High freq. dielectric constant tensor:
#      x y z
#    x 1.720060 0.000000 0.000000 
#    y 0.000000 1.755480 0.000000 
#    z 0.000000 0.000000 1.745970 
# 
# From -- ./inp_files/11488.got.cif
#   From: 2010.03.12/outbox.cif.g09.slc.cpg/sg59_6_cif.got.tgz:11488.got - 2010.04.16 16:29:54.
