data_PCOD8245986
_publ_section_title
;
Structure prediction by ZEFSAII (Michael W. Deem and Ramdas Pophale) SiO2 
 PCOD8245986
Probable space group: P M M N
;
_chemical_formula_sum "Si O2"
_cell_formula_units_Z 48
_cell_length_a 8.651921
_cell_length_b 14.578932
_cell_length_c 20.077184
_cell_angle_alpha 90.000000
_cell_angle_beta 90.000000
_cell_angle_gamma 90.000000
_cell_volume 2532.451022
_symmetry_space_group_name_H-M "P M M N"
_symmetry_group_IT_number 59
_space_group.IT_coordinate_system_code '2'
_symmetry_cell_setting 'orthorhombic'
loop_
_space_group_symop_operation_xyz
x,y,z
1/2-x,1/2-y,z
1/2+x,-y,-z
-x,1/2+y,-z
-x,-y,-z
1/2+x,1/2+y,-z
1/2-x,y,z
x,1/2-y,z
loop_
_atom_site_type_symbol
_atom_site_label
_atom_site_fract_x
_atom_site_fract_y
_atom_site_fract_z
Si Si1 0.568158 0.555103 0.699296
Si Si2 0.419905 0.250000 0.442230
Si Si3 0.569200 0.059616 0.825602
Si Si4 0.932574 0.440966 0.059659
Si Si5 0.931482 0.061552 0.442999
Si Si6 0.416756 0.250000 0.285689
Si Si7 0.067423 0.250000 0.022600
Si Si8 0.066774 0.250000 0.867960
O O1 0.750000 0.571142 0.687206
O O2 0.537819 0.472232 0.750053
O O3 0.492005 0.529517 0.629304
O O4 0.498747 0.652276 0.730089
O O5 0.250000 0.250000 0.476857
O O6 0.518549 0.337095 0.463798
O O7 0.394485 0.250000 0.364256
O O8 0.750000 0.057781 0.843843
O O9 0.504157 0.161578 0.832495
O O10 0.478188 0.989313 0.872072
O O11 0.750000 0.437270 0.052226
O O12 0.999389 0.338649 0.059023
O O13 0.000000 0.500000 0.000000
O O14 0.750000 0.052984 0.441948
O O15 0.000000 0.000000 0.500000
O O16 0.250000 0.250000 0.248796
O O17 0.250000 0.250000 0.030731
O O18 0.018574 0.250000 0.945307
O O19 0.250000 0.250000 0.859499
#
# Coordination Sequence:
#
# PCOD8245986 Si02
#       8
#     8   4   8   8   8   4   4   4
#     4   9  19  36  58  86 117 153 192 235 289 350
#     4   9  17  33  55  81 113 149 190 237 288 345
#     4  11  23  39  62  88 118 154 194 242 296 353
#     4  12  24  39  60  87 117 150 191 240 289 345
#     4  11  21  35  58  87 119 156 197 243 292 347
#     4   7  12  28  54  78 107 142 176 217 273 339
#     4  11  23  40  62  88 116 153 197 246 296 344
#     4  11  23  39  61  83 112 156 201 244 289 350
#
# _framework density 18.953970000000002
#
# number of rings (size 3 to 8) (size 9 to 14) (size 15 to 20)
#    0.000    1.667    1.667    5.250    0.000    2.667 
#    0.000    2.500    0.000    5.000    0.000    0.000 
#    0.000    0.000    0.000    0.000    0.000    0.000 
#
# Total GULP energy -595057.120294 kJ/mol
# GULP energy per Si atom -12397.023339 kJ/mol
# Density = 1.891083 g / cm^3
# Si number density = 18.953970 Si / 1000 Ang^3
#
#
#
# Elastic Constant Matrix: (Units=GPa)
#
#
# Indices 1 2 3 4 5 6 
#
# 1 121.7911 57.8392 51.6544 0.0000 0.0000 0.0000
# 2 57.8392 171.0571 69.3121 0.0000 0.0000 0.0000
# 3 51.6544 69.3121 94.8665 0.0000 0.0000 0.0000
# 4 0.0000 0.0000 0.0000 33.6474 0.0000 0.0000
# 5 0.0000 0.0000 0.0000 0.0000 28.3702 0.0000
# 6 0.0000 0.0000 0.0000 0.0000 0.0000 33.6216
#
#
#
# Elastic Compliance Matrix: (Units=1/GPa)
#
#
# Indices 1 2 3 4 5 6 
#
# 1 0.011073 -0.001848 -0.004679 0.000000 0.000000 0.000000
# 2 -0.001848 0.008613 -0.005287 0.000000 0.000000 0.000000
# 3 -0.004679 -0.005287 0.016951 0.000000 0.000000 0.000000
# 4 0.000000 0.000000 0.000000 0.029720 0.000000 0.000000
# 5 0.000000 0.000000 0.000000 0.000000 0.035248 0.000000
# 6 0.000000 0.000000 0.000000 0.000000 0.000000 0.029743
#
#
# Mechanical properties :
#
#
# Convention : Reuss Voigt Hill
#
# Bulk Modulus (GPa) = 76.86396 82.81403 79.83899
# Shear Modulus (GPa) = 31.38494 33.05510 32.22002
#
# Velocity S-wave (km/s) = 4.07363 4.18061 4.12747
# Velocity P-wave (km/s) = 7.92256 8.19087 8.05783
#
# Compressibility (1/GPa) = 0.01301000
#
# Stress axis : x y z
#
# Youngs Moduli (GPa) = 90.31066 116.10283 58.99268
#
# Poissons Ratio (x) = 0.21458 0.27601
# Poissons Ratio (y) = 0.16691 0.31187
# Poissons Ratio (z) = 0.42254 0.61379
#
# Static dielectric constant tensor:
#      x y z
#    x 3.597260 0.000000 0.000000 
#    y 0.000000 3.516670 0.000000 
#    z 0.000000 0.000000 3.333880 
# 
# 
# High freq. dielectric constant tensor:
#      x y z
#    x 1.739930 0.000000 0.000000 
#    y 0.000000 1.751840 0.000000 
#    z 0.000000 0.000000 1.717850 
# 
# From -- ./inp_files/25685.got.cif
#   From: 2010.03.12/outbox.cif.g09.slc.cpg/sg59_13_cif.got.tgz:25685.got - 2010.04.16 16:29:54.
