data_PCOD8245260
_publ_section_title
;
Structure prediction by ZEFSAII (Michael W. Deem and Ramdas Pophale) SiO2 
 PCOD8245260
Probable space group: P M M N
;
_chemical_formula_sum "Si O2"
_cell_formula_units_Z 48
_cell_length_a 29.693076
_cell_length_b 8.638093
_cell_length_c 9.960413
_cell_angle_alpha 90.000000
_cell_angle_beta 90.000000
_cell_angle_gamma 90.000000
_cell_volume 2554.761788
_symmetry_space_group_name_H-M "P M M N"
_symmetry_group_IT_number 59
_space_group.IT_coordinate_system_code '2'
_symmetry_cell_setting 'orthorhombic'
loop_
_space_group_symop_operation_xyz
x,y,z
1/2-x,1/2-y,z
1/2+x,-y,-z
-x,1/2+y,-z
-x,-y,-z
1/2+x,1/2+y,-z
1/2-x,y,z
x,1/2-y,z
loop_
_atom_site_type_symbol
_atom_site_label
_atom_site_fract_x
_atom_site_fract_y
_atom_site_fract_z
Si Si1 0.465125 0.429914 0.602272
Si Si2 0.863158 0.931051 0.400571
Si Si3 0.802627 0.928359 0.901882
Si Si4 0.037802 0.065691 0.904002
Si Si5 0.632570 0.431381 0.112452
Si Si6 0.198421 0.571175 0.376726
O O1 0.500000 0.500000 0.500000
O O2 0.473259 0.250000 0.600872
O O3 0.414394 0.470993 0.557959
O O4 0.473762 0.490971 0.753134
O O5 0.852814 0.750000 0.415453
O O6 0.854195 0.979414 0.247834
O O7 0.830830 0.028072 0.495102
O O8 0.750000 0.962131 0.921892
O O9 0.814736 0.750000 0.928650
O O10 0.817272 0.970843 0.750696
O O11 0.828809 0.037214 0.004529
O O12 0.040782 0.250000 0.914214
O O13 0.085648 0.994749 0.947297
O O14 0.000000 0.000000 0.000000
O O15 0.628858 0.250000 0.141820
O O16 0.250000 0.534840 0.413595
O O17 0.191386 0.750000 0.340532
#
# Coordination Sequence:
#
# PCOD8245260 Si02
#       6
#     8   8   8   8   8   8
#     4   9  20  36  55  79 107 139 177 221 266 317
#     4  10  21  38  57  80 111 146 185 227 273 328
#     4  10  21  38  59  82 110 146 185 226 276 333
#     4  10  21  38  57  81 112 145 184 227 274 330
#     4  11  22  37  58  83 111 145 185 231 281 329
#     4  10  21  37  57  83 113 144 182 228 275 326
#
# _framework density 18.788444999999999
#
# number of rings (size 3 to 8) (size 9 to 14) (size 15 to 20)
#    0.000    2.000    0.000    4.500    0.000    8.000 
#    0.000    3.333    0.000    0.000    0.000    0.000 
#    0.000    0.000    0.000    0.000    0.000    0.000 
#
# Total GULP energy -595372.478515 kJ/mol
# GULP energy per Si atom -12403.593302 kJ/mol
# Density = 1.874568 g / cm^3
# Si number density = 18.788445 Si / 1000 Ang^3
#
#
#
# Elastic Constant Matrix: (Units=GPa)
#
#
# Indices 1 2 3 4 5 6 
#
# 1 89.3911 34.0238 59.0561 0.0000 0.0000 0.0000
# 2 34.0238 62.8521 20.9527 0.0000 0.0000 0.0000
# 3 59.0561 20.9527 79.9907 0.0000 0.0000 0.0000
# 4 0.0000 0.0000 0.0000 37.5146 0.0000 0.0000
# 5 0.0000 0.0000 0.0000 0.0000 41.7089 0.0000
# 6 0.0000 0.0000 0.0000 0.0000 0.0000 35.3166
#
#
#
# Elastic Compliance Matrix: (Units=1/GPa)
#
#
# Indices 1 2 3 4 5 6 
#
# 1 0.025132 -0.008129 -0.016426 0.000000 0.000000 0.000000
# 2 -0.008129 0.020062 0.000747 0.000000 0.000000 0.000000
# 3 -0.016426 0.000747 0.024433 0.000000 0.000000 0.000000
# 4 0.000000 0.000000 0.000000 0.026656 0.000000 0.000000
# 5 0.000000 0.000000 0.000000 0.000000 0.023976 0.000000
# 6 0.000000 0.000000 0.000000 0.000000 0.000000 0.028315
#
#
# Mechanical properties :
#
#
# Convention : Reuss Voigt Hill
#
# Bulk Modulus (GPa) = 45.43215 51.14436 48.28826
# Shear Modulus (GPa) = 24.56665 30.78809 27.67737
#
# Velocity S-wave (km/s) = 3.61992 4.05244 3.84227
# Velocity P-wave (km/s) = 6.45795 7.01261 6.74099
#
# Compressibility (1/GPa) = 0.02201084
#
# Stress axis : x y z
#
# Youngs Moduli (GPa) = 39.78913 49.84528 40.92881
#
# Poissons Ratio (x) = 0.40521 0.67228
# Poissons Ratio (y) = 0.32346 -0.03056
# Poissons Ratio (z) = 0.65356 -0.03722
#
# Static dielectric constant tensor:
#      x y z
#    x 3.412950 0.000000 0.000000 
#    y 0.000000 3.528740 0.000000 
#    z 0.000000 0.000000 3.201970 
# 
# 
# High freq. dielectric constant tensor:
#      x y z
#    x 1.731320 0.000000 0.000000 
#    y 0.000000 1.742160 0.000000 
#    z 0.000000 0.000000 1.732080 
# 
# From -- ./inp_files/6282.got.cif
#   From: 2010.03.12/outbox.cif.g09.slc.cpg/sg59_4_cif.got.tgz:6282.got - 2010.04.16 16:29:54.
