data_PCOD8245490
_publ_section_title
;
Structure prediction by ZEFSAII (Michael W. Deem and Ramdas Pophale) SiO2 
 PCOD8245490
Probable space group: P M M N
;
_chemical_formula_sum "Si O2"
_cell_formula_units_Z 32
_cell_length_a 8.937588
_cell_length_b 15.653071
_cell_length_c 11.181456
_cell_angle_alpha 90.000000
_cell_angle_beta 90.000000
_cell_angle_gamma 90.000000
_cell_volume 1564.293516
_symmetry_space_group_name_H-M "P M M N"
_symmetry_group_IT_number 59
_space_group.IT_coordinate_system_code '2'
_symmetry_cell_setting 'orthorhombic'
loop_
_space_group_symop_operation_xyz
x,y,z
1/2-x,1/2-y,z
1/2+x,-y,-z
-x,1/2+y,-z
-x,-y,-z
1/2+x,1/2+y,-z
1/2-x,y,z
x,1/2-y,z
loop_
_atom_site_type_symbol
_atom_site_label
_atom_site_fract_x
_atom_site_fract_y
_atom_site_fract_z
Si Si1 0.422154 0.250000 0.468909
Si Si2 0.917164 0.068032 0.838031
Si Si3 0.425898 0.750000 0.780641
Si Si4 0.074767 0.430874 0.586260
Si Si5 0.416331 0.381367 0.057464
O O1 0.250000 0.250000 0.425127
O O2 0.531350 0.250000 0.357281
O O3 0.457819 0.165821 0.545592
O O4 0.750000 0.103203 0.811566
O O5 0.008483 0.057849 0.717143
O O6 0.905502 0.978602 0.904449
O O7 0.003501 0.131233 0.928824
O O8 0.250000 0.750000 0.793839
O O9 0.490294 0.834212 0.841300
O O10 0.250000 0.450538 0.589592
O O11 0.000000 0.500000 0.500000
O O12 0.250000 0.342021 0.047267
#
# Coordination Sequence:
#
# PCOD8245490 Si02
#       5
#     4   8   4   8   8
#     4  10  24  43  60  83 118 159 199 239 293 362
#     4  10  21  38  60  87 117 150 193 242 292 349
#     4  12  24  37  58  87 116 147 191 245 293 342
#     4  11  23  40  62  87 119 160 202 246 299 357
#     4  10  21  38  60  84 115 154 191 234 292 354
#
# _framework density 20.456519
#
# number of rings (size 3 to 8) (size 9 to 14) (size 15 to 20)
#    0.000    1.500    0.000    4.875    0.000   12.000 
#    0.000    3.750    0.000    0.000    0.000    0.000 
#    0.000    0.000    0.000    0.000    0.000    0.000 
#
# Total GULP energy -396872.823915 kJ/mol
# GULP energy per Si atom -12402.275747 kJ/mol
# Density = 2.040996 g / cm^3
# Si number density = 20.456519 Si / 1000 Ang^3
#
#
#
# Elastic Constant Matrix: (Units=GPa)
#
#
# Indices 1 2 3 4 5 6 
#
# 1 175.0802 36.3617 67.6733 0.0000 0.0000 0.0000
# 2 36.3617 67.2130 17.8217 0.0000 0.0000 0.0000
# 3 67.6733 17.8217 137.3920 0.0000 0.0000 0.0000
# 4 0.0000 0.0000 0.0000 14.0937 0.0000 0.0000
# 5 0.0000 0.0000 0.0000 0.0000 43.0287 0.0000
# 6 0.0000 0.0000 0.0000 0.0000 0.0000 25.7750
#
#
#
# Elastic Compliance Matrix: (Units=1/GPa)
#
#
# Indices 1 2 3 4 5 6 
#
# 1 0.007691 -0.003269 -0.003364 0.000000 0.000000 0.000000
# 2 -0.003269 0.016797 -0.000569 0.000000 0.000000 0.000000
# 3 -0.003364 -0.000569 0.009009 0.000000 0.000000 0.000000
# 4 0.000000 0.000000 0.000000 0.070954 0.000000 0.000000
# 5 0.000000 0.000000 0.000000 0.000000 0.023240 0.000000
# 6 0.000000 0.000000 0.000000 0.000000 0.000000 0.038797
#
#
# Mechanical properties :
#
#
# Convention : Reuss Voigt Hill
#
# Bulk Modulus (GPa) = 52.37250 69.26650 60.81950
# Shear Modulus (GPa) = 26.70127 33.76803 30.23465
#
# Velocity S-wave (km/s) = 3.61677 4.06732 3.84864
# Velocity P-wave (km/s) = 6.56497 7.48273 7.03882
#
# Compressibility (1/GPa) = 0.01909399
#
# Stress axis : x y z
#
# Youngs Moduli (GPa) = 130.02412 59.53360 110.99658
#
# Poissons Ratio (x) = 0.19460 0.37341
# Poissons Ratio (y) = 0.42501 0.06314
# Poissons Ratio (z) = 0.43743 0.03386
#
# Static dielectric constant tensor:
#      x y z
#    x 4.526070 0.000000 0.000000 
#    y 0.000000 3.486010 0.000000 
#    z 0.000000 0.000000 3.739180 
# 
# 
# High freq. dielectric constant tensor:
#      x y z
#    x 1.818810 0.000000 0.000000 
#    y 0.000000 1.795420 0.000000 
#    z 0.000000 0.000000 1.809170 
# 
# From -- ./inp_files/13664.got.cif
#   From: 2010.03.12/outbox.cif.g09.slc.cpg/sg59_7_cif.got.tgz:13664.got - 2010.04.16 16:29:54.
