data_PCOD8245118
_publ_section_title
;
Structure prediction by ZEFSAII (Michael W. Deem and Ramdas Pophale) SiO2 
 PCOD8245118
Probable space group: P M M N
;
_chemical_formula_sum "Si O2"
_cell_formula_units_Z 48
_cell_length_a 13.822150
_cell_length_b 9.037529
_cell_length_c 21.005482
_cell_angle_alpha 90.000000
_cell_angle_beta 90.000000
_cell_angle_gamma 90.000000
_cell_volume 2623.964512
_symmetry_space_group_name_H-M "P M M N"
_symmetry_group_IT_number 59
_space_group.IT_coordinate_system_code '2'
_symmetry_cell_setting 'orthorhombic'
loop_
_space_group_symop_operation_xyz
x,y,z
1/2-x,1/2-y,z
1/2+x,-y,-z
-x,1/2+y,-z
-x,-y,-z
1/2+x,1/2+y,-z
1/2-x,y,z
x,1/2-y,z
loop_
_atom_site_type_symbol
_atom_site_label
_atom_site_fract_x
_atom_site_fract_y
_atom_site_fract_z
Si Si1 0.453890 0.076455 0.840455
Si Si2 0.466734 0.923993 0.593554
Si Si3 0.640055 0.424282 0.534603
Si Si4 0.864185 0.415126 0.043794
Si Si5 0.639936 0.074405 0.279818
Si Si6 0.144351 0.575093 0.096254
O O1 0.439824 0.250000 0.828783
O O2 0.566873 0.032112 0.849651
O O3 0.398876 0.031757 0.904288
O O4 0.414149 0.988541 0.780871
O O5 0.483707 0.750000 0.595409
O O6 0.396840 0.969674 0.535468
O O7 0.415485 0.981801 0.657418
O O8 0.571665 0.000113 0.587261
O O9 0.750000 0.481234 0.542917
O O10 0.634508 0.250000 0.544515
O O11 0.750000 0.403413 0.048362
O O12 0.908084 0.250000 0.055853
O O13 0.891829 0.478891 0.973610
O O14 0.750000 0.015715 0.281846
O O15 0.638837 0.250000 0.275827
O O16 0.250000 0.507556 0.114130
O O17 0.153782 0.750000 0.090592
#
# Coordination Sequence:
#
# PCOD8245118 Si02
#       6
#     8   8   8   8   8   8
#     4  11  21  31  48  74 100 125 158 204 249 285
#     4   9  18  33  53  76 101 132 171 208 239 279
#     4   9  17  31  53  80 107 132 161 201 249 296
#     4   9  17  31  51  71  93 125 161 195 239 298
#     4  10  21  37  54  70  95 134 170 196 232 288
#     4   8  16  32  51  69  91 123 162 200 242 295
#
# _framework density 18.292932
#
# number of rings (size 3 to 8) (size 9 to 14) (size 15 to 20)
#    0.000    2.667    0.000    3.000    0.000    5.667 
#    0.000    1.667    0.000   10.000    0.000    0.000 
#    0.000    0.000    0.000    0.000    0.000    0.000 
#
# Total GULP energy -595061.059152 kJ/mol
# GULP energy per Si atom -12397.105399 kJ/mol
# Density = 1.825130 g / cm^3
# Si number density = 18.292932 Si / 1000 Ang^3
#
#
#
# Elastic Constant Matrix: (Units=GPa)
#
#
# Indices 1 2 3 4 5 6 
#
# 1 133.9566 26.6979 88.7382 0.0000 0.0000 0.0000
# 2 26.6979 12.2629 16.0491 0.0000 0.0000 0.0000
# 3 88.7382 16.0491 106.1848 0.0000 0.0000 0.0000
# 4 0.0000 0.0000 0.0000 14.5778 0.0000 0.0000
# 5 0.0000 0.0000 0.0000 0.0000 29.5962 0.0000
# 6 0.0000 0.0000 0.0000 0.0000 0.0000 26.3225
#
#
#
# Elastic Compliance Matrix: (Units=1/GPa)
#
#
# Indices 1 2 3 4 5 6 
#
# 1 0.023892 -0.032267 -0.015089 0.000000 0.000000 0.000000
# 2 -0.032267 0.145234 0.005015 0.000000 0.000000 0.000000
# 3 -0.015089 0.005015 0.021270 0.000000 0.000000 0.000000
# 4 0.000000 0.000000 0.000000 0.068598 0.000000 0.000000
# 5 0.000000 0.000000 0.000000 0.000000 0.033788 0.000000
# 6 0.000000 0.000000 0.000000 0.000000 0.000000 0.037990
#
#
# Mechanical properties :
#
#
# Convention : Reuss Voigt Hill
#
# Bulk Modulus (GPa) = 9.45975 57.26385 33.36180
# Shear Modulus (GPa) = 11.09405 22.16057 16.62731
#
# Velocity S-wave (km/s) = 2.46533 3.48433 3.01815
# Velocity P-wave (km/s) = 3.64503 6.89632 5.51568
#
# Compressibility (1/GPa) = 0.10571108
#
# Stress axis : x y z
#
# Youngs Moduli (GPa) = 41.85533 6.88546 47.01525
#
# Poissons Ratio (x) = 0.22218 0.70943
# Poissons Ratio (y) = 1.35056 -0.23576
# Poissons Ratio (z) = 0.63157 -0.03453
#
# Static dielectric constant tensor:
#      x y z
#    x 3.738650 0.000000 0.000000 
#    y 0.000000 3.255700 0.000000 
#    z 0.000000 0.000000 3.352420 
# 
# 
# High freq. dielectric constant tensor:
#      x y z
#    x 1.720530 0.000000 0.000000 
#    y 0.000000 1.687280 0.000000 
#    z 0.000000 0.000000 1.697470 
# 
# From -- ./inp_files/25489.got.cif
#   From: 2010.03.12/outbox.cif.g09.slc.cpg/sg59_13_cif.got.tgz:25489.got - 2010.04.16 16:29:54.
