data_PCOD8245276
_publ_section_title
;
Structure prediction by ZEFSAII (Michael W. Deem and Ramdas Pophale) SiO2 
 PCOD8245276
Probable space group: P M M N
;
_chemical_formula_sum "Si O2"
_cell_formula_units_Z 56
_cell_length_a 22.912098
_cell_length_b 8.343172
_cell_length_c 14.324598
_cell_angle_alpha 90.000000
_cell_angle_beta 90.000000
_cell_angle_gamma 90.000000
_cell_volume 2738.284058
_symmetry_space_group_name_H-M "P M M N"
_symmetry_group_IT_number 59
_space_group.IT_coordinate_system_code '2'
_symmetry_cell_setting 'orthorhombic'
loop_
_space_group_symop_operation_xyz
x,y,z
1/2-x,1/2-y,z
1/2+x,-y,-z
-x,1/2+y,-z
-x,-y,-z
1/2+x,1/2+y,-z
1/2-x,y,z
x,1/2-y,z
loop_
_atom_site_type_symbol
_atom_site_label
_atom_site_fract_x
_atom_site_fract_y
_atom_site_fract_z
Si Si1 0.648424 0.933767 0.637587
Si Si2 0.750000 0.562423 0.327197
Si Si3 0.075388 0.559679 0.067942
Si Si4 0.374488 0.940763 0.699962
Si Si5 0.750000 0.065312 0.524287
Si Si6 0.959001 0.439486 0.135233
Si Si7 0.686015 0.436133 0.829414
Si Si8 0.435004 0.939625 0.505332
O O1 0.648796 0.750000 0.669561
O O2 0.694582 0.968436 0.557502
O O3 0.663126 0.043651 0.724975
O O4 0.588149 0.981126 0.589845
O O5 0.750000 0.750000 0.352848
O O6 0.688781 0.519763 0.275291
O O7 0.750000 0.441468 0.413697
O O8 0.075030 0.750000 0.071321
O O9 0.138044 0.489541 0.100621
O O10 0.025938 0.498870 0.140547
O O11 0.066136 0.494434 0.963207
O O12 0.368023 0.750000 0.704432
O O13 0.419964 0.003794 0.778957
O O14 0.400380 0.995758 0.599130
O O15 0.750000 0.250000 0.557799
O O16 0.958774 0.250000 0.136907
O O17 0.750000 0.518341 0.842740
O O18 0.692599 0.250000 0.850031
O O19 0.430814 0.750000 0.498371
O O20 0.500000 0.000000 0.500000
#
# Coordination Sequence:
#
# PCOD8245276 Si02
#       8
#     8   4   8   8   4   8   8   8
#     4  12  24  38  58  85 115 152 197 240 284 345
#     4  12  24  38  60  87 116 155 202 247 292 346
#     4   9  19  37  61  89 116 150 196 245 299 354
#     4  10  22  40  61  85 118 159 197 240 298 357
#     4  12  22  38  60  81 112 153 194 237 284 342
#     4   9  19  38  62  89 116 150 196 243 297 358
#     4  10  21  37  57  84 120 159 197 243 299 356
#     4  11  24  40  58  84 121 159 196 242 293 347
#
# _framework density 20.450762999999998
#
# number of rings (size 3 to 8) (size 9 to 14) (size 15 to 20)
#    0.000    1.571    2.143    3.000    2.000    1.714 
#    1.286    0.000    0.000    0.000    0.000    0.000 
#    0.000    0.000    0.000    0.000    0.000    0.000 
#
# Total GULP energy -694145.485557 kJ/mol
# GULP energy per Si atom -12395.455099 kJ/mol
# Density = 2.040422 g / cm^3
# Si number density = 20.450763 Si / 1000 Ang^3
#
#
#
# Elastic Constant Matrix: (Units=GPa)
#
#
# Indices 1 2 3 4 5 6 
#
# 1 176.9799 19.4159 58.5882 0.0000 0.0000 0.0000
# 2 19.4159 41.3929 8.2918 0.0000 0.0000 0.0000
# 3 58.5882 8.2918 80.3342 0.0000 0.0000 0.0000
# 4 0.0000 0.0000 0.0000 17.3594 0.0000 0.0000
# 5 0.0000 0.0000 0.0000 0.0000 30.1934 0.0000
# 6 0.0000 0.0000 0.0000 0.0000 0.0000 46.0709
#
#
#
# Elastic Compliance Matrix: (Units=1/GPa)
#
#
# Indices 1 2 3 4 5 6 
#
# 1 0.007702 -0.002540 -0.005355 0.000000 0.000000 0.000000
# 2 -0.002540 0.025506 -0.000780 0.000000 0.000000 0.000000
# 3 -0.005355 -0.000780 0.016434 0.000000 0.000000 0.000000
# 4 0.000000 0.000000 0.000000 0.057606 0.000000 0.000000
# 5 0.000000 0.000000 0.000000 0.000000 0.033120 0.000000
# 6 0.000000 0.000000 0.000000 0.000000 0.000000 0.021706
#
#
# Mechanical properties :
#
#
# Convention : Reuss Voigt Hill
#
# Bulk Modulus (GPa) = 30.96742 52.36652 41.66697
# Shear Modulus (GPa) = 26.28992 32.88547 29.58770
#
# Velocity S-wave (km/s) = 3.58931 4.01438 3.80778
# Velocity P-wave (km/s) = 5.68795 6.86649 6.30482
#
# Compressibility (1/GPa) = 0.03229200
#
# Stress axis : x y z
#
# Youngs Moduli (GPa) = 129.84232 39.20582 60.85034
#
# Poissons Ratio (x) = 0.09958 0.32584
# Poissons Ratio (y) = 0.32979 0.04748
# Poissons Ratio (z) = 0.69527 0.03059
#
# Static dielectric constant tensor:
#      x y z
#    x 4.337840 0.000000 0.000000 
#    y 0.000000 3.477720 0.000000 
#    z 0.000000 0.000000 3.788180 
# 
# 
# High freq. dielectric constant tensor:
#      x y z
#    x 1.819300 0.000000 0.000000 
#    y 0.000000 1.783960 0.000000 
#    z 0.000000 0.000000 1.786010 
# 
# From -- ./inp_files/24317.got.cif
#   From: 2010.03.12/outbox.cif.g09.slc.cpg/sg59_13_cif.got.tgz:24317.got - 2010.04.16 16:29:54.
