data_PCOD8245820
_publ_section_title
;
Structure prediction by ZEFSAII (Michael W. Deem and Ramdas Pophale) SiO2 
 PCOD8245820
Probable space group: P M M N
;
_chemical_formula_sum "Si O2"
_cell_formula_units_Z 64
_cell_length_a 28.710689
_cell_length_b 8.384606
_cell_length_c 12.574762
_cell_angle_alpha 90.000000
_cell_angle_beta 90.000000
_cell_angle_gamma 90.000000
_cell_volume 3027.094984
_symmetry_space_group_name_H-M "P M M N"
_symmetry_group_IT_number 59
_space_group.IT_coordinate_system_code '2'
_symmetry_cell_setting 'orthorhombic'
loop_
_space_group_symop_operation_xyz
x,y,z
1/2-x,1/2-y,z
1/2+x,-y,-z
-x,1/2+y,-z
-x,-y,-z
1/2+x,1/2+y,-z
1/2-x,y,z
x,1/2-y,z
loop_
_atom_site_type_symbol
_atom_site_label
_atom_site_fract_x
_atom_site_fract_y
_atom_site_fract_z
Si Si1 0.303953 0.563731 0.075873
Si Si2 0.057894 0.933412 0.236207
Si Si3 0.551026 0.934300 0.987743
Si Si4 0.151022 0.435173 0.286321
Si Si5 0.119510 0.064056 0.656225
Si Si6 0.801289 0.561157 0.501078
Si Si7 0.518165 0.436645 0.388244
Si Si8 0.367504 0.934421 0.882332
O O1 0.250000 0.521063 0.065813
O O2 0.312891 0.750000 0.096699
O O3 0.328082 0.509782 0.965889
O O4 0.325860 0.467374 0.172769
O O5 0.055014 0.750000 0.201573
O O6 0.066657 0.042499 0.133317
O O7 0.103412 0.966517 0.307549
O O8 0.010429 0.977356 0.295288
O O9 0.554452 0.750000 0.020084
O O10 0.500000 0.000000 0.000000
O O11 0.582184 0.037659 0.066715
O O12 0.138780 0.250000 0.296955
O O13 0.186241 0.489826 0.378650
O O14 0.110277 0.250000 0.635512
O O15 0.160087 0.994674 0.580267
O O16 0.072443 0.969936 0.629410
O O17 0.136975 0.037897 0.776123
O O18 0.750000 0.490091 0.474514
O O19 0.799639 0.750000 0.490621
O O20 0.500000 0.500000 0.500000
O O21 0.508674 0.250000 0.381783
O O22 0.361908 0.750000 0.852183
#
# Coordination Sequence:
#
# PCOD8245820 Si02
#       8
#     8   8   8   8   8   8   8   8
#     4  10  22  40  62  89 126 171 215 266 329 390
#     4  12  24  40  62  91 128 168 210 261 320 382
#     4  12  24  40  62  90 123 162 210 258 314 379
#     4  11  21  37  64  96 128 164 212 270 327 388
#     4  11  23  41  65  92 127 169 216 267 321 383
#     4   9  20  39  63  92 125 162 206 262 323 379
#     4  12  25  43  65  93 128 169 217 265 321 385
#     4  11  23  41  62  88 127 169 212 263 321 381
#
# _framework density 21.142382000000001
#
# number of rings (size 3 to 8) (size 9 to 14) (size 15 to 20)
#    0.000    1.000    1.250    6.375    0.000    2.750 
#    0.000    1.875    0.000    4.125    0.000    0.000 
#    0.000    0.000    0.000    0.000    0.000    0.000 
#
# Total GULP energy -793944.878040 kJ/mol
# GULP energy per Si atom -12405.388719 kJ/mol
# Density = 2.109426 g / cm^3
# Si number density = 21.142382 Si / 1000 Ang^3
#
#
#
# Elastic Constant Matrix: (Units=GPa)
#
#
# Indices 1 2 3 4 5 6 
#
# 1 157.6027 19.4571 50.2313 0.0000 0.0000 0.0000
# 2 19.4571 59.2892 13.3447 0.0000 0.0000 0.0000
# 3 50.2313 13.3447 121.5823 0.0000 0.0000 0.0000
# 4 0.0000 0.0000 0.0000 29.5101 0.0000 0.0000
# 5 0.0000 0.0000 0.0000 0.0000 37.8926 0.0000
# 6 0.0000 0.0000 0.0000 0.0000 0.0000 27.9291
#
#
#
# Elastic Compliance Matrix: (Units=1/GPa)
#
#
# Indices 1 2 3 4 5 6 
#
# 1 0.007491 -0.001806 -0.002897 0.000000 0.000000 0.000000
# 2 -0.001806 0.017729 -0.001200 0.000000 0.000000 0.000000
# 3 -0.002897 -0.001200 0.009553 0.000000 0.000000 0.000000
# 4 0.000000 0.000000 0.000000 0.033887 0.000000 0.000000
# 5 0.000000 0.000000 0.000000 0.000000 0.026390 0.000000
# 6 0.000000 0.000000 0.000000 0.000000 0.000000 0.035805
#
#
# Mechanical properties :
#
#
# Convention : Reuss Voigt Hill
#
# Bulk Modulus (GPa) = 43.53816 56.06004 49.79910
# Shear Modulus (GPa) = 33.26285 36.09575 34.67930
#
# Velocity S-wave (km/s) = 3.97076 4.13639 4.05442
# Velocity P-wave (km/s) = 6.45447 7.02752 6.74708
#
# Compressibility (1/GPa) = 0.02296836
#
# Stress axis : x y z
#
# Youngs Moduli (GPa) = 133.48741 56.40374 104.67546
#
# Poissons Ratio (x) = 0.10189 0.30322
# Poissons Ratio (y) = 0.24114 0.12557
# Poissons Ratio (z) = 0.38668 0.06766
#
# Static dielectric constant tensor:
#      x y z
#    x 4.070210 0.000000 0.000000 
#    y 0.000000 3.711530 0.000000 
#    z 0.000000 0.000000 3.962340 
# 
# 
# High freq. dielectric constant tensor:
#      x y z
#    x 1.842600 0.000000 0.000000 
#    y 0.000000 1.821030 0.000000 
#    z 0.000000 0.000000 1.835400 
# 
# From -- ./inp_files/19367.got.cif
#   From: 2010.03.12/outbox.cif.g09.slc.cpg/sg59_10_cif.got.tgz:19367.got - 2010.04.16 16:29:54.
