data_PCOD8245693
_publ_section_title
;
Structure prediction by ZEFSAII (Michael W. Deem and Ramdas Pophale) SiO2 
 PCOD8245693
Probable space group: P M M N
;
_chemical_formula_sum "Si O2"
_cell_formula_units_Z 48
_cell_length_a 34.270809
_cell_length_b 8.343844
_cell_length_c 7.900635
_cell_angle_alpha 90.000000
_cell_angle_beta 90.000000
_cell_angle_gamma 90.000000
_cell_volume 2259.188822
_symmetry_space_group_name_H-M "P M M N"
_symmetry_group_IT_number 59
_space_group.IT_coordinate_system_code '2'
_symmetry_cell_setting 'orthorhombic'
loop_
_space_group_symop_operation_xyz
x,y,z
1/2-x,1/2-y,z
1/2+x,-y,-z
-x,1/2+y,-z
-x,-y,-z
1/2+x,1/2+y,-z
1/2-x,y,z
x,1/2-y,z
loop_
_atom_site_type_symbol
_atom_site_label
_atom_site_fract_x
_atom_site_fract_y
_atom_site_fract_z
Si Si1 0.341099 0.062720 0.144982
Si Si2 0.794899 0.437137 0.550221
Si Si3 0.428173 0.431559 0.797953
Si Si4 0.506975 0.564984 0.681858
Si Si5 0.846227 0.439481 0.233531
Si Si6 0.919855 0.432386 0.855885
O O1 0.348841 0.250000 0.141753
O O2 0.305974 0.023918 0.273507
O O3 0.378216 0.969912 0.230584
O O4 0.332997 0.007533 0.950240
O O5 0.750000 0.475576 0.513952
O O6 0.802768 0.250000 0.574980
O O7 0.818102 0.501136 0.384100
O O8 0.435210 0.250000 0.734538
O O9 0.467031 0.537727 0.781662
O O10 0.389872 0.505368 0.709398
O O11 0.420465 0.435578 0.996777
O O12 0.500000 0.500000 0.500000
O O13 0.518849 0.750000 0.688741
O O14 0.542972 0.457350 0.739717
O O15 0.845177 0.250000 0.217714
O O16 0.920213 0.250000 0.923746
#
# Coordination Sequence:
#
# PCOD8245693 Si02
#       6
#     8   8   8   8   8   8
#     4  11  23  40  64  95 130 167 208 257 315 378
#     4  10  23  43  67  94 125 164 209 257 313 379
#     4  11  22  39  61  87 120 160 204 253 307 365
#     4  12  25  40  57  85 121 160 205 254 306 362
#     4  10  21  40  66  94 125 165 214 262 312 373
#     4  11  22  40  63  87 118 160 207 254 303 363
#
# _framework density 21.246562999999998
#
# number of rings (size 3 to 8) (size 9 to 14) (size 15 to 20)
#    0.000    1.167    0.000    9.000    2.333    2.333 
#    0.000    1.667    0.000    0.000    0.000    0.000 
#    0.000    0.000    0.000    0.000    0.000    0.000 
#
# Total GULP energy -594999.204033 kJ/mol
# GULP energy per Si atom -12395.816751 kJ/mol
# Density = 2.119821 g / cm^3
# Si number density = 21.246563 Si / 1000 Ang^3
#
#
#
# Elastic Constant Matrix: (Units=GPa)
#
#
# Indices 1 2 3 4 5 6 
#
# 1 94.3593 27.5945 32.9313 0.0000 0.0000 0.0000
# 2 27.5945 108.9303 30.0308 0.0000 0.0000 0.0000
# 3 32.9313 30.0308 80.0763 0.0000 0.0000 0.0000
# 4 0.0000 0.0000 0.0000 27.0044 0.0000 0.0000
# 5 0.0000 0.0000 0.0000 0.0000 39.4639 0.0000
# 6 0.0000 0.0000 0.0000 0.0000 0.0000 30.4791
#
#
#
# Elastic Compliance Matrix: (Units=1/GPa)
#
#
# Indices 1 2 3 4 5 6 
#
# 1 0.012749 -0.001990 -0.004497 0.000000 0.000000 0.000000
# 2 -0.001990 0.010549 -0.003138 0.000000 0.000000 0.000000
# 3 -0.004497 -0.003138 0.015514 0.000000 0.000000 0.000000
# 4 0.000000 0.000000 0.000000 0.037031 0.000000 0.000000
# 5 0.000000 0.000000 0.000000 0.000000 0.025340 0.000000
# 6 0.000000 0.000000 0.000000 0.000000 0.000000 0.032809
#
#
# Mechanical properties :
#
#
# Convention : Reuss Voigt Hill
#
# Bulk Modulus (GPa) = 51.11594 51.60878 51.36236
# Shear Modulus (GPa) = 31.29635 32.24344 31.76989
#
# Velocity S-wave (km/s) = 3.84214 3.89984 3.87110
# Velocity P-wave (km/s) = 6.61766 6.67993 6.64887
#
# Compressibility (1/GPa) = 0.01956337
#
# Stress axis : x y z
#
# Youngs Moduli (GPa) = 78.43694 94.79241 64.45708
#
# Poissons Ratio (x) = 0.18863 0.28985
# Poissons Ratio (y) = 0.15608 0.20226
# Poissons Ratio (z) = 0.35271 0.29745
#
# Static dielectric constant tensor:
#      x y z
#    x 3.540530 0.000000 0.000000 
#    y 0.000000 3.805350 0.000000 
#    z 0.000000 0.000000 3.785010 
# 
# 
# High freq. dielectric constant tensor:
#      x y z
#    x 1.839910 0.000000 0.000000 
#    y 0.000000 1.840530 0.000000 
#    z 0.000000 0.000000 1.828080 
# 
# From -- ./inp_files/12942.got.cif
#   From: 2010.03.12/outbox.cif.g09.slc.cpg/sg59_7_cif.got.tgz:12942.got - 2010.04.16 16:29:54.
