data_PCOD8245097
_publ_section_title
;
Structure prediction by ZEFSAII (Michael W. Deem and Ramdas Pophale) SiO2 
 PCOD8245097
Probable space group: P M M N
;
_chemical_formula_sum "Si O2"
_cell_formula_units_Z 64
_cell_length_a 14.965067
_cell_length_b 23.878540
_cell_length_c 9.355105
_cell_angle_alpha 90.000000
_cell_angle_beta 90.000000
_cell_angle_gamma 90.000000
_cell_volume 3342.990182
_symmetry_space_group_name_H-M "P M M N"
_symmetry_group_IT_number 59
_space_group.IT_coordinate_system_code '2'
_symmetry_cell_setting 'orthorhombic'
loop_
_space_group_symop_operation_xyz
x,y,z
1/2-x,1/2-y,z
1/2+x,-y,-z
-x,1/2+y,-z
-x,-y,-z
1/2+x,1/2+y,-z
1/2-x,y,z
x,1/2-y,z
loop_
_atom_site_type_symbol
_atom_site_label
_atom_site_fract_x
_atom_site_fract_y
_atom_site_fract_z
Si Si1 0.848795 0.078737 0.070769
Si Si2 0.028860 0.600976 0.178497
Si Si3 0.647524 0.551677 0.064205
Si Si4 0.412243 0.902486 0.637740
Si Si5 0.348085 0.188053 0.419767
Si Si6 0.150207 0.970142 0.379652
Si Si7 0.976093 0.185521 0.578923
Si Si8 0.892447 0.581945 0.740835
O O1 0.750000 0.085844 0.003005
O O2 0.845536 0.106259 0.229268
O O3 0.873963 0.013532 0.083007
O O4 0.922369 0.109890 0.973328
O O5 0.080734 0.552012 0.261928
O O6 0.038890 0.658588 0.266064
O O7 0.924309 0.585547 0.159868
O O8 0.750000 0.565347 0.111741
O O9 0.634764 0.567928 0.900482
O O10 0.380153 0.953575 0.538529
O O11 0.418478 0.846078 0.543051
O O12 0.502581 0.920546 0.715758
O O13 0.250000 0.184083 0.490374
O O14 0.364103 0.250000 0.353106
O O15 0.419538 0.177070 0.544221
O O16 0.356095 0.143810 0.292074
O O17 0.250000 0.946417 0.350917
O O18 0.152136 0.037388 0.367735
O O19 0.945788 0.250000 0.582779
#
# Coordination Sequence:
#
# PCOD8245097 Si02
#       8
#     8   8   8   8   8   8   8   8
#     4  11  21  36  58  85 119 155 187 231 287 347
#     4  11  21  37  58  82 116 153 194 232 287 349
#     4  11  22  35  55  85 124 160 191 227 281 349
#     4  10  21  36  58  84 115 146 189 239 290 345
#     4   9  18  33  54  79 108 144 191 240 283 336
#     4  11  21  34  55  85 117 152 188 231 287 350
#     4   9  21  40  60  80 107 149 193 240 298 343
#     4  11  19  34  54  81 117 157 191 231 285 342
#
# _framework density 19.144537
#
# number of rings (size 3 to 8) (size 9 to 14) (size 15 to 20)
#    0.000    1.625    2.500    3.375    0.000    2.500 
#    0.000    2.500    0.000   15.000    0.000    0.000 
#    0.000    0.000    0.000    0.000    0.000    0.000 
#
# Total GULP energy -793499.413833 kJ/mol
# GULP energy per Si atom -12398.428341 kJ/mol
# Density = 1.910096 g / cm^3
# Si number density = 19.144537 Si / 1000 Ang^3
#
#
#
# Elastic Constant Matrix: (Units=GPa)
#
#
# Indices 1 2 3 4 5 6 
#
# 1 95.5017 32.1576 32.1358 0.0000 0.0000 0.0000
# 2 32.1576 118.0736 54.1596 0.0000 0.0000 0.0000
# 3 32.1358 54.1596 112.9182 0.0000 0.0000 0.0000
# 4 0.0000 0.0000 0.0000 22.8147 0.0000 0.0000
# 5 0.0000 0.0000 0.0000 0.0000 16.4863 0.0000
# 6 0.0000 0.0000 0.0000 0.0000 0.0000 7.9552
#
#
#
# Elastic Compliance Matrix: (Units=1/GPa)
#
#
# Indices 1 2 3 4 5 6 
#
# 1 0.012003 -0.002182 -0.002369 0.000000 0.000000 0.000000
# 2 -0.002182 0.011255 -0.004777 0.000000 0.000000 0.000000
# 3 -0.002369 -0.004777 0.011822 0.000000 0.000000 0.000000
# 4 0.000000 0.000000 0.000000 0.043831 0.000000 0.000000
# 5 0.000000 0.000000 0.000000 0.000000 0.060656 0.000000
# 6 0.000000 0.000000 0.000000 0.000000 0.000000 0.125704
#
#
# Mechanical properties :
#
#
# Convention : Reuss Voigt Hill
#
# Bulk Modulus (GPa) = 60.89387 62.59995 61.74691
# Shear Modulus (GPa) = 17.27696 23.32061 20.29878
#
# Velocity S-wave (km/s) = 3.00734 3.49396 3.25974
# Velocity P-wave (km/s) = 6.62837 7.00333 6.81843
#
# Compressibility (1/GPa) = 0.01642201
#
# Stress axis : x y z
#
# Youngs Moduli (GPa) = 83.31179 88.85009 84.59110
#
# Poissons Ratio (x) = 0.19390 0.20042
# Poissons Ratio (y) = 0.18181 0.40411
# Poissons Ratio (z) = 0.19739 0.42445
#
# Static dielectric constant tensor:
#      x y z
#    x 3.747640 0.000000 0.000000 
#    y 0.000000 3.414380 0.000000 
#    z 0.000000 0.000000 3.422000 
# 
# 
# High freq. dielectric constant tensor:
#      x y z
#    x 1.759840 0.000000 0.000000 
#    y 0.000000 1.719810 0.000000 
#    z 0.000000 0.000000 1.736820 
# 
# From -- ./inp_files/9559.got.cif
#   From: 2010.03.12/outbox.cif.g09.slc.cpg/sg59_5_cif.got.tgz:9559.got - 2010.04.16 16:29:54.
