data_PCOD8245899
_publ_section_title
;
Structure prediction by ZEFSAII (Michael W. Deem and Ramdas Pophale) SiO2 
 PCOD8245899
Probable space group: P M M N
;
_chemical_formula_sum "Si O2"
_cell_formula_units_Z 38
_cell_length_a 9.154228
_cell_length_b 11.491232
_cell_length_c 17.057054
_cell_angle_alpha 90.000000
_cell_angle_beta 90.000000
_cell_angle_gamma 90.000000
_cell_volume 1794.288783
_symmetry_space_group_name_H-M "P M M N"
_symmetry_group_IT_number 59
_space_group.IT_coordinate_system_code '2'
_symmetry_cell_setting 'orthorhombic'
loop_
_space_group_symop_operation_xyz
x,y,z
1/2-x,1/2-y,z
1/2+x,-y,-z
-x,1/2+y,-z
-x,-y,-z
1/2+x,1/2+y,-z
1/2-x,y,z
x,1/2-y,z
loop_
_atom_site_type_symbol
_atom_site_label
_atom_site_fract_x
_atom_site_fract_y
_atom_site_fract_z
Si Si1 0.250000 0.112181 0.926076
Si Si2 0.997376 0.523467 0.183614
Si Si3 0.750000 0.612976 0.894788
Si Si4 0.918320 0.250000 0.733822
Si Si5 0.250000 0.120910 0.401695
Si Si6 0.750000 0.989618 0.437483
Si Si7 0.451655 0.617426 0.671434
Si Si8 0.750000 0.750000 0.349657
O O1 0.250000 0.250000 0.916951
O O2 0.391435 0.060977 0.885146
O O3 0.250000 0.070035 0.015504
O O4 0.106488 0.430132 0.148340
O O5 0.085691 0.634882 0.214177
O O6 0.906449 0.460095 0.253667
O O7 0.750000 0.750000 0.890224
O O8 0.750000 0.250000 0.691012
O O9 0.085926 0.250000 0.693218
O O10 0.250000 0.250000 0.440736
O O11 0.250000 0.021499 0.468343
O O12 0.377652 0.106582 0.339778
O O13 0.750000 0.861931 0.402968
O O14 0.611881 0.063661 0.408677
O O15 0.397782 0.750000 0.682597
#
# Coordination Sequence:
#
# PCOD8245899 Si02
#       8
#     4   8   4   4   4   4   8   2
#     4  11  24  42  68  97 130 172 220 282 355 414
#     4  12  22  42  69  94 132 172 225 280 337 410
#     4  11  25  43  63  94 134 176 220 275 350 418
#     4  12  24  42  70 106 134 174 236 290 338 402
#     4  10  23  42  64  91 128 171 219 273 343 404
#     4  12  22  42  66  90 136 168 225 273 343 406
#     4  11  24  40  65  95 127 172 218 273 335 406
#     4  12  24  42  70 104 132 186 222 294 354 392
#
# _framework density 21.178307
#
# number of rings (size 3 to 8) (size 9 to 14) (size 15 to 20)
#    0.000    0.632    4.737    4.105    0.000    0.842 
#    0.000    1.579    4.632    0.000    0.000    0.000 
#    0.000    0.000    0.000    0.000    0.000    0.000 
#
# Total GULP energy -470749.977224 kJ/mol
# GULP energy per Si atom -12388.157295 kJ/mol
# Density = 2.113010 g / cm^3
# Si number density = 21.178307 Si / 1000 Ang^3
#
#
#
# Elastic Constant Matrix: (Units=GPa)
#
#
# Indices 1 2 3 4 5 6 
#
# 1 120.1169 6.8098 8.2524 0.0000 0.0000 0.0000
# 2 6.8098 112.3768 31.3270 0.0000 0.0000 0.0000
# 3 8.2524 31.3270 84.4915 0.0000 0.0000 0.0000
# 4 0.0000 0.0000 0.0000 29.2857 0.0000 0.0000
# 5 0.0000 0.0000 0.0000 0.0000 223.6032 0.0000
# 6 0.0000 0.0000 0.0000 0.0000 0.0000 35.7697
#
#
#
# Elastic Compliance Matrix: (Units=1/GPa)
#
#
# Indices 1 2 3 4 5 6 
#
# 1 0.008391 -0.000312 -0.000704 0.000000 0.000000 0.000000
# 2 -0.000312 0.009936 -0.003653 0.000000 0.000000 0.000000
# 3 -0.000704 -0.003653 0.013259 0.000000 0.000000 0.000000
# 4 0.000000 0.000000 0.000000 0.034146 0.000000 0.000000
# 5 0.000000 0.000000 0.000000 0.000000 0.004472 0.000000
# 6 0.000000 0.000000 0.000000 0.000000 0.000000 0.027957
#
#
# Mechanical properties :
#
#
# Convention : Reuss Voigt Hill
#
# Bulk Modulus (GPa) = 44.94984 45.52926 45.23955
# Shear Modulus (GPa) = 43.50999 75.77147 59.64073
#
# Velocity S-wave (km/s) = 4.53753 5.98795 5.31247
# Velocity P-wave (km/s) = 6.98017 8.32779 7.68358
#
# Compressibility (1/GPa) = 0.02224702
#
# Stress axis : x y z
#
# Youngs Moduli (GPa) = 119.17131 100.64384 75.42125
#
# Poissons Ratio (x) = 0.03143 0.05308
# Poissons Ratio (y) = 0.03722 0.27555
# Poissons Ratio (z) = 0.08387 0.36770
#
# Static dielectric constant tensor:
#      x y z
#    x 4.261380 0.000000 0.000000 
#    y 0.000000 4.041720 0.000000 
#    z 0.000000 0.000000 3.747660 
# 
# 
# High freq. dielectric constant tensor:
#      x y z
#    x 1.848940 0.000000 0.000000 
#    y 0.000000 1.847750 0.000000 
#    z 0.000000 0.000000 1.818830 
# 
# From -- ./inp_files/25306.got.cif
#   From: 2010.03.12/outbox.cif.g09.slc.cpg/sg59_13_cif.got.tgz:25306.got - 2010.04.16 16:29:54.
