data_PCOD8245358
_publ_section_title
;
Structure prediction by ZEFSAII (Michael W. Deem and Ramdas Pophale) SiO2 
 PCOD8245358
Probable space group: P M M N
;
_chemical_formula_sum "Si O2"
_cell_formula_units_Z 48
_cell_length_a 8.717465
_cell_length_b 19.042198
_cell_length_c 14.939863
_cell_angle_alpha 90.000000
_cell_angle_beta 90.000000
_cell_angle_gamma 90.000000
_cell_volume 2480.012695
_symmetry_space_group_name_H-M "P M M N"
_symmetry_group_IT_number 59
_space_group.IT_coordinate_system_code '2'
_symmetry_cell_setting 'orthorhombic'
loop_
_space_group_symop_operation_xyz
x,y,z
1/2-x,1/2-y,z
1/2+x,-y,-z
-x,1/2+y,-z
-x,-y,-z
1/2+x,1/2+y,-z
1/2-x,y,z
x,1/2-y,z
loop_
_atom_site_type_symbol
_atom_site_label
_atom_site_fract_x
_atom_site_fract_y
_atom_site_fract_z
Si Si1 0.070068 0.929988 0.540731
Si Si2 0.427042 0.169565 0.113849
Si Si3 0.570544 0.936857 0.732023
Si Si4 0.927165 0.331654 0.928437
Si Si5 0.929254 0.917361 0.227194
Si Si6 0.070249 0.169514 0.598670
O O1 0.250000 0.938287 0.535480
O O2 0.021305 0.919961 0.642579
O O3 0.017902 0.862066 0.485807
O O4 0.000000 0.000000 0.500000
O O5 0.250000 0.157136 0.088291
O O6 0.457593 0.250000 0.141112
O O7 0.477281 0.122286 0.197081
O O8 0.529676 0.147320 0.029382
O O9 0.750000 0.935216 0.710466
O O10 0.526316 0.011792 0.772511
O O11 0.750000 0.349798 0.911260
O O12 0.962422 0.250000 0.912035
O O13 0.033749 0.375376 0.862419
O O14 0.750000 0.935397 0.230528
O O15 0.979504 0.870911 0.311917
O O16 0.250000 0.162010 0.580775
O O17 0.020369 0.250000 0.609922
#
# Coordination Sequence:
#
# PCOD8245358 Si02
#       6
#     8   8   8   8   8   8
#     4  12  24  40  62  87 119 160 201 243 297 357
#     4   9  20  40  63  86 115 154 200 246 295 354
#     4  11  23  39  62  90 119 155 198 249 303 356
#     4  10  21  37  59  87 120 157 197 246 300 351
#     4  11  22  37  60  88 120 160 200 242 296 359
#     4  10  22  40  62  89 120 156 200 249 299 353
#
# _framework density 19.35474
#
# number of rings (size 3 to 8) (size 9 to 14) (size 15 to 20)
#    0.000    1.500    1.667    3.500    0.000    5.333 
#    0.000    1.667    0.000    0.000    0.000    0.000 
#    0.000    0.000    0.000    0.000    0.000    0.000 
#
# Total GULP energy -595519.423657 kJ/mol
# GULP energy per Si atom -12406.654660 kJ/mol
# Density = 1.931069 g / cm^3
# Si number density = 19.354740 Si / 1000 Ang^3
#
#
#
# Elastic Constant Matrix: (Units=GPa)
#
#
# Indices 1 2 3 4 5 6 
#
# 1 58.8148 37.8811 28.1948 0.0000 0.0000 0.0000
# 2 37.8811 111.3483 64.3570 0.0000 0.0000 0.0000
# 3 28.1948 64.3570 119.5687 0.0000 0.0000 0.0000
# 4 0.0000 0.0000 0.0000 40.1943 0.0000 0.0000
# 5 0.0000 0.0000 0.0000 0.0000 34.0008 0.0000
# 6 0.0000 0.0000 0.0000 0.0000 0.0000 26.3453
#
#
#
# Elastic Compliance Matrix: (Units=1/GPa)
#
#
# Indices 1 2 3 4 5 6 
#
# 1 0.022004 -0.006513 -0.001683 0.000000 0.000000 0.000000
# 2 -0.006513 0.014964 -0.006519 0.000000 0.000000 0.000000
# 3 -0.001683 -0.006519 0.012269 0.000000 0.000000 0.000000
# 4 0.000000 0.000000 0.000000 0.024879 0.000000 0.000000
# 5 0.000000 0.000000 0.000000 0.000000 0.029411 0.000000
# 6 0.000000 0.000000 0.000000 0.000000 0.000000 0.037957
#
#
# Mechanical properties :
#
#
# Convention : Reuss Voigt Hill
#
# Bulk Modulus (GPa) = 50.48508 61.17750 55.83129
# Shear Modulus (GPa) = 28.16629 30.72801 29.44715
#
# Velocity S-wave (km/s) = 3.81893 3.98882 3.90480
# Velocity P-wave (km/s) = 6.75177 7.27265 7.01704
#
# Compressibility (1/GPa) = 0.01980783
#
# Stress axis : x y z
#
# Youngs Moduli (GPa) = 45.44558 66.82593 81.50734
#
# Poissons Ratio (x) = 0.43525 0.13718
# Poissons Ratio (y) = 0.29600 0.53131
# Poissons Ratio (z) = 0.07649 0.43561
#
# Static dielectric constant tensor:
#      x y z
#    x 3.572740 0.000000 0.000000 
#    y 0.000000 3.630460 0.000000 
#    z 0.000000 0.000000 3.627820 
# 
# 
# High freq. dielectric constant tensor:
#      x y z
#    x 1.758630 0.000000 0.000000 
#    y 0.000000 1.757460 0.000000 
#    z 0.000000 0.000000 1.762540 
# 
# From -- ./inp_files/20418.got.cif
#   From: 2010.03.12/outbox.cif.g09.slc.cpg/sg59_11_cif.got.tgz:20418.got - 2010.04.16 16:29:54.
