data_PCOD8245376
_publ_section_title
;
Structure prediction by ZEFSAII (Michael W. Deem and Ramdas Pophale) SiO2 
 PCOD8245376
Probable space group: P M M N
;
_chemical_formula_sum "Si O2"
_cell_formula_units_Z 64
_cell_length_a 30.618422
_cell_length_b 8.686940
_cell_length_c 11.947547
_cell_angle_alpha 90.000000
_cell_angle_beta 90.000000
_cell_angle_gamma 90.000000
_cell_volume 3177.813268
_symmetry_space_group_name_H-M "P M M N"
_symmetry_group_IT_number 59
_space_group.IT_coordinate_system_code '2'
_symmetry_cell_setting 'orthorhombic'
loop_
_space_group_symop_operation_xyz
x,y,z
1/2-x,1/2-y,z
1/2+x,-y,-z
-x,1/2+y,-z
-x,-y,-z
1/2+x,1/2+y,-z
1/2-x,y,z
x,1/2-y,z
loop_
_atom_site_type_symbol
_atom_site_label
_atom_site_fract_x
_atom_site_fract_y
_atom_site_fract_z
Si Si1 0.918429 0.427106 0.505266
Si Si2 0.326540 0.430154 0.504639
Si Si3 0.376595 0.069205 0.856982
Si Si4 0.547402 0.070995 0.746849
Si Si5 0.542878 0.427043 0.271093
Si Si6 0.876632 0.932003 0.888952
Si Si7 0.298465 0.433059 0.261096
Si Si8 0.799411 0.074015 0.272127
O O1 0.902347 0.250000 0.509213
O O2 0.877913 0.539081 0.485173
O O3 0.942050 0.475923 0.619515
O O4 0.952116 0.452803 0.404056
O O5 0.317512 0.250000 0.520263
O O6 0.309343 0.491774 0.385626
O O7 0.300725 0.522156 0.599168
O O8 0.385910 0.250000 0.849625
O O9 0.413571 0.979227 0.790722
O O10 0.329724 0.033821 0.803369
O O11 0.376148 0.008474 0.984140
O O12 0.553618 0.250000 0.768418
O O13 0.497838 0.024689 0.773932
O O14 0.578907 0.982479 0.830706
O O15 0.533982 0.250000 0.242840
O O16 0.873979 0.750000 0.885494
O O17 0.834388 0.001948 0.824372
O O18 0.250000 0.490683 0.226408
O O19 0.300528 0.250000 0.259723
O O20 0.750000 0.056968 0.228048
O O21 0.815602 0.250000 0.263388
#
# Coordination Sequence:
#
# PCOD8245376 Si02
#       8
#     8   8   8   8   8   8   8   8
#     4  10  21  37  59  89 123 158 193 239 300 361
#     4  11  20  33  61  92 122 157 196 244 294 354
#     4  11  24  41  63  89 117 155 206 256 299 350
#     4  11  23  39  62  91 123 156 198 246 295 358
#     4  11  23  40  63  88 121 160 197 242 303 362
#     4  10  22  41  62  86 118 157 202 251 302 353
#     4   9  18  34  58  89 121 153 191 239 296 351
#     4  11  24  41  61  87 124 164 199 242 299 359
#
# _framework density 20.139635999999999
#
# number of rings (size 3 to 8) (size 9 to 14) (size 15 to 20)
#    0.000    1.500    2.500    2.625    0.000    4.500 
#    0.000    1.250    0.000    1.125    0.000    0.000 
#    0.000    0.000    0.000    0.000    0.000    0.000 
#
# Total GULP energy -793887.795487 kJ/mol
# GULP energy per Si atom -12404.496804 kJ/mol
# Density = 2.009380 g / cm^3
# Si number density = 20.139636 Si / 1000 Ang^3
#
#
#
# Elastic Constant Matrix: (Units=GPa)
#
#
# Indices 1 2 3 4 5 6 
#
# 1 106.4318 1.7441 36.2185 0.0000 0.0000 0.0000
# 2 1.7441 17.3925 16.6101 0.0000 0.0000 0.0000
# 3 36.2185 16.6101 130.8457 0.0000 0.0000 0.0000
# 4 0.0000 0.0000 0.0000 21.2838 0.0000 0.0000
# 5 0.0000 0.0000 0.0000 0.0000 9.2724 0.0000
# 6 0.0000 0.0000 0.0000 0.0000 0.0000 27.0572
#
#
#
# Elastic Compliance Matrix: (Units=1/GPa)
#
#
# Indices 1 2 3 4 5 6 
#
# 1 0.010430 0.001947 -0.003134 0.000000 0.000000 0.000000
# 2 0.001947 0.065792 -0.008891 0.000000 0.000000 0.000000
# 3 -0.003134 -0.008891 0.009639 0.000000 0.000000 0.000000
# 4 0.000000 0.000000 0.000000 0.046984 0.000000 0.000000
# 5 0.000000 0.000000 0.000000 0.000000 0.107847 0.000000
# 6 0.000000 0.000000 0.000000 0.000000 0.000000 0.036959
#
#
# Mechanical properties :
#
#
# Convention : Reuss Voigt Hill
#
# Bulk Modulus (GPa) = 15.21946 40.42394 27.82170
# Shear Modulus (GPa) = 15.63923 24.86249 20.25086
#
# Velocity S-wave (km/s) = 2.78967 3.51736 3.17444
# Velocity P-wave (km/s) = 4.23671 6.05072 5.22307
#
# Compressibility (1/GPa) = 0.06570534
#
# Stress axis : x y z
#
# Youngs Moduli (GPa) = 95.87362 15.19944 103.74678
#
# Poissons Ratio (x) = -0.02960 0.32518
# Poissons Ratio (y) = -0.18671 0.92241
# Poissons Ratio (z) = 0.30050 0.13514
#
# Static dielectric constant tensor:
#      x y z
#    x 3.691340 0.000000 0.000000 
#    y 0.000000 3.500860 0.000000 
#    z 0.000000 0.000000 3.818570 
# 
# 
# High freq. dielectric constant tensor:
#      x y z
#    x 1.795810 0.000000 0.000000 
#    y 0.000000 1.775130 0.000000 
#    z 0.000000 0.000000 1.786630 
# 
# From -- ./inp_files/14974.got.cif
#   From: 2010.03.12/outbox.cif.g09.slc.cpg/sg59_8_cif.got.tgz:14974.got - 2010.04.16 16:29:54.
