data_PCOD8245595
_publ_section_title
;
Structure prediction by ZEFSAII (Michael W. Deem and Ramdas Pophale) SiO2 
 PCOD8245595
Probable space group: P M M N
;
_chemical_formula_sum "Si O2"
_cell_formula_units_Z 48
_cell_length_a 14.485527
_cell_length_b 16.246804
_cell_length_c 9.715762
_cell_angle_alpha 90.000000
_cell_angle_beta 90.000000
_cell_angle_gamma 90.000000
_cell_volume 2286.541609
_symmetry_space_group_name_H-M "P M M N"
_symmetry_group_IT_number 59
_space_group.IT_coordinate_system_code '2'
_symmetry_cell_setting 'orthorhombic'
loop_
_space_group_symop_operation_xyz
x,y,z
1/2-x,1/2-y,z
1/2+x,-y,-z
-x,1/2+y,-z
-x,-y,-z
1/2+x,1/2+y,-z
1/2-x,y,z
x,1/2-y,z
loop_
_atom_site_type_symbol
_atom_site_label
_atom_site_fract_x
_atom_site_fract_y
_atom_site_fract_z
Si Si1 0.250000 0.843565 0.511990
Si Si2 0.571050 0.591839 0.383892
Si Si3 0.555207 0.432329 0.085412
Si Si4 0.064494 0.906036 0.612722
Si Si5 0.250000 0.155351 0.756418
Si Si6 0.055438 0.840760 0.167351
Si Si7 0.750000 0.408716 0.774149
Si Si8 0.250000 0.005658 0.958653
O O1 0.250000 0.750000 0.452688
O O2 0.158196 0.853143 0.604834
O O3 0.250000 0.915340 0.392778
O O4 0.513276 0.632012 0.510379
O O5 0.593099 0.498904 0.428289
O O6 0.663249 0.640237 0.344008
O O7 0.504921 0.592210 0.249567
O O8 0.518730 0.407873 0.235685
O O9 0.500000 0.500000 0.000000
O O10 0.542371 0.349893 0.996084
O O11 0.660940 0.461103 0.103812
O O12 0.250000 0.250000 0.806724
O O13 0.250000 0.099205 0.896685
O O14 0.024436 0.750000 0.214260
O O15 0.162347 0.853982 0.193270
O O16 0.750000 0.492790 0.871360
#
# Coordination Sequence:
#
# PCOD8245595 Si02
#       8
#     4   8   8   8   4   8   4   4
#     4  12  24  40  67 100 140 173 209 273 346 403
#     4  11  23  39  64  93 125 172 220 269 321 394
#     4  11  21  40  63  92 131 167 216 269 319 390
#     4  11  23  40  65  95 131 168 218 268 328 401
#     4  12  23  41  64  93 129 174 230 282 325 381
#     4  11  21  38  62  94 128 168 211 260 328 389
#     4  10  22  37  64  95 134 170 202 266 320 400
#     4  10  21  38  63  94 129 167 221 269 317 396
#
# _framework density 20.992401000000001
#
# number of rings (size 3 to 8) (size 9 to 14) (size 15 to 20)
#    0.000    1.000    5.000    2.250    0.000    1.333 
#    0.000    0.833    0.000    0.000    0.000    8.167 
#    0.000    0.000    0.000    0.000    0.000    0.000 
#
# Total GULP energy -594707.207809 kJ/mol
# GULP energy per Si atom -12389.733496 kJ/mol
# Density = 2.094462 g / cm^3
# Si number density = 20.992401 Si / 1000 Ang^3
#
#
#
# Elastic Constant Matrix: (Units=GPa)
#
#
# Indices 1 2 3 4 5 6 
#
# 1 123.5492 32.1806 51.9621 0.0000 0.0000 0.0000
# 2 32.1806 89.2142 30.2807 0.0000 0.0000 0.0000
# 3 51.9621 30.2807 157.5395 0.0000 0.0000 0.0000
# 4 0.0000 0.0000 0.0000 26.1413 0.0000 0.0000
# 5 0.0000 0.0000 0.0000 0.0000 31.1022 0.0000
# 6 0.0000 0.0000 0.0000 0.0000 0.0000 19.2859
#
#
#
# Elastic Compliance Matrix: (Units=1/GPa)
#
#
# Indices 1 2 3 4 5 6 
#
# 1 0.009950 -0.002648 -0.002773 0.000000 0.000000 0.000000
# 2 -0.002648 0.012696 -0.001567 0.000000 0.000000 0.000000
# 3 -0.002773 -0.001567 0.007563 0.000000 0.000000 0.000000
# 4 0.000000 0.000000 0.000000 0.038254 0.000000 0.000000
# 5 0.000000 0.000000 0.000000 0.000000 0.032152 0.000000
# 6 0.000000 0.000000 0.000000 0.000000 0.000000 0.051851
#
#
# Mechanical properties :
#
#
# Convention : Reuss Voigt Hill
#
# Bulk Modulus (GPa) = 61.59973 66.57217 64.08595
# Shear Modulus (GPa) = 29.09469 32.36453 30.72961
#
# Velocity S-wave (km/s) = 3.72689 3.93074 3.83017
# Velocity P-wave (km/s) = 6.92294 7.23756 7.08200
#
# Compressibility (1/GPa) = 0.01623384
#
# Stress axis : x y z
#
# Youngs Moduli (GPa) = 100.50421 78.76540 132.21601
#
# Poissons Ratio (x) = 0.20856 0.36662
# Poissons Ratio (y) = 0.26612 0.20717
# Poissons Ratio (z) = 0.27868 0.12342
#
# Static dielectric constant tensor:
#      x y z
#    x 3.733260 0.000000 0.000000 
#    y 0.000000 3.619510 0.000000 
#    z 0.000000 0.000000 4.069750 
# 
# 
# High freq. dielectric constant tensor:
#      x y z
#    x 1.829710 0.000000 0.000000 
#    y 0.000000 1.793520 0.000000 
#    z 0.000000 0.000000 1.826560 
# 
# From -- ./inp_files/9090.got.cif
#   From: 2010.03.12/outbox.cif.g09.slc.cpg/sg59_5_cif.got.tgz:9090.got - 2010.04.16 16:29:54.
