data_PCOD8245687
_publ_section_title
;
Structure prediction by ZEFSAII (Michael W. Deem and Ramdas Pophale) SiO2 
 PCOD8245687
Probable space group: P M M N
;
_chemical_formula_sum "Si O2"
_cell_formula_units_Z 56
_cell_length_a 20.392061
_cell_length_b 8.972094
_cell_length_c 14.712383
_cell_angle_alpha 90.000000
_cell_angle_beta 90.000000
_cell_angle_gamma 90.000000
_cell_volume 2691.770063
_symmetry_space_group_name_H-M "P M M N"
_symmetry_group_IT_number 59
_space_group.IT_coordinate_system_code '2'
_symmetry_cell_setting 'orthorhombic'
loop_
_space_group_symop_operation_xyz
x,y,z
1/2-x,1/2-y,z
1/2+x,-y,-z
-x,1/2+y,-z
-x,-y,-z
1/2+x,1/2+y,-z
1/2-x,y,z
x,1/2-y,z
loop_
_atom_site_type_symbol
_atom_site_label
_atom_site_fract_x
_atom_site_fract_y
_atom_site_fract_z
Si Si1 0.440861 0.574759 0.849087
Si Si2 0.934856 0.586359 0.493293
Si Si3 0.250000 0.577006 0.434021
Si Si4 0.858003 0.913207 0.669684
Si Si5 0.750000 0.926518 0.368507
Si Si6 0.673354 0.072587 0.016803
Si Si7 0.874773 0.425128 0.331934
Si Si8 0.088241 0.426028 0.135687
O O1 0.442894 0.750000 0.861761
O O2 0.429890 0.534526 0.742765
O O3 0.512854 0.513637 0.880357
O O4 0.377650 0.513627 0.905391
O O5 0.941867 0.750000 0.447553
O O6 0.914056 0.607043 0.596134
O O7 0.888370 0.483969 0.432838
O O8 0.000000 0.500000 0.500000
O O9 0.250000 0.750000 0.459691
O O10 0.189588 0.538570 0.368849
O O11 0.250000 0.483695 0.527097
O O12 0.823654 0.750000 0.683610
O O13 0.891819 0.966865 0.762025
O O14 0.750000 0.750000 0.374592
O O15 0.691116 0.988028 0.306815
O O16 0.750000 0.018629 0.030541
O O17 0.673182 0.250000 0.012365
O O18 0.642540 0.008424 0.924648
O O19 0.861526 0.250000 0.335943
O O20 0.091389 0.250000 0.116730
#
# Coordination Sequence:
#
# PCOD8245687 Si02
#       8
#     8   8   4   8   4   8   8   8
#     4   9  20  40  66  92 121 160 205 254 312 376
#     4  11  22  37  58  84 121 163 203 252 307 366
#     4  12  24  38  60  87 116 159 212 257 300 360
#     4  10  22  39  59  83 120 162 199 249 313 366
#     4  12  24  40  58  85 126 167 204 251 316 372
#     4  10  22  40  63  92 126 161 199 252 312 370
#     4  11  22  38  63  91 118 156 211 259 305 372
#     4  10  21  40  65  91 120 161 207 252 308 373
#
# _framework density 20.804154
#
# number of rings (size 3 to 8) (size 9 to 14) (size 15 to 20)
#    0.000    1.571    1.429    3.429    2.000    3.714 
#    0.000    4.286    0.000    0.000    0.000    0.000 
#    0.000    0.000    0.000    0.000    0.000    0.000 
#
# Total GULP energy -693809.878171 kJ/mol
# GULP energy per Si atom -12389.462110 kJ/mol
# Density = 2.075680 g / cm^3
# Si number density = 20.804154 Si / 1000 Ang^3
#
#
#
# Elastic Constant Matrix: (Units=GPa)
#
#
# Indices 1 2 3 4 5 6 
#
# 1 129.5946 33.9753 27.1826 0.0000 0.0000 0.0000
# 2 33.9753 92.6376 21.8579 0.0000 0.0000 0.0000
# 3 27.1826 21.8579 91.1471 0.0000 0.0000 0.0000
# 4 0.0000 0.0000 0.0000 22.9061 0.0000 0.0000
# 5 0.0000 0.0000 0.0000 0.0000 29.6002 0.0000
# 6 0.0000 0.0000 0.0000 0.0000 0.0000 33.8301
#
#
#
# Elastic Compliance Matrix: (Units=1/GPa)
#
#
# Indices 1 2 3 4 5 6 
#
# 1 0.008860 -0.002784 -0.001975 0.000000 0.000000 0.000000
# 2 -0.002784 0.012317 -0.002124 0.000000 0.000000 0.000000
# 3 -0.001975 -0.002124 0.012069 0.000000 0.000000 0.000000
# 4 0.000000 0.000000 0.000000 0.043656 0.000000 0.000000
# 5 0.000000 0.000000 0.000000 0.000000 0.033784 0.000000
# 6 0.000000 0.000000 0.000000 0.000000 0.000000 0.029559
#
#
# Mechanical properties :
#
#
# Convention : Reuss Voigt Hill
#
# Bulk Modulus (GPa) = 51.32796 53.26788 52.29792
# Shear Modulus (GPa) = 31.15184 32.62485 31.88835
#
# Velocity S-wave (km/s) = 3.87380 3.96433 3.91933
# Velocity P-wave (km/s) = 6.68835 6.82749 6.75828
#
# Compressibility (1/GPa) = 0.01948256
#
# Stress axis : x y z
#
# Youngs Moduli (GPa) = 112.86212 81.19060 82.85360
#
# Poissons Ratio (x) = 0.22600 0.16363
# Poissons Ratio (y) = 0.31416 0.17594
# Poissons Ratio (z) = 0.22289 0.17241
#
# Static dielectric constant tensor:
#      x y z
#    x 4.086490 0.000000 0.000000 
#    y 0.000000 3.800230 0.000000 
#    z 0.000000 0.000000 3.601670 
# 
# 
# High freq. dielectric constant tensor:
#      x y z
#    x 1.829900 0.000000 0.000000 
#    y 0.000000 1.795300 0.000000 
#    z 0.000000 0.000000 1.812890 
# 
# From -- ./inp_files/24360.got.cif
#   From: 2010.03.12/outbox.cif.g09.slc.cpg/sg59_13_cif.got.tgz:24360.got - 2010.04.16 16:29:54.
