data_PCOD8245059
_publ_section_title
;
Structure prediction by ZEFSAII (Michael W. Deem and Ramdas Pophale) SiO2 
 PCOD8245059
Probable space group: P M M N
;
_chemical_formula_sum "Si O2"
_cell_formula_units_Z 48
_cell_length_a 15.650833
_cell_length_b 9.005753
_cell_length_c 17.259540
_cell_angle_alpha 90.000000
_cell_angle_beta 90.000000
_cell_angle_gamma 90.000000
_cell_volume 2432.689640
_symmetry_space_group_name_H-M "P M M N"
_symmetry_group_IT_number 59
_space_group.IT_coordinate_system_code '2'
_symmetry_cell_setting 'orthorhombic'
loop_
_space_group_symop_operation_xyz
x,y,z
1/2-x,1/2-y,z
1/2+x,-y,-z
-x,1/2+y,-z
-x,-y,-z
1/2+x,1/2+y,-z
1/2-x,y,z
x,1/2-y,z
loop_
_atom_site_type_symbol
_atom_site_label
_atom_site_fract_x
_atom_site_fract_y
_atom_site_fract_z
Si Si1 0.151543 0.576324 0.804933
Si Si2 0.348901 0.086477 0.652236
Si Si3 0.999866 0.074447 0.082694
Si Si4 0.590273 0.075171 0.497094
Si Si5 0.348909 0.087847 0.357657
Si Si6 0.154056 0.073585 0.188035
O O1 0.250000 0.532500 0.825602
O O2 0.145130 0.750000 0.787372
O O3 0.115166 0.494795 0.728374
O O4 0.088562 0.529816 0.874548
O O5 0.250000 0.108682 0.665845
O O6 0.392090 0.250000 0.642164
O O7 0.360080 0.987123 0.576514
O O8 0.005690 0.250000 0.073030
O O9 0.083566 0.012707 0.127908
O O10 0.000000 0.000000 0.000000
O O11 0.583828 0.250000 0.489442
O O12 0.500000 0.000000 0.500000
O O13 0.636489 0.034149 0.576835
O O14 0.250000 0.116466 0.348121
O O15 0.391267 0.250000 0.378168
O O16 0.380074 0.027451 0.273940
O O17 0.250000 0.009785 0.169944
O O18 0.157837 0.250000 0.184373
#
# Coordination Sequence:
#
# PCOD8245059 Si02
#       6
#     8   8   8   8   8   8
#     4   9  19  36  57  82 113 150 190 232 282 339
#     4  10  21  38  59  83 112 147 188 234 284 336
#     4  10  21  36  56  83 112 146 184 228 283 341
#     4  12  25  37  52  79 114 151 191 234 280 330
#     4   9  18  35  58  81 107 142 185 234 285 334
#     4   8  16  33  57  82 108 142 185 229 276 334
#
# _framework density 19.731247
#
# number of rings (size 3 to 8) (size 9 to 14) (size 15 to 20)
#    0.000    2.333    0.000    3.500    2.333    4.667 
#    0.000    0.833    0.000    1.000    0.000    0.000 
#    0.000    0.000    0.000    0.000    0.000    0.000 
#
# Total GULP energy -594920.898112 kJ/mol
# GULP energy per Si atom -12394.185377 kJ/mol
# Density = 1.968634 g / cm^3
# Si number density = 19.731247 Si / 1000 Ang^3
#
#
#
# Elastic Constant Matrix: (Units=GPa)
#
#
# Indices 1 2 3 4 5 6 
#
# 1 86.1889 29.9733 65.7205 0.0000 0.0000 0.0000
# 2 29.9733 91.0969 60.1271 0.0000 0.0000 0.0000
# 3 65.7205 60.1271 182.1918 0.0000 0.0000 0.0000
# 4 0.0000 0.0000 0.0000 32.1329 0.0000 0.0000
# 5 0.0000 0.0000 0.0000 0.0000 35.5562 0.0000
# 6 0.0000 0.0000 0.0000 0.0000 0.0000 18.5897
#
#
#
# Elastic Compliance Matrix: (Units=1/GPa)
#
#
# Indices 1 2 3 4 5 6 
#
# 1 0.016255 -0.001890 -0.005240 0.000000 0.000000 0.000000
# 2 -0.001890 0.014254 -0.004022 0.000000 0.000000 0.000000
# 3 -0.005240 -0.004022 0.008706 0.000000 0.000000 0.000000
# 4 0.000000 0.000000 0.000000 0.031121 0.000000 0.000000
# 5 0.000000 0.000000 0.000000 0.000000 0.028125 0.000000
# 6 0.000000 0.000000 0.000000 0.000000 0.000000 0.053793
#
#
# Mechanical properties :
#
#
# Convention : Reuss Voigt Hill
#
# Bulk Modulus (GPa) = 59.13235 74.56881 66.85058
# Shear Modulus (GPa) = 27.74764 30.83286 29.29025
#
# Velocity S-wave (km/s) = 3.75411 3.95731 3.85705
# Velocity P-wave (km/s) = 6.98749 7.66516 7.33416
#
# Compressibility (1/GPa) = 0.01691122
#
# Stress axis : x y z
#
# Youngs Moduli (GPa) = 61.51894 70.15529 114.85867
#
# Poissons Ratio (x) = 0.13258 0.60185
# Poissons Ratio (y) = 0.11626 0.46201
# Poissons Ratio (z) = 0.32235 0.28220
#
# Static dielectric constant tensor:
#      x y z
#    x 3.727630 0.000000 0.000000 
#    y 0.000000 3.626220 0.000000 
#    z 0.000000 0.000000 3.433970 
# 
# 
# High freq. dielectric constant tensor:
#      x y z
#    x 1.770130 0.000000 0.000000 
#    y 0.000000 1.748110 0.000000 
#    z 0.000000 0.000000 1.772060 
# 
# From -- ./inp_files/20463.got.cif
#   From: 2010.03.12/outbox.cif.g09.slc.cpg/sg59_11_cif.got.tgz:20463.got - 2010.04.16 16:29:54.
