data_PCOD8245787
_publ_section_title
;
Structure prediction by ZEFSAII (Michael W. Deem and Ramdas Pophale) SiO2 
 PCOD8245787
Probable space group: P M M N
;
_chemical_formula_sum "Si O2"
_cell_formula_units_Z 56
_cell_length_a 21.566637
_cell_length_b 9.248227
_cell_length_c 14.638730
_cell_angle_alpha 90.000000
_cell_angle_beta 90.000000
_cell_angle_gamma 90.000000
_cell_volume 2919.740878
_symmetry_space_group_name_H-M "P M M N"
_symmetry_group_IT_number 59
_space_group.IT_coordinate_system_code '2'
_symmetry_cell_setting 'orthorhombic'
loop_
_space_group_symop_operation_xyz
x,y,z
1/2-x,1/2-y,z
1/2+x,-y,-z
-x,1/2+y,-z
-x,-y,-z
1/2+x,1/2+y,-z
1/2-x,y,z
x,1/2-y,z
loop_
_atom_site_type_symbol
_atom_site_label
_atom_site_fract_x
_atom_site_fract_y
_atom_site_fract_z
Si Si1 0.678427 0.416347 0.273790
Si Si2 0.455114 0.415703 0.198761
Si Si3 0.321813 0.916464 0.517268
Si Si4 0.078007 0.415920 0.836234
Si Si5 0.250000 0.587176 0.046994
Si Si6 0.139975 0.083636 0.351898
Si Si7 0.372282 0.415981 0.031187
Si Si8 0.250000 0.586575 0.262648
O O1 0.750000 0.438806 0.247740
O O2 0.659047 0.250000 0.259969
O O3 0.666949 0.462688 0.378560
O O4 0.638843 0.516876 0.208636
O O5 0.472037 0.250000 0.176571
O O6 0.517105 0.507492 0.201020
O O7 0.425070 0.430613 0.299069
O O8 0.408250 0.474122 0.120670
O O9 0.250000 0.941155 0.489435
O O10 0.340152 0.750000 0.503084
O O11 0.365220 0.015547 0.453139
O O12 0.074547 0.250000 0.806834
O O13 0.081831 0.432981 0.945379
O O14 0.250000 0.750000 0.007657
O O15 0.311144 0.508142 0.010612
O O16 0.250000 0.587280 0.154915
O O17 0.160656 0.250000 0.359442
O O18 0.189487 0.995804 0.294283
O O19 0.351896 0.250000 0.046090
O O20 0.250000 0.750000 0.302046
#
# Coordination Sequence:
#
# PCOD8245787 Si02
#       8
#     8   8   8   8   4   8   8   4
#     4   9  20  40  63  85 114 151 189 234 290 345
#     4  10  22  40  59  80 114 158 194 228 279 346
#     4   9  18  34  57  85 116 150 186 232 289 340
#     4  11  24  39  60  86 112 148 195 244 288 331
#     4  11  23  35  55  88 117 150 193 237 280 332
#     4  11  21  33  56  87 116 152 191 229 282 341
#     4  10  22  40  59  82 118 155 188 235 291 338
#     4  11  21  33  51  80 119 154 187 233 280 330
#
# _framework density 19.179783
#
# number of rings (size 3 to 8) (size 9 to 14) (size 15 to 20)
#    0.000    1.857    2.143    2.571    1.000    4.286 
#    0.000    2.143    0.000    0.000    0.000    0.000 
#    0.000    0.000    0.000    0.000    0.000    0.000 
#
# Total GULP energy -694589.880955 kJ/mol
# GULP energy per Si atom -12403.390731 kJ/mol
# Density = 1.913613 g / cm^3
# Si number density = 19.179783 Si / 1000 Ang^3
#
#
#
# Elastic Constant Matrix: (Units=GPa)
#
#
# Indices 1 2 3 4 5 6 
#
# 1 85.3891 49.4275 24.9726 0.0000 0.0000 0.0000
# 2 49.4275 105.6411 35.0655 0.0000 0.0000 0.0000
# 3 24.9726 35.0655 73.5433 0.0000 0.0000 0.0000
# 4 0.0000 0.0000 0.0000 33.1135 0.0000 0.0000
# 5 0.0000 0.0000 0.0000 0.0000 19.6709 0.0000
# 6 0.0000 0.0000 0.0000 0.0000 0.0000 30.1979
#
#
#
# Elastic Compliance Matrix: (Units=1/GPa)
#
#
# Indices 1 2 3 4 5 6 
#
# 1 0.016373 -0.006908 -0.002266 0.000000 0.000000 0.000000
# 2 -0.006908 0.014161 -0.004406 0.000000 0.000000 0.000000
# 3 -0.002266 -0.004406 0.016468 0.000000 0.000000 0.000000
# 4 0.000000 0.000000 0.000000 0.030199 0.000000 0.000000
# 5 0.000000 0.000000 0.000000 0.000000 0.050837 0.000000
# 6 0.000000 0.000000 0.000000 0.000000 0.000000 0.033115
#
#
# Mechanical properties :
#
#
# Convention : Reuss Voigt Hill
#
# Bulk Modulus (GPa) = 50.40104 53.72276 52.06190
# Shear Modulus (GPa) = 25.65084 26.93698 26.29391
#
# Velocity S-wave (km/s) = 3.66100 3.75166 3.70661
# Velocity P-wave (km/s) = 6.64875 6.84379 6.74697
#
# Compressibility (1/GPa) = 0.01984086
#
# Stress axis : x y z
#
# Youngs Moduli (GPa) = 61.07757 70.61726 60.72546
#
# Poissons Ratio (x) = 0.48785 0.13758
# Poissons Ratio (y) = 0.42195 0.26756
# Poissons Ratio (z) = 0.13838 0.31114
#
# Static dielectric constant tensor:
#      x y z
#    x 3.266400 0.000000 0.000000 
#    y 0.000000 3.576140 0.000000 
#    z 0.000000 0.000000 3.576480 
# 
# 
# High freq. dielectric constant tensor:
#      x y z
#    x 1.729030 0.000000 0.000000 
#    y 0.000000 1.748620 0.000000 
#    z 0.000000 0.000000 1.753500 
# 
# From -- ./inp_files/21141.got.cif
#   From: 2010.03.12/outbox.cif.g09.slc.cpg/sg59_11_cif.got.tgz:21141.got - 2010.04.16 16:29:54.
