data_PCOD8245924
_publ_section_title
;
Structure prediction by ZEFSAII (Michael W. Deem and Ramdas Pophale) SiO2 
 PCOD8245924
Probable space group: P M M N
;
_chemical_formula_sum "Si O2"
_cell_formula_units_Z 48
_cell_length_a 17.611489
_cell_length_b 13.664462
_cell_length_c 11.902838
_cell_angle_alpha 90.000000
_cell_angle_beta 90.000000
_cell_angle_gamma 90.000000
_cell_volume 2864.436083
_symmetry_space_group_name_H-M "P M M N"
_symmetry_group_IT_number 59
_space_group.IT_coordinate_system_code '2'
_symmetry_cell_setting 'orthorhombic'
loop_
_space_group_symop_operation_xyz
x,y,z
1/2-x,1/2-y,z
1/2+x,-y,-z
-x,1/2+y,-z
-x,-y,-z
1/2+x,1/2+y,-z
1/2-x,y,z
x,1/2-y,z
loop_
_atom_site_type_symbol
_atom_site_label
_atom_site_fract_x
_atom_site_fract_y
_atom_site_fract_z
Si Si1 0.666975 0.133945 0.359239
Si Si2 0.339771 0.859246 0.392479
Si Si3 0.335091 0.362188 0.040924
Si Si4 0.495659 0.140212 0.953115
Si Si5 0.591681 0.001658 0.792731
Si Si6 0.968172 0.138356 0.211501
O O1 0.750000 0.087640 0.334837
O O2 0.674542 0.250000 0.358025
O O3 0.637145 0.102818 0.483127
O O4 0.610639 0.096964 0.261792
O O5 0.250000 0.856547 0.382712
O O6 0.372295 0.750000 0.370537
O O7 0.371413 0.932055 0.300570
O O8 0.250000 0.375895 0.988436
O O9 0.344061 0.250000 0.086256
O O10 0.343543 0.440856 0.141289
O O11 0.404209 0.380742 0.952846
O O12 0.511320 0.250000 0.909957
O O13 0.539393 0.065496 0.875204
O O14 0.529853 0.126613 0.077515
O O15 0.536276 0.923480 0.733287
O O16 0.979519 0.250000 0.248837
#
# Coordination Sequence:
#
# PCOD8245924 Si02
#       6
#     8   8   8   8   8   8
#     4   8  15  30  48  63  84 115 148 180 213 251
#     4   9  18  31  46  64  86 114 146 177 213 261
#     4   9  17  29  44  61  84 117 152 178 204 249
#     4   9  18  31  45  64  90 117 145 178 217 259
#     4  11  18  28  45  67  93 115 138 176 224 262
#     4   9  17  29  45  65  88 114 145 180 214 251
#
# _framework density 16.757224999999998
#
# number of rings (size 3 to 8) (size 9 to 14) (size 15 to 20)
#    0.000    2.833    0.000    5.500    0.000    0.667 
#    0.000    4.167    0.000    4.000    0.000    0.000 
#    0.000    4.000    0.000    0.333    0.000    0.000 
#
# Total GULP energy -594691.917965 kJ/mol
# GULP energy per Si atom -12389.414958 kJ/mol
# Density = 1.671909 g / cm^3
# Si number density = 16.757225 Si / 1000 Ang^3
#
#
#
# Elastic Constant Matrix: (Units=GPa)
#
#
# Indices 1 2 3 4 5 6 
#
# 1 77.9167 29.6617 39.4134 0.0000 0.0000 0.0000
# 2 29.6617 63.0512 22.2516 0.0000 0.0000 0.0000
# 3 39.4134 22.2516 52.1804 0.0000 0.0000 0.0000
# 4 0.0000 0.0000 0.0000 15.0591 0.0000 0.0000
# 5 0.0000 0.0000 0.0000 0.0000 23.1339 0.0000
# 6 0.0000 0.0000 0.0000 0.0000 0.0000 22.9664
#
#
#
# Elastic Compliance Matrix: (Units=1/GPa)
#
#
# Indices 1 2 3 4 5 6 
#
# 1 0.022192 -0.005326 -0.014491 0.000000 0.000000 0.000000
# 2 -0.005326 0.019948 -0.004484 0.000000 0.000000 0.000000
# 3 -0.014491 -0.004484 0.032022 0.000000 0.000000 0.000000
# 4 0.000000 0.000000 0.000000 0.066405 0.000000 0.000000
# 5 0.000000 0.000000 0.000000 0.000000 0.043227 0.000000
# 6 0.000000 0.000000 0.000000 0.000000 0.000000 0.043542
#
#
# Mechanical properties :
#
#
# Convention : Reuss Voigt Hill
#
# Bulk Modulus (GPa) = 39.12305 41.75576 40.43941
# Shear Modulus (GPa) = 17.57739 19.01999 18.29869
#
# Velocity S-wave (km/s) = 3.24225 3.37268 3.30811
# Velocity P-wave (km/s) = 6.11669 6.33552 6.22707
#
# Compressibility (1/GPa) = 0.02556038
#
# Stress axis : x y z
#
# Youngs Moduli (GPa) = 45.06161 50.13039 31.22868
#
# Poissons Ratio (x) = 0.26699 0.45254
# Poissons Ratio (y) = 0.23999 0.14002
# Poissons Ratio (z) = 0.65299 0.22477
#
# Static dielectric constant tensor:
#      x y z
#    x 3.397690 0.000000 0.000000 
#    y 0.000000 3.383520 0.000000 
#    z 0.000000 0.000000 3.034150 
# 
# 
# High freq. dielectric constant tensor:
#      x y z
#    x 1.649070 0.000000 0.000000 
#    y 0.000000 1.645700 0.000000 
#    z 0.000000 0.000000 1.612960 
# 
# From -- ./inp_files/17026.got.cif
#   From: 2010.03.12/outbox.cif.g09.slc.cpg/sg59_9_cif.got.tgz:17026.got - 2010.04.16 16:29:54.
