data_PCOD8245871
_publ_section_title
;
Structure prediction by ZEFSAII (Michael W. Deem and Ramdas Pophale) SiO2 
 PCOD8245871
Probable space group: P M M N
;
_chemical_formula_sum "Si O2"
_cell_formula_units_Z 56
_cell_length_a 19.443547
_cell_length_b 8.765983
_cell_length_c 15.969085
_cell_angle_alpha 90.000000
_cell_angle_beta 90.000000
_cell_angle_gamma 90.000000
_cell_volume 2721.799631
_symmetry_space_group_name_H-M "P M M N"
_symmetry_group_IT_number 59
_space_group.IT_coordinate_system_code '2'
_symmetry_cell_setting 'orthorhombic'
loop_
_space_group_symop_operation_xyz
x,y,z
1/2-x,1/2-y,z
1/2+x,-y,-z
-x,1/2+y,-z
-x,-y,-z
1/2+x,1/2+y,-z
1/2-x,y,z
x,1/2-y,z
loop_
_atom_site_type_symbol
_atom_site_label
_atom_site_fract_x
_atom_site_fract_y
_atom_site_fract_z
Si Si1 0.330488 0.423823 0.690939
Si Si2 0.081635 0.571537 0.830710
Si Si3 0.328538 0.927456 0.987585
Si Si4 0.460499 0.069871 0.422122
Si Si5 0.175681 0.429821 0.505076
Si Si6 0.544439 0.429717 0.753005
Si Si7 0.328415 0.070897 0.163176
O O1 0.250000 0.431905 0.710828
O O2 0.357445 0.250000 0.702313
O O3 0.370177 0.535108 0.752503
O O4 0.345646 0.488014 0.597579
O O5 0.066376 0.750000 0.832963
O O6 0.008856 0.484300 0.824387
O O7 0.120548 0.517421 0.914554
O O8 0.250000 0.959926 0.959520
O O9 0.338880 0.750000 0.008630
O O10 0.348043 0.023498 0.069223
O O11 0.473231 0.250000 0.418429
O O12 0.380235 0.027030 0.435624
O O13 0.500000 0.000000 0.500000
O O14 0.483506 0.994327 0.335363
O O15 0.250000 0.498524 0.477978
O O16 0.182782 0.250000 0.514475
O O17 0.546172 0.250000 0.748977
O O18 0.620815 0.490176 0.771644
O O19 0.250000 0.021068 0.183684
O O20 0.337827 0.250000 0.173268
#
# Coordination Sequence:
#
# PCOD8245871 Si02
#       7
#     8   8   8   8   8   8   8
#     4   9  17  31  53  82 117 155 193 234 286 349
#     4  11  22  36  56  84 119 156 198 245 290 343
#     4   9  19  37  61  89 121 156 191 232 288 349
#     4  11  22  38  61  87 117 153 195 243 295 352
#     4   8  16  32  54  79 106 140 183 231 283 338
#     4  12  26  42  60  84 117 157 198 243 298 353
#     4  10  22  42  67  92 117 148 192 244 294 349
#
# _framework density 20.574622999999999
#
# number of rings (size 3 to 8) (size 9 to 14) (size 15 to 20)
#    0.000    2.000    0.000    4.714    0.000    5.143 
#    0.000    3.571    0.000    3.000    0.000    0.000 
#    0.000    0.000    0.000    0.000    0.000    0.000 
#
# Total GULP energy -694469.252812 kJ/mol
# GULP energy per Si atom -12401.236657 kJ/mol
# Density = 2.052779 g / cm^3
# Si number density = 20.574623 Si / 1000 Ang^3
#
#
#
# Elastic Constant Matrix: (Units=GPa)
#
#
# Indices 1 2 3 4 5 6 
#
# 1 89.7658 44.0868 47.2002 0.0000 0.0000 0.0000
# 2 44.0868 94.3270 42.0163 0.0000 0.0000 0.0000
# 3 47.2002 42.0163 86.5296 0.0000 0.0000 0.0000
# 4 0.0000 0.0000 0.0000 33.5589 0.0000 0.0000
# 5 0.0000 0.0000 0.0000 0.0000 36.5063 0.0000
# 6 0.0000 0.0000 0.0000 0.0000 0.0000 30.9501
#
#
#
# Elastic Compliance Matrix: (Units=1/GPa)
#
#
# Indices 1 2 3 4 5 6 
#
# 1 0.017254 -0.004940 -0.007013 0.000000 0.000000 0.000000
# 2 -0.004940 0.014942 -0.004560 0.000000 0.000000 0.000000
# 3 -0.007013 -0.004560 0.017596 0.000000 0.000000 0.000000
# 4 0.000000 0.000000 0.000000 0.029798 0.000000 0.000000
# 5 0.000000 0.000000 0.000000 0.000000 0.027393 0.000000
# 6 0.000000 0.000000 0.000000 0.000000 0.000000 0.032310
#
#
# Mechanical properties :
#
#
# Convention : Reuss Voigt Hill
#
# Bulk Modulus (GPa) = 59.64802 59.69209 59.67006
# Shear Modulus (GPa) = 28.10429 29.35766 28.73097
#
# Velocity S-wave (km/s) = 3.69991 3.78151 3.74093
# Velocity P-wave (km/s) = 6.87797 6.93844 6.90827
#
# Compressibility (1/GPa) = 0.01676502
#
# Stress axis : x y z
#
# Youngs Moduli (GPa) = 57.95783 66.92608 56.82966
#
# Poissons Ratio (x) = 0.33065 0.39853
# Poissons Ratio (y) = 0.28634 0.25917
# Poissons Ratio (z) = 0.40644 0.30521
#
# Static dielectric constant tensor:
#      x y z
#    x 3.776250 0.000000 0.000000 
#    y 0.000000 3.560870 0.000000 
#    z 0.000000 0.000000 3.818240 
# 
# 
# High freq. dielectric constant tensor:
#      x y z
#    x 1.817540 0.000000 0.000000 
#    y 0.000000 1.789980 0.000000 
#    z 0.000000 0.000000 1.799960 
# 
# From -- ./inp_files/24273.got.cif
#   From: 2010.03.12/outbox.cif.g09.slc.cpg/sg59_13_cif.got.tgz:24273.got - 2010.04.16 16:29:54.
