data_PCOD8245455
_publ_section_title
;
Structure prediction by ZEFSAII (Michael W. Deem and Ramdas Pophale) SiO2 
 PCOD8245455
Probable space group: P M M N
;
_chemical_formula_sum "Si O2"
_cell_formula_units_Z 48
_cell_length_a 17.601082
_cell_length_b 8.819117
_cell_length_c 15.301387
_cell_angle_alpha 90.000000
_cell_angle_beta 90.000000
_cell_angle_gamma 90.000000
_cell_volume 2375.173121
_symmetry_space_group_name_H-M "P M M N"
_symmetry_group_IT_number 59
_space_group.IT_coordinate_system_code '2'
_symmetry_cell_setting 'orthorhombic'
loop_
_space_group_symop_operation_xyz
x,y,z
1/2-x,1/2-y,z
1/2+x,-y,-z
-x,1/2+y,-z
-x,-y,-z
1/2+x,1/2+y,-z
1/2-x,y,z
x,1/2-y,z
loop_
_atom_site_type_symbol
_atom_site_label
_atom_site_fract_x
_atom_site_fract_y
_atom_site_fract_z
Si Si1 0.335298 0.070587 0.184150
Si Si2 0.837278 0.076505 0.479688
Si Si3 0.917726 0.929409 0.989429
Si Si4 0.406921 0.074251 0.682989
Si Si5 0.081584 0.925990 0.345032
Si Si6 0.837983 0.074282 0.150253
O O1 0.250000 0.003410 0.180975
O O2 0.332297 0.250000 0.181707
O O3 0.381969 0.009463 0.100847
O O4 0.376146 0.020428 0.271757
O O5 0.750000 0.058682 0.507249
O O6 0.856431 0.250000 0.454492
O O7 0.887903 0.021179 0.560878
O O8 0.853361 0.970850 0.397149
O O9 0.925815 0.750000 0.989839
O O10 0.862055 0.978183 0.066673
O O11 0.000000 0.000000 0.000000
O O12 0.394381 0.250000 0.705310
O O13 0.492870 0.037589 0.656963
O O14 0.387054 0.975812 0.767137
O O15 0.099221 0.750000 0.328964
O O16 0.750000 0.043180 0.170541
O O17 0.854266 0.250000 0.131461
#
# Coordination Sequence:
#
# PCOD8245455 Si02
#       6
#     8   8   8   8   8   8
#     4  10  22  39  59  85 116 150 188 233 286 339
#     4  10  21  38  59  83 114 152 192 236 288 344
#     4  11  23  40  62  88 120 156 195 241 292 347
#     4  11  23  38  59  87 117 151 193 240 290 347
#     4  10  22  39  59  85 116 152 192 234 285 343
#     4  11  24  41  61  86 117 155 198 243 294 351
#
# _framework density 20.209053999999998
#
# number of rings (size 3 to 8) (size 9 to 14) (size 15 to 20)
#    0.000    1.500    0.000    4.500    0.000   11.333 
#    0.000    0.000    0.000    0.000    0.000    0.000 
#    0.000    0.000    0.000    0.000    0.000    0.000 
#
# Total GULP energy -595533.177283 kJ/mol
# GULP energy per Si atom -12406.941193 kJ/mol
# Density = 2.016306 g / cm^3
# Si number density = 20.209054 Si / 1000 Ang^3
#
#
#
# Elastic Constant Matrix: (Units=GPa)
#
#
# Indices 1 2 3 4 5 6 
#
# 1 83.4955 30.2926 17.8866 0.0000 0.0000 0.0000
# 2 30.2926 45.3114 21.9212 0.0000 0.0000 0.0000
# 3 17.8866 21.9212 99.9939 0.0000 0.0000 0.0000
# 4 0.0000 0.0000 0.0000 39.1659 0.0000 0.0000
# 5 0.0000 0.0000 0.0000 0.0000 43.6873 0.0000
# 6 0.0000 0.0000 0.0000 0.0000 0.0000 33.6878
#
#
#
# Elastic Compliance Matrix: (Units=1/GPa)
#
#
# Indices 1 2 3 4 5 6 
#
# 1 0.015841 -0.010313 -0.000573 0.000000 0.000000 0.000000
# 2 -0.010313 0.031403 -0.005039 0.000000 0.000000 0.000000
# 3 -0.000573 -0.005039 0.011208 0.000000 0.000000 0.000000
# 4 0.000000 0.000000 0.000000 0.025532 0.000000 0.000000
# 5 0.000000 0.000000 0.000000 0.000000 0.022890 0.000000
# 6 0.000000 0.000000 0.000000 0.000000 0.000000 0.029684
#
#
# Mechanical properties :
#
#
# Convention : Reuss Voigt Hill
#
# Bulk Modulus (GPa) = 37.59327 41.00017 39.29672
# Shear Modulus (GPa) = 28.20463 33.88823 31.04643
#
# Velocity S-wave (km/s) = 3.73988 4.09942 3.92377
# Velocity P-wave (km/s) = 6.10668 6.53751 6.32576
#
# Compressibility (1/GPa) = 0.02660050
#
# Stress axis : x y z
#
# Youngs Moduli (GPa) = 63.12683 31.84460 89.22361
#
# Poissons Ratio (x) = 0.32843 0.05109
# Poissons Ratio (y) = 0.65105 0.44963
# Poissons Ratio (z) = 0.03615 0.16048
#
# Static dielectric constant tensor:
#      x y z
#    x 3.921870 0.000000 0.000000 
#    y 0.000000 3.674730 0.000000 
#    z 0.000000 0.000000 3.828430 
# 
# 
# High freq. dielectric constant tensor:
#      x y z
#    x 1.807030 0.000000 0.000000 
#    y 0.000000 1.785960 0.000000 
#    z 0.000000 0.000000 1.802690 
# 
# From -- ./inp_files/23642.got.cif
#   From: 2010.03.12/outbox.cif.g09.slc.cpg/sg59_12_cif.got.tgz:23642.got - 2010.04.16 16:29:54.
