data_PCOD8245173
_publ_section_title
;
Structure prediction by ZEFSAII (Michael W. Deem and Ramdas Pophale) SiO2 
 PCOD8245173
Probable space group: P M M N
;
_chemical_formula_sum "Si O2"
_cell_formula_units_Z 48
_cell_length_a 9.040653
_cell_length_b 18.189323
_cell_length_c 15.527725
_cell_angle_alpha 90.000000
_cell_angle_beta 90.000000
_cell_angle_gamma 90.000000
_cell_volume 2553.431234
_symmetry_space_group_name_H-M "P M M N"
_symmetry_group_IT_number 59
_space_group.IT_coordinate_system_code '2'
_symmetry_cell_setting 'orthorhombic'
loop_
_space_group_symop_operation_xyz
x,y,z
1/2-x,1/2-y,z
1/2+x,-y,-z
-x,1/2+y,-z
-x,-y,-z
1/2+x,1/2+y,-z
1/2-x,y,z
x,1/2-y,z
loop_
_atom_site_type_symbol
_atom_site_label
_atom_site_fract_x
_atom_site_fract_y
_atom_site_fract_z
Si Si1 0.577887 0.926398 0.314383
Si Si2 0.922261 0.577893 0.502953
Si Si3 0.577224 0.091690 0.333066
Si Si4 0.426089 0.167595 0.841953
Si Si5 0.575047 0.921768 0.991446
Si Si6 0.579086 0.335024 0.156045
O O1 0.750000 0.932827 0.293581
O O2 0.551815 0.887207 0.407671
O O3 0.505279 0.876652 0.239555
O O4 0.514718 0.009767 0.311835
O O5 0.750000 0.568159 0.521813
O O6 0.000000 0.500000 0.500000
O O7 0.995554 0.623802 0.581334
O O8 0.750000 0.088365 0.354362
O O9 0.541491 0.145773 0.254661
O O10 0.250000 0.170462 0.836737
O O11 0.491500 0.250000 0.841172
O O12 0.478132 0.128169 0.929067
O O13 0.750000 0.932175 0.990559
O O14 0.524916 0.883343 0.903878
O O15 0.500000 0.000000 0.000000
O O16 0.750000 0.353584 0.136086
O O17 0.543482 0.250000 0.140379
#
# Coordination Sequence:
#
# PCOD8245173 Si02
#       6
#     8   8   8   8   8   8
#     4   8  14  26  45  68  95 128 167 209 251 298
#     4   9  16  27  46  73 101 131 170 216 262 304
#     4   9  17  31  50  71  99 137 177 215 256 308
#     4   9  17  30  49  73 101 132 165 204 253 308
#     4  11  22  36  56  81 106 135 175 220 264 313
#     4  10  21  37  56  78 107 143 178 215 267 326
#
# _framework density 18.798234999999998
#
# number of rings (size 3 to 8) (size 9 to 14) (size 15 to 20)
#    0.000    2.667    0.000    3.500    0.000    4.333 
#    0.000    0.833    0.000    4.000    0.000    0.000 
#    0.000    0.000    0.000    0.000    0.000    0.000 
#
# Total GULP energy -594965.311675 kJ/mol
# GULP energy per Si atom -12395.110660 kJ/mol
# Density = 1.875545 g / cm^3
# Si number density = 18.798235 Si / 1000 Ang^3
#
#
#
# Elastic Constant Matrix: (Units=GPa)
#
#
# Indices 1 2 3 4 5 6 
#
# 1 57.2314 26.1480 46.2416 0.0000 0.0000 0.0000
# 2 26.1480 82.9480 35.0958 0.0000 0.0000 0.0000
# 3 46.2416 35.0958 116.3333 0.0000 0.0000 0.0000
# 4 0.0000 0.0000 0.0000 18.8085 0.0000 0.0000
# 5 0.0000 0.0000 0.0000 0.0000 31.5862 0.0000
# 6 0.0000 0.0000 0.0000 0.0000 0.0000 19.2765
#
#
#
# Elastic Compliance Matrix: (Units=1/GPa)
#
#
# Indices 1 2 3 4 5 6 
#
# 1 0.027178 -0.004581 -0.009421 0.000000 0.000000 0.000000
# 2 -0.004581 0.014592 -0.002581 0.000000 0.000000 0.000000
# 3 -0.009421 -0.002581 0.013119 0.000000 0.000000 0.000000
# 4 0.000000 0.000000 0.000000 0.053167 0.000000 0.000000
# 5 0.000000 0.000000 0.000000 0.000000 0.031659 0.000000
# 6 0.000000 0.000000 0.000000 0.000000 0.000000 0.051877
#
#
# Mechanical properties :
#
#
# Convention : Reuss Voigt Hill
#
# Bulk Modulus (GPa) = 46.03500 52.38707 49.21104
# Shear Modulus (GPa) = 21.55170 23.86941 22.71056
#
# Velocity S-wave (km/s) = 3.38964 3.56725 3.47958
# Velocity P-wave (km/s) = 6.31361 6.70042 6.50989
#
# Compressibility (1/GPa) = 0.02172260
#
# Stress axis : x y z
#
# Youngs Moduli (GPa) = 36.79461 68.53061 76.22306
#
# Poissons Ratio (x) = 0.31396 0.71809
# Poissons Ratio (y) = 0.16857 0.19674
# Poissons Ratio (z) = 0.34664 0.17688
#
# Static dielectric constant tensor:
#      x y z
#    x 3.268200 0.000000 0.000000 
#    y 0.000000 3.056880 0.000000 
#    z 0.000000 0.000000 3.694320 
# 
# 
# High freq. dielectric constant tensor:
#      x y z
#    x 1.696290 0.000000 0.000000 
#    y 0.000000 1.709000 0.000000 
#    z 0.000000 0.000000 1.752280 
# 
# From -- ./inp_files/20426.got.cif
#   From: 2010.03.12/outbox.cif.g09.slc.cpg/sg59_11_cif.got.tgz:20426.got - 2010.04.16 16:29:54.
