data_PCOD8245757
_publ_section_title
;
Structure prediction by ZEFSAII (Michael W. Deem and Ramdas Pophale) SiO2 
 PCOD8245757
Probable space group: P M M N
;
_chemical_formula_sum "Si O2"
_cell_formula_units_Z 40
_cell_length_a 14.247818
_cell_length_b 8.808170
_cell_length_c 17.169906
_cell_angle_alpha 90.000000
_cell_angle_beta 90.000000
_cell_angle_gamma 90.000000
_cell_volume 2154.775180
_symmetry_space_group_name_H-M "P M M N"
_symmetry_group_IT_number 59
_space_group.IT_coordinate_system_code '2'
_symmetry_cell_setting 'orthorhombic'
loop_
_space_group_symop_operation_xyz
x,y,z
1/2-x,1/2-y,z
1/2+x,-y,-z
-x,1/2+y,-z
-x,-y,-z
1/2+x,1/2+y,-z
1/2-x,y,z
x,1/2-y,z
loop_
_atom_site_type_symbol
_atom_site_label
_atom_site_fract_x
_atom_site_fract_y
_atom_site_fract_z
Si Si1 0.070937 0.925150 0.788803
Si Si2 0.250000 0.427455 0.857297
Si Si3 0.645100 0.570546 0.512101
Si Si4 0.560660 0.573665 0.932507
Si Si5 0.750000 0.429892 0.973432
Si Si6 0.974841 0.071855 0.384617
O O1 0.103951 0.750000 0.789620
O O2 0.988531 0.952742 0.850211
O O3 0.029583 0.974091 0.705578
O O4 0.158928 0.030831 0.807498
O O5 0.250000 0.250000 0.876491
O O6 0.250000 0.519675 0.937206
O O7 0.750000 0.509588 0.530142
O O8 0.645584 0.750000 0.505742
O O9 0.611021 0.506383 0.429403
O O10 0.574846 0.515563 0.580680
O O11 0.574169 0.750000 0.952028
O O12 0.660540 0.492749 0.927792
O O13 0.500000 0.500000 0.000000
O O14 0.750000 0.250000 0.971382
O O15 0.963719 0.250000 0.396448
#
# Coordination Sequence:
#
# PCOD8245757 Si02
#       6
#     8   4   8   8   4   8
#     4  10  22  39  58  83 115 148 186 234 286 339
#     4  12  24  36  58  86 113 146 189 236 289 342
#     4   9  18  34  56  82 111 143 182 227 275 327
#     4  11  22  38  60  85 114 151 193 236 286 341
#     4  12  24  40  60  82 113 152 195 240 287 340
#     4   9  19  36  56  81 110 146 184 224 275 335
#
# _framework density 18.563421999999999
#
# number of rings (size 3 to 8) (size 9 to 14) (size 15 to 20)
#    0.000    1.800    2.000    2.400    1.400    2.000 
#    1.800    0.000    0.000    0.000    0.000    0.000 
#    0.000    0.000    0.000    0.000    0.000    0.000 
#
# Total GULP energy -496130.229556 kJ/mol
# GULP energy per Si atom -12403.255739 kJ/mol
# Density = 1.852117 g / cm^3
# Si number density = 18.563422 Si / 1000 Ang^3
#
#
#
# Elastic Constant Matrix: (Units=GPa)
#
#
# Indices 1 2 3 4 5 6 
#
# 1 159.0774 57.4498 61.3299 0.0000 0.0000 0.0000
# 2 57.4498 87.0959 43.3398 0.0000 0.0000 0.0000
# 3 61.3299 43.3398 129.6417 0.0000 0.0000 0.0000
# 4 0.0000 0.0000 0.0000 26.1869 0.0000 0.0000
# 5 0.0000 0.0000 0.0000 0.0000 19.2508 0.0000
# 6 0.0000 0.0000 0.0000 0.0000 0.0000 32.6768
#
#
#
# Elastic Compliance Matrix: (Units=1/GPa)
#
#
# Indices 1 2 3 4 5 6 
#
# 1 0.008988 -0.004573 -0.002723 0.000000 0.000000 0.000000
# 2 -0.004573 0.016100 -0.003219 0.000000 0.000000 0.000000
# 3 -0.002723 -0.003219 0.010078 0.000000 0.000000 0.000000
# 4 0.000000 0.000000 0.000000 0.038187 0.000000 0.000000
# 5 0.000000 0.000000 0.000000 0.000000 0.051946 0.000000
# 6 0.000000 0.000000 0.000000 0.000000 0.000000 0.030603
#
#
# Mechanical properties :
#
#
# Convention : Reuss Voigt Hill
#
# Bulk Modulus (GPa) = 70.74520 77.78379 74.26450
# Shear Modulus (GPa) = 27.52652 29.86926 28.69789
#
# Velocity S-wave (km/s) = 3.85494 4.01563 3.93611
# Velocity P-wave (km/s) = 7.61622 7.96825 7.79422
#
# Compressibility (1/GPa) = 0.01413523
#
# Stress axis : x y z
#
# Youngs Moduli (GPa) = 111.26305 62.11176 99.22874
#
# Poissons Ratio (x) = 0.28407 0.27019
# Poissons Ratio (y) = 0.50886 0.31939
# Poissons Ratio (z) = 0.30296 0.19992
#
# Static dielectric constant tensor:
#      x y z
#    x 3.497080 0.000000 0.000000 
#    y 0.000000 3.429570 0.000000 
#    z 0.000000 0.000000 3.490400 
# 
# 
# High freq. dielectric constant tensor:
#      x y z
#    x 1.730420 0.000000 0.000000 
#    y 0.000000 1.720120 0.000000 
#    z 0.000000 0.000000 1.717500 
# 
# From -- ./inp_files/22976.got.cif
#   From: 2010.03.12/outbox.cif.g09.slc.cpg/sg59_12_cif.got.tgz:22976.got - 2010.04.16 16:29:54.
