data_PCOD8245123
_publ_section_title
;
Structure prediction by ZEFSAII (Michael W. Deem and Ramdas Pophale) SiO2 
 PCOD8245123
Probable space group: P M M N
;
_chemical_formula_sum "Si O2"
_cell_formula_units_Z 48
_cell_length_a 9.940598
_cell_length_b 9.063998
_cell_length_c 29.228485
_cell_angle_alpha 90.000000
_cell_angle_beta 90.000000
_cell_angle_gamma 90.000000
_cell_volume 2633.532106
_symmetry_space_group_name_H-M "P M M N"
_symmetry_group_IT_number 59
_space_group.IT_coordinate_system_code '2'
_symmetry_cell_setting 'orthorhombic'
loop_
_space_group_symop_operation_xyz
x,y,z
1/2-x,1/2-y,z
1/2+x,-y,-z
-x,1/2+y,-z
-x,-y,-z
1/2+x,1/2+y,-z
1/2-x,y,z
x,1/2-y,z
loop_
_atom_site_type_symbol
_atom_site_label
_atom_site_fract_x
_atom_site_fract_y
_atom_site_fract_z
Si Si1 0.402916 0.076376 0.774269
Si Si2 0.409613 0.912811 0.863206
Si Si3 0.096920 0.925045 0.964079
Si Si4 0.033110 0.425175 0.399137
Si Si5 0.250000 0.926655 0.460833
Si Si6 0.596922 0.419619 0.693993
Si Si7 0.250000 0.923324 0.564276
O O1 0.250000 0.021404 0.765020
O O2 0.408425 0.250000 0.778117
O O3 0.497770 0.020518 0.733347
O O4 0.461425 0.015510 0.822125
O O5 0.250000 0.903967 0.862649
O O6 0.470675 0.750000 0.855420
O O7 0.452084 0.974179 0.913168
O O8 0.250000 0.977487 0.973092
O O9 0.087246 0.750000 0.968462
O O10 0.000000 0.000000 0.000000
O O11 0.054271 0.250000 0.403487
O O12 0.118344 0.507966 0.437371
O O13 0.077870 0.476606 0.349397
O O14 0.879779 0.475319 0.407425
O O15 0.250000 0.750000 0.456322
O O16 0.250000 0.985963 0.512799
O O17 0.750000 0.432837 0.711579
O O18 0.563367 0.250000 0.681003
O O19 0.250000 0.750000 0.559314
#
# Coordination Sequence:
#
# PCOD8245123 Si02
#       7
#     8   8   8   8   4   8   4
#     4   9  18  32  52  77 101 129 172 220 260 308
#     4   8  15  30  50  72 100 133 169 213 265 315
#     4   9  18  32  50  74 105 140 179 221 265 316
#     4  11  22  38  58  82 110 140 177 219 260 309
#     4  11  21  39  61  81 109 145 177 211 262 317
#     4  10  21  37  54  74 106 142 173 208 261 318
#     4   9  22  39  57  83 113 139 173 221 264 305
#
# _framework density 18.226472000000001
#
# number of rings (size 3 to 8) (size 9 to 14) (size 15 to 20)
#    0.000    2.500    0.833    2.250    1.167    1.667 
#    0.000    6.250    0.000    3.000    0.000    0.000 
#    0.000    0.000    0.000    0.000    0.000    0.000 
#
# Total GULP energy -595085.716062 kJ/mol
# GULP energy per Si atom -12397.619085 kJ/mol
# Density = 1.818499 g / cm^3
# Si number density = 18.226472 Si / 1000 Ang^3
#
#
#
# Elastic Constant Matrix: (Units=GPa)
#
#
# Indices 1 2 3 4 5 6 
#
# 1 97.3956 27.2720 47.6359 0.0000 0.0000 0.0000
# 2 27.2720 48.1265 32.2897 0.0000 0.0000 0.0000
# 3 47.6359 32.2897 122.6954 0.0000 0.0000 0.0000
# 4 0.0000 0.0000 0.0000 27.3737 0.0000 0.0000
# 5 0.0000 0.0000 0.0000 0.0000 34.1844 0.0000
# 6 0.0000 0.0000 0.0000 0.0000 0.0000 23.2269
#
#
#
# Elastic Compliance Matrix: (Units=1/GPa)
#
#
# Indices 1 2 3 4 5 6 
#
# 1 0.013620 -0.005064 -0.003955 0.000000 0.000000 0.000000
# 2 -0.005064 0.027117 -0.005170 0.000000 0.000000 0.000000
# 3 -0.003955 -0.005170 0.011046 0.000000 0.000000 0.000000
# 4 0.000000 0.000000 0.000000 0.036531 0.000000 0.000000
# 5 0.000000 0.000000 0.000000 0.000000 0.029253 0.000000
# 6 0.000000 0.000000 0.000000 0.000000 0.000000 0.043053
#
#
# Mechanical properties :
#
#
# Convention : Reuss Voigt Hill
#
# Bulk Modulus (GPa) = 42.72730 53.62364 48.17547
# Shear Modulus (GPa) = 25.40617 27.69166 26.54892
#
# Velocity S-wave (km/s) = 3.73757 3.90206 3.82070
# Velocity P-wave (km/s) = 6.48993 7.05592 6.77884
#
# Compressibility (1/GPa) = 0.02340424
#
# Stress axis : x y z
#
# Youngs Moduli (GPa) = 73.42179 36.87677 90.52691
#
# Poissons Ratio (x) = 0.18676 0.35804
# Poissons Ratio (y) = 0.37184 0.46804
# Poissons Ratio (z) = 0.29039 0.19066
#
# Static dielectric constant tensor:
#      x y z
#    x 3.582380 0.000000 0.000000 
#    y 0.000000 3.320650 0.000000 
#    z 0.000000 0.000000 3.646920 
# 
# 
# High freq. dielectric constant tensor:
#      x y z
#    x 1.695440 0.000000 0.000000 
#    y 0.000000 1.695780 0.000000 
#    z 0.000000 0.000000 1.715530 
# 
# From -- ./inp_files/32978.got.cif
#   From: 2010.03.12/outbox.cif.g09.slc.cpg/sg59_17_cif.got.tgz:32978.got - 2010.04.16 16:29:54.
