data_PCOD8245002
_publ_section_title
;
Structure prediction by ZEFSAII (Michael W. Deem and Ramdas Pophale) SiO2 
 PCOD8245002
Probable space group: P M M N
;
_chemical_formula_sum "Si O2"
_cell_formula_units_Z 48
_cell_length_a 8.885197
_cell_length_b 9.197439
_cell_length_c 30.693906
_cell_angle_alpha 90.000000
_cell_angle_beta 90.000000
_cell_angle_gamma 90.000000
_cell_volume 2508.338454
_symmetry_space_group_name_H-M "P M M N"
_symmetry_group_IT_number 59
_space_group.IT_coordinate_system_code '2'
_symmetry_cell_setting 'orthorhombic'
loop_
_space_group_symop_operation_xyz
x,y,z
1/2-x,1/2-y,z
1/2+x,-y,-z
-x,1/2+y,-z
-x,-y,-z
1/2+x,1/2+y,-z
1/2-x,y,z
x,1/2-y,z
loop_
_atom_site_type_symbol
_atom_site_label
_atom_site_fract_x
_atom_site_fract_y
_atom_site_fract_z
Si Si1 0.578958 0.078333 0.214072
Si Si2 0.924707 0.581693 0.874483
Si Si3 0.927724 0.083926 0.960292
Si Si4 0.423534 0.917838 0.291664
Si Si5 0.425753 0.418630 0.618745
Si Si6 0.072718 0.417776 0.459889
O O1 0.750000 0.024183 0.219574
O O2 0.566137 0.250000 0.218749
O O3 0.519275 0.028490 0.167021
O O4 0.474561 0.009773 0.250587
O O5 0.750000 0.553188 0.864387
O O6 0.955182 0.750000 0.885205
O O7 0.982047 0.488628 0.915364
O O8 0.750000 0.071434 0.964801
O O9 0.982791 0.250000 0.960798
O O10 0.000000 0.000000 0.000000
O O11 0.250000 0.950838 0.302081
O O12 0.450176 0.750000 0.280389
O O13 0.521634 0.964664 0.333235
O O14 0.250000 0.450703 0.613958
O O15 0.463020 0.250000 0.609712
O O16 0.515823 0.515938 0.585034
O O17 0.250000 0.437142 0.462846
O O18 0.024855 0.250000 0.462059
O O19 0.000000 0.500000 0.500000
#
# Coordination Sequence:
#
# PCOD8245002 Si02
#       6
#     8   8   8   8   8   8
#     4  10  21  36  55  81 112 145 181 223 272 324
#     4   9  18  34  54  75 104 143 183 223 268 319
#     4  10  21  36  55  80 109 141 178 221 269 322
#     4  10  21  37  58  83 111 146 186 227 273 324
#     4  10  21  38  60  85 113 146 185 229 277 328
#     4  11  24  40  59  85 115 148 187 229 275 328
#
# _framework density 19.136174
#
# number of rings (size 3 to 8) (size 9 to 14) (size 15 to 20)
#    0.000    2.000    0.000    3.000    0.000    9.333 
#    0.000    3.333    0.000    0.000    0.000    0.000 
#    0.000    0.000    0.000    0.000    0.000    0.000 
#
# Total GULP energy -595442.329419 kJ/mol
# GULP energy per Si atom -12405.048530 kJ/mol
# Density = 1.909262 g / cm^3
# Si number density = 19.136174 Si / 1000 Ang^3
#
#
#
# Elastic Constant Matrix: (Units=GPa)
#
#
# Indices 1 2 3 4 5 6 
#
# 1 52.5351 41.1211 34.8804 0.0000 0.0000 0.0000
# 2 41.1211 97.1433 74.2957 0.0000 0.0000 0.0000
# 3 34.8804 74.2957 136.5181 0.0000 0.0000 0.0000
# 4 0.0000 0.0000 0.0000 41.7250 0.0000 0.0000
# 5 0.0000 0.0000 0.0000 0.0000 42.7003 0.0000
# 6 0.0000 0.0000 0.0000 0.0000 0.0000 29.3224
#
#
#
# Elastic Compliance Matrix: (Units=1/GPa)
#
#
# Indices 1 2 3 4 5 6 
#
# 1 0.028587 -0.011160 -0.001231 0.000000 0.000000 0.000000
# 2 -0.011160 0.021990 -0.009116 0.000000 0.000000 0.000000
# 3 -0.001231 -0.009116 0.012601 0.000000 0.000000 0.000000
# 4 0.000000 0.000000 0.000000 0.023966 0.000000 0.000000
# 5 0.000000 0.000000 0.000000 0.000000 0.023419 0.000000
# 6 0.000000 0.000000 0.000000 0.000000 0.000000 0.034104
#
#
# Mechanical properties :
#
#
# Convention : Reuss Voigt Hill
#
# Bulk Modulus (GPa) = 49.59151 65.19901 57.39526
# Shear Modulus (GPa) = 25.71991 31.80947 28.76469
#
# Velocity S-wave (km/s) = 3.67010 4.08152 3.88126
# Velocity P-wave (km/s) = 6.62804 7.50711 7.08123
#
# Compressibility (1/GPa) = 0.02016474
#
# Stress axis : x y z
#
# Youngs Moduli (GPa) = 34.98069 45.47492 79.36128
#
# Poissons Ratio (x) = 0.50750 0.09766
# Poissons Ratio (y) = 0.39038 0.72346
# Poissons Ratio (z) = 0.04305 0.41455
#
# Static dielectric constant tensor:
#      x y z
#    x 3.592090 0.000000 0.000000 
#    y 0.000000 3.513160 0.000000 
#    z 0.000000 0.000000 3.617720 
# 
# 
# High freq. dielectric constant tensor:
#      x y z
#    x 1.750910 0.000000 0.000000 
#    y 0.000000 1.742700 0.000000 
#    z 0.000000 0.000000 1.758510 
# 
# From -- ./inp_files/32789.got.cif
#   From: 2010.03.12/outbox.cif.g09.slc.cpg/sg59_17_cif.got.tgz:32789.got - 2010.04.16 16:29:54.
