data_PCOD8245298
_publ_section_title
;
Structure prediction by ZEFSAII (Michael W. Deem and Ramdas Pophale) SiO2 
 PCOD8245298
Probable space group: P M M N
;
_chemical_formula_sum "Si O2"
_cell_formula_units_Z 40
_cell_length_a 8.781976
_cell_length_b 18.627926
_cell_length_c 12.571511
_cell_angle_alpha 90.000000
_cell_angle_beta 90.000000
_cell_angle_gamma 90.000000
_cell_volume 2056.573473
_symmetry_space_group_name_H-M "P M M N"
_symmetry_group_IT_number 59
_space_group.IT_coordinate_system_code '2'
_symmetry_cell_setting 'orthorhombic'
loop_
_space_group_symop_operation_xyz
x,y,z
1/2-x,1/2-y,z
1/2+x,-y,-z
-x,1/2+y,-z
-x,-y,-z
1/2+x,1/2+y,-z
1/2-x,y,z
x,1/2-y,z
loop_
_atom_site_type_symbol
_atom_site_label
_atom_site_fract_x
_atom_site_fract_y
_atom_site_fract_z
Si Si1 0.569244 0.417647 0.835164
Si Si2 0.570016 0.575611 0.781084
Si Si3 0.069939 0.670380 0.363879
Si Si4 0.429304 0.930226 0.552221
Si Si5 0.428703 0.666751 0.959099
O O1 0.750000 0.413288 0.832847
O O2 0.514163 0.500184 0.832197
O O3 0.500952 0.377277 0.731968
O O4 0.507804 0.378760 0.940995
O O5 0.750000 0.576734 0.768323
O O6 0.497745 0.586664 0.666327
O O7 0.515863 0.640767 0.854467
O O8 0.250000 0.674006 0.349765
O O9 0.998936 0.750000 0.358422
O O10 0.027474 0.636555 0.477176
O O11 0.250000 0.941391 0.561512
O O12 0.500000 0.000000 0.500000
O O13 0.250000 0.654249 0.942322
O O14 0.465777 0.750000 0.979336
#
# Coordination Sequence:
#
# PCOD8245298 Si02
#       5
#     8   8   8   8   8
#     4   9  17  33  57  85 112 142 186 237 286 338
#     4  11  22  37  58  84 115 151 192 236 289 345
#     4   9  17  31  55  85 112 141 183 235 285 332
#     4  11  21  36  58  85 116 152 192 235 284 340
#     4  10  21  37  58  84 113 148 192 238 285 341
#
# _framework density 19.449828
#
# number of rings (size 3 to 8) (size 9 to 14) (size 15 to 20)
#    0.000    2.000    2.000    2.400    0.000    3.600 
#    0.000    3.000    0.000    1.800    0.000    0.000 
#    0.000    0.000    0.000    0.000    0.000    0.000 
#
# Total GULP energy -496063.823182 kJ/mol
# GULP energy per Si atom -12401.595580 kJ/mol
# Density = 1.940556 g / cm^3
# Si number density = 19.449828 Si / 1000 Ang^3
#
#
#
# Elastic Constant Matrix: (Units=GPa)
#
#
# Indices 1 2 3 4 5 6 
#
# 1 48.4000 23.9774 35.6454 0.0000 0.0000 0.0000
# 2 23.9774 84.8180 36.9007 0.0000 0.0000 0.0000
# 3 35.6454 36.9007 150.4515 0.0000 0.0000 0.0000
# 4 0.0000 0.0000 0.0000 35.5948 0.0000 0.0000
# 5 0.0000 0.0000 0.0000 0.0000 27.8457 0.0000
# 6 0.0000 0.0000 0.0000 0.0000 0.0000 24.5606
#
#
#
# Elastic Compliance Matrix: (Units=1/GPa)
#
#
# Indices 1 2 3 4 5 6 
#
# 1 0.027107 -0.005450 -0.005085 0.000000 0.000000 0.000000
# 2 -0.005450 0.014294 -0.002215 0.000000 0.000000 0.000000
# 3 -0.005085 -0.002215 0.008395 0.000000 0.000000 0.000000
# 4 0.000000 0.000000 0.000000 0.028094 0.000000 0.000000
# 5 0.000000 0.000000 0.000000 0.000000 0.035912 0.000000
# 6 0.000000 0.000000 0.000000 0.000000 0.000000 0.040716
#
#
# Mechanical properties :
#
#
# Convention : Reuss Voigt Hill
#
# Bulk Modulus (GPa) = 41.16113 52.96848 47.06481
# Shear Modulus (GPa) = 26.57935 30.07663 28.32799
#
# Velocity S-wave (km/s) = 3.70071 3.93666 3.82051
# Velocity P-wave (km/s) = 6.28244 6.92499 6.61153
#
# Compressibility (1/GPa) = 0.02429476
#
# Stress axis : x y z
#
# Youngs Moduli (GPa) = 36.89150 69.95851 119.12343
#
# Poissons Ratio (x) = 0.38130 0.60578
# Poissons Ratio (y) = 0.20107 0.26381
# Poissons Ratio (z) = 0.18761 0.15493
#
# Static dielectric constant tensor:
#      x y z
#    x 3.199040 0.000000 0.000000 
#    y 0.000000 3.800900 0.000000 
#    z 0.000000 0.000000 3.728160 
# 
# 
# High freq. dielectric constant tensor:
#      x y z
#    x 1.719040 0.000000 0.000000 
#    y 0.000000 1.766590 0.000000 
#    z 0.000000 0.000000 1.773090 
# 
# From -- ./inp_files/13838.got.cif
#   From: 2010.03.12/outbox.cif.g09.slc.cpg/sg59_7_cif.got.tgz:13838.got - 2010.04.16 16:29:54.
