data_PCOD8245486
_publ_section_title
;
Structure prediction by ZEFSAII (Michael W. Deem and Ramdas Pophale) SiO2 
 PCOD8245486
Probable space group: P M M N
;
_chemical_formula_sum "Si O2"
_cell_formula_units_Z 48
_cell_length_a 17.427944
_cell_length_b 9.064729
_cell_length_c 15.048836
_cell_angle_alpha 90.000000
_cell_angle_beta 90.000000
_cell_angle_gamma 90.000000
_cell_volume 2377.408932
_symmetry_space_group_name_H-M "P M M N"
_symmetry_group_IT_number 59
_space_group.IT_coordinate_system_code '2'
_symmetry_cell_setting 'orthorhombic'
loop_
_space_group_symop_operation_xyz
x,y,z
1/2-x,1/2-y,z
1/2+x,-y,-z
-x,1/2+y,-z
-x,-y,-z
1/2+x,1/2+y,-z
1/2-x,y,z
x,1/2-y,z
loop_
_atom_site_type_symbol
_atom_site_label
_atom_site_fract_x
_atom_site_fract_y
_atom_site_fract_z
Si Si1 0.338692 0.078939 0.184489
Si Si2 0.838382 0.080904 0.469057
Si Si3 0.922153 0.078690 0.974028
Si Si4 0.416551 0.076633 0.690037
Si Si5 0.090522 0.923051 0.345781
Si Si6 0.662817 0.079771 0.153048
O O1 0.250000 0.055762 0.160489
O O2 0.361754 0.250000 0.181541
O O3 0.390631 0.990702 0.115791
O O4 0.354140 0.015373 0.282094
O O5 0.750000 0.054063 0.493074
O O6 0.853901 0.250000 0.443223
O O7 0.888761 0.033810 0.553605
O O8 0.860335 0.982833 0.385322
O O9 0.939007 0.250000 0.956632
O O10 0.859821 0.054912 0.051008
O O11 0.000000 0.000000 0.000000
O O12 0.407833 0.250000 0.693137
O O13 0.503234 0.028253 0.670192
O O14 0.393404 0.013960 0.785552
O O15 0.104023 0.750000 0.328399
O O16 0.750000 0.025425 0.165617
O O17 0.654458 0.250000 0.180211
#
# Coordination Sequence:
#
# PCOD8245486 Si02
#       6
#     8   8   8   8   8   8
#     4  11  24  40  60  89 122 155 194 242 294 347
#     4  10  21  38  60  84 112 151 196 238 285 346
#     4  11  23  40  63  89 118 154 196 242 293 349
#     4  11  23  37  57  87 118 149 188 237 292 344
#     4  10  22  40  61  85 115 154 197 238 286 347
#     4  10  22  40  60  82 111 151 195 234 278 338
#
# _framework density 20.190047
#
# number of rings (size 3 to 8) (size 9 to 14) (size 15 to 20)
#    0.000    1.500    0.000    4.500    0.000   11.333 
#    0.000    0.000    0.000    0.000    0.000    0.000 
#    0.000    0.000    0.000    0.000    0.000    0.000 
#
# Total GULP energy -595562.216982 kJ/mol
# GULP energy per Si atom -12407.546187 kJ/mol
# Density = 2.014409 g / cm^3
# Si number density = 20.190047 Si / 1000 Ang^3
#
#
#
# Elastic Constant Matrix: (Units=GPa)
#
#
# Indices 1 2 3 4 5 6 
#
# 1 71.6930 32.0447 6.1540 0.0000 0.0000 0.0000
# 2 32.0447 82.9919 32.9163 0.0000 0.0000 0.0000
# 3 6.1540 32.9163 75.9347 0.0000 0.0000 0.0000
# 4 0.0000 0.0000 0.0000 32.5853 0.0000 0.0000
# 5 0.0000 0.0000 0.0000 0.0000 42.0380 0.0000
# 6 0.0000 0.0000 0.0000 0.0000 0.0000 33.6117
#
#
#
# Elastic Compliance Matrix: (Units=1/GPa)
#
#
# Indices 1 2 3 4 5 6 
#
# 1 0.017054 -0.007290 0.001778 0.000000 0.000000 0.000000
# 2 -0.007290 0.017667 -0.007068 0.000000 0.000000 0.000000
# 3 0.001778 -0.007068 0.016089 0.000000 0.000000 0.000000
# 4 0.000000 0.000000 0.000000 0.030689 0.000000 0.000000
# 5 0.000000 0.000000 0.000000 0.000000 0.023788 0.000000
# 6 0.000000 0.000000 0.000000 0.000000 0.000000 0.029752
#
#
# Mechanical properties :
#
#
# Convention : Reuss Voigt Hill
#
# Bulk Modulus (GPa) = 38.98510 41.42774 40.20642
# Shear Modulus (GPa) = 29.62988 32.28065 30.95526
#
# Velocity S-wave (km/s) = 3.83502 4.00289 3.91985
# Velocity P-wave (km/s) = 6.24186 6.47515 6.35957
#
# Compressibility (1/GPa) = 0.02565083
#
# Stress axis : x y z
#
# Youngs Moduli (GPa) = 58.63651 56.60135 62.15494
#
# Poissons Ratio (x) = 0.41263 -0.11051
# Poissons Ratio (y) = 0.42747 0.43929
# Poissons Ratio (z) = -0.10426 0.40004
#
# Static dielectric constant tensor:
#      x y z
#    x 3.889870 0.000000 0.000000 
#    y 0.000000 3.696330 0.000000 
#    z 0.000000 0.000000 3.701160 
# 
# 
# High freq. dielectric constant tensor:
#      x y z
#    x 1.801700 0.000000 0.000000 
#    y 0.000000 1.788750 0.000000 
#    z 0.000000 0.000000 1.800750 
# 
# From -- ./inp_files/20405.got.cif
#   From: 2010.03.12/outbox.cif.g09.slc.cpg/sg59_11_cif.got.tgz:20405.got - 2010.04.16 16:29:54.
