data_PCOD8245397
_publ_section_title
;
Structure prediction by ZEFSAII (Michael W. Deem and Ramdas Pophale) SiO2 
 PCOD8245397
Probable space group: P M M N
;
_chemical_formula_sum "Si O2"
_cell_formula_units_Z 48
_cell_length_a 8.628934
_cell_length_b 14.570494
_cell_length_c 19.468659
_cell_angle_alpha 90.000000
_cell_angle_beta 90.000000
_cell_angle_gamma 90.000000
_cell_volume 2447.752270
_symmetry_space_group_name_H-M "P M M N"
_symmetry_group_IT_number 59
_space_group.IT_coordinate_system_code '2'
_symmetry_cell_setting 'orthorhombic'
loop_
_space_group_symop_operation_xyz
x,y,z
1/2-x,1/2-y,z
1/2+x,-y,-z
-x,1/2+y,-z
-x,-y,-z
1/2+x,1/2+y,-z
1/2-x,y,z
x,1/2-y,z
loop_
_atom_site_type_symbol
_atom_site_label
_atom_site_fract_x
_atom_site_fract_y
_atom_site_fract_z
Si Si1 0.431155 0.060325 0.319849
Si Si2 0.571339 0.983214 0.836633
Si Si3 0.929050 0.145206 0.052920
Si Si4 0.932499 0.250000 0.526159
Si Si5 0.433372 0.750000 0.633443
Si Si6 0.432660 0.058399 0.562161
Si Si7 0.069517 0.144626 0.910636
O O1 0.250000 0.056205 0.337707
O O2 0.493058 0.162287 0.330698
O O3 0.467294 0.032003 0.242470
O O4 0.522674 0.988825 0.366729
O O5 0.750000 0.963921 0.852684
O O6 0.527290 0.087389 0.855169
O O7 0.468284 0.914389 0.880976
O O8 0.750000 0.132707 0.033822
O O9 0.969498 0.250000 0.071222
O O10 0.028372 0.111608 0.987598
O O11 0.750000 0.250000 0.536528
O O12 0.978516 0.250000 0.446412
O O13 0.002022 0.339005 0.562661
O O14 0.250000 0.750000 0.644046
O O15 0.250000 0.061120 0.553891
O O16 0.500000 0.000000 0.500000
O O17 0.250000 0.128549 0.897920
O O18 0.020563 0.250000 0.900728
#
# Coordination Sequence:
#
# PCOD8245397 Si02
#       7
#     8   8   8   4   4   8   8
#     4  11  25  43  63  90 126 166 203 248 305 366
#     4  11  24  40  60  87 121 162 200 244 301 361
#     4  10  21  37  60  90 121 157 199 248 299 355
#     4  11  23  41  67  97 124 159 204 255 308 362
#     4  11  23  39  65  95 124 161 200 249 304 362
#     4  12  24  41  66  95 125 162 206 255 304 361
#     4  10  21  39  63  88 116 155 201 253 302 354
#
# _framework density 19.609826000000002
#
# number of rings (size 3 to 8) (size 9 to 14) (size 15 to 20)
#    0.000    1.167    1.667    4.500    1.167    5.333 
#    1.500    0.000    0.000    0.000    0.000    0.000 
#    0.000    0.000    0.000    0.000    0.000    0.000 
#
# Total GULP energy -595545.929614 kJ/mol
# GULP energy per Si atom -12407.206867 kJ/mol
# Density = 1.956519 g / cm^3
# Si number density = 19.609826 Si / 1000 Ang^3
#
#
#
# Elastic Constant Matrix: (Units=GPa)
#
#
# Indices 1 2 3 4 5 6 
#
# 1 83.1469 43.4428 43.5221 0.0000 0.0000 0.0000
# 2 43.4428 145.5213 67.9991 0.0000 0.0000 0.0000
# 3 43.5221 67.9991 110.9403 0.0000 0.0000 0.0000
# 4 0.0000 0.0000 0.0000 17.3303 0.0000 0.0000
# 5 0.0000 0.0000 0.0000 0.0000 33.0533 0.0000
# 6 0.0000 0.0000 0.0000 0.0000 0.0000 30.8105
#
#
#
# Elastic Compliance Matrix: (Units=1/GPa)
#
#
# Indices 1 2 3 4 5 6 
#
# 1 0.015781 -0.002548 -0.004629 0.000000 0.000000 0.000000
# 2 -0.002548 0.010041 -0.005155 0.000000 0.000000 0.000000
# 3 -0.004629 -0.005155 0.013990 0.000000 0.000000 0.000000
# 4 0.000000 0.000000 0.000000 0.057702 0.000000 0.000000
# 5 0.000000 0.000000 0.000000 0.000000 0.030254 0.000000
# 6 0.000000 0.000000 0.000000 0.000000 0.000000 0.032456
#
#
# Mechanical properties :
#
#
# Convention : Reuss Voigt Hill
#
# Bulk Modulus (GPa) = 66.01729 72.17071 69.09400
# Shear Modulus (GPa) = 26.32419 28.54847 27.43633
#
# Velocity S-wave (km/s) = 3.66785 3.81967 3.74453
# Velocity P-wave (km/s) = 7.18860 7.50576 7.34889
#
# Compressibility (1/GPa) = 0.01514755
#
# Stress axis : x y z
#
# Youngs Moduli (GPa) = 63.36598 99.58761 71.48144
#
# Poissons Ratio (x) = 0.25376 0.33090
# Poissons Ratio (y) = 0.16146 0.36849
# Poissons Ratio (z) = 0.29334 0.51338
#
# Static dielectric constant tensor:
#      x y z
#    x 3.707950 0.000000 0.000000 
#    y 0.000000 3.750210 0.000000 
#    z 0.000000 0.000000 3.534750 
# 
# 
# High freq. dielectric constant tensor:
#      x y z
#    x 1.781000 0.000000 0.000000 
#    y 0.000000 1.779490 0.000000 
#    z 0.000000 0.000000 1.758290 
# 
# From -- ./inp_files/25560.got.cif
#   From: 2010.03.12/outbox.cif.g09.slc.cpg/sg59_13_cif.got.tgz:25560.got - 2010.04.16 16:29:54.
