data_PCOD8245597
_publ_section_title
;
Structure prediction by ZEFSAII (Michael W. Deem and Ramdas Pophale) SiO2 
 PCOD8245597
Probable space group: P M M N
;
_chemical_formula_sum "Si O2"
_cell_formula_units_Z 40
_cell_length_a 18.469093
_cell_length_b 17.332380
_cell_length_c 5.489426
_cell_angle_alpha 90.000000
_cell_angle_beta 90.000000
_cell_angle_gamma 90.000000
_cell_volume 1757.238481
_symmetry_space_group_name_H-M "P M M N"
_symmetry_group_IT_number 59
_space_group.IT_coordinate_system_code '2'
_symmetry_cell_setting 'orthorhombic'
loop_
_space_group_symop_operation_xyz
x,y,z
1/2-x,1/2-y,z
1/2+x,-y,-z
-x,1/2+y,-z
-x,-y,-z
1/2+x,1/2+y,-z
1/2-x,y,z
x,1/2-y,z
loop_
_atom_site_type_symbol
_atom_site_label
_atom_site_fract_x
_atom_site_fract_y
_atom_site_fract_z
Si Si1 0.941894 0.541364 0.331009
Si Si2 0.667856 0.385833 0.734482
Si Si3 0.550462 0.662245 0.968223
Si Si4 0.407430 0.619981 0.780880
Si Si5 0.832047 0.932570 0.715284
O O1 0.911122 0.472021 0.165883
O O2 0.874301 0.581519 0.464306
O O3 0.000000 0.500000 0.500000
O O4 0.982550 0.609982 0.187291
O O5 0.750000 0.356524 0.716610
O O6 0.630575 0.361229 0.477983
O O7 0.665222 0.477362 0.775027
O O8 0.633252 0.346174 0.978092
O O9 0.566057 0.750000 0.043668
O O10 0.488438 0.657226 0.760258
O O11 0.626552 0.620371 0.911707
O O12 0.750000 0.902488 0.693667
#
# Coordination Sequence:
#
# PCOD8245597 Si02
#       5
#     8   8   8   8   8
#     4  11  21  41  67  95 126 179 234 292 342 398
#     4  10  21  38  68 101 129 162 219 283 342 400
#     4  12  25  40  62  94 134 178 228 282 346 420
#     4  11  21  39  67  96 130 171 224 281 336 400
#     4  10  22  39  61  92 132 174 219 276 339 412
#
# _framework density 22.762988
#
# number of rings (size 3 to 8) (size 9 to 14) (size 15 to 20)
#    0.000    1.200    4.000    3.600    0.000    2.800 
#    0.000    0.000    0.000    3.600    0.000    0.000 
#    0.000    0.000    0.000    0.000    0.000    0.000 
#
# Total GULP energy -495639.503623 kJ/mol
# GULP energy per Si atom -12390.987591 kJ/mol
# Density = 2.271118 g / cm^3
# Si number density = 22.762988 Si / 1000 Ang^3
#
#
#
# Elastic Constant Matrix: (Units=GPa)
#
#
# Indices 1 2 3 4 5 6 
#
# 1 170.6239 16.5664 68.5785 0.0000 0.0000 0.0000
# 2 16.5664 74.7951 28.1696 0.0000 0.0000 0.0000
# 3 68.5785 28.1696 134.3906 0.0000 0.0000 0.0000
# 4 0.0000 0.0000 0.0000 9.7312 0.0000 0.0000
# 5 0.0000 0.0000 0.0000 0.0000 31.4110 0.0000
# 6 0.0000 0.0000 0.0000 0.0000 0.0000 10.6848
#
#
#
# Elastic Compliance Matrix: (Units=1/GPa)
#
#
# Indices 1 2 3 4 5 6 
#
# 1 0.007377 -0.000235 -0.003715 0.000000 0.000000 0.000000
# 2 -0.000235 0.014523 -0.002924 0.000000 0.000000 0.000000
# 3 -0.003715 -0.002924 0.009950 0.000000 0.000000 0.000000
# 4 0.000000 0.000000 0.000000 0.102763 0.000000 0.000000
# 5 0.000000 0.000000 0.000000 0.000000 0.031836 0.000000
# 6 0.000000 0.000000 0.000000 0.000000 0.000000 0.093591
#
#
# Mechanical properties :
#
#
# Convention : Reuss Voigt Hill
#
# Bulk Modulus (GPa) = 55.24460 67.38207 61.31333
# Shear Modulus (GPa) = 17.86848 28.13172 23.00010
#
# Velocity S-wave (km/s) = 2.80479 3.51928 3.18215
# Velocity P-wave (km/s) = 5.90011 6.79556 6.36361
#
# Compressibility (1/GPa) = 0.01810132
#
# Stress axis : x y z
#
# Youngs Moduli (GPa) = 135.55912 68.85502 100.50441
#
# Poissons Ratio (x) = 0.01616 0.37339
# Poissons Ratio (y) = 0.03181 0.29392
# Poissons Ratio (z) = 0.50362 0.20136
#
# Static dielectric constant tensor:
#      x y z
#    x 4.519120 0.000000 0.000000 
#    y 0.000000 3.742130 0.000000 
#    z 0.000000 0.000000 4.160700 
# 
# 
# High freq. dielectric constant tensor:
#      x y z
#    x 1.906830 0.000000 0.000000 
#    y 0.000000 1.855140 0.000000 
#    z 0.000000 0.000000 1.900730 
# 
# From -- ./inp_files/2633.got.cif
#   From: 2010.03.12/outbox.cif.g09.slc.cpg/sg59_2_cif.got.tgz:2633.got - 2010.04.16 16:29:54.
