data_PCOD8245140
_publ_section_title
;
Structure prediction by ZEFSAII (Michael W. Deem and Ramdas Pophale) SiO2 
 PCOD8245140
Probable space group: P M M N
;
_chemical_formula_sum "Si O2"
_cell_formula_units_Z 24
_cell_length_a 12.703100
_cell_length_b 9.155931
_cell_length_c 11.175386
_cell_angle_alpha 90.000000
_cell_angle_beta 90.000000
_cell_angle_gamma 90.000000
_cell_volume 1299.794697
_symmetry_space_group_name_H-M "P M M N"
_symmetry_group_IT_number 59
_space_group.IT_coordinate_system_code '2'
_symmetry_cell_setting 'orthorhombic'
loop_
_space_group_symop_operation_xyz
x,y,z
1/2-x,1/2-y,z
1/2+x,-y,-z
-x,1/2+y,-z
-x,-y,-z
1/2+x,1/2+y,-z
1/2-x,y,z
x,1/2-y,z
loop_
_atom_site_type_symbol
_atom_site_label
_atom_site_fract_x
_atom_site_fract_y
_atom_site_fract_z
Si Si1 0.969157 0.423588 0.621673
Si Si2 0.750000 0.077211 0.728152
Si Si3 0.865571 0.913848 0.184114
Si Si4 0.250000 0.576853 0.001609
O O1 0.976028 0.250000 0.605406
O O2 0.852877 0.477452 0.657915
O O3 0.000000 0.500000 0.500000
O O4 0.049175 0.478334 0.724456
O O5 0.750000 0.250000 0.735880
O O6 0.750000 0.016530 0.863372
O O7 0.750000 0.911307 0.247856
O O8 0.898846 0.750000 0.145021
O O9 0.855195 0.014717 0.064980
O O10 0.250000 0.750000 0.994778
#
# Coordination Sequence:
#
# PCOD8245140 Si02
#       4
#     8   4   8   4
#     4  10  21  37  55  75 105 140 173 212 257 306
#     4   9  20  36  53  78 106 135 170 215 264 301
#     4   8  17  34  53  75 105 137 165 206 263 305
#     4   9  17  32  55  80 104 133 174 213 250 307
#
# _framework density 18.464454
#
# number of rings (size 3 to 8) (size 9 to 14) (size 15 to 20)
#    1.000    2.000    0.000    0.000    2.333    2.667 
#    0.000    3.333    0.000    0.000    0.000    0.000 
#    0.000    0.000    0.000    0.000    0.000    0.000 
#
# Total GULP energy -297388.644746 kJ/mol
# GULP energy per Si atom -12391.193531 kJ/mol
# Density = 1.842243 g / cm^3
# Si number density = 18.464454 Si / 1000 Ang^3
#
#
#
# Elastic Constant Matrix: (Units=GPa)
#
#
# Indices 1 2 3 4 5 6 
#
# 1 134.6476 27.9391 85.3502 0.0000 0.0000 0.0000
# 2 27.9391 50.0598 50.2840 0.0000 0.0000 0.0000
# 3 85.3502 50.2840 170.5040 0.0000 0.0000 0.0000
# 4 0.0000 0.0000 0.0000 31.7726 0.0000 0.0000
# 5 0.0000 0.0000 0.0000 0.0000 34.6095 0.0000
# 6 0.0000 0.0000 0.0000 0.0000 0.0000 17.2047
#
#
#
# Elastic Compliance Matrix: (Units=1/GPa)
#
#
# Indices 1 2 3 4 5 6 
#
# 1 0.010904 -0.000857 -0.005206 0.000000 0.000000 0.000000
# 2 -0.000857 0.028452 -0.007962 0.000000 0.000000 0.000000
# 3 -0.005206 -0.007962 0.010819 0.000000 0.000000 0.000000
# 4 0.000000 0.000000 0.000000 0.031474 0.000000 0.000000
# 5 0.000000 0.000000 0.000000 0.000000 0.028894 0.000000
# 6 0.000000 0.000000 0.000000 0.000000 0.000000 0.058124
#
#
# Mechanical properties :
#
#
# Convention : Reuss Voigt Hill
#
# Bulk Modulus (GPa) = 45.19542 75.81755 60.50648
# Shear Modulus (GPa) = 24.49890 29.49323 26.99607
#
# Velocity S-wave (km/s) = 3.64650 4.00096 3.82783
# Velocity P-wave (km/s) = 6.50072 7.90532 7.23718
#
# Compressibility (1/GPa) = 0.02212614
#
# Stress axis : x y z
#
# Youngs Moduli (GPa) = 91.70583 35.14705 92.43034
#
# Poissons Ratio (x) = 0.03011 0.48117
# Poissons Ratio (y) = 0.07857 0.73593
# Poissons Ratio (z) = 0.47740 0.27984
#
# Static dielectric constant tensor:
#      x y z
#    x 3.585620 0.000000 0.000000 
#    y 0.000000 3.176090 0.000000 
#    z 0.000000 0.000000 3.314980 
# 
# 
# High freq. dielectric constant tensor:
#      x y z
#    x 1.717960 0.000000 0.000000 
#    y 0.000000 1.692290 0.000000 
#    z 0.000000 0.000000 1.709330 
# 
# From -- ./inp_files/6602.got.cif
#   From: 2010.03.12/outbox.cif.g09.slc.cpg/sg59_4_cif.got.tgz:6602.got - 2010.04.16 16:29:54.
