data_PCOD8245077
_publ_section_title
;
Structure prediction by ZEFSAII (Michael W. Deem and Ramdas Pophale) SiO2 
 PCOD8245077
Probable space group: P M M N
;
_chemical_formula_sum "Si O2"
_cell_formula_units_Z 56
_cell_length_a 9.182680
_cell_length_b 20.964429
_cell_length_c 14.003932
_cell_angle_alpha 90.000000
_cell_angle_beta 90.000000
_cell_angle_gamma 90.000000
_cell_volume 2695.891948
_symmetry_space_group_name_H-M "P M M N"
_symmetry_group_IT_number 59
_space_group.IT_coordinate_system_code '2'
_symmetry_cell_setting 'orthorhombic'
loop_
_space_group_symop_operation_xyz
x,y,z
1/2-x,1/2-y,z
1/2+x,-y,-z
-x,1/2+y,-z
-x,-y,-z
1/2+x,1/2+y,-z
1/2-x,y,z
x,1/2-y,z
loop_
_atom_site_type_symbol
_atom_site_label
_atom_site_fract_x
_atom_site_fract_y
_atom_site_fract_z
Si Si1 0.583363 0.321102 0.195801
Si Si2 0.578216 0.321066 0.796457
Si Si3 0.582970 0.122544 0.390275
Si Si4 0.914201 0.939360 0.885756
Si Si5 0.914572 0.364432 0.600340
Si Si6 0.914580 0.937158 0.112231
Si Si7 0.084708 0.494244 0.402358
O O1 0.750000 0.335228 0.166202
O O2 0.537024 0.250000 0.163217
O O3 0.569254 0.322414 0.311574
O O4 0.482842 0.372407 0.145154
O O5 0.750000 0.337471 0.798989
O O6 0.548647 0.250000 0.836905
O O7 0.518779 0.322225 0.685996
O O8 0.493859 0.371605 0.860630
O O9 0.750000 0.101311 0.407328
O O10 0.513168 0.142716 0.494071
O O11 0.496093 0.062049 0.344187
O O12 0.750000 0.943917 0.844613
O O13 0.912689 0.941074 0.999025
O O14 0.002720 0.000555 0.845697
O O15 0.750000 0.342211 0.584432
O O16 0.924659 0.436069 0.644983
O O17 0.750000 0.937177 0.152884
O O18 0.250000 0.473305 0.420015
O O19 0.000000 0.500000 0.500000
#
# Coordination Sequence:
#
# PCOD8245077 Si02
#       7
#     8   8   8   8   8   8   8
#     4  10  22  38  57  86 122 157 194 237 288 343
#     4  10  21  36  56  85 119 156 196 236 282 338
#     4   9  18  33  52  77 111 151 194 236 280 333
#     4  10  22  41  65  89 114 146 188 237 290 351
#     4   8  16  31  50  75 109 149 192 235 277 328
#     4  10  22  41  64  89 115 146 186 237 295 350
#     4   9  16  28  47  72 102 138 185 239 288 333
#
# _framework density 20.772345999999999
#
# number of rings (size 3 to 8) (size 9 to 14) (size 15 to 20)
#    0.000    2.571    0.000    2.143    2.000    4.000 
#    0.000    8.571    0.000    0.000    0.000    2.000 
#    0.000    0.000    0.000    0.000    0.000    0.000 
#
# Total GULP energy -693882.307416 kJ/mol
# GULP energy per Si atom -12390.755490 kJ/mol
# Density = 2.072507 g / cm^3
# Si number density = 20.772346 Si / 1000 Ang^3
#
#
#
# Elastic Constant Matrix: (Units=GPa)
#
#
# Indices 1 2 3 4 5 6 
#
# 1 116.2563 71.5054 16.6856 0.0000 0.0000 0.0000
# 2 71.5054 136.4501 20.8118 0.0000 0.0000 0.0000
# 3 16.6856 20.8118 17.1727 0.0000 0.0000 0.0000
# 4 0.0000 0.0000 0.0000 27.5781 0.0000 0.0000
# 5 0.0000 0.0000 0.0000 0.0000 21.2355 0.0000
# 6 0.0000 0.0000 0.0000 0.0000 0.0000 32.8177
#
#
#
# Elastic Compliance Matrix: (Units=1/GPa)
#
#
# Indices 1 2 3 4 5 6 
#
# 1 0.013089 -0.006035 -0.005404 0.000000 0.000000 0.000000
# 2 -0.006035 0.011773 -0.008404 0.000000 0.000000 0.000000
# 3 -0.005404 -0.008404 0.073667 0.000000 0.000000 0.000000
# 4 0.000000 0.000000 0.000000 0.036261 0.000000 0.000000
# 5 0.000000 0.000000 0.000000 0.000000 0.047091 0.000000
# 6 0.000000 0.000000 0.000000 0.000000 0.000000 0.030471
#
#
# Mechanical properties :
#
#
# Convention : Reuss Voigt Hill
#
# Bulk Modulus (GPa) = 16.99420 54.20942 35.60181
# Shear Modulus (GPa) = 18.40578 27.05134 22.72856
#
# Velocity S-wave (km/s) = 2.97992 3.61262 3.31142
# Velocity P-wave (km/s) = 4.47648 6.59962 5.63887
#
# Compressibility (1/GPa) = 0.05884360
#
# Stress axis : x y z
#
# Youngs Moduli (GPa) = 76.39853 84.93913 13.57451
#
# Poissons Ratio (x) = 0.51261 0.07336
# Poissons Ratio (y) = 0.46107 0.11408
# Poissons Ratio (z) = 0.41285 0.71384
#
# Static dielectric constant tensor:
#      x y z
#    x 4.006300 0.000000 0.000000 
#    y 0.000000 3.490800 0.000000 
#    z 0.000000 0.000000 1.080930 
# 
# 
# High freq. dielectric constant tensor:
#      x y z
#    x 1.790910 0.000000 0.000000 
#    y 0.000000 1.811600 0.000000 
#    z 0.000000 0.000000 1.809120 
# 
# From -- ./inp_files/21041.got.cif
#   From: 2010.03.12/outbox.cif.g09.slc.cpg/sg59_11_cif.got.tgz:21041.got - 2010.04.16 16:29:54.
