data_PCOD8245862
_publ_section_title
;
Structure prediction by ZEFSAII (Michael W. Deem and Ramdas Pophale) SiO2 
 PCOD8245862
Probable space group: P M M N
;
_chemical_formula_sum "Si O2"
_cell_formula_units_Z 48
_cell_length_a 17.163814
_cell_length_b 10.157290
_cell_length_c 14.675029
_cell_angle_alpha 90.000000
_cell_angle_beta 90.000000
_cell_angle_gamma 90.000000
_cell_volume 2558.412804
_symmetry_space_group_name_H-M "P M M N"
_symmetry_group_IT_number 59
_space_group.IT_coordinate_system_code '2'
_symmetry_cell_setting 'orthorhombic'
loop_
_space_group_symop_operation_xyz
x,y,z
1/2-x,1/2-y,z
1/2+x,-y,-z
-x,1/2+y,-z
-x,-y,-z
1/2+x,1/2+y,-z
1/2-x,y,z
x,1/2-y,z
loop_
_atom_site_type_symbol
_atom_site_label
_atom_site_fract_x
_atom_site_fract_y
_atom_site_fract_z
Si Si1 0.094481 0.005640 0.634004
Si Si2 0.661972 0.250000 0.450371
Si Si3 0.986571 0.596124 0.083697
Si Si4 0.836556 0.250000 0.665221
Si Si5 0.841466 0.750000 0.689185
Si Si6 0.433533 0.508558 0.268230
Si Si7 0.158962 0.250000 0.527532
Si Si8 0.336199 0.100983 0.811115
O O1 0.115216 0.123702 0.566579
O O2 0.145204 0.008074 0.726043
O O3 0.003731 0.005966 0.659358
O O4 0.113711 0.873866 0.582123
O O5 0.750000 0.250000 0.411146
O O6 0.664148 0.250000 0.557614
O O7 0.006990 0.750000 0.062479
O O8 0.036811 0.542650 0.167534
O O9 0.895188 0.580723 0.105930
O O10 0.000000 0.500000 0.000000
O O11 0.750000 0.250000 0.704796
O O12 0.876091 0.379323 0.701484
O O13 0.750000 0.750000 0.716665
O O14 0.885199 0.625914 0.733074
O O15 0.849986 0.750000 0.580690
O O16 0.250000 0.250000 0.556141
O O17 0.250000 0.069675 0.848504
O O18 0.343317 0.250000 0.773460
#
# Coordination Sequence:
#
# PCOD8245862 Si02
#       8
#     8   4   8   4   4   8   4   8
#     4  11  21  34  57  87 118 157 199 250 298 349
#     4  11  23  35  51  83 124 166 203 238 295 346
#     4  10  22  41  67  91 117 151 187 237 301 364
#     4  11  23  41  60  79 119 168 204 246 293 351
#     4  11  25  41  58  85 121 164 210 256 293 339
#     4  11  23  41  62  88 117 153 206 248 306 365
#     4  11  21  35  57  85 120 162 209 250 291 346
#     4   9  17  34  60  87 116 149 187 231 285 351
#
# _framework density 18.761633
#
# number of rings (size 3 to 8) (size 9 to 14) (size 15 to 20)
#    0.000    1.500    1.667    4.000    1.167    6.667 
#    1.500    1.667    0.000    0.000    0.000    0.000 
#    0.000    0.000    0.000    0.000    0.000    0.000 
#
# Total GULP energy -595247.547702 kJ/mol
# GULP energy per Si atom -12400.990577 kJ/mol
# Density = 1.871893 g / cm^3
# Si number density = 18.761633 Si / 1000 Ang^3
#
#
#
# Elastic Constant Matrix: (Units=GPa)
#
#
# Indices 1 2 3 4 5 6 
#
# 1 163.7193 78.5645 57.1532 0.0000 0.0000 0.0000
# 2 78.5645 169.2538 56.2557 0.0000 0.0000 0.0000
# 3 57.1532 56.2557 82.4339 0.0000 0.0000 0.0000
# 4 0.0000 0.0000 0.0000 36.1254 0.0000 0.0000
# 5 0.0000 0.0000 0.0000 0.0000 18.5541 0.0000
# 6 0.0000 0.0000 0.0000 0.0000 0.0000 36.3680
#
#
#
# Elastic Compliance Matrix: (Units=1/GPa)
#
#
# Indices 1 2 3 4 5 6 
#
# 1 0.008918 -0.002696 -0.004343 0.000000 0.000000 0.000000
# 2 -0.002696 0.008457 -0.003902 0.000000 0.000000 0.000000
# 3 -0.004343 -0.003902 0.017805 0.000000 0.000000 0.000000
# 4 0.000000 0.000000 0.000000 0.027681 0.000000 0.000000
# 5 0.000000 0.000000 0.000000 0.000000 0.053896 0.000000
# 6 0.000000 0.000000 0.000000 0.000000 0.000000 0.027497
#
#
# Mechanical properties :
#
#
# Convention : Reuss Voigt Hill
#
# Bulk Modulus (GPa) = 75.20274 88.81708 82.00991
# Shear Modulus (GPa) = 29.31377 33.10509 31.20943
#
# Velocity S-wave (km/s) = 3.95705 4.20516 4.08299
# Velocity P-wave (km/s) = 7.81332 8.42736 8.12614
#
# Compressibility (1/GPa) = 0.01329739
#
# Stress axis : x y z
#
# Youngs Moduli (GPa) = 112.13406 118.25081 56.16422
#
# Poissons Ratio (x) = 0.31880 0.24393
# Poissons Ratio (y) = 0.30231 0.21915
# Poissons Ratio (z) = 0.48701 0.46140
#
# Static dielectric constant tensor:
#      x y z
#    x 3.748240 0.000000 0.000000 
#    y 0.000000 3.380580 0.000000 
#    z 0.000000 0.000000 3.324270 
# 
# 
# High freq. dielectric constant tensor:
#      x y z
#    x 1.745010 0.000000 0.000000 
#    y 0.000000 1.737550 0.000000 
#    z 0.000000 0.000000 1.714410 
# 
# From -- ./inp_files/23810.got.cif
#   From: 2010.03.12/outbox.cif.g09.slc.cpg/sg59_12_cif.got.tgz:23810.got - 2010.04.16 16:29:54.
