data_PCOD8245281
_publ_section_title
;
Structure prediction by ZEFSAII (Michael W. Deem and Ramdas Pophale) SiO2 
 PCOD8245281
Probable space group: P M M N
;
_chemical_formula_sum "Si O2"
_cell_formula_units_Z 64
_cell_length_a 17.516153
_cell_length_b 18.902101
_cell_length_c 9.138538
_cell_angle_alpha 90.000000
_cell_angle_beta 90.000000
_cell_angle_gamma 90.000000
_cell_volume 3025.697675
_symmetry_space_group_name_H-M "P M M N"
_symmetry_group_IT_number 59
_space_group.IT_coordinate_system_code '2'
_symmetry_cell_setting 'orthorhombic'
loop_
_space_group_symop_operation_xyz
x,y,z
1/2-x,1/2-y,z
1/2+x,-y,-z
-x,1/2+y,-z
-x,-y,-z
1/2+x,1/2+y,-z
1/2-x,y,z
x,1/2-y,z
loop_
_atom_site_type_symbol
_atom_site_label
_atom_site_fract_x
_atom_site_fract_y
_atom_site_fract_z
Si Si1 0.661097 0.581136 0.195936
Si Si2 0.602743 0.426248 0.695190
Si Si3 0.911925 0.829887 0.694278
Si Si4 0.544999 0.833032 0.362688
Si Si5 0.339298 0.556065 0.620853
Si Si6 0.334930 0.670204 0.080034
Si Si7 0.337820 0.447953 0.139094
Si Si8 0.577132 0.168429 0.198067
O O1 0.750000 0.597282 0.219447
O O2 0.615490 0.649182 0.255988
O O3 0.635282 0.511728 0.285456
O O4 0.640936 0.570050 0.026917
O O5 0.522077 0.387259 0.679567
O O6 0.636644 0.456436 0.545587
O O7 0.660476 0.370518 0.767325
O O8 0.601574 0.493543 0.804559
O O9 0.881706 0.750000 0.703236
O O10 0.931251 0.849805 0.528114
O O11 0.845640 0.878802 0.759097
O O12 0.986570 0.840693 0.794790
O O13 0.521986 0.750000 0.343733
O O14 0.250000 0.569646 0.635918
O O15 0.383168 0.625703 0.672508
O O16 0.250000 0.662838 0.014517
O O17 0.356647 0.750000 0.116742
O O18 0.393363 0.639686 0.958689
O O19 0.250000 0.474926 0.150052
O O20 0.601342 0.250000 0.219951
#
# Coordination Sequence:
#
# PCOD8245281 Si02
#       8
#     8   8   8   8   8   8   8   8
#     4  10  25  46  68  97 130 169 219 272 325 384
#     4  12  24  39  65  94 134 167 214 264 322 381
#     4  10  23  43  66  95 131 169 213 268 324 384
#     4  11  25  44  67  97 132 171 216 267 324 386
#     4  11  22  38  64  94 130 172 216 264 319 382
#     4  10  21  37  57  85 126 174 218 264 318 376
#     4  11  25  44  68  98 130 168 216 268 324 388
#     4  10  21  38  60  89 129 172 217 263 316 383
#
# _framework density 21.152146999999999
#
# number of rings (size 3 to 8) (size 9 to 14) (size 15 to 20)
#    0.000    1.375    1.250    3.375    3.500    6.250 
#    0.000    2.500    0.000    0.000    0.000    0.000 
#    0.000    0.000    0.000    0.000    0.000    0.000 
#
# Total GULP energy -793742.265796 kJ/mol
# GULP energy per Si atom -12402.222903 kJ/mol
# Density = 2.110400 g / cm^3
# Si number density = 21.152147 Si / 1000 Ang^3
#
#
#
# Elastic Constant Matrix: (Units=GPa)
#
#
# Indices 1 2 3 4 5 6 
#
# 1 48.7395 28.9645 39.0132 0.0000 0.0000 0.0000
# 2 28.9645 89.1581 57.3708 0.0000 0.0000 0.0000
# 3 39.0132 57.3708 134.6276 0.0000 0.0000 0.0000
# 4 0.0000 0.0000 0.0000 39.0179 0.0000 0.0000
# 5 0.0000 0.0000 0.0000 0.0000 35.7720 0.0000
# 6 0.0000 0.0000 0.0000 0.0000 0.0000 32.4926
#
#
#
# Elastic Compliance Matrix: (Units=1/GPa)
#
#
# Indices 1 2 3 4 5 6 
#
# 1 0.028505 -0.005436 -0.005944 0.000000 0.000000 0.000000
# 2 -0.005436 0.016490 -0.005452 0.000000 0.000000 0.000000
# 3 -0.005944 -0.005452 0.011474 0.000000 0.000000 0.000000
# 4 0.000000 0.000000 0.000000 0.025629 0.000000 0.000000
# 5 0.000000 0.000000 0.000000 0.000000 0.027955 0.000000
# 6 0.000000 0.000000 0.000000 0.000000 0.000000 0.030776
#
#
# Mechanical properties :
#
#
# Convention : Reuss Voigt Hill
#
# Bulk Modulus (GPa) = 43.84839 58.13579 50.99209
# Shear Modulus (GPa) = 27.45821 31.26829 29.36325
#
# Velocity S-wave (km/s) = 3.60686 3.84898 3.72989
# Velocity P-wave (km/s) = 6.17422 6.87729 6.53522
#
# Compressibility (1/GPa) = 0.02280585
#
# Stress axis : x y z
#
# Youngs Moduli (GPa) = 35.08106 60.64254 87.15524
#
# Poissons Ratio (x) = 0.32963 0.51806
# Poissons Ratio (y) = 0.19068 0.47517
# Poissons Ratio (z) = 0.20853 0.33062
#
# Static dielectric constant tensor:
#      x y z
#    x 3.694420 0.000000 0.000000 
#    y 0.000000 3.862430 0.000000 
#    z 0.000000 0.000000 3.936630 
# 
# 
# High freq. dielectric constant tensor:
#      x y z
#    x 1.822290 0.000000 0.000000 
#    y 0.000000 1.834230 0.000000 
#    z 0.000000 0.000000 1.839780 
# 
# From -- ./inp_files/11636.got.cif
#   From: 2010.03.12/outbox.cif.g09.slc.cpg/sg59_6_cif.got.tgz:11636.got - 2010.04.16 16:29:54.
