data_PCOD8245477
_publ_section_title
;
Structure prediction by ZEFSAII (Michael W. Deem and Ramdas Pophale) SiO2 
 PCOD8245477
Probable space group: P M M N
;
_chemical_formula_sum "Si O2"
_cell_formula_units_Z 56
_cell_length_a 8.541876
_cell_length_b 22.116062
_cell_length_c 14.882569
_cell_angle_alpha 90.000000
_cell_angle_beta 90.000000
_cell_angle_gamma 90.000000
_cell_volume 2811.505686
_symmetry_space_group_name_H-M "P M M N"
_symmetry_group_IT_number 59
_space_group.IT_coordinate_system_code '2'
_symmetry_cell_setting 'orthorhombic'
loop_
_space_group_symop_operation_xyz
x,y,z
1/2-x,1/2-y,z
1/2+x,-y,-z
-x,1/2+y,-z
-x,-y,-z
1/2+x,1/2+y,-z
1/2-x,y,z
x,1/2-y,z
loop_
_atom_site_type_symbol
_atom_site_label
_atom_site_fract_x
_atom_site_fract_y
_atom_site_fract_z
Si Si1 0.922447 0.750000 0.665602
Si Si2 0.065522 0.318912 0.869253
Si Si3 0.433102 0.061961 0.535649
Si Si4 0.577888 0.750000 0.871322
Si Si5 0.563584 0.918334 0.265019
Si Si6 0.066536 0.634304 0.950562
Si Si7 0.564233 0.452358 0.203425
Si Si8 0.067008 0.625194 0.627735
O O1 0.750000 0.750000 0.616760
O O2 0.882299 0.750000 0.768779
O O3 0.032487 0.694465 0.643205
O O4 0.250000 0.313461 0.863585
O O5 0.994294 0.250000 0.871964
O O6 0.001446 0.357143 0.783610
O O7 0.021844 0.359557 0.955134
O O8 0.250000 0.054375 0.546492
O O9 0.503216 0.079524 0.633512
O O10 0.476310 0.112574 0.464358
O O11 0.500000 0.000000 0.500000
O O12 0.750000 0.750000 0.922290
O O13 0.471737 0.806979 0.893206
O O14 0.750000 0.918129 0.265222
O O15 0.505749 0.978383 0.211130
O O16 0.250000 0.629866 0.969650
O O17 0.005699 0.576842 0.891245
O O18 0.750000 0.447120 0.205577
O O19 0.499973 0.415162 0.289831
O O20 0.250000 0.612944 0.614336
#
# Coordination Sequence:
#
# PCOD8245477 Si02
#       8
#     4   8   8   4   8   8   8   8
#     4  11  23  37  55  86 123 156 197 247 296 350
#     4  10  21  38  60  83 110 152 199 240 283 339
#     4  11  21  37  62  89 115 153 199 248 300 358
#     4  11  21  33  53  82 115 150 191 235 280 338
#     4   9  19  38  60  82 113 153 196 240 290 349
#     4  11  21  34  57  85 114 150 190 234 287 348
#     4   9  18  33  56  85 115 151 191 230 286 356
#     4  11  21  37  59  85 121 160 196 240 300 364
#
# _framework density 19.918153
#
# number of rings (size 3 to 8) (size 9 to 14) (size 15 to 20)
#    0.000    1.714    3.571    1.714    0.000    1.143 
#    1.286    1.429    0.000    0.000    0.000    0.000 
#    0.000    0.000    0.000    0.000    0.000    0.000 
#
# Total GULP energy -694072.048117 kJ/mol
# GULP energy per Si atom -12394.143716 kJ/mol
# Density = 1.987282 g / cm^3
# Si number density = 19.918153 Si / 1000 Ang^3
#
#
#
# Elastic Constant Matrix: (Units=GPa)
#
#
# Indices 1 2 3 4 5 6 
#
# 1 25.4352 10.9916 13.5637 0.0000 0.0000 0.0000
# 2 10.9916 119.9431 74.1502 0.0000 0.0000 0.0000
# 3 13.5637 74.1502 152.8790 0.0000 0.0000 0.0000
# 4 0.0000 0.0000 0.0000 31.7241 0.0000 0.0000
# 5 0.0000 0.0000 0.0000 0.0000 25.5304 0.0000
# 6 0.0000 0.0000 0.0000 0.0000 0.0000 23.1444
#
#
#
# Elastic Compliance Matrix: (Units=1/GPa)
#
#
# Indices 1 2 3 4 5 6 
#
# 1 0.041667 -0.002189 -0.002635 0.000000 0.000000 0.000000
# 2 -0.002189 0.012023 -0.005637 0.000000 0.000000 0.000000
# 3 -0.002635 -0.005637 0.009509 0.000000 0.000000 0.000000
# 4 0.000000 0.000000 0.000000 0.031522 0.000000 0.000000
# 5 0.000000 0.000000 0.000000 0.000000 0.039169 0.000000
# 6 0.000000 0.000000 0.000000 0.000000 0.000000 0.043207
#
#
# Mechanical properties :
#
#
# Convention : Reuss Voigt Hill
#
# Bulk Modulus (GPa) = 23.65412 55.07426 39.36419
# Shear Modulus (GPa) = 23.57251 29.38322 26.47786
#
# Velocity S-wave (km/s) = 3.44389 3.84500 3.64996
# Velocity P-wave (km/s) = 5.26453 6.88639 6.12934
#
# Compressibility (1/GPa) = 0.04227593
#
# Stress axis : x y z
#
# Youngs Moduli (GPa) = 23.99989 83.17474 105.16303
#
# Poissons Ratio (x) = 0.18211 0.27708
# Poissons Ratio (y) = 0.05255 0.59282
# Poissons Ratio (z) = 0.06323 0.46887
#
# Static dielectric constant tensor:
#      x y z
#    x 3.418320 0.000000 0.000000 
#    y 0.000000 3.824210 0.000000 
#    z 0.000000 0.000000 3.775850 
# 
# 
# High freq. dielectric constant tensor:
#      x y z
#    x 1.749290 0.000000 0.000000 
#    y 0.000000 1.779310 0.000000 
#    z 0.000000 0.000000 1.780150 
# 
# From -- ./inp_files/21106.got.cif
#   From: 2010.03.12/outbox.cif.g09.slc.cpg/sg59_11_cif.got.tgz:21106.got - 2010.04.16 16:29:54.
