data_PCOD8245450
_publ_section_title
;
Structure prediction by ZEFSAII (Michael W. Deem and Ramdas Pophale) SiO2 
 PCOD8245450
Probable space group: P M M N
;
_chemical_formula_sum "Si O2"
_cell_formula_units_Z 56
_cell_length_a 20.467853
_cell_length_b 8.450534
_cell_length_c 16.029253
_cell_angle_alpha 90.000000
_cell_angle_beta 90.000000
_cell_angle_gamma 90.000000
_cell_volume 2772.488327
_symmetry_space_group_name_H-M "P M M N"
_symmetry_group_IT_number 59
_space_group.IT_coordinate_system_code '2'
_symmetry_cell_setting 'orthorhombic'
loop_
_space_group_symop_operation_xyz
x,y,z
1/2-x,1/2-y,z
1/2+x,-y,-z
-x,1/2+y,-z
-x,-y,-z
1/2+x,1/2+y,-z
1/2-x,y,z
x,1/2-y,z
loop_
_atom_site_type_symbol
_atom_site_label
_atom_site_fract_x
_atom_site_fract_y
_atom_site_fract_z
Si Si1 0.016441 0.571262 0.088449
Si Si2 0.967997 0.933810 0.390917
Si Si3 0.429254 0.567743 0.781215
Si Si4 0.750000 0.927007 0.779203
Si Si5 0.893478 0.435639 0.543377
Si Si6 0.750000 0.433424 0.601858
Si Si7 0.353773 0.069840 0.080359
Si Si8 0.677909 0.428615 0.091523
O O1 0.990133 0.750000 0.098550
O O2 0.093594 0.565601 0.095567
O O3 0.990824 0.454484 0.159218
O O4 0.000000 0.500000 0.000000
O O5 0.966308 0.750000 0.414190
O O6 0.043959 0.995741 0.399840
O O7 0.940662 0.960238 0.298944
O O8 0.915567 0.022046 0.449874
O O9 0.421494 0.750000 0.754179
O O10 0.367673 0.503621 0.834772
O O11 0.750000 0.750000 0.741960
O O12 0.810208 0.955980 0.839283
O O13 0.750000 0.045669 0.701572
O O14 0.886656 0.250000 0.554785
O O15 0.820081 0.506516 0.566110
O O16 0.750000 0.250000 0.579146
O O17 0.380216 0.250000 0.077360
O O18 0.320802 0.036392 0.990996
O O19 0.750000 0.427714 0.129771
O O20 0.654775 0.250000 0.068650
#
# Coordination Sequence:
#
# PCOD8245450 Si02
#       8
#     8   8   8   4   8   4   8   8
#     4  12  24  38  57  84 118 157 202 250 297 350
#     4  10  21  39  64  92 120 155 198 243 298 361
#     4  11  23  39  60  88 120 156 200 248 298 352
#     4  10  24  40  56  87 122 155 198 243 295 352
#     4   9  20  41  65  90 119 154 195 241 300 363
#     4  10  22  40  64  93 122 157 198 245 299 360
#     4  11  22  38  57  82 117 160 202 246 298 351
#     4  10  21  38  59  82 111 155 205 251 300 354
#
# _framework density 20.198461000000002
#
# number of rings (size 3 to 8) (size 9 to 14) (size 15 to 20)
#    0.000    1.571    2.143    2.571    2.000    2.857 
#    1.286    0.000    0.000    0.000    0.000    0.000 
#    0.000    0.000    0.000    0.000    0.000    0.000 
#
# Total GULP energy -693811.944955 kJ/mol
# GULP energy per Si atom -12389.499017 kJ/mol
# Density = 2.015249 g / cm^3
# Si number density = 20.198461 Si / 1000 Ang^3
#
#
#
# Elastic Constant Matrix: (Units=GPa)
#
#
# Indices 1 2 3 4 5 6 
#
# 1 142.9279 21.2378 55.5465 0.0000 0.0000 0.0000
# 2 21.2378 38.5928 9.2016 0.0000 0.0000 0.0000
# 3 55.5465 9.2016 123.6764 0.0000 0.0000 0.0000
# 4 0.0000 0.0000 0.0000 33.0763 0.0000 0.0000
# 5 0.0000 0.0000 0.0000 0.0000 39.6822 0.0000
# 6 0.0000 0.0000 0.0000 0.0000 0.0000 11.1301
#
#
#
# Elastic Compliance Matrix: (Units=1/GPa)
#
#
# Indices 1 2 3 4 5 6 
#
# 1 0.009069 -0.004092 -0.003769 0.000000 0.000000 0.000000
# 2 -0.004092 0.028226 -0.000262 0.000000 0.000000 0.000000
# 3 -0.003769 -0.000262 0.009798 0.000000 0.000000 0.000000
# 4 0.000000 0.000000 0.000000 0.030233 0.000000 0.000000
# 5 0.000000 0.000000 0.000000 0.000000 0.025200 0.000000
# 6 0.000000 0.000000 0.000000 0.000000 0.000000 0.089847
#
#
# Mechanical properties :
#
#
# Convention : Reuss Voigt Hill
#
# Bulk Modulus (GPa) = 32.41827 53.01877 42.71852
# Shear Modulus (GPa) = 22.84129 31.39179 27.11654
#
# Velocity S-wave (km/s) = 3.36645 3.94657 3.66800
# Velocity P-wave (km/s) = 5.58528 6.86099 6.25574
#
# Compressibility (1/GPa) = 0.03084681
#
# Stress axis : x y z
#
# Youngs Moduli (GPa) = 110.26221 35.42824 102.06382
#
# Poissons Ratio (x) = 0.14498 0.38466
# Poissons Ratio (y) = 0.45123 0.02675
# Poissons Ratio (z) = 0.41556 0.00929
#
# Static dielectric constant tensor:
#      x y z
#    x 4.074950 0.000000 0.000000 
#    y 0.000000 3.490070 0.000000 
#    z 0.000000 0.000000 3.536510 
# 
# 
# High freq. dielectric constant tensor:
#      x y z
#    x 1.799870 0.000000 0.000000 
#    y 0.000000 1.779290 0.000000 
#    z 0.000000 0.000000 1.779710 
# 
# From -- ./inp_files/24344.got.cif
#   From: 2010.03.12/outbox.cif.g09.slc.cpg/sg59_13_cif.got.tgz:24344.got - 2010.04.16 16:29:54.
