data_PCOD8245264
_publ_section_title
;
Structure prediction by ZEFSAII (Michael W. Deem and Ramdas Pophale) SiO2 
 PCOD8245264
Probable space group: P M M N
;
_chemical_formula_sum "Si O2"
_cell_formula_units_Z 64
_cell_length_a 8.784054
_cell_length_b 14.548312
_cell_length_c 26.021198
_cell_angle_alpha 90.000000
_cell_angle_beta 90.000000
_cell_angle_gamma 90.000000
_cell_volume 3325.331073
_symmetry_space_group_name_H-M "P M M N"
_symmetry_group_IT_number 59
_space_group.IT_coordinate_system_code '2'
_symmetry_cell_setting 'orthorhombic'
loop_
_space_group_symop_operation_xyz
x,y,z
1/2-x,1/2-y,z
1/2+x,-y,-z
-x,1/2+y,-z
-x,-y,-z
1/2+x,1/2+y,-z
1/2-x,y,z
x,1/2-y,z
loop_
_atom_site_type_symbol
_atom_site_label
_atom_site_fract_x
_atom_site_fract_y
_atom_site_fract_z
Si Si1 0.070091 0.506646 0.944262
Si Si2 0.925767 0.998266 0.420070
Si Si3 0.426144 0.643403 0.493003
Si Si4 0.924499 0.857006 0.247160
Si Si5 0.572362 0.355564 0.234179
Si Si6 0.075767 0.141851 0.129256
Si Si7 0.427426 0.491703 0.311274
Si Si8 0.569041 0.851314 0.131831
O O1 0.250000 0.502408 0.948906
O O2 0.004674 0.423337 0.909418
O O3 0.019745 0.601049 0.917828
O O4 0.000000 0.500000 0.000000
O O5 0.750000 0.989052 0.404009
O O6 0.954007 0.089587 0.453804
O O7 0.030247 0.009149 0.370679
O O8 0.972837 0.905048 0.449443
O O9 0.250000 0.636165 0.476692
O O10 0.475793 0.750000 0.499408
O O11 0.750000 0.889525 0.253790
O O12 0.939945 0.750000 0.259638
O O13 0.982464 0.878647 0.189375
O O14 0.030343 0.910280 0.286955
O O15 0.750000 0.369732 0.224904
O O16 0.529876 0.250000 0.244214
O O17 0.488388 0.394096 0.183582
O O18 0.519597 0.410993 0.283635
O O19 0.250000 0.111073 0.124358
O O20 0.055025 0.250000 0.125379
O O21 0.250000 0.472872 0.304860
O O22 0.750000 0.849289 0.130857
O O23 0.505744 0.750000 0.117611
#
# Coordination Sequence:
#
# PCOD8245264 Si02
#       8
#     8   8   8   8   8   8   8   8
#     4  11  22  35  54  80 110 144 183 228 279 333
#     4  10  21  37  57  83 113 146 187 229 273 327
#     4   9  19  38  62  84 108 141 182 230 282 331
#     4   9  18  35  59  83 106 138 184 232 278 333
#     4  10  21  38  60  84 111 146 187 229 277 335
#     4  10  21  38  59  82 110 144 183 229 281 336
#     4  12  24  36  54  82 119 155 185 227 277 325
#     4   8  16  33  56  78 100 132 175 221 270 324
#
# _framework density 19.246205
#
# number of rings (size 3 to 8) (size 9 to 14) (size 15 to 20)
#    0.000    2.125    0.000    4.125    0.000    5.000 
#    0.000    3.125    0.000    2.625    0.000    0.000 
#    0.000    0.000    0.000    0.000    0.000    0.000 
#
# Total GULP energy -793769.054750 kJ/mol
# GULP energy per Si atom -12402.641480 kJ/mol
# Density = 1.920240 g / cm^3
# Si number density = 19.246205 Si / 1000 Ang^3
#
#
#
# Elastic Constant Matrix: (Units=GPa)
#
#
# Indices 1 2 3 4 5 6 
#
# 1 58.4552 31.5216 28.1173 0.0000 0.0000 0.0000
# 2 31.5216 100.2685 47.3112 0.0000 0.0000 0.0000
# 3 28.1173 47.3112 113.0401 0.0000 0.0000 0.0000
# 4 0.0000 0.0000 0.0000 16.2959 0.0000 0.0000
# 5 0.0000 0.0000 0.0000 0.0000 33.8305 0.0000
# 6 0.0000 0.0000 0.0000 0.0000 0.0000 26.0598
#
#
#
# Elastic Compliance Matrix: (Units=1/GPa)
#
#
# Indices 1 2 3 4 5 6 
#
# 1 0.021454 -0.005267 -0.003132 0.000000 0.000000 0.000000
# 2 -0.005267 0.013720 -0.004432 0.000000 0.000000 0.000000
# 3 -0.003132 -0.004432 0.011481 0.000000 0.000000 0.000000
# 4 0.000000 0.000000 0.000000 0.061365 0.000000 0.000000
# 5 0.000000 0.000000 0.000000 0.000000 0.029559 0.000000
# 6 0.000000 0.000000 0.000000 0.000000 0.000000 0.038373
#
#
# Mechanical properties :
#
#
# Convention : Reuss Voigt Hill
#
# Bulk Modulus (GPa) = 47.63633 53.96269 50.79951
# Shear Modulus (GPa) = 23.96797 26.22481 25.09639
#
# Velocity S-wave (km/s) = 3.53276 3.69534 3.61496
# Velocity P-wave (km/s) = 6.43780 6.80488 6.62388
#
# Compressibility (1/GPa) = 0.02099238
#
# Stress axis : x y z
#
# Youngs Moduli (GPa) = 46.61216 72.88471 87.10333
#
# Poissons Ratio (x) = 0.38385 0.27282
# Poissons Ratio (y) = 0.24549 0.38608
# Poissons Ratio (z) = 0.14599 0.32306
#
# Static dielectric constant tensor:
#      x y z
#    x 3.474340 0.000000 0.000000 
#    y 0.000000 3.809290 0.000000 
#    z 0.000000 0.000000 3.519520 
# 
# 
# High freq. dielectric constant tensor:
#      x y z
#    x 1.741710 0.000000 0.000000 
#    y 0.000000 1.757220 0.000000 
#    z 0.000000 0.000000 1.747940 
# 
# From -- ./inp_files/31524.got.cif
#   From: 2010.03.12/outbox.cif.g09.slc.cpg/sg59_16_cif.got.tgz:31524.got - 2010.04.16 16:29:54.
