data_PCOD8245235
_publ_section_title
;
Structure prediction by ZEFSAII (Michael W. Deem and Ramdas Pophale) SiO2 
 PCOD8245235
Probable space group: P M M N
;
_chemical_formula_sum "Si O2"
_cell_formula_units_Z 48
_cell_length_a 8.804170
_cell_length_b 9.037492
_cell_length_c 30.604304
_cell_angle_alpha 90.000000
_cell_angle_beta 90.000000
_cell_angle_gamma 90.000000
_cell_volume 2435.111507
_symmetry_space_group_name_H-M "P M M N"
_symmetry_group_IT_number 59
_space_group.IT_coordinate_system_code '2'
_symmetry_cell_setting 'orthorhombic'
loop_
_space_group_symop_operation_xyz
x,y,z
1/2-x,1/2-y,z
1/2+x,-y,-z
-x,1/2+y,-z
-x,-y,-z
1/2+x,1/2+y,-z
1/2-x,y,z
x,1/2-y,z
loop_
_atom_site_type_symbol
_atom_site_label
_atom_site_fract_x
_atom_site_fract_y
_atom_site_fract_z
Si Si1 0.925860 0.080777 0.292259
Si Si2 0.573678 0.921787 0.798609
Si Si3 0.570659 0.918423 0.540813
Si Si4 0.070981 0.081667 0.040856
Si Si5 0.075186 0.576775 0.371504
Si Si6 0.573722 0.922739 0.121757
O O1 0.750000 0.056472 0.280927
O O2 0.958901 0.250000 0.305902
O O3 0.024285 0.036618 0.250222
O O4 0.973035 0.974479 0.331372
O O5 0.750000 0.960095 0.804638
O O6 0.540809 0.750000 0.808492
O O7 0.474550 0.020482 0.830882
O O8 0.750000 0.929263 0.536700
O O9 0.513418 0.750000 0.541538
O O10 0.500000 0.000000 0.500000
O O11 0.514686 0.996127 0.585141
O O12 0.250000 0.074232 0.036185
O O13 0.012801 0.250000 0.041233
O O14 0.023884 0.005696 0.085655
O O15 0.000000 0.000000 0.000000
O O16 0.250000 0.534683 0.362031
O O17 0.054122 0.750000 0.378691
O O18 0.750000 0.956803 0.113932
O O19 0.538659 0.750000 0.118393
#
# Coordination Sequence:
#
# PCOD8245235 Si02
#       6
#     8   8   8   8   8   8
#     4  10  21  37  58  84 113 147 187 231 281 335
#     4  10  21  38  61  87 114 148 191 236 283 337
#     4  10  21  37  58  83 111 145 185 229 278 332
#     4  11  24  41  62  89 119 152 193 238 285 339
#     4  10  21  37  57  81 110 146 187 230 278 332
#     4  11  24  40  59  86 119 154 193 236 283 337
#
# _framework density 19.711624
#
# number of rings (size 3 to 8) (size 9 to 14) (size 15 to 20)
#    0.000    1.667    0.000    4.000    0.000   12.000 
#    0.000    0.000    0.000    0.000    0.000    0.000 
#    0.000    0.000    0.000    0.000    0.000    0.000 
#
# Total GULP energy -595513.559438 kJ/mol
# GULP energy per Si atom -12406.532488 kJ/mol
# Density = 1.966676 g / cm^3
# Si number density = 19.711624 Si / 1000 Ang^3
#
#
#
# Elastic Constant Matrix: (Units=GPa)
#
#
# Indices 1 2 3 4 5 6 
#
# 1 49.8322 42.9703 27.6682 0.0000 0.0000 0.0000
# 2 42.9703 122.4416 64.5055 0.0000 0.0000 0.0000
# 3 27.6682 64.5055 121.2860 0.0000 0.0000 0.0000
# 4 0.0000 0.0000 0.0000 43.9251 0.0000 0.0000
# 5 0.0000 0.0000 0.0000 0.0000 41.9866 0.0000
# 6 0.0000 0.0000 0.0000 0.0000 0.0000 31.6874
#
#
#
# Elastic Compliance Matrix: (Units=1/GPa)
#
#
# Indices 1 2 3 4 5 6 
#
# 1 0.029017 -0.009303 -0.001672 0.000000 0.000000 0.000000
# 2 -0.009303 0.014329 -0.005498 0.000000 0.000000 0.000000
# 3 -0.001672 -0.005498 0.011551 0.000000 0.000000 0.000000
# 4 0.000000 0.000000 0.000000 0.022766 0.000000 0.000000
# 5 0.000000 0.000000 0.000000 0.000000 0.023817 0.000000
# 6 0.000000 0.000000 0.000000 0.000000 0.000000 0.031558
#
#
# Mechanical properties :
#
#
# Convention : Reuss Voigt Hill
#
# Bulk Modulus (GPa) = 45.55699 62.64977 54.10338
# Shear Modulus (GPa) = 28.85150 34.08087 31.46619
#
# Velocity S-wave (km/s) = 3.82996 4.16260 3.99974
# Velocity P-wave (km/s) = 6.53605 7.41318 6.98839
#
# Compressibility (1/GPa) = 0.02195053
#
# Stress axis : x y z
#
# Youngs Moduli (GPa) = 34.46210 69.79030 86.57466
#
# Poissons Ratio (x) = 0.64924 0.14475
# Poissons Ratio (y) = 0.32059 0.47603
# Poissons Ratio (z) = 0.05762 0.38374
#
# Static dielectric constant tensor:
#      x y z
#    x 3.649040 0.000000 0.000000 
#    y 0.000000 3.722340 0.000000 
#    z 0.000000 0.000000 3.707930 
# 
# 
# High freq. dielectric constant tensor:
#      x y z
#    x 1.771950 0.000000 0.000000 
#    y 0.000000 1.776450 0.000000 
#    z 0.000000 0.000000 1.782560 
# 
# From -- ./inp_files/32775.got.cif
#   From: 2010.03.12/outbox.cif.g09.slc.cpg/sg59_17_cif.got.tgz:32775.got - 2010.04.16 16:29:54.
