data_PCOD8245736
_publ_section_title
;
Structure prediction by ZEFSAII (Michael W. Deem and Ramdas Pophale) SiO2 
 PCOD8245736
Probable space group: P M M N
;
_chemical_formula_sum "Si O2"
_cell_formula_units_Z 56
_cell_length_a 20.542619
_cell_length_b 9.282229
_cell_length_c 14.514556
_cell_angle_alpha 90.000000
_cell_angle_beta 90.000000
_cell_angle_gamma 90.000000
_cell_volume 2767.654317
_symmetry_space_group_name_H-M "P M M N"
_symmetry_group_IT_number 59
_space_group.IT_coordinate_system_code '2'
_symmetry_cell_setting 'orthorhombic'
loop_
_space_group_symop_operation_xyz
x,y,z
1/2-x,1/2-y,z
1/2+x,-y,-z
-x,1/2+y,-z
-x,-y,-z
1/2+x,1/2+y,-z
1/2-x,y,z
x,1/2-y,z
loop_
_atom_site_type_symbol
_atom_site_label
_atom_site_fract_x
_atom_site_fract_y
_atom_site_fract_z
Si Si1 0.824954 0.581470 0.399284
Si Si2 0.750000 0.590800 0.108496
Si Si3 0.567351 0.084577 0.288384
Si Si4 0.823443 0.084378 0.585453
Si Si5 0.872671 0.413151 0.102483
Si Si6 0.625680 0.415510 0.896086
Si Si7 0.058013 0.585308 0.284677
Si Si8 0.250000 0.090279 0.109758
O O1 0.750000 0.554855 0.369556
O O2 0.842064 0.750000 0.399635
O O3 0.871063 0.498869 0.328620
O O4 0.838156 0.519419 0.500419
O O5 0.750000 0.750000 0.153109
O O6 0.814273 0.509716 0.141647
O O7 0.750000 0.597906 0.999482
O O8 0.569312 0.250000 0.321406
O O9 0.569462 0.072954 0.176646
O O10 0.499932 0.014542 0.322327
O O11 0.750000 0.058004 0.623118
O O12 0.831595 0.250000 0.553409
O O13 0.874591 0.045089 0.665135
O O14 0.846629 0.250000 0.097523
O O15 0.896198 0.461355 0.999917
O O16 0.648234 0.250000 0.894013
O O17 0.566651 0.440605 0.825090
O O18 0.685805 0.507755 0.858051
O O19 0.038439 0.750000 0.304714
O O20 0.250000 0.250000 0.153215
#
# Coordination Sequence:
#
# PCOD8245736 Si02
#       8
#     8   4   8   8   8   8   8   4
#     4  10  22  41  65  91 116 145 187 238 291 347
#     4   9  17  29  49  77 106 139 184 239 291 332
#     4  11  24  39  57  83 119 159 197 237 288 345
#     4   9  19  38  64  91 117 146 185 234 289 349
#     4   9  19  35  53  78 112 154 198 237 281 338
#     4   9  18  34  56  79 111 154 198 239 282 336
#     4  10  22  38  59  87 118 154 197 240 286 340
#     4   9  17  29  47  77 110 141 184 237 289 334
#
# _framework density 20.233741999999999
#
# number of rings (size 3 to 8) (size 9 to 14) (size 15 to 20)
#    0.000    2.429    0.000    1.286    2.000    6.000 
#    0.000    0.000    0.000    0.000    0.000    0.000 
#    0.000    0.000    0.000    0.000    0.000    0.000 
#
# Total GULP energy -694285.616801 kJ/mol
# GULP energy per Si atom -12397.957443 kJ/mol
# Density = 2.018769 g / cm^3
# Si number density = 20.233742 Si / 1000 Ang^3
#
#
#
# Elastic Constant Matrix: (Units=GPa)
#
#
# Indices 1 2 3 4 5 6 
#
# 1 108.1662 63.6568 51.0116 0.0000 0.0000 0.0000
# 2 63.6568 116.6587 43.5105 0.0000 0.0000 0.0000
# 3 51.0116 43.5105 82.7495 0.0000 0.0000 0.0000
# 4 0.0000 0.0000 0.0000 22.3424 0.0000 0.0000
# 5 0.0000 0.0000 0.0000 0.0000 21.5294 0.0000
# 6 0.0000 0.0000 0.0000 0.0000 0.0000 27.4820
#
#
#
# Elastic Compliance Matrix: (Units=1/GPa)
#
#
# Indices 1 2 3 4 5 6 
#
# 1 0.016064 -0.006309 -0.006585 0.000000 0.000000 0.000000
# 2 -0.006309 0.013141 -0.003020 0.000000 0.000000 0.000000
# 3 -0.006585 -0.003020 0.017732 0.000000 0.000000 0.000000
# 4 0.000000 0.000000 0.000000 0.044758 0.000000 0.000000
# 5 0.000000 0.000000 0.000000 0.000000 0.046448 0.000000
# 6 0.000000 0.000000 0.000000 0.000000 0.000000 0.036387
#
#
# Mechanical properties :
#
#
# Convention : Reuss Voigt Hill
#
# Bulk Modulus (GPa) = 66.19173 69.32579 67.75876
# Shear Modulus (GPa) = 23.65226 24.23047 23.94136
#
# Velocity S-wave (km/s) = 3.42270 3.46429 3.44356
# Velocity P-wave (km/s) = 6.95733 7.09497 7.02648
#
# Compressibility (1/GPa) = 0.01510763
#
# Stress axis : x y z
#
# Youngs Moduli (GPa) = 62.25220 76.09569 56.39456
#
# Poissons Ratio (x) = 0.48012 0.37136
# Poissons Ratio (y) = 0.39277 0.17033
# Poissons Ratio (z) = 0.40993 0.22984
#
# Static dielectric constant tensor:
#      x y z
#    x 3.448740 0.000000 0.000000 
#    y 0.000000 3.818220 0.000000 
#    z 0.000000 0.000000 3.599410 
# 
# 
# High freq. dielectric constant tensor:
#      x y z
#    x 1.775470 0.000000 0.000000 
#    y 0.000000 1.791610 0.000000 
#    z 0.000000 0.000000 1.784130 
# 
# From -- ./inp_files/24387.got.cif
#   From: 2010.03.12/outbox.cif.g09.slc.cpg/sg59_13_cif.got.tgz:24387.got - 2010.04.16 16:29:54.
