data_PCOD8245289
_publ_section_title
;
Structure prediction by ZEFSAII (Michael W. Deem and Ramdas Pophale) SiO2 
 PCOD8245289
Probable space group: P M M N
;
_chemical_formula_sum "Si O2"
_cell_formula_units_Z 48
_cell_length_a 18.035897
_cell_length_b 15.351277
_cell_length_c 9.102530
_cell_angle_alpha 90.000000
_cell_angle_beta 90.000000
_cell_angle_gamma 90.000000
_cell_volume 2520.254354
_symmetry_space_group_name_H-M "P M M N"
_symmetry_group_IT_number 59
_space_group.IT_coordinate_system_code '2'
_symmetry_cell_setting 'orthorhombic'
loop_
_space_group_symop_operation_xyz
x,y,z
1/2-x,1/2-y,z
1/2+x,-y,-z
-x,1/2+y,-z
-x,-y,-z
1/2+x,1/2+y,-z
1/2-x,y,z
x,1/2-y,z
loop_
_atom_site_type_symbol
_atom_site_label
_atom_site_fract_x
_atom_site_fract_y
_atom_site_fract_z
Si Si1 0.167540 0.648021 0.045575
Si Si2 0.884641 0.850611 0.992246
Si Si3 0.936789 0.945329 0.426225
Si Si4 0.168729 0.996062 0.810009
Si Si5 0.664294 0.648199 0.665361
Si Si6 0.021265 0.848682 0.180863
O O1 0.250000 0.633050 0.114135
O O2 0.155503 0.750000 0.007008
O O3 0.103505 0.610329 0.154843
O O4 0.158536 0.593433 0.897424
O O5 0.860084 0.750000 0.024701
O O6 0.971097 0.864167 0.035058
O O7 0.837402 0.917325 0.089499
O O8 0.872518 0.873603 0.822207
O O9 0.882687 0.900097 0.541721
O O10 0.979410 0.876593 0.326407
O O11 0.889251 0.008009 0.322024
O O12 0.000000 0.000000 0.500000
O O13 0.250000 0.999570 0.739343
O O14 0.750000 0.616859 0.664128
O O15 0.660034 0.750000 0.631509
O O16 0.038510 0.750000 0.208495
#
# Coordination Sequence:
#
# PCOD8245289 Si02
#       6
#     8   8   8   8   8   8
#     4   9  19  36  59  84 106 138 188 243 288 324
#     4   9  19  34  59  91 116 142 182 232 287 339
#     4  11  24  36  52  80 117 154 186 224 279 342
#     4  10  21  37  58  82 111 146 187 232 281 336
#     4  10  21  38  58  82 115 153 191 232 282 343
#     4   9  19  37  58  80 109 143 187 233 278 335
#
# _framework density 19.045696
#
# number of rings (size 3 to 8) (size 9 to 14) (size 15 to 20)
#    0.000    2.333    0.000    1.500    4.667    3.000 
#    0.000    1.667    0.000    0.000    0.000    0.000 
#    0.000    0.000    0.000    0.000    0.000    0.000 
#
# Total GULP energy -594844.800972 kJ/mol
# GULP energy per Si atom -12392.600020 kJ/mol
# Density = 1.900235 g / cm^3
# Si number density = 19.045696 Si / 1000 Ang^3
#
#
#
# Elastic Constant Matrix: (Units=GPa)
#
#
# Indices 1 2 3 4 5 6 
#
# 1 159.4646 40.5828 76.1461 0.0000 0.0000 0.0000
# 2 40.5828 49.1346 31.5683 0.0000 0.0000 0.0000
# 3 76.1461 31.5683 115.3787 0.0000 0.0000 0.0000
# 4 0.0000 0.0000 0.0000 22.2108 0.0000 0.0000
# 5 0.0000 0.0000 0.0000 0.0000 25.9638 0.0000
# 6 0.0000 0.0000 0.0000 0.0000 0.0000 27.9702
#
#
#
# Elastic Compliance Matrix: (Units=1/GPa)
#
#
# Indices 1 2 3 4 5 6 
#
# 1 0.010042 -0.004897 -0.005288 0.000000 0.000000 0.000000
# 2 -0.004897 0.027081 -0.004178 0.000000 0.000000 0.000000
# 3 -0.005288 -0.004178 0.013300 0.000000 0.000000 0.000000
# 4 0.000000 0.000000 0.000000 0.045023 0.000000 0.000000
# 5 0.000000 0.000000 0.000000 0.000000 0.038515 0.000000
# 6 0.000000 0.000000 0.000000 0.000000 0.000000 0.035752
#
#
# Mechanical properties :
#
#
# Convention : Reuss Voigt Hill
#
# Bulk Modulus (GPa) = 46.08644 68.95247 57.51945
# Shear Modulus (GPa) = 24.31063 26.94099 25.62581
#
# Velocity S-wave (km/s) = 3.57660 3.76512 3.67207
# Velocity P-wave (km/s) = 6.42701 7.42858 6.94587
#
# Compressibility (1/GPa) = 0.02169836
#
# Stress axis : x y z
#
# Youngs Moduli (GPa) = 99.58009 36.92609 75.18919
#
# Poissons Ratio (x) = 0.18083 0.39757
# Poissons Ratio (y) = 0.48766 0.31411
# Poissons Ratio (z) = 0.52654 0.15426
#
# Static dielectric constant tensor:
#      x y z
#    x 3.195310 0.000000 0.000000 
#    y 0.000000 3.464910 0.000000 
#    z 0.000000 0.000000 3.104550 
# 
# 
# High freq. dielectric constant tensor:
#      x y z
#    x 1.762190 0.000000 0.000000 
#    y 0.000000 1.738520 0.000000 
#    z 0.000000 0.000000 1.722970 
# 
# From -- ./inp_files/10242.got.cif
#   From: 2010.03.12/outbox.cif.g09.slc.cpg/sg59_6_cif.got.tgz:10242.got - 2010.04.16 16:29:54.
