data_PCOD8245531
_publ_section_title
;
Structure prediction by ZEFSAII (Michael W. Deem and Ramdas Pophale) SiO2 
 PCOD8245531
Probable space group: P M M N
;
_chemical_formula_sum "Si O2"
_cell_formula_units_Z 40
_cell_length_a 8.805299
_cell_length_b 25.703205
_cell_length_c 8.901845
_cell_angle_alpha 90.000000
_cell_angle_beta 90.000000
_cell_angle_gamma 90.000000
_cell_volume 2014.704776
_symmetry_space_group_name_H-M "P M M N"
_symmetry_group_IT_number 59
_space_group.IT_coordinate_system_code '2'
_symmetry_cell_setting 'orthorhombic'
loop_
_space_group_symop_operation_xyz
x,y,z
1/2-x,1/2-y,z
1/2+x,-y,-z
-x,1/2+y,-z
-x,-y,-z
1/2+x,1/2+y,-z
1/2-x,y,z
x,1/2-y,z
loop_
_atom_site_type_symbol
_atom_site_label
_atom_site_fract_x
_atom_site_fract_y
_atom_site_fract_z
Si Si1 0.570102 0.750000 0.090941
Si Si2 0.427379 0.847642 0.587840
Si Si3 0.925420 0.650559 0.906142
Si Si4 0.925548 0.953854 0.091836
Si Si5 0.570324 0.750000 0.428016
Si Si6 0.428595 0.951870 0.414809
O O1 0.750000 0.750000 0.102180
O O2 0.501714 0.750000 0.259281
O O3 0.513277 0.801033 0.003548
O O4 0.250000 0.836040 0.574687
O O5 0.471616 0.854099 0.760360
O O6 0.517620 0.800638 0.515264
O O7 0.474355 0.899980 0.502812
O O8 0.750000 0.658645 0.859488
O O9 0.947563 0.599107 0.002292
O O10 0.750000 0.966932 0.119448
O O11 0.007707 0.947499 0.248907
O O12 0.000000 0.000000 0.000000
O O13 0.750000 0.750000 0.423433
O O14 0.250000 0.960197 0.407262
O O15 0.500000 0.000000 0.500000
#
# Coordination Sequence:
#
# PCOD8245531 Si02
#       6
#     4   8   8   8   4   8
#     4   9  19  37  60  86 112 143 190 241 286 338
#     4  11  24  40  59  88 123 156 195 246 301 354
#     4  10  21  38  61  87 115 152 197 242 292 354
#     4  11  23  39  61  89 121 157 200 248 298 358
#     4  11  22  39  64  88 116 157 200 243 294 358
#     4  11  24  41  62  88 121 161 204 252 304 359
#
# _framework density 19.854026000000001
#
# number of rings (size 3 to 8) (size 9 to 14) (size 15 to 20)
#    0.000    1.400    0.000    5.100    0.000   10.400 
#    0.000    2.000    0.000    0.000    0.000    0.000 
#    0.000    0.000    0.000    0.000    0.000    0.000 
#
# Total GULP energy -496238.707816 kJ/mol
# GULP energy per Si atom -12405.967695 kJ/mol
# Density = 1.980884 g / cm^3
# Si number density = 19.854026 Si / 1000 Ang^3
#
#
#
# Elastic Constant Matrix: (Units=GPa)
#
#
# Indices 1 2 3 4 5 6 
#
# 1 69.3967 64.8596 43.1678 0.0000 0.0000 0.0000
# 2 64.8596 156.6346 61.8165 0.0000 0.0000 0.0000
# 3 43.1678 61.8165 145.6749 0.0000 0.0000 0.0000
# 4 0.0000 0.0000 0.0000 91.5788 0.0000 0.0000
# 5 0.0000 0.0000 0.0000 0.0000 37.0235 0.0000
# 6 0.0000 0.0000 0.0000 0.0000 0.0000 29.0693
#
#
#
# Elastic Compliance Matrix: (Units=1/GPa)
#
#
# Indices 1 2 3 4 5 6 
#
# 1 0.025004 -0.008924 -0.003623 0.000000 0.000000 0.000000
# 2 -0.008924 0.010854 -0.001961 0.000000 0.000000 0.000000
# 3 -0.003623 -0.001961 0.008770 0.000000 0.000000 0.000000
# 4 0.000000 0.000000 0.000000 0.010920 0.000000 0.000000
# 5 0.000000 0.000000 0.000000 0.000000 0.027010 0.000000
# 6 0.000000 0.000000 0.000000 0.000000 0.000000 0.034401
#
#
# Mechanical properties :
#
#
# Convention : Reuss Voigt Hill
#
# Bulk Modulus (GPa) = 64.05238 79.04380 71.54809
# Shear Modulus (GPa) = 33.07375 44.99181 39.03278
#
# Velocity S-wave (km/s) = 4.08591 4.76555 4.43876
# Velocity P-wave (km/s) = 7.38859 8.37732 7.89844
#
# Compressibility (1/GPa) = 0.01561222
#
# Stress axis : x y z
#
# Youngs Moduli (GPa) = 39.99380 92.13567 114.02127
#
# Poissons Ratio (x) = 0.82222 0.41305
# Poissons Ratio (y) = 0.35691 0.22362
# Poissons Ratio (z) = 0.14488 0.18070
#
# Static dielectric constant tensor:
#      x y z
#    x 3.651400 0.000000 0.000000 
#    y 0.000000 3.882590 0.000000 
#    z 0.000000 0.000000 3.789970 
# 
# 
# High freq. dielectric constant tensor:
#      x y z
#    x 1.772910 0.000000 0.000000 
#    y 0.000000 1.796260 0.000000 
#    z 0.000000 0.000000 1.794720 
# 
# From -- ./inp_files/5914.got.cif
#   From: 2010.03.12/outbox.cif.g09.slc.cpg/sg59_3_cif.got.tgz:5914.got - 2010.04.16 16:29:54.
