data_PCOD8245117
_publ_section_title
;
Structure prediction by ZEFSAII (Michael W. Deem and Ramdas Pophale) SiO2 
 PCOD8245117
Probable space group: P M M N
;
_chemical_formula_sum "Si O2"
_cell_formula_units_Z 56
_cell_length_a 9.268272
_cell_length_b 19.938082
_cell_length_c 17.770194
_cell_angle_alpha 90.000000
_cell_angle_beta 90.000000
_cell_angle_gamma 90.000000
_cell_volume 3283.781998
_symmetry_space_group_name_H-M "P M M N"
_symmetry_group_IT_number 59
_space_group.IT_coordinate_system_code '2'
_symmetry_cell_setting 'orthorhombic'
loop_
_space_group_symop_operation_xyz
x,y,z
1/2-x,1/2-y,z
1/2+x,-y,-z
-x,1/2+y,-z
-x,-y,-z
1/2+x,1/2+y,-z
1/2-x,y,z
x,1/2-y,z
loop_
_atom_site_type_symbol
_atom_site_label
_atom_site_fract_x
_atom_site_fract_y
_atom_site_fract_z
Si Si1 0.918566 0.565274 0.470933
Si Si2 0.415513 0.457848 0.699216
Si Si3 0.916669 0.327510 0.435512
Si Si4 0.416547 0.888795 0.718395
Si Si5 0.589881 0.596269 0.857546
Si Si6 0.585349 0.062912 0.840076
Si Si7 0.079523 0.431468 0.981931
O O1 0.750000 0.557812 0.490619
O O2 0.942208 0.574453 0.381970
O O3 0.000000 0.500000 0.500000
O O4 0.982752 0.631498 0.508394
O O5 0.250000 0.450702 0.724879
O O6 0.459279 0.535955 0.694486
O O7 0.514242 0.418699 0.759712
O O8 0.750000 0.350331 0.445349
O O9 0.937369 0.250000 0.454901
O O10 0.965922 0.340686 0.349516
O O11 0.250000 0.880995 0.734604
O O12 0.489616 0.866762 0.796949
O O13 0.750000 0.618918 0.836595
O O14 0.573518 0.516412 0.851097
O O15 0.555432 0.616350 0.944619
O O16 0.750000 0.088378 0.841835
O O17 0.494822 0.099488 0.907070
O O18 0.250000 0.444119 0.968509
O O19 0.000000 0.500000 0.000000
#
# Coordination Sequence:
#
# PCOD8245117 Si02
#       7
#     8   8   8   8   8   8   8
#     4  11  21  34  53  75  99 127 166 209 253 304
#     4   9  17  29  44  64  90 120 156 197 239 288
#     4  10  21  37  53  71  99 132 166 206 254 303
#     4   9  16  28  44  63  87 119 157 193 236 285
#     4   8  15  24  35  55  81 113 151 188 225 268
#     4   9  16  24  36  57  84 115 150 187 232 279
#     4   9  15  23  34  51  79 115 152 185 226 276
#
# _framework density 17.053508000000001
#
# number of rings (size 3 to 8) (size 9 to 14) (size 15 to 20)
#    0.000    2.714    1.429    2.143    0.000    6.000 
#    0.000    0.000    0.000    0.000    0.000    0.000 
#    0.000    1.143    0.000    8.571    0.000    6.857 
#
# Total GULP energy -694069.594576 kJ/mol
# GULP energy per Si atom -12394.099903 kJ/mol
# Density = 1.701469 g / cm^3
# Si number density = 17.053508 Si / 1000 Ang^3
#
#
#
# Elastic Constant Matrix: (Units=GPa)
#
#
# Indices 1 2 3 4 5 6 
#
# 1 112.2478 29.9616 82.0557 0.0000 0.0000 0.0000
# 2 29.9616 36.2225 33.2324 0.0000 0.0000 0.0000
# 3 82.0557 33.2324 141.9661 0.0000 0.0000 0.0000
# 4 0.0000 0.0000 0.0000 12.0521 0.0000 0.0000
# 5 0.0000 0.0000 0.0000 0.0000 38.2686 0.0000
# 6 0.0000 0.0000 0.0000 0.0000 0.0000 13.7360
#
#
#
# Elastic Compliance Matrix: (Units=1/GPa)
#
#
# Indices 1 2 3 4 5 6 
#
# 1 0.016460 -0.006223 -0.008057 0.000000 0.000000 0.000000
# 2 -0.006223 0.037510 -0.005184 0.000000 0.000000 0.000000
# 3 -0.008057 -0.005184 0.012914 0.000000 0.000000 0.000000
# 4 0.000000 0.000000 0.000000 0.082973 0.000000 0.000000
# 5 0.000000 0.000000 0.000000 0.000000 0.026131 0.000000
# 6 0.000000 0.000000 0.000000 0.000000 0.000000 0.072801
#
#
# Mechanical properties :
#
#
# Convention : Reuss Voigt Hill
#
# Bulk Modulus (GPa) = 35.76923 64.54843 50.15883
# Shear Modulus (GPa) = 16.83295 22.49045 19.66170
#
# Velocity S-wave (km/s) = 3.14517 3.63549 3.39918
# Velocity P-wave (km/s) = 5.84891 7.45353 6.69943
#
# Compressibility (1/GPa) = 0.02795699
#
# Stress axis : x y z
#
# Youngs Moduli (GPa) = 60.75455 26.65926 77.43360
#
# Poissons Ratio (x) = 0.16590 0.62388
# Poissons Ratio (y) = 0.37807 0.40141
# Poissons Ratio (z) = 0.48949 0.13820
#
# Static dielectric constant tensor:
#      x y z
#    x 3.309560 0.000000 0.000000 
#    y 0.000000 2.580960 0.000000 
#    z 0.000000 0.000000 3.726090 
# 
# 
# High freq. dielectric constant tensor:
#      x y z
#    x 1.666660 0.000000 0.000000 
#    y 0.000000 1.577300 0.000000 
#    z 0.000000 0.000000 1.678750 
# 
# From -- ./inp_files/26010.got.cif
#   From: 2010.03.12/outbox.cif.g09.slc.cpg/sg59_14_cif.got.tgz:26010.got - 2010.04.16 16:29:54.
