data_PCOD8245953
_publ_section_title
;
Structure prediction by ZEFSAII (Michael W. Deem and Ramdas Pophale) SiO2 
 PCOD8245953
Probable space group: P M M N
;
_chemical_formula_sum "Si O2"
_cell_formula_units_Z 56
_cell_length_a 24.389272
_cell_length_b 8.688282
_cell_length_c 15.003262
_cell_angle_alpha 90.000000
_cell_angle_beta 90.000000
_cell_angle_gamma 90.000000
_cell_volume 3179.204314
_symmetry_space_group_name_H-M "P M M N"
_symmetry_group_IT_number 59
_space_group.IT_coordinate_system_code '2'
_symmetry_cell_setting 'orthorhombic'
loop_
_space_group_symop_operation_xyz
x,y,z
1/2-x,1/2-y,z
1/2+x,-y,-z
-x,1/2+y,-z
-x,-y,-z
1/2+x,1/2+y,-z
1/2-x,y,z
x,1/2-y,z
loop_
_atom_site_type_symbol
_atom_site_label
_atom_site_fract_x
_atom_site_fract_y
_atom_site_fract_z
Si Si1 0.430799 0.426325 0.441823
Si Si2 0.750000 0.431880 0.987071
Si Si3 0.430004 0.568691 0.132103
Si Si4 0.639784 0.572290 0.718292
Si Si5 0.961600 0.569942 0.370751
Si Si6 0.448611 0.432759 0.824183
Si Si7 0.750000 0.432227 0.782370
Si Si8 0.864186 0.567922 0.030719
O O1 0.451376 0.250000 0.441540
O O2 0.374521 0.444069 0.386873
O O3 0.423009 0.480321 0.545292
O O4 0.476423 0.526060 0.392733
O O5 0.750000 0.250000 0.993193
O O6 0.750000 0.488034 0.884646
O O7 0.803955 0.494921 0.035796
O O8 0.422506 0.750000 0.116868
O O9 0.405285 0.522141 0.226996
O O10 0.493568 0.517074 0.131295
O O11 0.396346 0.479201 0.057586
O O12 0.639622 0.750000 0.748660
O O13 0.698578 0.499183 0.731070
O O14 0.959419 0.750000 0.355765
O O15 0.942757 0.496130 0.276036
O O16 0.447089 0.250000 0.821438
O O17 0.398674 0.494673 0.884452
O O18 0.750000 0.250000 0.776767
O O19 0.857882 0.750000 0.032408
#
# Coordination Sequence:
#
# PCOD8245953 Si02
#       8
#     8   4   8   8   8   8   4   8
#     4   9  18  30  49  78 106 133 167 206 250 298
#     4  11  23  39  55  74  98 131 177 220 260 308
#     4  11  20  33  51  76 108 142 172 204 253 311
#     4  11  21  33  51  78 108 136 170 214 258 304
#     4   9  16  31  52  74 105 139 167 202 247 300
#     4   9  19  33  52  78 107 140 176 209 251 307
#     4  11  23  37  55  74  98 135 179 216 258 316
#     4  11  22  36  54  76 102 136 176 218 259 303
#
# _framework density 17.614469
#
# number of rings (size 3 to 8) (size 9 to 14) (size 15 to 20)
#    0.000    1.857    2.857    2.143    0.000    1.143 
#    0.000    3.571    0.000    0.857    0.000    6.000 
#    0.000    0.000    0.000    0.000    0.000    0.000 
#
# Total GULP energy -694197.663345 kJ/mol
# GULP energy per Si atom -12396.386845 kJ/mol
# Density = 1.757438 g / cm^3
# Si number density = 17.614469 Si / 1000 Ang^3
#
#
#
# Elastic Constant Matrix: (Units=GPa)
#
#
# Indices 1 2 3 4 5 6 
#
# 1 137.5919 28.9552 66.2926 0.0000 0.0000 0.0000
# 2 28.9552 33.2837 20.2564 0.0000 0.0000 0.0000
# 3 66.2926 20.2564 109.0931 0.0000 0.0000 0.0000
# 4 0.0000 0.0000 0.0000 18.0074 0.0000 0.0000
# 5 0.0000 0.0000 0.0000 0.0000 26.6064 0.0000
# 6 0.0000 0.0000 0.0000 0.0000 0.0000 23.0976
#
#
#
# Elastic Compliance Matrix: (Units=1/GPa)
#
#
# Indices 1 2 3 4 5 6 
#
# 1 0.011374 -0.006413 -0.005721 0.000000 0.000000 0.000000
# 2 -0.006413 0.037488 -0.003064 0.000000 0.000000 0.000000
# 3 -0.005721 -0.003064 0.013212 0.000000 0.000000 0.000000
# 4 0.000000 0.000000 0.000000 0.055533 0.000000 0.000000
# 5 0.000000 0.000000 0.000000 0.000000 0.037585 0.000000
# 6 0.000000 0.000000 0.000000 0.000000 0.000000 0.043295
#
#
# Mechanical properties :
#
#
# Convention : Reuss Voigt Hill
#
# Bulk Modulus (GPa) = 31.56693 56.77520 44.17107
# Shear Modulus (GPa) = 20.88202 24.50659 22.69430
#
# Velocity S-wave (km/s) = 3.44685 3.73403 3.59331
# Velocity P-wave (km/s) = 5.81386 7.13391 6.50745
#
# Compressibility (1/GPa) = 0.03167872
#
# Stress axis : x y z
#
# Youngs Moduli (GPa) = 87.92218 26.67492 75.69064
#
# Poissons Ratio (x) = 0.17107 0.43300
# Poissons Ratio (y) = 0.56384 0.23191
# Poissons Ratio (z) = 0.50298 0.08173
#
# Static dielectric constant tensor:
#      x y z
#    x 3.227050 0.000000 0.000000 
#    y 0.000000 3.222410 0.000000 
#    z 0.000000 0.000000 3.742510 
# 
# 
# High freq. dielectric constant tensor:
#      x y z
#    x 1.663250 0.000000 0.000000 
#    y 0.000000 1.676660 0.000000 
#    z 0.000000 0.000000 1.684980 
# 
# From -- ./inp_files/24321.got.cif
#   From: 2010.03.12/outbox.cif.g09.slc.cpg/sg59_13_cif.got.tgz:24321.got - 2010.04.16 16:29:54.
