data_PCOD8245124
_publ_section_title
;
Structure prediction by ZEFSAII (Michael W. Deem and Ramdas Pophale) SiO2 
 PCOD8245124
Probable space group: P M M N
;
_chemical_formula_sum "Si O2"
_cell_formula_units_Z 56
_cell_length_a 9.071817
_cell_length_b 14.777406
_cell_length_c 21.443071
_cell_angle_alpha 90.000000
_cell_angle_beta 90.000000
_cell_angle_gamma 90.000000
_cell_volume 2874.613560
_symmetry_space_group_name_H-M "P M M N"
_symmetry_group_IT_number 59
_space_group.IT_coordinate_system_code '2'
_symmetry_cell_setting 'orthorhombic'
loop_
_space_group_symop_operation_xyz
x,y,z
1/2-x,1/2-y,z
1/2+x,-y,-z
-x,1/2+y,-z
-x,-y,-z
1/2+x,1/2+y,-z
1/2-x,y,z
x,1/2-y,z
loop_
_atom_site_type_symbol
_atom_site_label
_atom_site_fract_x
_atom_site_fract_y
_atom_site_fract_z
Si Si1 0.424758 0.991800 0.711421
Si Si2 0.578601 0.144409 0.639924
Si Si3 0.421349 0.648251 0.073765
Si Si4 0.587594 0.642865 0.481164
Si Si5 0.077594 0.486201 0.159613
Si Si6 0.577407 0.855096 0.619953
Si Si7 0.922190 0.853143 0.949361
O O1 0.250000 0.997256 0.709959
O O2 0.490845 0.088794 0.691807
O O3 0.479559 0.968403 0.780239
O O4 0.478719 0.912522 0.666375
O O5 0.750000 0.122646 0.646661
O O6 0.544082 0.250000 0.650473
O O7 0.528330 0.111487 0.571131
O O8 0.250000 0.644181 0.058176
O O9 0.473206 0.750000 0.090510
O O10 0.458466 0.585672 0.132779
O O11 0.501610 0.611286 0.012222
O O12 0.750000 0.603925 0.464414
O O13 0.597956 0.750000 0.483641
O O14 0.537877 0.610565 0.549909
O O15 0.250000 0.476171 0.176545
O O16 0.026819 0.412399 0.109087
O O17 0.750000 0.871431 0.633417
O O18 0.537073 0.750000 0.629078
O O19 0.750000 0.863932 0.960439
O O20 0.968269 0.750000 0.935417
#
# Coordination Sequence:
#
# PCOD8245124 Si02
#       7
#     8   8   8   8   8   8   8
#     4  12  26  39  54  80 113 150 191 233 278 329
#     4  10  21  38  60  83 109 144 185 230 280 335
#     4   9  18  33  55  82 108 135 170 216 269 320
#     4   8  15  31  57  86 111 137 175 226 282 333
#     4  10  21  37  54  74 106 145 184 223 264 319
#     4   9  19  38  62  84 110 146 185 228 279 334
#     4   9  18  33  55  82 108 136 172 215 265 319
#
# _framework density 19.480878000000001
#
# number of rings (size 3 to 8) (size 9 to 14) (size 15 to 20)
#    0.000    2.429    0.000    3.000    0.000    4.571 
#    0.000    4.286    0.000    0.000    0.000    0.000 
#    0.000    0.000    0.000    0.000    0.000    0.000 
#
# Total GULP energy -694432.958716 kJ/mol
# GULP energy per Si atom -12400.588549 kJ/mol
# Density = 1.943654 g / cm^3
# Si number density = 19.480878 Si / 1000 Ang^3
#
#
#
# Elastic Constant Matrix: (Units=GPa)
#
#
# Indices 1 2 3 4 5 6 
#
# 1 73.7070 14.5657 25.0218 0.0000 0.0000 0.0000
# 2 14.5657 46.9280 2.0579 0.0000 0.0000 0.0000
# 3 25.0218 2.0579 66.2703 0.0000 0.0000 0.0000
# 4 0.0000 0.0000 0.0000 27.5441 0.0000 0.0000
# 5 0.0000 0.0000 0.0000 0.0000 33.3259 0.0000
# 6 0.0000 0.0000 0.0000 0.0000 0.0000 24.9845
#
#
#
# Elastic Compliance Matrix: (Units=1/GPa)
#
#
# Indices 1 2 3 4 5 6 
#
# 1 0.016611 -0.004887 -0.006120 0.000000 0.000000 0.000000
# 2 -0.004887 0.022776 0.001138 0.000000 0.000000 0.000000
# 3 -0.006120 0.001138 0.017365 0.000000 0.000000 0.000000
# 4 0.000000 0.000000 0.000000 0.036305 0.000000 0.000000
# 5 0.000000 0.000000 0.000000 0.000000 0.030007 0.000000
# 6 0.000000 0.000000 0.000000 0.000000 0.000000 0.040025
#
#
# Mechanical properties :
#
#
# Convention : Reuss Voigt Hill
#
# Bulk Modulus (GPa) = 27.01711 30.02178 28.51944
# Shear Modulus (GPa) = 25.61932 26.85489 26.23711
#
# Velocity S-wave (km/s) = 3.63037 3.71688 3.67388
# Velocity P-wave (km/s) = 5.60994 5.81933 5.71559
#
# Compressibility (1/GPa) = 0.03701359
#
# Stress axis : x y z
#
# Youngs Moduli (GPa) = 60.20247 43.90536 57.58674
#
# Poissons Ratio (x) = 0.21458 0.35243
# Poissons Ratio (y) = 0.29423 -0.06554
# Poissons Ratio (z) = 0.36844 -0.04997
#
# Static dielectric constant tensor:
#      x y z
#    x 3.569050 0.000000 0.000000 
#    y 0.000000 3.667360 0.000000 
#    z 0.000000 0.000000 3.584370 
# 
# 
# High freq. dielectric constant tensor:
#      x y z
#    x 1.749790 0.000000 0.000000 
#    y 0.000000 1.762080 0.000000 
#    z 0.000000 0.000000 1.756690 
# 
# From -- ./inp_files/29083.got.cif
#   From: 2010.03.12/outbox.cif.g09.slc.cpg/sg59_15_cif.got.tgz:29083.got - 2010.04.16 16:29:54.
