data_PCOD8245978
_publ_section_title
;
Structure prediction by ZEFSAII (Michael W. Deem and Ramdas Pophale) SiO2 
 PCOD8245978
Probable space group: P M M N
;
_chemical_formula_sum "Si O2"
_cell_formula_units_Z 64
_cell_length_a 8.921293
_cell_length_b 19.949707
_cell_length_c 20.003872
_cell_angle_alpha 90.000000
_cell_angle_beta 90.000000
_cell_angle_gamma 90.000000
_cell_volume 3560.232756
_symmetry_space_group_name_H-M "P M M N"
_symmetry_group_IT_number 59
_space_group.IT_coordinate_system_code '2'
_symmetry_cell_setting 'orthorhombic'
loop_
_space_group_symop_operation_xyz
x,y,z
1/2-x,1/2-y,z
1/2+x,-y,-z
-x,1/2+y,-z
-x,-y,-z
1/2+x,1/2+y,-z
1/2-x,y,z
x,1/2-y,z
loop_
_atom_site_type_symbol
_atom_site_label
_atom_site_fract_x
_atom_site_fract_y
_atom_site_fract_z
Si Si1 0.573138 0.583789 0.328826
Si Si2 0.423247 0.568684 0.979084
Si Si3 0.079275 0.968429 0.833777
Si Si4 0.577695 0.068501 0.311152
Si Si5 0.072826 0.324933 0.403670
Si Si6 0.922360 0.672707 0.072518
Si Si7 0.426980 0.604224 0.190839
Si Si8 0.571959 0.675001 0.447884
O O1 0.750000 0.593771 0.319787
O O2 0.532406 0.505575 0.336464
O O3 0.493590 0.615150 0.264367
O O4 0.509098 0.622291 0.393793
O O5 0.250000 0.567102 0.001253
O O6 0.439286 0.577728 0.898974
O O7 0.500000 0.500000 0.000000
O O8 0.503894 0.631205 0.012637
O O9 0.250000 0.995738 0.827103
O O10 0.040772 0.925199 0.767845
O O11 0.970886 0.032167 0.839732
O O12 0.750000 0.083341 0.326464
O O13 0.482101 0.123224 0.349066
O O14 0.250000 0.326064 0.403561
O O15 0.015638 0.250000 0.385804
O O16 0.014022 0.344860 0.477943
O O17 0.750000 0.650611 0.080285
O O18 0.937319 0.750000 0.052859
O O19 0.006754 0.660837 0.142377
O O20 0.250000 0.611052 0.193901
O O21 0.750000 0.673188 0.447122
O O22 0.516341 0.750000 0.429630
#
# Coordination Sequence:
#
# PCOD8245978 Si02
#       8
#     8   8   8   8   8   8   8   8
#     4   9  18  33  52  75 106 139 174 216 259 314
#     4  11  21  35  60  86 108 139 180 226 273 325
#     4   9  19  36  56  78 107 139 174 213 258 319
#     4   9  18  32  50  75 105 137 171 211 259 312
#     4   9  18  33  52  74 100 132 174 222 267 314
#     4  11  24  40  56  77 110 149 186 225 270 322
#     4  11  21  33  53  79 107 139 175 219 267 317
#     4   8  15  30  52  74  97 133 178 215 256 317
#
# _framework density 17.976354000000001
#
# number of rings (size 3 to 8) (size 9 to 14) (size 15 to 20)
#    0.000    2.375    1.250    3.375    0.000    4.750 
#    0.000    2.500    0.000    4.500    0.000    0.000 
#    0.000    0.000    0.000    0.000    0.000    0.000 
#
# Total GULP energy -793541.979419 kJ/mol
# GULP energy per Si atom -12399.093428 kJ/mol
# Density = 1.793544 g / cm^3
# Si number density = 17.976354 Si / 1000 Ang^3
#
#
#
# Elastic Constant Matrix: (Units=GPa)
#
#
# Indices 1 2 3 4 5 6 
#
# 1 78.0152 42.9404 45.2598 0.0000 0.0000 0.0000
# 2 42.9404 99.2178 77.1353 0.0000 0.0000 0.0000
# 3 45.2598 77.1353 134.6904 0.0000 0.0000 0.0000
# 4 0.0000 0.0000 0.0000 33.0565 0.0000 0.0000
# 5 0.0000 0.0000 0.0000 0.0000 26.7958 0.0000
# 6 0.0000 0.0000 0.0000 0.0000 0.0000 26.4402
#
#
#
# Elastic Compliance Matrix: (Units=1/GPa)
#
#
# Indices 1 2 3 4 5 6 
#
# 1 0.017378 -0.005374 -0.002762 0.000000 0.000000 0.000000
# 2 -0.005374 0.019829 -0.009550 0.000000 0.000000 0.000000
# 3 -0.002762 -0.009550 0.013822 0.000000 0.000000 0.000000
# 4 0.000000 0.000000 0.000000 0.030251 0.000000 0.000000
# 5 0.000000 0.000000 0.000000 0.000000 0.037319 0.000000
# 6 0.000000 0.000000 0.000000 0.000000 0.000000 0.037821
#
#
# Mechanical properties :
#
#
# Convention : Reuss Voigt Hill
#
# Bulk Modulus (GPa) = 63.86849 71.39938 67.63394
# Shear Modulus (GPa) = 25.37919 27.03104 26.20512
#
# Velocity S-wave (km/s) = 3.76148 3.88196 3.82220
# Velocity P-wave (km/s) = 7.38047 7.73935 7.56204
#
# Compressibility (1/GPa) = 0.01565717
#
# Stress axis : x y z
#
# Youngs Moduli (GPa) = 57.54338 50.43080 72.34948
#
# Poissons Ratio (x) = 0.27100 0.19984
# Poissons Ratio (y) = 0.30922 0.69095
# Poissons Ratio (z) = 0.15894 0.48162
#
# Static dielectric constant tensor:
#      x y z
#    x 3.195390 0.000000 0.000000 
#    y 0.000000 3.246250 0.000000 
#    z 0.000000 0.000000 3.685480 
# 
# 
# High freq. dielectric constant tensor:
#      x y z
#    x 1.684400 0.000000 0.000000 
#    y 0.000000 1.679470 0.000000 
#    z 0.000000 0.000000 1.707820 
# 
# From -- ./inp_files/29370.got.cif
#   From: 2010.03.12/outbox.cif.g09.slc.cpg/sg59_15_cif.got.tgz:29370.got - 2010.04.16 16:29:54.
