data_PCOD8245897
_publ_section_title
;
Structure prediction by ZEFSAII (Michael W. Deem and Ramdas Pophale) SiO2 
 PCOD8245897
Probable space group: P M M N
;
_chemical_formula_sum "Si O2"
_cell_formula_units_Z 48
_cell_length_a 8.779516
_cell_length_b 18.874696
_cell_length_c 14.934312
_cell_angle_alpha 90.000000
_cell_angle_beta 90.000000
_cell_angle_gamma 90.000000
_cell_volume 2474.775229
_symmetry_space_group_name_H-M "P M M N"
_symmetry_group_IT_number 59
_space_group.IT_coordinate_system_code '2'
_symmetry_cell_setting 'orthorhombic'
loop_
_space_group_symop_operation_xyz
x,y,z
1/2-x,1/2-y,z
1/2+x,-y,-z
-x,1/2+y,-z
-x,-y,-z
1/2+x,1/2+y,-z
1/2-x,y,z
x,1/2-y,z
loop_
_atom_site_type_symbol
_atom_site_label
_atom_site_fract_x
_atom_site_fract_y
_atom_site_fract_z
Si Si1 0.926287 0.074639 0.522525
Si Si2 0.072453 0.072543 0.032566
Si Si3 0.070694 0.922308 0.779866
Si Si4 0.073382 0.333243 0.375806
Si Si5 0.573980 0.668336 0.134304
Si Si6 0.924590 0.068354 0.728419
O O1 0.750000 0.072021 0.494703
O O2 0.948647 0.092044 0.626507
O O3 0.009243 0.136539 0.468475
O O4 0.000000 0.000000 0.500000
O O5 0.250000 0.059376 0.045919
O O6 0.001935 0.098323 0.125537
O O7 0.037428 0.133251 0.960888
O O8 0.000000 0.000000 0.000000
O O9 0.250000 0.917230 0.788825
O O10 0.014092 0.866455 0.707451
O O11 0.028537 0.001568 0.751377
O O12 0.250000 0.353486 0.367841
O O13 0.045709 0.250000 0.375306
O O14 0.750000 0.657406 0.160295
O O15 0.529519 0.750000 0.126461
O O16 0.470698 0.634511 0.211046
O O17 0.750000 0.047178 0.746766
#
# Coordination Sequence:
#
# PCOD8245897 Si02
#       6
#     8   8   8   8   8   8
#     4  11  23  39  64  94 126 164 210 258 309 372
#     4  11  22  38  63  93 126 164 209 259 310 371
#     4  12  24  39  64  94 125 165 210 261 314 374
#     4  11  25  44  65  92 128 167 209 262 321 376
#     4  10  23  42  63  90 125 164 206 255 313 372
#     4  11  23  39  63  93 125 163 208 258 309 370
#
# _framework density 19.395702
#
# number of rings (size 3 to 8) (size 9 to 14) (size 15 to 20)
#    0.000    1.000    3.333    3.500    0.000    5.667 
#    0.000    5.000    0.000    0.000    0.000    0.000 
#    0.000    0.000    0.000    0.000    0.000    0.000 
#
# Total GULP energy -595536.655961 kJ/mol
# GULP energy per Si atom -12407.013666 kJ/mol
# Density = 1.935156 g / cm^3
# Si number density = 19.395702 Si / 1000 Ang^3
#
#
#
# Elastic Constant Matrix: (Units=GPa)
#
#
# Indices 1 2 3 4 5 6 
#
# 1 130.8956 62.0054 72.2554 0.0000 0.0000 0.0000
# 2 62.0054 117.6746 61.0991 0.0000 0.0000 0.0000
# 3 72.2554 61.0991 148.1414 0.0000 0.0000 0.0000
# 4 0.0000 0.0000 0.0000 35.7466 0.0000 0.0000
# 5 0.0000 0.0000 0.0000 0.0000 38.4791 0.0000
# 6 0.0000 0.0000 0.0000 0.0000 0.0000 32.0705
#
#
#
# Elastic Compliance Matrix: (Units=1/GPa)
#
#
# Indices 1 2 3 4 5 6 
#
# 1 0.011843 -0.004124 -0.004075 0.000000 0.000000 0.000000
# 2 -0.004124 0.012250 -0.003041 0.000000 0.000000 0.000000
# 3 -0.004075 -0.003041 0.009992 0.000000 0.000000 0.000000
# 4 0.000000 0.000000 0.000000 0.027975 0.000000 0.000000
# 5 0.000000 0.000000 0.000000 0.000000 0.025988 0.000000
# 6 0.000000 0.000000 0.000000 0.000000 0.000000 0.031181
#
#
# Mechanical properties :
#
#
# Convention : Reuss Voigt Hill
#
# Bulk Modulus (GPa) = 86.17467 87.49236 86.83352
# Shear Modulus (GPa) = 34.34580 34.68271 34.51425
#
# Velocity S-wave (km/s) = 4.21265 4.23326 4.22296
# Velocity P-wave (km/s) = 8.25761 8.31270 8.28520
#
# Compressibility (1/GPa) = 0.01160434
#
# Stress axis : x y z
#
# Youngs Moduli (GPa) = 84.43801 81.63244 100.07843
#
# Poissons Ratio (x) = 0.33668 0.40785
# Poissons Ratio (y) = 0.34825 0.30431
# Poissons Ratio (z) = 0.34411 0.24822
#
# Static dielectric constant tensor:
#      x y z
#    x 3.885480 0.000000 0.000000 
#    y 0.000000 3.519080 0.000000 
#    z 0.000000 0.000000 4.512820 
# 
# 
# High freq. dielectric constant tensor:
#      x y z
#    x 1.771090 0.000000 0.000000 
#    y 0.000000 1.751520 0.000000 
#    z 0.000000 0.000000 1.773600 
# 
# From -- ./inp_files/20331.got.cif
#   From: 2010.03.12/outbox.cif.g09.slc.cpg/sg59_11_cif.got.tgz:20331.got - 2010.04.16 16:29:54.
