data_PCOD8245958
_publ_section_title
;
Structure prediction by ZEFSAII (Michael W. Deem and Ramdas Pophale) SiO2 
 PCOD8245958
Probable space group: P M M N
;
_chemical_formula_sum "Si O2"
_cell_formula_units_Z 56
_cell_length_a 9.177509
_cell_length_b 17.581284
_cell_length_c 20.158513
_cell_angle_alpha 90.000000
_cell_angle_beta 90.000000
_cell_angle_gamma 90.000000
_cell_volume 3252.624295
_symmetry_space_group_name_H-M "P M M N"
_symmetry_group_IT_number 59
_space_group.IT_coordinate_system_code '2'
_symmetry_cell_setting 'orthorhombic'
loop_
_space_group_symop_operation_xyz
x,y,z
1/2-x,1/2-y,z
1/2+x,-y,-z
-x,1/2+y,-z
-x,-y,-z
1/2+x,1/2+y,-z
1/2-x,y,z
x,1/2-y,z
loop_
_atom_site_type_symbol
_atom_site_label
_atom_site_fract_x
_atom_site_fract_y
_atom_site_fract_z
Si Si1 0.412620 0.452359 0.405634
Si Si2 0.089053 0.890636 0.484238
Si Si3 0.419160 0.836464 0.060392
Si Si4 0.584161 0.025780 0.843614
Si Si5 0.917654 0.334402 0.651655
Si Si6 0.577114 0.973088 0.290105
Si Si7 0.916316 0.931748 0.966792
O O1 0.250000 0.427164 0.385084
O O2 0.410563 0.527916 0.448893
O O3 0.482526 0.386970 0.452356
O O4 0.508023 0.464710 0.339637
O O5 0.250000 0.871036 0.510925
O O6 0.040178 0.832125 0.426637
O O7 0.250000 0.846506 0.043587
O O8 0.454461 0.750000 0.083399
O O9 0.463920 0.896913 0.117531
O O10 0.506988 0.854070 0.991937
O O11 0.750000 0.036745 0.817780
O O12 0.474044 0.009842 0.784102
O O13 0.574672 0.949063 0.888264
O O14 0.750000 0.363404 0.658944
O O15 0.935139 0.250000 0.681051
O O16 0.024341 0.388349 0.692275
O O17 0.750000 0.977875 0.295490
O O18 0.750000 0.930380 0.990908
O O19 0.000000 0.000000 0.000000
#
# Coordination Sequence:
#
# PCOD8245958 Si02
#       7
#     8   8   8   8   8   8   8
#     4   9  16  27  43  61  83 111 141 176 220 264
#     4   8  14  25  42  63  83 105 140 183 219 252
#     4   9  18  32  50  72  97 125 156 190 229 275
#     4   9  18  32  47  65  93 128 161 189 226 278
#     4   9  18  32  47  62  86 122 155 181 218 270
#     4  11  21  30  43  65  91 118 151 190 226 261
#     4   9  17  30  49  70  92 120 154 194 236 276
#
# _framework density 17.216867000000001
#
# number of rings (size 3 to 8) (size 9 to 14) (size 15 to 20)
#    0.000    2.857    0.000    3.857    0.000    7.429 
#    0.000    1.429    0.000    0.000    0.000    1.000 
#    0.000    5.714    0.000    0.000    0.000    0.000 
#
# Total GULP energy -693958.716165 kJ/mol
# GULP energy per Si atom -12392.119932 kJ/mol
# Density = 1.717768 g / cm^3
# Si number density = 17.216867 Si / 1000 Ang^3
#
#
#
# Elastic Constant Matrix: (Units=GPa)
#
#
# Indices 1 2 3 4 5 6 
#
# 1 112.6679 9.4665 54.9830 0.0000 0.0000 0.0000
# 2 9.4665 13.1442 15.7097 0.0000 0.0000 0.0000
# 3 54.9830 15.7097 90.8472 0.0000 0.0000 0.0000
# 4 0.0000 0.0000 0.0000 11.8001 0.0000 0.0000
# 5 0.0000 0.0000 0.0000 0.0000 33.2225 0.0000
# 6 0.0000 0.0000 0.0000 0.0000 0.0000 19.6794
#
#
#
# Elastic Compliance Matrix: (Units=1/GPa)
#
#
# Indices 1 2 3 4 5 6 
#
# 1 0.012596 0.000050 -0.007632 0.000000 0.000000 0.000000
# 2 0.000050 0.095899 -0.016614 0.000000 0.000000 0.000000
# 3 -0.007632 -0.016614 0.018499 0.000000 0.000000 0.000000
# 4 0.000000 0.000000 0.000000 0.084745 0.000000 0.000000
# 5 0.000000 0.000000 0.000000 0.000000 0.030100 0.000000
# 6 0.000000 0.000000 0.000000 0.000000 0.000000 0.050815
#
#
# Mechanical properties :
#
#
# Convention : Reuss Voigt Hill
#
# Bulk Modulus (GPa) = 12.72208 41.88641 27.30425
# Shear Modulus (GPa) = 13.61482 22.04041 17.82762
#
# Velocity S-wave (km/s) = 2.81514 3.58182 3.22137
# Velocity P-wave (km/s) = 4.23934 6.44107 5.45250
#
# Compressibility (1/GPa) = 0.07860350
#
# Stress axis : x y z
#
# Youngs Moduli (GPa) = 79.39059 10.42761 54.05553
#
# Poissons Ratio (x) = -0.00052 0.41255
# Poissons Ratio (y) = -0.00397 0.89806
# Poissons Ratio (z) = 0.60591 0.17324
#
# Static dielectric constant tensor:
#      x y z
#    x 3.388290 0.000000 0.000000 
#    y 0.000000 3.597540 0.000000 
#    z 0.000000 0.000000 3.372960 
# 
# 
# High freq. dielectric constant tensor:
#      x y z
#    x 1.669100 0.000000 0.000000 
#    y 0.000000 1.622690 0.000000 
#    z 0.000000 0.000000 1.652270 
# 
# From -- ./inp_files/29330.got.cif
#   From: 2010.03.12/outbox.cif.g09.slc.cpg/sg59_15_cif.got.tgz:29330.got - 2010.04.16 16:29:54.
