data_PCOD8245456
_publ_section_title
;
Structure prediction by ZEFSAII (Michael W. Deem and Ramdas Pophale) SiO2 
 PCOD8245456
Probable space group: P M M N
;
_chemical_formula_sum "Si O2"
_cell_formula_units_Z 64
_cell_length_a 8.619452
_cell_length_b 19.705775
_cell_length_c 19.326665
_cell_angle_alpha 90.000000
_cell_angle_beta 90.000000
_cell_angle_gamma 90.000000
_cell_volume 3282.691677
_symmetry_space_group_name_H-M "P M M N"
_symmetry_group_IT_number 59
_space_group.IT_coordinate_system_code '2'
_symmetry_cell_setting 'orthorhombic'
loop_
_space_group_symop_operation_xyz
x,y,z
1/2-x,1/2-y,z
1/2+x,-y,-z
-x,1/2+y,-z
-x,-y,-z
1/2+x,1/2+y,-z
1/2-x,y,z
x,1/2-y,z
loop_
_atom_site_type_symbol
_atom_site_label
_atom_site_fract_x
_atom_site_fract_y
_atom_site_fract_z
Si Si1 0.072825 0.444185 0.182906
Si Si2 0.566887 0.827999 0.224325
Si Si3 0.065193 0.547050 0.296015
Si Si4 0.065297 0.068066 0.029897
Si Si5 0.935796 0.029171 0.429697
Si Si6 0.075700 0.677745 0.591309
Si Si7 0.070235 0.828873 0.076806
Si Si8 0.920374 0.175850 0.245816
O O1 0.250000 0.463149 0.172174
O O2 0.999635 0.503532 0.230593
O O3 0.996753 0.433676 0.107824
O O4 0.056232 0.373268 0.222134
O O5 0.750000 0.836050 0.228481
O O6 0.515883 0.750000 0.238590
O O7 0.489579 0.875502 0.283175
O O8 0.511373 0.851053 0.148166
O O9 0.250000 0.543874 0.302050
O O10 0.995327 0.516229 0.366118
O O11 0.250000 0.070973 0.027750
O O12 0.000773 0.132091 0.988212
O O13 0.000000 0.000000 0.000000
O O14 0.750000 0.029490 0.427067
O O15 0.004935 0.106551 0.429287
O O16 0.000000 0.000000 0.500000
O O17 0.250000 0.676775 0.561713
O O18 0.997238 0.750000 0.565121
O O19 0.077789 0.680425 0.672873
O O20 0.250000 0.847453 0.084475
O O21 0.042703 0.750000 0.061876
O O22 0.750000 0.149313 0.221656
O O23 0.951984 0.250000 0.213549
#
# Coordination Sequence:
#
# PCOD8245456 Si02
#       8
#     8   8   8   8   8   8   8   8
#     4  10  22  36  52  78 112 146 185 234 285 337
#     4  10  21  38  62  90 116 147 191 242 296 351
#     4  11  22  38  60  86 117 151 191 237 287 350
#     4  11  23  38  55  78 110 150 193 241 295 350
#     4  11  22  38  61  88 120 156 194 241 295 350
#     4   8  15  31  56  83 110 144 187 230 272 325
#     4  10  21  38  59  83 114 153 197 244 294 351
#     4   9  17  31  53  80 107 138 181 227 269 323
#
# _framework density 19.496195
#
# number of rings (size 3 to 8) (size 9 to 14) (size 15 to 20)
#    0.000    2.000    1.250    3.375    0.000    4.750 
#    0.000    3.125    0.000    3.750    0.000    0.000 
#    0.000    0.000    0.000    0.000    0.000    0.000 
#
# Total GULP energy -793072.784257 kJ/mol
# GULP energy per Si atom -12391.762254 kJ/mol
# Density = 1.945182 g / cm^3
# Si number density = 19.496195 Si / 1000 Ang^3
#
#
#
# Elastic Constant Matrix: (Units=GPa)
#
#
# Indices 1 2 3 4 5 6 
#
# 1 58.9261 37.7985 34.6481 0.0000 0.0000 0.0000
# 2 37.7985 145.1377 78.6006 0.0000 0.0000 0.0000
# 3 34.6481 78.6006 113.4291 0.0000 0.0000 0.0000
# 4 0.0000 0.0000 0.0000 28.0295 0.0000 0.0000
# 5 0.0000 0.0000 0.0000 0.0000 28.1444 0.0000
# 6 0.0000 0.0000 0.0000 0.0000 0.0000 27.4483
#
#
#
# Elastic Compliance Matrix: (Units=1/GPa)
#
#
# Indices 1 2 3 4 5 6 
#
# 1 0.021624 -0.003289 -0.004326 0.000000 0.000000 0.000000
# 2 -0.003289 0.011529 -0.006984 0.000000 0.000000 0.000000
# 3 -0.004326 -0.006984 0.014978 0.000000 0.000000 0.000000
# 4 0.000000 0.000000 0.000000 0.035677 0.000000 0.000000
# 5 0.000000 0.000000 0.000000 0.000000 0.035531 0.000000
# 6 0.000000 0.000000 0.000000 0.000000 0.000000 0.036432
#
#
# Mechanical properties :
#
#
# Convention : Reuss Voigt Hill
#
# Bulk Modulus (GPa) = 52.82228 68.84305 60.83266
# Shear Modulus (GPa) = 26.13976 27.82080 26.98028
#
# Velocity S-wave (km/s) = 3.66561 3.78165 3.72408
# Velocity P-wave (km/s) = 6.71328 7.37939 7.05420
#
# Compressibility (1/GPa) = 0.01893141
#
# Stress axis : x y z
#
# Youngs Moduli (GPa) = 46.24542 86.73821 66.76675
#
# Poissons Ratio (x) = 0.28524 0.28886
# Poissons Ratio (y) = 0.15208 0.46633
# Poissons Ratio (z) = 0.20008 0.60582
#
# Static dielectric constant tensor:
#      x y z
#    x 3.496650 0.000000 0.000000 
#    y 0.000000 3.064300 0.000000 
#    z 0.000000 0.000000 3.474840 
# 
# 
# High freq. dielectric constant tensor:
#      x y z
#    x 1.745660 0.000000 0.000000 
#    y 0.000000 1.778620 0.000000 
#    z 0.000000 0.000000 1.744160 
# 
# From -- ./inp_files/29388.got.cif
#   From: 2010.03.12/outbox.cif.g09.slc.cpg/sg59_15_cif.got.tgz:29388.got - 2010.04.16 16:29:54.
