data_PCOD8245882
_publ_section_title
;
Structure prediction by ZEFSAII (Michael W. Deem and Ramdas Pophale) SiO2 
 PCOD8245882
Probable space group: P M M N
;
_chemical_formula_sum "Si O2"
_cell_formula_units_Z 48
_cell_length_a 31.327955
_cell_length_b 8.818259
_cell_length_c 9.048453
_cell_angle_alpha 90.000000
_cell_angle_beta 90.000000
_cell_angle_gamma 90.000000
_cell_volume 2499.707720
_symmetry_space_group_name_H-M "P M M N"
_symmetry_group_IT_number 59
_space_group.IT_coordinate_system_code '2'
_symmetry_cell_setting 'orthorhombic'
loop_
_space_group_symop_operation_xyz
x,y,z
1/2-x,1/2-y,z
1/2+x,-y,-z
-x,1/2+y,-z
-x,-y,-z
1/2+x,1/2+y,-z
1/2-x,y,z
x,1/2-y,z
loop_
_atom_site_type_symbol
_atom_site_label
_atom_site_fract_x
_atom_site_fract_y
_atom_site_fract_z
Si Si1 0.420226 0.571659 0.327643
Si Si2 0.657657 0.575414 0.823527
Si Si3 0.498541 0.070164 0.160631
Si Si4 0.250000 0.429619 0.838065
Si Si5 0.250000 0.071483 0.160246
Si Si6 0.580236 0.071408 0.337423
Si Si7 0.342241 0.424072 0.824726
O O1 0.429673 0.750000 0.317155
O O2 0.374664 0.537242 0.255599
O O3 0.455697 0.479569 0.240539
O O4 0.420187 0.510569 0.495326
O O5 0.646867 0.750000 0.784059
O O6 0.705104 0.529141 0.760603
O O7 0.655700 0.551587 0.999507
O O8 0.499501 0.250000 0.146719
O O9 0.539016 0.006466 0.251998
O O10 0.500000 0.000000 0.000000
O O11 0.250000 0.250000 0.856843
O O12 0.295130 0.474872 0.761350
O O13 0.250000 0.506687 0.999485
O O14 0.250000 0.250000 0.134759
O O15 0.578066 0.250000 0.339282
O O16 0.623149 0.025493 0.255173
O O17 0.351575 0.250000 0.784678
#
# Coordination Sequence:
#
# PCOD8245882 Si02
#       7
#     8   8   8   4   4   8   8
#     4  11  23  38  54  76 108 144 177 213 257 310
#     4   9  17  32  55  82 107 137 178 223 267 312
#     4  11  23  40  61  83 105 133 171 217 264 314
#     4   7  12  26  48  77 106 132 168 217 262 301
#     4   7  12  26  50  77 106 136 172 219 266 309
#     4  10  23  39  53  74 108 143 174 211 260 312
#     4   9  17  31  55  81 105 135 175 219 262 308
#
# _framework density 19.202245000000001
#
# number of rings (size 3 to 8) (size 9 to 14) (size 15 to 20)
#    0.000    2.500    0.000    4.500    0.000    6.000 
#    0.000    1.667    0.000    8.000    0.000    0.000 
#    0.000    0.000    0.000    0.000    0.000    0.000 
#
# Total GULP energy -594848.002179 kJ/mol
# GULP energy per Si atom -12392.666712 kJ/mol
# Density = 1.915854 g / cm^3
# Si number density = 19.202245 Si / 1000 Ang^3
#
#
#
# Elastic Constant Matrix: (Units=GPa)
#
#
# Indices 1 2 3 4 5 6 
#
# 1 167.5060 21.8325 58.9405 0.0000 0.0000 0.0000
# 2 21.8325 31.7698 22.2927 0.0000 0.0000 0.0000
# 3 58.9405 22.2927 92.6802 0.0000 0.0000 0.0000
# 4 0.0000 0.0000 0.0000 26.2707 0.0000 0.0000
# 5 0.0000 0.0000 0.0000 0.0000 -12.4085 0.0000
# 6 0.0000 0.0000 0.0000 0.0000 0.0000 32.6646
#
#
#
# Elastic Compliance Matrix: (Units=1/GPa)
#
#
# Indices 1 2 3 4 5 6 
#
# 1 0.007825 -0.002268 -0.004430 0.000000 0.000000 0.000000
# 2 -0.002268 0.038525 -0.007824 0.000000 0.000000 0.000000
# 3 -0.004430 -0.007824 0.015489 0.000000 0.000000 0.000000
# 4 0.000000 0.000000 0.000000 0.038065 0.000000 0.000000
# 5 0.000000 0.000000 0.000000 0.000000 -0.080590 0.000000
# 6 0.000000 0.000000 0.000000 0.000000 0.000000 0.030614
#
#
# Mechanical properties :
#
#
# Convention : Reuss Voigt Hill
#
# Bulk Modulus (GPa) = 30.49383 55.34304 42.91843
# Shear Modulus (GPa) = 55.61403 21.89806 38.75605
#
# Velocity S-wave (km/s) = 5.38750 3.38063 4.49743
# Velocity P-wave (km/s) = 7.39020 6.64243 7.02627
#
# Compressibility (1/GPa) = 0.03279352
#
# Stress axis : x y z
#
# Youngs Moduli (GPa) = 127.80327 25.95691 64.56057
#
# Poissons Ratio (x) = 0.05888 0.28603
# Poissons Ratio (y) = 0.28989 0.50513
# Poissons Ratio (z) = 0.56623 0.20309
#
# Static dielectric constant tensor:
#      x y z
#    x 4.061910 0.000000 0.000000 
#    y 0.000000 3.241480 0.000000 
#    z 0.000000 0.000000 3.655050 
# 
# 
# High freq. dielectric constant tensor:
#      x y z
#    x 1.774280 0.000000 0.000000 
#    y 0.000000 1.722170 0.000000 
#    z 0.000000 0.000000 1.727300 
# 
# From -- ./inp_files/13016.got.cif
#   From: 2010.03.12/outbox.cif.g09.slc.cpg/sg59_7_cif.got.tgz:13016.got - 2010.04.16 16:29:54.
