data_PCOD8245991
_publ_section_title
;
Structure prediction by ZEFSAII (Michael W. Deem and Ramdas Pophale) SiO2 
 PCOD8245991
Probable space group: P M M N
;
_chemical_formula_sum "Si O2"
_cell_formula_units_Z 32
_cell_length_a 10.295444
_cell_length_b 8.924383
_cell_length_c 18.983193
_cell_angle_alpha 90.000000
_cell_angle_beta 90.000000
_cell_angle_gamma 90.000000
_cell_volume 1744.184987
_symmetry_space_group_name_H-M "P M M N"
_symmetry_group_IT_number 59
_space_group.IT_coordinate_system_code '2'
_symmetry_cell_setting 'orthorhombic'
loop_
_space_group_symop_operation_xyz
x,y,z
1/2-x,1/2-y,z
1/2+x,-y,-z
-x,1/2+y,-z
-x,-y,-z
1/2+x,1/2+y,-z
1/2-x,y,z
x,1/2-y,z
loop_
_atom_site_type_symbol
_atom_site_label
_atom_site_fract_x
_atom_site_fract_y
_atom_site_fract_z
Si Si1 0.598559 0.421381 0.210233
Si Si2 0.750000 0.072845 0.583720
Si Si3 0.103981 0.927008 0.949268
Si Si4 0.750000 0.071702 0.424153
Si Si5 0.487560 0.072997 0.655933
O O1 0.750000 0.437296 0.228435
O O2 0.554206 0.250000 0.220586
O O3 0.571208 0.475000 0.130625
O O4 0.516952 0.527579 0.261975
O O5 0.750000 0.250000 0.582056
O O6 0.750000 0.011287 0.504155
O O7 0.623499 0.015055 0.624730
O O8 0.250000 0.981119 0.968868
O O9 0.095826 0.750000 0.956537
O O10 0.000000 0.000000 0.000000
O O11 0.750000 0.250000 0.419669
O O12 0.876939 0.010960 0.386638
O O13 0.469130 0.250000 0.648259
#
# Coordination Sequence:
#
# PCOD8245991 Si02
#       5
#     8   4   8   4   8
#     4   9  18  35  57  79 108 144 182 222 268 320
#     4   9  22  39  53  77 114 145 174 225 281 322
#     4   9  19  36  57  82 112 145 181 222 268 320
#     4  11  21  37  59  79 106 145 182 221 273 328
#     4  11  21  36  57  82 109 140 183 228 270 320
#
# _framework density 18.346678000000001
#
# number of rings (size 3 to 8) (size 9 to 14) (size 15 to 20)
#    0.000    2.250    1.250    3.375    0.000    1.500 
#    2.250    8.750    0.000    0.000    0.000    0.000 
#    0.000    0.000    0.000    0.000    0.000    0.000 
#
# Total GULP energy -396819.266021 kJ/mol
# GULP energy per Si atom -12400.602063 kJ/mol
# Density = 1.830492 g / cm^3
# Si number density = 18.346678 Si / 1000 Ang^3
#
#
#
# Elastic Constant Matrix: (Units=GPa)
#
#
# Indices 1 2 3 4 5 6 
#
# 1 147.2531 46.4695 93.2670 0.0000 0.0000 0.0000
# 2 46.4695 61.5938 48.1109 0.0000 0.0000 0.0000
# 3 93.2670 48.1109 154.5588 0.0000 0.0000 0.0000
# 4 0.0000 0.0000 0.0000 33.6162 0.0000 0.0000
# 5 0.0000 0.0000 0.0000 0.0000 30.3297 0.0000
# 6 0.0000 0.0000 0.0000 0.0000 0.0000 6.9800
#
#
#
# Elastic Compliance Matrix: (Units=1/GPa)
#
#
# Indices 1 2 3 4 5 6 
#
# 1 0.011841 -0.004429 -0.005767 0.000000 0.000000 0.000000
# 2 -0.004429 0.023108 -0.004520 0.000000 0.000000 0.000000
# 3 -0.005767 -0.004520 0.011357 0.000000 0.000000 0.000000
# 4 0.000000 0.000000 0.000000 0.029748 0.000000 0.000000
# 5 0.000000 0.000000 0.000000 0.000000 0.032971 0.000000
# 6 0.000000 0.000000 0.000000 0.000000 0.000000 0.143267
#
#
# Mechanical properties :
#
#
# Convention : Reuss Voigt Hill
#
# Bulk Modulus (GPa) = 59.26412 82.12230 70.69321
# Shear Modulus (GPa) = 17.40046 25.88906 21.64476
#
# Velocity S-wave (km/s) = 3.08299 3.76054 3.43850
# Velocity P-wave (km/s) = 6.71160 7.98211 7.37427
#
# Compressibility (1/GPa) = 0.01687361
#
# Stress axis : x y z
#
# Youngs Moduli (GPa) = 84.44949 43.27551 88.05145
#
# Poissons Ratio (x) = 0.19168 0.50778
# Poissons Ratio (y) = 0.37405 0.39801
# Poissons Ratio (z) = 0.48701 0.19561
#
# Static dielectric constant tensor:
#      x y z
#    x 8.903010 0.000000 0.000000 
#    y 0.000000 3.222800 0.000000 
#    z 0.000000 0.000000 3.730930 
# 
# 
# High freq. dielectric constant tensor:
#      x y z
#    x 1.705980 0.000000 0.000000 
#    y 0.000000 1.700160 0.000000 
#    z 0.000000 0.000000 1.725520 
# 
# From -- ./inp_files/26721.got.cif
#   From: 2010.03.12/outbox.cif.g09.slc.cpg/sg59_14_cif.got.tgz:26721.got - 2010.04.16 16:29:54.
