data_PCOD8245108
_publ_section_title
;
Structure prediction by ZEFSAII (Michael W. Deem and Ramdas Pophale) SiO2 
 PCOD8245108
Probable space group: P M M N
;
_chemical_formula_sum "Si O2"
_cell_formula_units_Z 56
_cell_length_a 13.139395
_cell_length_b 21.353408
_cell_length_c 9.146582
_cell_angle_alpha 90.000000
_cell_angle_beta 90.000000
_cell_angle_gamma 90.000000
_cell_volume 2566.264399
_symmetry_space_group_name_H-M "P M M N"
_symmetry_group_IT_number 59
_space_group.IT_coordinate_system_code '2'
_symmetry_cell_setting 'orthorhombic'
loop_
_space_group_symop_operation_xyz
x,y,z
1/2-x,1/2-y,z
1/2+x,-y,-z
-x,1/2+y,-z
-x,-y,-z
1/2+x,1/2+y,-z
1/2-x,y,z
x,1/2-y,z
loop_
_atom_site_type_symbol
_atom_site_label
_atom_site_fract_x
_atom_site_fract_y
_atom_site_fract_z
Si Si1 0.135818 0.679464 0.839431
Si Si2 0.933792 0.576299 0.481668
Si Si3 0.867560 0.559577 0.160193
Si Si4 0.130549 0.961022 0.350096
Si Si5 0.936122 0.819052 0.683885
Si Si6 0.869959 0.441417 0.980108
Si Si7 0.632542 0.680019 0.000174
O O1 0.250000 0.665446 0.782176
O O2 0.129584 0.750000 0.908271
O O3 0.058478 0.675150 0.703992
O O4 0.102001 0.627611 0.958755
O O5 0.878828 0.555606 0.333879
O O6 0.893675 0.532848 0.613355
O O7 0.901231 0.643892 0.539951
O O8 0.056931 0.576764 0.461458
O O9 0.750000 0.560967 0.118639
O O10 0.915329 0.497716 0.081748
O O11 0.917657 0.624454 0.098734
O O12 0.250000 0.943911 0.371783
O O13 0.088936 0.947176 0.186101
O O14 0.900087 0.750000 0.646739
O O15 0.881731 0.841225 0.832615
O O16 0.750000 0.449215 0.972119
O O17 0.750000 0.685645 0.039471
O O18 0.582492 0.750000 0.025245
#
# Coordination Sequence:
#
# PCOD8245108 Si02
#       7
#     8   8   8   8   8   8   8
#     4   9  19  36  60  87 112 146 194 242 289 342
#     4  11  24  37  57  87 116 160 192 229 293 353
#     4  10  21  36  58  89 118 147 192 244 290 340
#     4  10  23  41  57  83 120 153 190 236 290 351
#     4  10  22  39  58  84 116 153 195 237 284 347
#     4   9  19  36  60  84 111 147 186 240 293 336
#     4   9  19  37  60  84 114 156 200 242 291 343
#
# _framework density 21.821601999999999
#
# number of rings (size 3 to 8) (size 9 to 14) (size 15 to 20)
#    0.000    2.286    0.000    1.286    6.000    4.000 
#    0.000    0.714    0.000    0.857    0.000    0.000 
#    0.000    0.000    0.000    0.000    0.000    0.000 
#
# Total GULP energy -693857.187638 kJ/mol
# GULP energy per Si atom -12390.306922 kJ/mol
# Density = 2.177193 g / cm^3
# Si number density = 21.821602 Si / 1000 Ang^3
#
#
#
# Elastic Constant Matrix: (Units=GPa)
#
#
# Indices 1 2 3 4 5 6 
#
# 1 31.1678 -5.7921 -7.7392 0.0000 0.0000 0.0000
# 2 -5.7921 150.3894 68.7758 0.0000 0.0000 0.0000
# 3 -7.7392 68.7758 89.1359 0.0000 0.0000 0.0000
# 4 0.0000 0.0000 0.0000 38.8886 0.0000 0.0000
# 5 0.0000 0.0000 0.0000 0.0000 22.2428 0.0000
# 6 0.0000 0.0000 0.0000 0.0000 0.0000 3.8762
#
#
#
# Elastic Compliance Matrix: (Units=1/GPa)
#
#
# Indices 1 2 3 4 5 6 
#
# 1 0.032792 -0.000060 0.002894 0.000000 0.000000 0.000000
# 2 -0.000060 0.010275 -0.007933 0.000000 0.000000 0.000000
# 3 0.002894 -0.007933 0.017591 0.000000 0.000000 0.000000
# 4 0.000000 0.000000 0.000000 0.025715 0.000000 0.000000
# 5 0.000000 0.000000 0.000000 0.000000 0.044958 0.000000
# 6 0.000000 0.000000 0.000000 0.000000 0.000000 0.257982
#
#
# Mechanical properties :
#
#
# Convention : Reuss Voigt Hill
#
# Bulk Modulus (GPa) = 19.81843 42.35357 31.08600
# Shear Modulus (GPa) = 12.00964 27.36477 19.68721
#
# Velocity S-wave (km/s) = 2.34851 3.54506 3.00690
# Velocity P-wave (km/s) = 4.05657 6.01729 5.13145
#
# Compressibility (1/GPa) = 0.05045808
#
# Stress axis : x y z
#
# Youngs Moduli (GPa) = 30.49555 97.32201 56.84605
#
# Poissons Ratio (x) = 0.00588 -0.16450
# Poissons Ratio (y) = 0.00184 0.45098
# Poissons Ratio (z) = -0.08825 0.77210
#
# Static dielectric constant tensor:
#      x y z
#    x 4.045830 0.000000 0.000000 
#    y 0.000000 4.250610 0.000000 
#    z 0.000000 0.000000 3.651350 
# 
# 
# High freq. dielectric constant tensor:
#      x y z
#    x 1.871540 0.000000 0.000000 
#    y 0.000000 1.861090 0.000000 
#    z 0.000000 0.000000 1.831510 
# 
# From -- ./inp_files/9334.got.cif
#   From: 2010.03.12/outbox.cif.g09.slc.cpg/sg59_5_cif.got.tgz:9334.got - 2010.04.16 16:29:54.
