data_PCOD8245564
_publ_section_title
;
Structure prediction by ZEFSAII (Michael W. Deem and Ramdas Pophale) SiO2 
 PCOD8245564
Probable space group: P M M N
;
_chemical_formula_sum "Si O2"
_cell_formula_units_Z 40
_cell_length_a 16.008817
_cell_length_b 8.760800
_cell_length_c 13.739214
_cell_angle_alpha 90.000000
_cell_angle_beta 90.000000
_cell_angle_gamma 90.000000
_cell_volume 1926.925368
_symmetry_space_group_name_H-M "P M M N"
_symmetry_group_IT_number 59
_space_group.IT_coordinate_system_code '2'
_symmetry_cell_setting 'orthorhombic'
loop_
_space_group_symop_operation_xyz
x,y,z
1/2-x,1/2-y,z
1/2+x,-y,-z
-x,1/2+y,-z
-x,-y,-z
1/2+x,1/2+y,-z
1/2-x,y,z
x,1/2-y,z
loop_
_atom_site_type_symbol
_atom_site_label
_atom_site_fract_x
_atom_site_fract_y
_atom_site_fract_z
Si Si1 0.750000 0.567470 0.972562
Si Si2 0.931262 0.576742 0.258658
Si Si3 0.920337 0.429978 0.055082
Si Si4 0.250000 0.428143 0.245973
Si Si5 0.153791 0.074906 0.550888
Si Si6 0.106308 0.578319 0.363660
O O1 0.750000 0.750000 0.980284
O O2 0.750000 0.503269 0.862616
O O3 0.833515 0.504493 0.022413
O O4 0.915803 0.750000 0.220984
O O5 0.930237 0.460499 0.169541
O O6 0.861371 0.525532 0.337136
O O7 0.017252 0.564491 0.315350
O O8 0.918216 0.250000 0.034878
O O9 0.000000 0.500000 0.000000
O O10 0.250000 0.250000 0.235393
O O11 0.167770 0.473818 0.302764
O O12 0.250000 0.051095 0.524470
O O13 0.125537 0.250000 0.539208
O O14 0.100023 0.975876 0.475434
O O15 0.140513 0.750000 0.361231
#
# Coordination Sequence:
#
# PCOD8245564 Si02
#       6
#     4   8   8   4   8   8
#     4  11  25  45  70  97 130 173 219 276 338 395
#     4  10  23  41  63  92 127 168 211 259 320 381
#     4  12  26  45  69 100 134 173 222 276 332 395
#     4  11  23  39  62  89 118 159 211 258 314 379
#     4  10  21  38  61  90 126 167 207 252 311 380
#     4  11  22  37  60  91 126 163 206 260 314 371
#
# _framework density 20.758458999999998
#
# number of rings (size 3 to 8) (size 9 to 14) (size 15 to 20)
#    0.000    1.200    1.000    4.800    1.400    7.200 
#    0.000    0.000    0.000    0.000    0.000    0.000 
#    0.000    0.000    0.000    0.000    0.000    0.000 
#
# Total GULP energy -496115.792302 kJ/mol
# GULP energy per Si atom -12402.894808 kJ/mol
# Density = 2.071121 g / cm^3
# Si number density = 20.758459 Si / 1000 Ang^3
#
#
#
# Elastic Constant Matrix: (Units=GPa)
#
#
# Indices 1 2 3 4 5 6 
#
# 1 96.6051 38.0642 38.0991 0.0000 0.0000 0.0000
# 2 38.0642 86.6382 43.9285 0.0000 0.0000 0.0000
# 3 38.0991 43.9285 136.5077 0.0000 0.0000 0.0000
# 4 0.0000 0.0000 0.0000 36.8231 0.0000 0.0000
# 5 0.0000 0.0000 0.0000 0.0000 27.8897 0.0000
# 6 0.0000 0.0000 0.0000 0.0000 0.0000 26.7814
#
#
#
# Elastic Compliance Matrix: (Units=1/GPa)
#
#
# Indices 1 2 3 4 5 6 
#
# 1 0.013023 -0.004635 -0.002143 0.000000 0.000000 0.000000
# 2 -0.004635 0.015442 -0.003676 0.000000 0.000000 0.000000
# 3 -0.002143 -0.003676 0.009107 0.000000 0.000000 0.000000
# 4 0.000000 0.000000 0.000000 0.027157 0.000000 0.000000
# 5 0.000000 0.000000 0.000000 0.000000 0.035856 0.000000
# 6 0.000000 0.000000 0.000000 0.000000 0.000000 0.037339
#
#
# Mechanical properties :
#
#
# Convention : Reuss Voigt Hill
#
# Bulk Modulus (GPa) = 60.00905 62.21497 61.11201
# Shear Modulus (GPa) = 30.41621 31.60945 31.01283
#
# Velocity S-wave (km/s) = 3.83200 3.90645 3.86940
# Velocity P-wave (km/s) = 6.96778 7.09810 7.03324
#
# Compressibility (1/GPa) = 0.01666415
#
# Stress axis : x y z
#
# Youngs Moduli (GPa) = 76.78792 64.75699 109.81027
#
# Poissons Ratio (x) = 0.30014 0.23534
# Poissons Ratio (y) = 0.35591 0.40364
# Poissons Ratio (z) = 0.16457 0.23803
#
# Static dielectric constant tensor:
#      x y z
#    x 4.397380 0.000000 0.000000 
#    y 0.000000 3.830990 0.000000 
#    z 0.000000 0.000000 4.010070 
# 
# 
# High freq. dielectric constant tensor:
#      x y z
#    x 1.823570 0.000000 0.000000 
#    y 0.000000 1.810550 0.000000 
#    z 0.000000 0.000000 1.828930 
# 
# From -- ./inp_files/23014.got.cif
#   From: 2010.03.12/outbox.cif.g09.slc.cpg/sg59_12_cif.got.tgz:23014.got - 2010.04.16 16:29:54.
