data_PCOD8245559
_publ_section_title
;
Structure prediction by ZEFSAII (Michael W. Deem and Ramdas Pophale) SiO2 
 PCOD8245559
Probable space group: P M M N
;
_chemical_formula_sum "Si O2"
_cell_formula_units_Z 56
_cell_length_a 19.753054
_cell_length_b 13.706248
_cell_length_c 10.152636
_cell_angle_alpha 90.000000
_cell_angle_beta 90.000000
_cell_angle_gamma 90.000000
_cell_volume 2748.727279
_symmetry_space_group_name_H-M "P M M N"
_symmetry_group_IT_number 59
_space_group.IT_coordinate_system_code '2'
_symmetry_cell_setting 'orthorhombic'
loop_
_space_group_symop_operation_xyz
x,y,z
1/2-x,1/2-y,z
1/2+x,-y,-z
-x,1/2+y,-z
-x,-y,-z
1/2+x,1/2+y,-z
1/2-x,y,z
x,1/2-y,z
loop_
_atom_site_type_symbol
_atom_site_label
_atom_site_fract_x
_atom_site_fract_y
_atom_site_fract_z
Si Si1 0.671422 0.864259 0.752196
Si Si2 0.392628 0.459131 0.996207
Si Si3 0.954396 0.134728 0.614029
Si Si4 0.825813 0.138162 0.458696
Si Si5 0.674235 0.535187 0.278740
Si Si6 0.972170 0.364502 0.911272
Si Si7 0.591772 0.864490 0.498811
O O1 0.750000 0.883331 0.719492
O O2 0.657705 0.750000 0.776825
O O3 0.627038 0.906495 0.630126
O O4 0.650364 0.924490 0.879618
O O5 0.343291 0.456265 0.873041
O O6 0.454742 0.385086 0.973954
O O7 0.416988 0.570950 0.011944
O O8 0.952906 0.250000 0.621885
O O9 0.881480 0.096776 0.562210
O O10 0.970420 0.096895 0.760521
O O11 0.013324 0.100773 0.511928
O O12 0.750000 0.126588 0.519818
O O13 0.841035 0.250000 0.421941
O O14 0.832834 0.077231 0.324706
O O15 0.750000 0.573362 0.298526
O O16 0.627842 0.604414 0.365357
O O17 0.954483 0.250000 0.925866
O O18 0.597060 0.750000 0.505760
#
# Coordination Sequence:
#
# PCOD8245559 Si02
#       7
#     8   8   8   8   8   8   8
#     4  10  22  40  61  88 124 164 205 251 304 364
#     4  11  23  39  61  89 120 164 202 249 303 366
#     4   9  18  36  62  88 116 153 199 252 302 354
#     4   9  20  38  59  86 121 159 201 250 303 360
#     4  11  23  38  59  89 121 158 201 246 301 362
#     4  10  22  40  60  87 122 158 202 254 306 362
#     4  10  21  38  61  90 121 153 196 253 307 357
#
# _framework density 20.373066000000001
#
# number of rings (size 3 to 8) (size 9 to 14) (size 15 to 20)
#    0.000    2.000    1.429    1.286    2.000    4.857 
#    0.000    2.143    0.000    2.143    0.000    0.000 
#    0.000    0.000    0.000    0.000    0.000    0.000 
#
# Total GULP energy -694348.566953 kJ/mol
# GULP energy per Si atom -12399.081553 kJ/mol
# Density = 2.032670 g / cm^3
# Si number density = 20.373066 Si / 1000 Ang^3
#
#
#
# Elastic Constant Matrix: (Units=GPa)
#
#
# Indices 1 2 3 4 5 6 
#
# 1 114.1728 18.2103 45.8927 0.0000 0.0000 0.0000
# 2 18.2103 46.8967 18.7990 0.0000 0.0000 0.0000
# 3 45.8927 18.7990 121.2909 0.0000 0.0000 0.0000
# 4 0.0000 0.0000 0.0000 27.6354 0.0000 0.0000
# 5 0.0000 0.0000 0.0000 0.0000 23.0628 0.0000
# 6 0.0000 0.0000 0.0000 0.0000 0.0000 16.2011
#
#
#
# Elastic Compliance Matrix: (Units=1/GPa)
#
#
# Indices 1 2 3 4 5 6 
#
# 1 0.010637 -0.002684 -0.003609 0.000000 0.000000 0.000000
# 2 -0.002684 0.023413 -0.002613 0.000000 0.000000 0.000000
# 3 -0.003609 -0.002613 0.010015 0.000000 0.000000 0.000000
# 4 0.000000 0.000000 0.000000 0.036185 0.000000 0.000000
# 5 0.000000 0.000000 0.000000 0.000000 0.043360 0.000000
# 6 0.000000 0.000000 0.000000 0.000000 0.000000 0.061724
#
#
# Mechanical properties :
#
#
# Convention : Reuss Voigt Hill
#
# Bulk Modulus (GPa) = 38.09010 49.79601 43.94306
# Shear Modulus (GPa) = 23.59618 26.67708 25.13663
#
# Velocity S-wave (km/s) = 3.40693 3.62253 3.51638
# Velocity P-wave (km/s) = 5.84920 6.48013 6.17273
#
# Compressibility (1/GPa) = 0.02625354
#
# Stress axis : x y z
#
# Youngs Moduli (GPa) = 94.00846 42.71097 99.84859
#
# Poissons Ratio (x) = 0.11463 0.36034
# Poissons Ratio (y) = 0.25231 0.26094
# Poissons Ratio (z) = 0.33926 0.11162
#
# Static dielectric constant tensor:
#      x y z
#    x 3.966000 0.000000 0.000000 
#    y 0.000000 3.661550 0.000000 
#    z 0.000000 0.000000 3.699360 
# 
# 
# High freq. dielectric constant tensor:
#      x y z
#    x 1.805120 0.000000 0.000000 
#    y 0.000000 1.800110 0.000000 
#    z 0.000000 0.000000 1.789150 
# 
# From -- ./inp_files/9324.got.cif
#   From: 2010.03.12/outbox.cif.g09.slc.cpg/sg59_5_cif.got.tgz:9324.got - 2010.04.16 16:29:54.
