data_PCOD8245851
_publ_section_title
;
Structure prediction by ZEFSAII (Michael W. Deem and Ramdas Pophale) SiO2 
 PCOD8245851
Probable space group: P M M N
;
_chemical_formula_sum "Si O2"
_cell_formula_units_Z 64
_cell_length_a 8.672833
_cell_length_b 15.195020
_cell_length_c 24.153619
_cell_angle_alpha 90.000000
_cell_angle_beta 90.000000
_cell_angle_gamma 90.000000
_cell_volume 3183.057408
_symmetry_space_group_name_H-M "P M M N"
_symmetry_group_IT_number 59
_space_group.IT_coordinate_system_code '2'
_symmetry_cell_setting 'orthorhombic'
loop_
_space_group_symop_operation_xyz
x,y,z
1/2-x,1/2-y,z
1/2+x,-y,-z
-x,1/2+y,-z
-x,-y,-z
1/2+x,1/2+y,-z
1/2-x,y,z
x,1/2-y,z
loop_
_atom_site_type_symbol
_atom_site_label
_atom_site_fract_x
_atom_site_fract_y
_atom_site_fract_z
Si Si1 0.573885 0.652463 0.898767
Si Si2 0.568736 0.994867 0.812601
Si Si3 0.565334 0.348866 0.390844
Si Si4 0.931971 0.494335 0.305897
Si Si5 0.430961 0.595646 0.007639
Si Si6 0.433970 0.849533 0.371021
Si Si7 0.072503 0.350226 0.878735
Si Si8 0.081955 0.854049 0.490140
O O1 0.750000 0.631174 0.915991
O O2 0.560915 0.750000 0.872391
O O3 0.514936 0.580938 0.854924
O O4 0.467267 0.651068 0.952884
O O5 0.750000 0.992637 0.801973
O O6 0.482435 0.973985 0.756037
O O7 0.522199 0.089507 0.836456
O O8 0.750000 0.349503 0.393865
O O9 0.508045 0.250000 0.375942
O O10 0.502479 0.416334 0.344933
O O11 0.497892 0.379076 0.451672
O O12 0.750000 0.498623 0.309432
O O13 0.999177 0.588014 0.323980
O O14 0.250000 0.589860 0.018212
O O15 0.500000 0.500000 0.000000
O O16 0.507635 0.643063 0.059565
O O17 0.250000 0.855190 0.371990
O O18 0.486799 0.750000 0.357118
O O19 0.501265 0.879688 0.431929
O O20 0.250000 0.380362 0.878569
O O21 0.054902 0.250000 0.858293
O O22 0.250000 0.899436 0.490258
O O23 0.103718 0.750000 0.489574
#
# Coordination Sequence:
#
# PCOD8245851 Si02
#       8
#     8   8   8   8   8   8   8   8
#     4  10  22  41  64  90 119 152 191 238 292 344
#     4  11  24  42  62  82 111 154 198 241 284 337
#     4   8  15  30  52  79 111 146 183 225 277 338
#     4  11  23  36  54  81 112 146 187 237 287 335
#     4  12  23  37  62  94 128 162 194 233 282 337
#     4   9  18  34  56  80 107 143 186 230 278 339
#     4  11  24  42  65  92 122 154 189 237 293 345
#     4   7  11  24  49  78 106 138 179 225 273 331
#
# _framework density 20.106453999999999
#
# number of rings (size 3 to 8) (size 9 to 14) (size 15 to 20)
#    0.000    2.125    1.250    4.125    0.000    5.000 
#    0.000    0.000    0.000    1.875    0.000    3.500 
#    0.000    0.000    0.000    0.000    0.000    0.000 
#
# Total GULP energy -793337.784610 kJ/mol
# GULP energy per Si atom -12395.902885 kJ/mol
# Density = 2.006069 g / cm^3
# Si number density = 20.106454 Si / 1000 Ang^3
#
#
#
# Elastic Constant Matrix: (Units=GPa)
#
#
# Indices 1 2 3 4 5 6 
#
# 1 29.1837 24.2108 9.5897 0.0000 0.0000 0.0000
# 2 24.2108 83.9982 24.2636 0.0000 0.0000 0.0000
# 3 9.5897 24.2636 97.7591 0.0000 0.0000 0.0000
# 4 0.0000 0.0000 0.0000 18.9752 0.0000 0.0000
# 5 0.0000 0.0000 0.0000 0.0000 13.0908 0.0000
# 6 0.0000 0.0000 0.0000 0.0000 0.0000 22.3704
#
#
#
# Elastic Compliance Matrix: (Units=1/GPa)
#
#
# Indices 1 2 3 4 5 6 
#
# 1 0.045185 -0.012650 -0.001293 0.000000 0.000000 0.000000
# 2 -0.012650 0.016366 -0.002821 0.000000 0.000000 0.000000
# 3 -0.001293 -0.002821 0.011056 0.000000 0.000000 0.000000
# 4 0.000000 0.000000 0.000000 0.052700 0.000000 0.000000
# 5 0.000000 0.000000 0.000000 0.000000 0.076389 0.000000
# 6 0.000000 0.000000 0.000000 0.000000 0.000000 0.044702
#
#
# Mechanical properties :
#
#
# Convention : Reuss Voigt Hill
#
# Bulk Modulus (GPa) = 25.58899 36.34103 30.96501
# Shear Modulus (GPa) = 17.06752 21.07906 19.07329
#
# Velocity S-wave (km/s) = 2.91668 3.24137 3.08330
# Velocity P-wave (km/s) = 4.90888 5.66764 5.30185
#
# Compressibility (1/GPa) = 0.03907931
#
# Stress axis : x y z
#
# Youngs Moduli (GPa) = 22.13116 61.10180 90.44677
#
# Poissons Ratio (x) = 0.77296 0.11692
# Poissons Ratio (y) = 0.27997 0.25516
# Poissons Ratio (z) = 0.02861 0.17237
#
# Static dielectric constant tensor:
#      x y z
#    x 3.427770 0.000000 0.000000 
#    y 0.000000 3.709980 0.000000 
#    z 0.000000 0.000000 3.861830 
# 
# 
# High freq. dielectric constant tensor:
#      x y z
#    x 1.757620 0.000000 0.000000 
#    y 0.000000 1.786560 0.000000 
#    z 0.000000 0.000000 1.789730 
# 
# From -- ./inp_files/31563.got.cif
#   From: 2010.03.12/outbox.cif.g09.slc.cpg/sg59_16_cif.got.tgz:31563.got - 2010.04.16 16:29:54.
