data_PCOD8245337
_publ_section_title
;
Structure prediction by ZEFSAII (Michael W. Deem and Ramdas Pophale) SiO2 
 PCOD8245337
Probable space group: P M M N
;
_chemical_formula_sum "Si O2"
_cell_formula_units_Z 64
_cell_length_a 9.019471
_cell_length_b 28.167226
_cell_length_c 12.623438
_cell_angle_alpha 90.000000
_cell_angle_beta 90.000000
_cell_angle_gamma 90.000000
_cell_volume 3207.028329
_symmetry_space_group_name_H-M "P M M N"
_symmetry_group_IT_number 59
_space_group.IT_coordinate_system_code '2'
_symmetry_cell_setting 'orthorhombic'
loop_
_space_group_symop_operation_xyz
x,y,z
1/2-x,1/2-y,z
1/2+x,-y,-z
-x,1/2+y,-z
-x,-y,-z
1/2+x,1/2+y,-z
1/2-x,y,z
x,1/2-y,z
loop_
_atom_site_type_symbol
_atom_site_label
_atom_site_fract_x
_atom_site_fract_y
_atom_site_fract_z
Si Si1 0.422176 0.646383 0.259232
Si Si2 0.422353 0.050015 0.694729
Si Si3 0.924312 0.698106 0.678494
Si Si4 0.922974 0.195008 0.961436
Si Si5 0.914613 0.561181 0.532712
Si Si6 0.078162 0.551962 0.750279
Si Si7 0.086080 0.331928 0.541012
Si Si8 0.573369 0.867773 0.862642
O O1 0.250000 0.638620 0.276367
O O2 0.492186 0.593822 0.252767
O O3 0.485494 0.677078 0.356517
O O4 0.457606 0.677404 0.156370
O O5 0.250000 0.064006 0.688051
O O6 0.474739 0.033511 0.573852
O O7 0.447351 0.004254 0.769651
O O8 0.750000 0.688628 0.668317
O O9 0.960414 0.750000 0.724455
O O10 0.991399 0.692972 0.560730
O O11 0.989118 0.660453 0.760560
O O12 0.750000 0.190461 0.988640
O O13 0.974791 0.250000 0.974340
O O14 0.014068 0.159199 0.035032
O O15 0.750000 0.543648 0.568586
O O16 0.901509 0.612888 0.481892
O O17 0.022344 0.564205 0.632301
O O18 0.250000 0.565781 0.756516
O O19 0.991308 0.579362 0.844551
O O20 0.250000 0.310578 0.562756
O O21 0.750000 0.869982 0.869806
#
# Coordination Sequence:
#
# PCOD8245337 Si02
#       8
#     8   8   8   8   8   8   8   8
#     4  10  21  37  59  85 113 147 189 236 286 340
#     4   9  20  36  54  80 116 155 194 237 282 334
#     4   9  17  31  52  78 110 145 179 224 282 336
#     4  10  23  44  65  85 113 147 185 237 296 345
#     4   9  16  30  50  76 113 154 191 232 277 323
#     4  11  21  33  53  82 116 155 194 232 285 345
#     4   9  17  32  52  78 115 151 182 225 281 334
#     4  11  22  38  59  85 115 148 193 242 284 337
#
# _framework density 19.956168000000002
#
# number of rings (size 3 to 8) (size 9 to 14) (size 15 to 20)
#    0.000    2.250    1.250    2.625    0.000    5.250 
#    0.000    0.625    0.000    1.500    0.000    0.000 
#    0.000    0.000    0.000    0.000    0.000    0.000 
#
# Total GULP energy -793213.676446 kJ/mol
# GULP energy per Si atom -12393.963694 kJ/mol
# Density = 1.991075 g / cm^3
# Si number density = 19.956168 Si / 1000 Ang^3
#
#
#
# Elastic Constant Matrix: (Units=GPa)
#
#
# Indices 1 2 3 4 5 6 
#
# 1 75.2056 18.8027 39.3115 0.0000 0.0000 0.0000
# 2 18.8027 37.7975 20.5058 0.0000 0.0000 0.0000
# 3 39.3115 20.5058 69.0221 0.0000 0.0000 0.0000
# 4 0.0000 0.0000 0.0000 30.0659 0.0000 0.0000
# 5 0.0000 0.0000 0.0000 0.0000 31.8894 0.0000
# 6 0.0000 0.0000 0.0000 0.0000 0.0000 16.2354
#
#
#
# Elastic Compliance Matrix: (Units=1/GPa)
#
#
# Indices 1 2 3 4 5 6 
#
# 1 0.019525 -0.004387 -0.009817 0.000000 0.000000 0.000000
# 2 -0.004387 0.032526 -0.007165 0.000000 0.000000 0.000000
# 3 -0.009817 -0.007165 0.022208 0.000000 0.000000 0.000000
# 4 0.000000 0.000000 0.000000 0.033260 0.000000 0.000000
# 5 0.000000 0.000000 0.000000 0.000000 0.031358 0.000000
# 6 0.000000 0.000000 0.000000 0.000000 0.000000 0.061594
#
#
# Mechanical properties :
#
#
# Convention : Reuss Voigt Hill
#
# Bulk Modulus (GPa) = 31.72417 37.69613 34.71015
# Shear Modulus (GPa) = 19.70699 22.53182 21.11940
#
# Velocity S-wave (km/s) = 3.14588 3.36380 3.25667
# Velocity P-wave (km/s) = 5.39693 5.83244 5.61891
#
# Compressibility (1/GPa) = 0.03152171
#
# Stress axis : x y z
#
# Youngs Moduli (GPa) = 51.21522 30.74462 45.02865
#
# Poissons Ratio (x) = 0.13488 0.44206
# Poissons Ratio (y) = 0.22468 0.32261
# Poissons Ratio (z) = 0.50280 0.22027
#
# Static dielectric constant tensor:
#      x y z
#    x 3.507250 0.000000 0.000000 
#    y 0.000000 3.772310 0.000000 
#    z 0.000000 0.000000 3.576150 
# 
# 
# High freq. dielectric constant tensor:
#      x y z
#    x 1.761700 0.000000 0.000000 
#    y 0.000000 1.784950 0.000000 
#    z 0.000000 0.000000 1.765160 
# 
# From -- ./inp_files/14893.got.cif
#   From: 2010.03.12/outbox.cif.g09.slc.cpg/sg59_8_cif.got.tgz:14893.got - 2010.04.16 16:29:54.
