data_PCOD8245400
_publ_section_title
;
Structure prediction by ZEFSAII (Michael W. Deem and Ramdas Pophale) SiO2 
 PCOD8245400
Probable space group: P M M N
;
_chemical_formula_sum "Si O2"
_cell_formula_units_Z 56
_cell_length_a 14.816554
_cell_length_b 8.548597
_cell_length_c 21.564626
_cell_angle_alpha 90.000000
_cell_angle_beta 90.000000
_cell_angle_gamma 90.000000
_cell_volume 2731.391683
_symmetry_space_group_name_H-M "P M M N"
_symmetry_group_IT_number 59
_space_group.IT_coordinate_system_code '2'
_symmetry_cell_setting 'orthorhombic'
loop_
_space_group_symop_operation_xyz
x,y,z
1/2-x,1/2-y,z
1/2+x,-y,-z
-x,1/2+y,-z
-x,-y,-z
1/2+x,1/2+y,-z
1/2-x,y,z
x,1/2-y,z
loop_
_atom_site_type_symbol
_atom_site_label
_atom_site_fract_x
_atom_site_fract_y
_atom_site_fract_z
Si Si1 0.250000 0.932406 0.250257
Si Si2 0.085575 0.929650 0.049144
Si Si3 0.645121 0.933651 0.500895
Si Si4 0.851224 0.930702 0.073653
Si Si5 0.065647 0.433276 0.281491
Si Si6 0.750000 0.931828 0.881455
Si Si7 0.026494 0.569807 0.845751
Si Si8 0.007432 0.567790 0.404689
O O1 0.250000 0.750000 0.231941
O O2 0.340517 0.972397 0.288691
O O3 0.250000 0.048648 0.192276
O O4 0.092621 0.750000 0.029667
O O5 0.165438 0.981322 0.092842
O O6 0.005235 0.960506 0.097098
O O7 0.083520 0.029971 0.985862
O O8 0.750000 0.987625 0.492628
O O9 0.640750 0.750000 0.514872
O O10 0.585713 0.975299 0.440137
O O11 0.597956 0.021742 0.557928
O O12 0.750000 0.971588 0.051326
O O13 0.860838 0.750000 0.090392
O O14 0.868593 0.033790 0.137737
O O15 0.086030 0.250000 0.278659
O O16 0.004156 0.472909 0.340581
O O17 0.009116 0.488183 0.220727
O O18 0.750000 0.750000 0.899187
O O19 0.999188 0.750000 0.854947
O O20 0.012008 0.750000 0.390081
#
# Coordination Sequence:
#
# PCOD8245400 Si02
#       8
#     4   8   8   8   8   4   8   8
#     4  12  24  38  60  88 118 156 199 242 293 356
#     4  12  23  37  60  86 114 149 193 241 296 357
#     4   9  19  38  63  90 124 166 206 247 302 354
#     4  11  24  41  61  83 112 147 190 245 304 361
#     4  11  24  41  61  85 121 163 197 239 296 354
#     4  12  22  36  56  84 120 154 189 234 297 360
#     4  11  24  41  61  83 114 152 195 244 296 357
#     4  10  21  37  60  92 127 160 204 255 295 348
#
# _framework density 20.502369999999999
#
# number of rings (size 3 to 8) (size 9 to 14) (size 15 to 20)
#    0.000    1.143    2.143    4.714    1.000    3.429 
#    0.000    0.714    0.000    2.571    0.000    0.000 
#    0.000    0.000    0.000    0.000    0.000    0.000 
#
# Total GULP energy -694113.995728 kJ/mol
# GULP energy per Si atom -12394.892781 kJ/mol
# Density = 2.045571 g / cm^3
# Si number density = 20.502370 Si / 1000 Ang^3
#
#
#
# Elastic Constant Matrix: (Units=GPa)
#
#
# Indices 1 2 3 4 5 6 
#
# 1 95.3573 25.8201 57.8398 0.0000 0.0000 0.0000
# 2 25.8201 85.4981 35.5126 0.0000 0.0000 0.0000
# 3 57.8398 35.5126 129.3217 0.0000 0.0000 0.0000
# 4 0.0000 0.0000 0.0000 35.4663 0.0000 0.0000
# 5 0.0000 0.0000 0.0000 0.0000 30.3413 0.0000
# 6 0.0000 0.0000 0.0000 0.0000 0.0000 28.1079
#
#
#
# Elastic Compliance Matrix: (Units=1/GPa)
#
#
# Indices 1 2 3 4 5 6 
#
# 1 0.014666 -0.001924 -0.006031 0.000000 0.000000 0.000000
# 2 -0.001924 0.013454 -0.002834 0.000000 0.000000 0.000000
# 3 -0.006031 -0.002834 0.011208 0.000000 0.000000 0.000000
# 4 0.000000 0.000000 0.000000 0.028196 0.000000 0.000000
# 5 0.000000 0.000000 0.000000 0.000000 0.032958 0.000000
# 6 0.000000 0.000000 0.000000 0.000000 0.000000 0.035577
#
#
# Mechanical properties :
#
#
# Convention : Reuss Voigt Hill
#
# Bulk Modulus (GPa) = 56.33710 60.94691 58.64200
# Shear Modulus (GPa) = 30.57065 31.51673 31.04369
#
# Velocity S-wave (km/s) = 3.86564 3.92500 3.89543
# Velocity P-wave (km/s) = 6.88928 7.09451 6.99265
#
# Compressibility (1/GPa) = 0.01775029
#
# Stress axis : x y z
#
# Youngs Moduli (GPa) = 68.18458 74.32505 89.21890
#
# Poissons Ratio (x) = 0.14300 0.53809
# Poissons Ratio (y) = 0.13119 0.25286
# Poissons Ratio (z) = 0.41123 0.21065
#
# Static dielectric constant tensor:
#      x y z
#    x 4.103890 0.000000 0.000000 
#    y 0.000000 3.622010 0.000000 
#    z 0.000000 0.000000 3.682970 
# 
# 
# High freq. dielectric constant tensor:
#      x y z
#    x 1.813180 0.000000 0.000000 
#    y 0.000000 1.804150 0.000000 
#    z 0.000000 0.000000 1.794910 
# 
# From -- ./inp_files/30446.got.cif
#   From: 2010.03.12/outbox.cif.g09.slc.cpg/sg59_16_cif.got.tgz:30446.got - 2010.04.16 16:29:54.
