data_PCOD8245751
_publ_section_title
;
Structure prediction by ZEFSAII (Michael W. Deem and Ramdas Pophale) SiO2 
 PCOD8245751
Probable space group: P M M N
;
_chemical_formula_sum "Si O2"
_cell_formula_units_Z 48
_cell_length_a 14.743222
_cell_length_b 9.032099
_cell_length_c 18.865440
_cell_angle_alpha 90.000000
_cell_angle_beta 90.000000
_cell_angle_gamma 90.000000
_cell_volume 2512.164262
_symmetry_space_group_name_H-M "P M M N"
_symmetry_group_IT_number 59
_space_group.IT_coordinate_system_code '2'
_symmetry_cell_setting 'orthorhombic'
loop_
_space_group_symop_operation_xyz
x,y,z
1/2-x,1/2-y,z
1/2+x,-y,-z
-x,1/2+y,-z
-x,-y,-z
1/2+x,1/2+y,-z
1/2-x,y,z
x,1/2-y,z
loop_
_atom_site_type_symbol
_atom_site_label
_atom_site_fract_x
_atom_site_fract_y
_atom_site_fract_z
Si Si1 0.008963 0.423672 0.396268
Si Si2 0.995386 0.076171 0.234524
Si Si3 0.854346 0.075517 0.504089
Si Si4 0.351899 0.583043 0.153390
Si Si5 0.095545 0.577993 0.996027
Si Si6 0.148915 0.416577 0.859522
O O1 0.026329 0.250000 0.402618
O O2 0.999750 0.475993 0.315596
O O3 0.097915 0.502690 0.427853
O O4 0.915162 0.468818 0.435723
O O5 0.979882 0.250000 0.228214
O O6 0.087697 0.034105 0.194949
O O7 0.911797 0.995192 0.198646
O O8 0.750000 0.018802 0.495016
O O9 0.854347 0.250000 0.515775
O O10 0.250000 0.562536 0.181123
O O11 0.386828 0.750000 0.168439
O O12 0.352602 0.552435 0.069503
O O13 0.082685 0.750000 0.978332
O O14 0.151993 0.503750 0.933358
O O15 0.000000 0.500000 0.000000
O O16 0.250000 0.413562 0.828388
O O17 0.112251 0.250000 0.872767
#
# Coordination Sequence:
#
# PCOD8245751 Si02
#       6
#     8   8   8   8   8   8
#     4   9  20  37  56  83 116 147 182 226 274 326
#     4  11  23  38  58  83 114 152 189 231 283 336
#     4   9  18  35  60  86 111 144 184 224 269 325
#     4  10  22  39  58  80 110 149 190 234 284 338
#     4  11  21  36  60  85 110 145 190 239 291 340
#     4  11  24  40  58  82 113 150 192 239 288 338
#
# _framework density 19.107030000000002
#
# number of rings (size 3 to 8) (size 9 to 14) (size 15 to 20)
#    0.000    1.833    1.667    2.000    0.000    6.000 
#    0.000    5.000    0.000    0.000    0.000    0.000 
#    0.000    0.000    0.000    0.000    0.000    0.000 
#
# Total GULP energy -595268.202334 kJ/mol
# GULP energy per Si atom -12401.420882 kJ/mol
# Density = 1.906354 g / cm^3
# Si number density = 19.107030 Si / 1000 Ang^3
#
#
#
# Elastic Constant Matrix: (Units=GPa)
#
#
# Indices 1 2 3 4 5 6 
#
# 1 133.0608 43.4096 52.7155 0.0000 0.0000 0.0000
# 2 43.4096 89.0916 56.7244 0.0000 0.0000 0.0000
# 3 52.7155 56.7244 137.1733 0.0000 0.0000 0.0000
# 4 0.0000 0.0000 0.0000 31.9033 0.0000 0.0000
# 5 0.0000 0.0000 0.0000 0.0000 -92.5131 0.0000
# 6 0.0000 0.0000 0.0000 0.0000 0.0000 23.7714
#
#
#
# Elastic Compliance Matrix: (Units=1/GPa)
#
#
# Indices 1 2 3 4 5 6 
#
# 1 0.009462 -0.003115 -0.002348 0.000000 0.000000 0.000000
# 2 -0.003115 0.016262 -0.005527 0.000000 0.000000 0.000000
# 3 -0.002348 -0.005527 0.010478 0.000000 0.000000 0.000000
# 4 0.000000 0.000000 0.000000 0.031345 0.000000 0.000000
# 5 0.000000 0.000000 0.000000 0.000000 -0.010809 0.000000
# 6 0.000000 0.000000 0.000000 0.000000 0.000000 0.042067
#
#
# Mechanical properties :
#
#
# Convention : Reuss Voigt Hill
#
# Bulk Modulus (GPa) = 70.32197 73.89162 72.10680
# Shear Modulus (GPa) = 39.83250 6.39740 23.11495
#
# Velocity S-wave (km/s) = 4.57081 1.83179 3.48194
# Velocity P-wave (km/s) = 8.04615 6.57498 7.34748
#
# Compressibility (1/GPa) = 0.01422031
#
# Stress axis : x y z
#
# Youngs Moduli (GPa) = 105.68697 61.49465 95.43787
#
# Poissons Ratio (x) = 0.19158 0.22408
# Poissons Ratio (y) = 0.32925 0.52751
# Poissons Ratio (z) = 0.24814 0.33990
#
# Static dielectric constant tensor:
#      x y z
#    x 3.548330 0.000000 0.000000 
#    y 0.000000 3.835910 0.000000 
#    z 0.000000 0.000000 3.641540 
# 
# 
# High freq. dielectric constant tensor:
#      x y z
#    x 1.752450 0.000000 0.000000 
#    y 0.000000 1.746670 0.000000 
#    z 0.000000 0.000000 1.737750 
# 
# From -- ./inp_files/25443.got.cif
#   From: 2010.03.12/outbox.cif.g09.slc.cpg/sg59_13_cif.got.tgz:25443.got - 2010.04.16 16:29:54.
