data_PCOD8245545
_publ_section_title
;
Structure prediction by ZEFSAII (Michael W. Deem and Ramdas Pophale) SiO2 
 PCOD8245545
Probable space group: P M M N
;
_chemical_formula_sum "Si O2"
_cell_formula_units_Z 64
_cell_length_a 17.628512
_cell_length_b 13.302694
_cell_length_c 13.600878
_cell_angle_alpha 90.000000
_cell_angle_beta 90.000000
_cell_angle_gamma 90.000000
_cell_volume 3189.497028
_symmetry_space_group_name_H-M "P M M N"
_symmetry_group_IT_number 59
_space_group.IT_coordinate_system_code '2'
_symmetry_cell_setting 'orthorhombic'
loop_
_space_group_symop_operation_xyz
x,y,z
1/2-x,1/2-y,z
1/2+x,-y,-z
-x,1/2+y,-z
-x,-y,-z
1/2+x,1/2+y,-z
1/2-x,y,z
x,1/2-y,z
loop_
_atom_site_type_symbol
_atom_site_label
_atom_site_fract_x
_atom_site_fract_y
_atom_site_fract_z
Si Si1 0.104549 0.133718 0.337150
Si Si2 0.338982 0.364357 0.125202
Si Si3 0.833920 0.137549 0.199264
Si Si4 0.068239 0.634572 0.614635
Si Si5 0.165948 0.867077 0.240816
Si Si6 0.164386 0.957470 0.446550
Si Si7 0.900536 0.994982 0.052974
Si Si8 0.967778 0.369657 0.901315
O O1 0.125802 0.250000 0.347764
O O2 0.119636 0.097334 0.225055
O O3 0.019279 0.109579 0.369549
O O4 0.157886 0.073037 0.412159
O O5 0.250000 0.371349 0.143903
O O6 0.364127 0.250000 0.102650
O O7 0.361711 0.431027 0.032578
O O8 0.750000 0.135130 0.244851
O O9 0.850975 0.250000 0.156831
O O10 0.892585 0.109175 0.283126
O O11 0.837150 0.051653 0.116406
O O12 0.081481 0.750000 0.584189
O O13 0.103845 0.564806 0.530976
O O14 0.250000 0.914204 0.215662
O O15 0.171237 0.750000 0.223132
O O16 0.144094 0.887802 0.353319
O O17 0.099669 0.908533 0.170119
O O18 0.250000 0.936788 0.484131
O O19 0.951638 0.922946 0.124123
O O20 0.950761 0.087460 0.010153
O O21 0.977074 0.250000 0.900716
#
# Coordination Sequence:
#
# PCOD8245545 Si02
#       8
#     8   8   8   8   8   8   8   8
#     4  10  22  38  58  87 121 154 189 239 293 346
#     4  10  21  38  61  88 119 155 197 244 294 353
#     4  10  22  39  59  85 117 153 197 246 292 345
#     4  10  22  39  60  85 117 154 193 240 294 351
#     4   9  19  35  55  82 116 148 182 232 293 349
#     4  11  21  35  61  89 115 150 193 238 286 347
#     4  11  22  35  58  82 112 155 197 240 295 343
#     4  10  22  36  52  80 114 149 189 236 293 353
#
# _framework density 20.065859
#
# number of rings (size 3 to 8) (size 9 to 14) (size 15 to 20)
#    0.000    1.875    0.000    3.375    5.250    4.000 
#    0.000    1.250    0.000    0.750    0.000    0.000 
#    0.000    0.000    0.000    0.000    0.000    0.000 
#
# Total GULP energy -793422.972543 kJ/mol
# GULP energy per Si atom -12397.233946 kJ/mol
# Density = 2.002019 g / cm^3
# Si number density = 20.065859 Si / 1000 Ang^3
#
#
#
# Elastic Constant Matrix: (Units=GPa)
#
#
# Indices 1 2 3 4 5 6 
#
# 1 86.2461 32.5760 46.4123 0.0000 0.0000 0.0000
# 2 32.5760 86.9187 50.2503 0.0000 0.0000 0.0000
# 3 46.4123 50.2503 91.5741 0.0000 0.0000 0.0000
# 4 0.0000 0.0000 0.0000 36.4296 0.0000 0.0000
# 5 0.0000 0.0000 0.0000 0.0000 36.9743 0.0000
# 6 0.0000 0.0000 0.0000 0.0000 0.0000 20.5487
#
#
#
# Elastic Compliance Matrix: (Units=1/GPa)
#
#
# Indices 1 2 3 4 5 6 
#
# 1 0.016162 -0.001936 -0.007129 0.000000 0.000000 0.000000
# 2 -0.001936 0.017083 -0.008393 0.000000 0.000000 0.000000
# 3 -0.007129 -0.008393 0.019139 0.000000 0.000000 0.000000
# 4 0.000000 0.000000 0.000000 0.027450 0.000000 0.000000
# 5 0.000000 0.000000 0.000000 0.000000 0.027046 0.000000
# 6 0.000000 0.000000 0.000000 0.000000 0.000000 0.048665
#
#
# Mechanical properties :
#
#
# Convention : Reuss Voigt Hill
#
# Bulk Modulus (GPa) = 57.24701 58.13512 57.69106
# Shear Modulus (GPa) = 25.47335 27.82386 26.64861
#
# Velocity S-wave (km/s) = 3.56685 3.72778 3.64821
# Velocity P-wave (km/s) = 6.74942 6.89663 6.82343
#
# Compressibility (1/GPa) = 0.01746816
#
# Stress axis : x y z
#
# Youngs Moduli (GPa) = 61.87172 58.53902 52.24955
#
# Poissons Ratio (x) = 0.11332 0.37251
# Poissons Ratio (y) = 0.11977 0.43852
# Poissons Ratio (z) = 0.44110 0.49131
#
# Static dielectric constant tensor:
#      x y z
#    x 3.843300 0.000000 0.000000 
#    y 0.000000 3.762770 0.000000 
#    z 0.000000 0.000000 3.400850 
# 
# 
# High freq. dielectric constant tensor:
#      x y z
#    x 1.791230 0.000000 0.000000 
#    y 0.000000 1.794110 0.000000 
#    z 0.000000 0.000000 1.761940 
# 
# From -- ./inp_files/17862.got.cif
#   From: 2010.03.12/outbox.cif.g09.slc.cpg/sg59_9_cif.got.tgz:17862.got - 2010.04.16 16:29:54.
