data_PCOD8245766
_publ_section_title
;
Structure prediction by ZEFSAII (Michael W. Deem and Ramdas Pophale) SiO2 
 PCOD8245766
Probable space group: P M M N
;
_chemical_formula_sum "Si O2"
_cell_formula_units_Z 48
_cell_length_a 8.708645
_cell_length_b 20.208118
_cell_length_c 14.438708
_cell_angle_alpha 90.000000
_cell_angle_beta 90.000000
_cell_angle_gamma 90.000000
_cell_volume 2541.000731
_symmetry_space_group_name_H-M "P M M N"
_symmetry_group_IT_number 59
_space_group.IT_coordinate_system_code '2'
_symmetry_cell_setting 'orthorhombic'
loop_
_space_group_symop_operation_xyz
x,y,z
1/2-x,1/2-y,z
1/2+x,-y,-z
-x,1/2+y,-z
-x,-y,-z
1/2+x,1/2+y,-z
1/2-x,y,z
x,1/2-y,z
loop_
_atom_site_type_symbol
_atom_site_label
_atom_site_fract_x
_atom_site_fract_y
_atom_site_fract_z
Si Si1 0.074593 0.824833 0.925086
Si Si2 0.929870 0.440207 0.557996
Si Si3 0.570373 0.058566 0.939975
Si Si4 0.069633 0.473794 0.749304
Si Si5 0.927463 0.674127 0.554162
Si Si6 0.073124 0.115512 0.248696
O O1 0.250000 0.836190 0.892850
O O2 0.046827 0.750000 0.958753
O O3 0.963829 0.839386 0.839256
O O4 0.034610 0.871954 0.010937
O O5 0.750000 0.451746 0.561220
O O6 0.000000 0.500000 0.500000
O O7 0.993785 0.439004 0.661398
O O8 0.967623 0.370323 0.511484
O O9 0.750000 0.044926 0.928569
O O10 0.492742 0.062522 0.840095
O O11 0.500000 0.000000 0.000000
O O12 0.250000 0.464144 0.743352
O O13 0.032709 0.551242 0.752440
O O14 0.750000 0.659696 0.531415
O O15 0.970512 0.750000 0.535052
O O16 0.963270 0.658260 0.660771
O O17 0.250000 0.092955 0.245534
#
# Coordination Sequence:
#
# PCOD8245766 Si02
#       6
#     8   8   8   8   8   8
#     4  10  22  39  59  86 122 161 200 244 298 359
#     4  12  24  40  63  90 121 160 204 250 302 361
#     4  11  22  38  61  88 121 159 200 248 298 356
#     4  12  24  39  61  90 121 157 203 255 302 355
#     4  10  22  40  61  89 126 164 201 246 301 360
#     4  11  21  35  60  91 124 159 197 245 302 362
#
# _framework density 18.890196
#
# number of rings (size 3 to 8) (size 9 to 14) (size 15 to 20)
#    0.000    1.000    3.333    4.500    0.000    2.667 
#    0.000    0.833    0.000    3.000    0.000    0.000 
#    0.000    0.000    0.000    0.000    0.000    0.000 
#
# Total GULP energy -595513.266595 kJ/mol
# GULP energy per Si atom -12406.526387 kJ/mol
# Density = 1.884720 g / cm^3
# Si number density = 18.890196 Si / 1000 Ang^3
#
#
#
# Elastic Constant Matrix: (Units=GPa)
#
#
# Indices 1 2 3 4 5 6 
#
# 1 130.8601 55.0451 73.3528 0.0000 0.0000 0.0000
# 2 55.0451 124.6947 64.6688 0.0000 0.0000 0.0000
# 3 73.3528 64.6688 156.1926 0.0000 0.0000 0.0000
# 4 0.0000 0.0000 0.0000 25.0521 0.0000 0.0000
# 5 0.0000 0.0000 0.0000 0.0000 35.8408 0.0000
# 6 0.0000 0.0000 0.0000 0.0000 0.0000 24.3561
#
#
#
# Elastic Compliance Matrix: (Units=1/GPa)
#
#
# Indices 1 2 3 4 5 6 
#
# 1 0.011087 -0.002794 -0.004050 0.000000 0.000000 0.000000
# 2 -0.002794 0.010916 -0.003208 0.000000 0.000000 0.000000
# 3 -0.004050 -0.003208 0.009633 0.000000 0.000000 0.000000
# 4 0.000000 0.000000 0.000000 0.039917 0.000000 0.000000
# 5 0.000000 0.000000 0.000000 0.000000 0.027901 0.000000
# 6 0.000000 0.000000 0.000000 0.000000 0.000000 0.041057
#
#
# Mechanical properties :
#
#
# Convention : Reuss Voigt Hill
#
# Bulk Modulus (GPa) = 86.70911 88.65342 87.68127
# Shear Modulus (GPa) = 30.40262 31.62850 31.01556
#
# Velocity S-wave (km/s) = 4.01613 4.09630 4.05642
# Velocity P-wave (km/s) = 8.21627 8.33101 8.27384
#
# Compressibility (1/GPa) = 0.01153281
#
# Stress axis : x y z
#
# Youngs Moduli (GPa) = 90.19370 91.60472 103.81506
#
# Poissons Ratio (x) = 0.25593 0.42047
# Poissons Ratio (y) = 0.25199 0.33301
# Poissons Ratio (z) = 0.36530 0.29384
#
# Static dielectric constant tensor:
#      x y z
#    x 3.535300 0.000000 0.000000 
#    y 0.000000 3.461020 0.000000 
#    z 0.000000 0.000000 3.641600 
# 
# 
# High freq. dielectric constant tensor:
#      x y z
#    x 1.744720 0.000000 0.000000 
#    y 0.000000 1.730780 0.000000 
#    z 0.000000 0.000000 1.739610 
# 
# From -- ./inp_files/20368.got.cif
#   From: 2010.03.12/outbox.cif.g09.slc.cpg/sg59_11_cif.got.tgz:20368.got - 2010.04.16 16:29:54.
