data_PCOD8245968
_publ_section_title
;
Structure prediction by ZEFSAII (Michael W. Deem and Ramdas Pophale) SiO2 
 PCOD8245968
Probable space group: P M M N
;
_chemical_formula_sum "Si O2"
_cell_formula_units_Z 48
_cell_length_a 8.684413
_cell_length_b 19.374670
_cell_length_c 15.469383
_cell_angle_alpha 90.000000
_cell_angle_beta 90.000000
_cell_angle_gamma 90.000000
_cell_volume 2602.841814
_symmetry_space_group_name_H-M "P M M N"
_symmetry_group_IT_number 59
_space_group.IT_coordinate_system_code '2'
_symmetry_cell_setting 'orthorhombic'
loop_
_space_group_symop_operation_xyz
x,y,z
1/2-x,1/2-y,z
1/2+x,-y,-z
-x,1/2+y,-z
-x,-y,-z
1/2+x,1/2+y,-z
1/2-x,y,z
x,1/2-y,z
loop_
_atom_site_type_symbol
_atom_site_label
_atom_site_fract_x
_atom_site_fract_y
_atom_site_fract_z
Si Si1 0.926348 0.079058 0.402610
Si Si2 0.070215 0.931569 0.411524
Si Si3 0.429190 0.423352 0.758749
Si Si4 0.427020 0.670563 0.902520
Si Si5 0.072135 0.072426 0.232627
Si Si6 0.072887 0.670559 0.101588
O O1 0.750000 0.091246 0.376828
O O2 0.960477 0.111017 0.498784
O O3 0.028728 0.109760 0.324352
O O4 0.960446 0.998013 0.410758
O O5 0.250000 0.952810 0.407164
O O6 0.020783 0.890941 0.324485
O O7 0.250000 0.420917 0.738710
O O8 0.477839 0.501902 0.778386
O O9 0.463779 0.377136 0.841677
O O10 0.250000 0.654994 0.879500
O O11 0.466200 0.750000 0.883479
O O12 0.537143 0.623721 0.845160
O O13 0.460341 0.652869 0.001980
O O14 0.250000 0.053252 0.232080
O O15 0.250000 0.655021 0.124022
O O16 0.033349 0.750000 0.120535
#
# Coordination Sequence:
#
# PCOD8245968 Si02
#       6
#     8   8   8   8   8   8
#     4   9  16  27  45  69  98 131 166 204 246 293
#     4   9  16  27  45  69  98 131 166 204 246 293
#     4  11  21  32  50  76 106 136 167 207 250 293
#     4   9  19  37  58  76  97 129 167 206 251 304
#     4  11  21  32  50  76 106 136 167 207 250 293
#     4   9  19  37  58  76  97 129 167 206 251 304
#
# _framework density 18.441382000000001
#
# number of rings (size 3 to 8) (size 9 to 14) (size 15 to 20)
#    0.000    2.333    0.000    7.000    0.000    4.000 
#    0.000    1.667    0.000    1.000    0.000    7.000 
#    0.000    0.000    0.000    0.000    0.000    0.000 
#
# Total GULP energy -594882.391099 kJ/mol
# GULP energy per Si atom -12393.383148 kJ/mol
# Density = 1.839941 g / cm^3
# Si number density = 18.441382 Si / 1000 Ang^3
#
#
#
# Elastic Constant Matrix: (Units=GPa)
#
#
# Indices 1 2 3 4 5 6 
#
# 1 81.6666 24.1850 44.4871 0.0000 0.0000 0.0000
# 2 24.1850 44.4951 47.6232 0.0000 0.0000 0.0000
# 3 44.4871 47.6232 130.1170 0.0000 0.0000 0.0000
# 4 0.0000 0.0000 0.0000 -2.9553 0.0000 0.0000
# 5 0.0000 0.0000 0.0000 0.0000 33.7963 0.0000
# 6 0.0000 0.0000 0.0000 0.0000 0.0000 22.3429
#
#
#
# Elastic Compliance Matrix: (Units=1/GPa)
#
#
# Indices 1 2 3 4 5 6 
#
# 1 0.015589 -0.004552 -0.003664 0.000000 0.000000 0.000000
# 2 -0.004552 0.038277 -0.012453 0.000000 0.000000 0.000000
# 3 -0.003664 -0.012453 0.013496 0.000000 0.000000 0.000000
# 4 0.000000 0.000000 0.000000 -0.338372 0.000000 0.000000
# 5 0.000000 0.000000 0.000000 0.000000 0.029589 0.000000
# 6 0.000000 0.000000 0.000000 0.000000 0.000000 0.044757
#
#
# Mechanical properties :
#
#
# Convention : Reuss Voigt Hill
#
# Bulk Modulus (GPa) = 38.42582 54.31880 46.37231
# Shear Modulus (GPa) = -34.09453 19.96901 -7.06276
#
# Velocity S-wave (km/s) = -4.30444 3.29422 -1.95912
# Velocity P-wave (km/s) = 1.95507 6.63234 4.48139
#
# Compressibility (1/GPa) = 0.02602417
#
# Stress axis : x y z
#
# Youngs Moduli (GPa) = 64.14897 26.12519 74.09593
#
# Poissons Ratio (x) = 0.11891 0.27148
# Poissons Ratio (y) = 0.29199 0.92274
# Poissons Ratio (z) = 0.23503 0.32535
#
# Static dielectric constant tensor:
#      x y z
#    x 3.327750 0.000000 0.000000 
#    y 0.000000 2.873620 0.000000 
#    z 0.000000 0.000000 3.994790 
# 
# 
# High freq. dielectric constant tensor:
#      x y z
#    x 1.721400 0.000000 0.000000 
#    y 0.000000 1.655070 0.000000 
#    z 0.000000 0.000000 1.741520 
# 
# From -- ./inp_files/20760.got.cif
#   From: 2010.03.12/outbox.cif.g09.slc.cpg/sg59_11_cif.got.tgz:20760.got - 2010.04.16 16:29:54.
