data_PCOD8245931
_publ_section_title
;
Structure prediction by ZEFSAII (Michael W. Deem and Ramdas Pophale) SiO2 
 PCOD8245931
Probable space group: P M M N
;
_chemical_formula_sum "Si O2"
_cell_formula_units_Z 64
_cell_length_a 24.908521
_cell_length_b 9.177783
_cell_length_c 18.636524
_cell_angle_alpha 90.000000
_cell_angle_beta 90.000000
_cell_angle_gamma 90.000000
_cell_volume 4260.402580
_symmetry_space_group_name_H-M "P M M N"
_symmetry_group_IT_number 59
_space_group.IT_coordinate_system_code '2'
_symmetry_cell_setting 'orthorhombic'
loop_
_space_group_symop_operation_xyz
x,y,z
1/2-x,1/2-y,z
1/2+x,-y,-z
-x,1/2+y,-z
-x,-y,-z
1/2+x,1/2+y,-z
1/2-x,y,z
x,1/2-y,z
loop_
_atom_site_type_symbol
_atom_site_label
_atom_site_fract_x
_atom_site_fract_y
_atom_site_fract_z
Si Si1 0.809052 0.423182 0.924536
Si Si2 0.187994 0.913877 0.237632
Si Si3 0.494422 0.579179 0.266539
Si Si4 0.515467 0.580458 0.105035
Si Si5 0.106655 0.077286 0.329159
Si Si6 0.417132 0.921537 0.006026
Si Si7 0.423979 0.912276 0.464457
Si Si8 0.544902 0.910581 0.409107
O O1 0.750000 0.481512 0.950074
O O2 0.808148 0.250000 0.926009
O O3 0.820449 0.472321 0.843170
O O4 0.857632 0.481884 0.974200
O O5 0.250000 0.910073 0.257852
O O6 0.163696 0.750000 0.246012
O O7 0.160874 0.028299 0.290688
O O8 0.478677 0.750000 0.270796
O O9 0.515772 0.536005 0.188308
O O10 0.442237 0.484675 0.282621
O O11 0.540816 0.542926 0.325247
O O12 0.526675 0.750000 0.094511
O O13 0.458322 0.536994 0.069957
O O14 0.564220 0.495440 0.067663
O O15 0.102312 0.250000 0.333559
O O16 0.108409 0.013897 0.409677
O O17 0.415691 0.750000 0.993599
O O18 0.399147 0.750000 0.465103
O O19 0.485240 0.906873 0.440431
O O20 0.419230 0.977298 0.545112
O O21 0.570797 0.750000 0.415799
#
# Coordination Sequence:
#
# PCOD8245931 Si02
#       8
#     8   8   8   8   8   8   8   8
#     4   8  14  26  45  64  79 102 138 174 206 243
#     4   9  17  30  46  60  77 105 139 171 203 242
#     4   9  17  29  43  57  77 108 142 170 199 243
#     4   9  17  28  41  57  80 111 141 168 203 248
#     4  11  20  27  39  59  83 108 135 170 205 238
#     4   9  16  26  41  60  82 106 135 172 206 241
#     4   9  16  26  39  54  76 106 135 159 188 232
#     4   8  14  24  38  56  76  98 128 166 200 226
#
# _framework density 15.022055
#
# number of rings (size 3 to 8) (size 9 to 14) (size 15 to 20)
#    0.000    3.000    0.000    3.750    0.000    5.750 
#    0.000    3.125    0.000    1.125    0.000    0.000 
#    0.000    1.000    0.000    8.000    0.000    2.875 
#
# Total GULP energy -793272.228976 kJ/mol
# GULP energy per Si atom -12394.878578 kJ/mol
# Density = 1.498786 g / cm^3
# Si number density = 15.022055 Si / 1000 Ang^3
#
#
#
# Elastic Constant Matrix: (Units=GPa)
#
#
# Indices 1 2 3 4 5 6 
#
# 1 71.0803 31.3982 47.7598 0.0000 0.0000 0.0000
# 2 31.3982 72.5270 46.8312 0.0000 0.0000 0.0000
# 3 47.7598 46.8312 122.8523 0.0000 0.0000 0.0000
# 4 0.0000 0.0000 0.0000 24.3350 0.0000 0.0000
# 5 0.0000 0.0000 0.0000 0.0000 17.9161 0.0000
# 6 0.0000 0.0000 0.0000 0.0000 0.0000 16.9751
#
#
#
# Elastic Compliance Matrix: (Units=1/GPa)
#
#
# Indices 1 2 3 4 5 6 
#
# 1 0.020272 -0.004891 -0.006016 0.000000 0.000000 0.000000
# 2 -0.004891 0.019470 -0.005520 0.000000 0.000000 0.000000
# 3 -0.006016 -0.005520 0.012583 0.000000 0.000000 0.000000
# 4 0.000000 0.000000 0.000000 0.041093 0.000000 0.000000
# 5 0.000000 0.000000 0.000000 0.000000 0.055816 0.000000
# 6 0.000000 0.000000 0.000000 0.000000 0.000000 0.058910
#
#
# Mechanical properties :
#
#
# Convention : Reuss Voigt Hill
#
# Bulk Modulus (GPa) = 51.36381 57.60421 54.48401
# Shear Modulus (GPa) = 20.20294 21.20993 20.70643
#
# Velocity S-wave (km/s) = 3.67125 3.76163 3.71671
# Velocity P-wave (km/s) = 7.22753 7.56942 7.40045
#
# Compressibility (1/GPa) = 0.01946896
#
# Stress axis : x y z
#
# Youngs Moduli (GPa) = 49.33022 51.36088 79.47153
#
# Poissons Ratio (x) = 0.25122 0.47812
# Poissons Ratio (y) = 0.24128 0.43872
# Poissons Ratio (z) = 0.29678 0.28354
#
# Static dielectric constant tensor:
#      x y z
#    x 2.723200 0.000000 0.000000 
#    y 0.000000 2.858040 0.000000 
#    z 0.000000 0.000000 3.028000 
# 
# 
# High freq. dielectric constant tensor:
#      x y z
#    x 1.533090 0.000000 0.000000 
#    y 0.000000 1.566930 0.000000 
#    z 0.000000 0.000000 1.571200 
# 
# From -- ./inp_files/28471.got.cif
#   From: 2010.03.12/outbox.cif.g09.slc.cpg/sg59_15_cif.got.tgz:28471.got - 2010.04.16 16:29:54.
