data_PCOD8245390
_publ_section_title
;
Structure prediction by ZEFSAII (Michael W. Deem and Ramdas Pophale) SiO2 
 PCOD8245390
Probable space group: P M M N
;
_chemical_formula_sum "Si O2"
_cell_formula_units_Z 40
_cell_length_a 15.892653
_cell_length_b 9.182674
_cell_length_c 14.309399
_cell_angle_alpha 90.000000
_cell_angle_beta 90.000000
_cell_angle_gamma 90.000000
_cell_volume 2088.271499
_symmetry_space_group_name_H-M "P M M N"
_symmetry_group_IT_number 59
_space_group.IT_coordinate_system_code '2'
_symmetry_cell_setting 'orthorhombic'
loop_
_space_group_symop_operation_xyz
x,y,z
1/2-x,1/2-y,z
1/2+x,-y,-z
-x,1/2+y,-z
-x,-y,-z
1/2+x,1/2+y,-z
1/2-x,y,z
x,1/2-y,z
loop_
_atom_site_type_symbol
_atom_site_label
_atom_site_fract_x
_atom_site_fract_y
_atom_site_fract_z
Si Si1 0.750000 0.423284 0.277687
Si Si2 0.416693 0.421743 0.035767
Si Si3 0.072715 0.582505 0.391501
Si Si4 0.094802 0.578793 0.599651
Si Si5 0.154099 0.916573 0.201659
Si Si6 0.250000 0.079150 0.919786
O O1 0.750000 0.250000 0.267202
O O2 0.669717 0.479687 0.335713
O O3 0.750000 0.493099 0.176396
O O4 0.431718 0.250000 0.035092
O O5 0.403322 0.475457 0.141582
O O6 0.500000 0.500000 0.000000
O O7 0.334359 0.465827 0.975713
O O8 0.045115 0.750000 0.395972
O O9 0.111547 0.534425 0.491318
O O10 0.141306 0.553495 0.311624
O O11 0.990674 0.491894 0.364213
O O12 0.086361 0.750000 0.610422
O O13 0.250000 0.950075 0.177359
O O14 0.130316 0.750000 0.177084
O O15 0.250000 0.250000 0.898998
#
# Coordination Sequence:
#
# PCOD8245390 Si02
#       6
#     4   8   8   8   8   4
#     4  10  22  36  57  84 112 148 191 232 277 330
#     4  11  24  43  64  87 116 153 193 241 296 349
#     4   9  19  35  57  82 114 150 187 230 280 335
#     4   9  19  36  55  81 114 149 189 232 276 329
#     4  10  21  37  60  89 116 149 191 236 287 345
#     4  10  24  44  61  82 116 152 191 238 291 346
#
# _framework density 19.154598
#
# number of rings (size 3 to 8) (size 9 to 14) (size 15 to 20)
#    0.000    2.200    1.000    0.600    4.200    3.200 
#    0.000    0.000    0.000    0.000    0.000    0.000 
#    0.000    0.000    0.000    0.000    0.000    0.000 
#
# Total GULP energy -496022.394496 kJ/mol
# GULP energy per Si atom -12400.559862 kJ/mol
# Density = 1.911100 g / cm^3
# Si number density = 19.154598 Si / 1000 Ang^3
#
#
#
# Elastic Constant Matrix: (Units=GPa)
#
#
# Indices 1 2 3 4 5 6 
#
# 1 105.6232 44.3191 50.7444 0.0000 0.0000 0.0000
# 2 44.3191 51.8827 40.5130 0.0000 0.0000 0.0000
# 3 50.7444 40.5130 109.0599 0.0000 0.0000 0.0000
# 4 0.0000 0.0000 0.0000 33.5277 0.0000 0.0000
# 5 0.0000 0.0000 0.0000 0.0000 35.3793 0.0000
# 6 0.0000 0.0000 0.0000 0.0000 0.0000 32.3607
#
#
#
# Elastic Compliance Matrix: (Units=1/GPa)
#
#
# Indices 1 2 3 4 5 6 
#
# 1 0.015528 -0.010737 -0.003236 0.000000 0.000000 0.000000
# 2 -0.010737 0.034574 -0.007848 0.000000 0.000000 0.000000
# 3 -0.003236 -0.007848 0.013590 0.000000 0.000000 0.000000
# 4 0.000000 0.000000 0.000000 0.029826 0.000000 0.000000
# 5 0.000000 0.000000 0.000000 0.000000 0.028265 0.000000
# 6 0.000000 0.000000 0.000000 0.000000 0.000000 0.030902
#
#
# Mechanical properties :
#
#
# Convention : Reuss Voigt Hill
#
# Bulk Modulus (GPa) = 49.87502 59.74653 54.81078
# Shear Modulus (GPa) = 24.62943 28.98615 26.80779
#
# Velocity S-wave (km/s) = 3.58973 3.89430 3.74511
# Velocity P-wave (km/s) = 6.57847 7.17497 6.88318
#
# Compressibility (1/GPa) = 0.02005012
#
# Stress axis : x y z
#
# Youngs Moduli (GPa) = 64.40152 28.92377 73.58206
#
# Poissons Ratio (x) = 0.31055 0.23814
# Poissons Ratio (y) = 0.69147 0.57744
# Poissons Ratio (z) = 0.20843 0.22698
#
# Static dielectric constant tensor:
#      x y z
#    x 3.593610 0.000000 0.000000 
#    y 0.000000 3.430970 0.000000 
#    z 0.000000 0.000000 3.592880 
# 
# 
# High freq. dielectric constant tensor:
#      x y z
#    x 1.746510 0.000000 0.000000 
#    y 0.000000 1.737140 0.000000 
#    z 0.000000 0.000000 1.755530 
# 
# From -- ./inp_files/22983.got.cif
#   From: 2010.03.12/outbox.cif.g09.slc.cpg/sg59_12_cif.got.tgz:22983.got - 2010.04.16 16:29:54.
