data_PCOD8245635
_publ_section_title
;
Structure prediction by ZEFSAII (Michael W. Deem and Ramdas Pophale) SiO2 
 PCOD8245635
Probable space group: P M M N
;
_chemical_formula_sum "Si O2"
_cell_formula_units_Z 40
_cell_length_a 8.635356
_cell_length_b 15.837399
_cell_length_c 14.392182
_cell_angle_alpha 90.000000
_cell_angle_beta 90.000000
_cell_angle_gamma 90.000000
_cell_volume 1968.297528
_symmetry_space_group_name_H-M "P M M N"
_symmetry_group_IT_number 59
_space_group.IT_coordinate_system_code '2'
_symmetry_cell_setting 'orthorhombic'
loop_
_space_group_symop_operation_xyz
x,y,z
1/2-x,1/2-y,z
1/2+x,-y,-z
-x,1/2+y,-z
-x,-y,-z
1/2+x,1/2+y,-z
1/2-x,y,z
x,1/2-y,z
loop_
_atom_site_type_symbol
_atom_site_label
_atom_site_fract_x
_atom_site_fract_y
_atom_site_fract_z
Si Si1 0.428751 0.929615 0.390915
Si Si2 0.571561 0.106457 0.403747
Si Si3 0.929302 0.750000 0.716699
Si Si4 0.069971 0.410237 0.975506
Si Si5 0.073910 0.652509 0.201181
Si Si6 0.067940 0.750000 0.918637
O O1 0.250000 0.959176 0.391649
O O2 0.467471 0.881552 0.487006
O O3 0.466538 0.865553 0.308083
O O4 0.536572 0.010498 0.375770
O O5 0.750000 0.127631 0.382749
O O6 0.465351 0.167607 0.343726
O O7 0.750000 0.750000 0.744278
O O8 0.028606 0.750000 0.810159
O O9 0.250000 0.410987 0.997583
O O10 0.040486 0.397967 0.865979
O O11 0.000000 0.500000 0.000000
O O12 0.995682 0.334783 0.034461
O O13 0.250000 0.625206 0.179153
O O14 0.048630 0.750000 0.181220
O O15 0.250000 0.750000 0.932720
#
# Coordination Sequence:
#
# PCOD8245635 Si02
#       6
#     8   8   4   8   8   4
#     4   9  20  38  63  91 126 167 209 256 310 368
#     4  10  21  39  62  90 125 165 211 260 308 366
#     4  12  26  42  63  90 125 166 209 256 314 380
#     4  12  26  45  69  97 130 170 213 263 322 386
#     4  10  21  39  65  94 126 166 211 259 314 375
#     4  12  26  48  71  96 127 164 215 274 326 384
#
# _framework density 20.322130999999999
#
# number of rings (size 3 to 8) (size 9 to 14) (size 15 to 20)
#    0.000    1.400    1.000    4.200    4.200    1.600 
#    0.000    0.000    0.000    0.000    0.000    0.000 
#    0.000    0.000    0.000    0.000    0.000    0.000 
#
# Total GULP energy -496154.807613 kJ/mol
# GULP energy per Si atom -12403.870190 kJ/mol
# Density = 2.027588 g / cm^3
# Si number density = 20.322131 Si / 1000 Ang^3
#
#
#
# Elastic Constant Matrix: (Units=GPa)
#
#
# Indices 1 2 3 4 5 6 
#
# 1 118.0483 51.9991 40.7079 0.0000 0.0000 0.0000
# 2 51.9991 107.6924 55.1094 0.0000 0.0000 0.0000
# 3 40.7079 55.1094 123.1434 0.0000 0.0000 0.0000
# 4 0.0000 0.0000 0.0000 37.8712 0.0000 0.0000
# 5 0.0000 0.0000 0.0000 0.0000 32.5888 0.0000
# 6 0.0000 0.0000 0.0000 0.0000 0.0000 33.9163
#
#
#
# Elastic Compliance Matrix: (Units=1/GPa)
#
#
# Indices 1 2 3 4 5 6 
#
# 1 0.011008 -0.004479 -0.001635 0.000000 0.000000 0.000000
# 2 -0.004479 0.013866 -0.004725 0.000000 0.000000 0.000000
# 3 -0.001635 -0.004725 0.010775 0.000000 0.000000 0.000000
# 4 0.000000 0.000000 0.000000 0.026405 0.000000 0.000000
# 5 0.000000 0.000000 0.000000 0.000000 0.030685 0.000000
# 6 0.000000 0.000000 0.000000 0.000000 0.000000 0.029484
#
#
# Mechanical properties :
#
#
# Convention : Reuss Voigt Hill
#
# Bulk Modulus (GPa) = 71.56615 71.61298 71.58957
# Shear Modulus (GPa) = 33.65699 34.27977 33.96838
#
# Velocity S-wave (km/s) = 4.07403 4.11155 4.09283
# Velocity P-wave (km/s) = 7.57777 7.60626 7.59203
#
# Compressibility (1/GPa) = 0.01397309
#
# Stress axis : x y z
#
# Youngs Moduli (GPa) = 90.84710 72.11880 92.80363
#
# Poissons Ratio (x) = 0.32298 0.15169
# Poissons Ratio (y) = 0.40686 0.43849
# Poissons Ratio (z) = 0.14849 0.34075
#
# Static dielectric constant tensor:
#      x y z
#    x 3.754000 0.000000 0.000000 
#    y 0.000000 3.666800 0.000000 
#    z 0.000000 0.000000 3.894120 
# 
# 
# High freq. dielectric constant tensor:
#      x y z
#    x 1.795360 0.000000 0.000000 
#    y 0.000000 1.795760 0.000000 
#    z 0.000000 0.000000 1.808710 
# 
# From -- ./inp_files/20020.got.cif
#   From: 2010.03.12/outbox.cif.g09.slc.cpg/sg59_11_cif.got.tgz:20020.got - 2010.04.16 16:29:54.
