data_PCOD8245060
_publ_section_title
;
Structure prediction by ZEFSAII (Michael W. Deem and Ramdas Pophale) SiO2 
 PCOD8245060
Probable space group: P M M N
;
_chemical_formula_sum "Si O2"
_cell_formula_units_Z 48
_cell_length_a 13.670800
_cell_length_b 17.861855
_cell_length_c 10.660850
_cell_angle_alpha 90.000000
_cell_angle_beta 90.000000
_cell_angle_gamma 90.000000
_cell_volume 2603.228691
_symmetry_space_group_name_H-M "P M M N"
_symmetry_group_IT_number 59
_space_group.IT_coordinate_system_code '2'
_symmetry_cell_setting 'orthorhombic'
loop_
_space_group_symop_operation_xyz
x,y,z
1/2-x,1/2-y,z
1/2+x,-y,-z
-x,1/2+y,-z
-x,-y,-z
1/2+x,1/2+y,-z
1/2-x,y,z
x,1/2-y,z
loop_
_atom_site_type_symbol
_atom_site_label
_atom_site_fract_x
_atom_site_fract_y
_atom_site_fract_z
Si Si1 0.510788 0.451989 0.123140
Si Si2 0.635061 0.837017 0.749373
Si Si3 0.142163 0.615098 0.545015
Si Si4 0.861097 0.969104 0.325354
Si Si5 0.640287 0.170191 0.171913
Si Si6 0.440628 0.165184 0.530484
O O1 0.417337 0.401633 0.166577
O O2 0.554549 0.507639 0.227787
O O3 0.591389 0.390952 0.084006
O O4 0.500000 0.500000 0.000000
O O5 0.750000 0.852951 0.757538
O O6 0.613297 0.750000 0.790240
O O7 0.597727 0.849800 0.608776
O O8 0.250000 0.637368 0.491658
O O9 0.132908 0.525110 0.555253
O O10 0.129041 0.648010 0.683618
O O11 0.056831 0.647655 0.457816
O O12 0.750000 0.973496 0.268103
O O13 0.881342 0.885552 0.372181
O O14 0.750000 0.176429 0.127638
O O15 0.587150 0.250000 0.154976
O O16 0.421288 0.250000 0.572136
#
# Coordination Sequence:
#
# PCOD8245060 Si02
#       6
#     8   8   8   8   8   8
#     4  11  22  36  56  79 108 146 189 234 277 327
#     4  10  21  36  56  83 113 145 185 236 288 339
#     4   9  17  29  53  84 110 137 173 222 278 333
#     4  10  21  37  56  81 112 143 183 229 281 339
#     4   9  16  30  54  80 103 130 172 226 276 322
#     4  11  20  34  56  82 117 153 187 227 281 345
#
# _framework density 18.438642000000002
#
# number of rings (size 3 to 8) (size 9 to 14) (size 15 to 20)
#    0.000    2.000    3.333    3.500    0.000    3.333 
#    0.000    1.667    0.000    0.000    0.000    0.000 
#    0.000    0.000    0.000    0.000    0.000    0.000 
#
# Total GULP energy -594629.551023 kJ/mol
# GULP energy per Si atom -12388.115646 kJ/mol
# Density = 1.839668 g / cm^3
# Si number density = 18.438642 Si / 1000 Ang^3
#
#
#
# Elastic Constant Matrix: (Units=GPa)
#
#
# Indices 1 2 3 4 5 6 
#
# 1 120.5760 50.9766 33.5176 0.0000 0.0000 0.0000
# 2 50.9766 148.6217 41.8607 0.0000 0.0000 0.0000
# 3 33.5176 41.8607 33.8665 0.0000 0.0000 0.0000
# 4 0.0000 0.0000 0.0000 23.6741 0.0000 0.0000
# 5 0.0000 0.0000 0.0000 0.0000 13.7293 0.0000
# 6 0.0000 0.0000 0.0000 0.0000 0.0000 20.6394
#
#
#
# Elastic Compliance Matrix: (Units=1/GPa)
#
#
# Indices 1 2 3 4 5 6 
#
# 1 0.011566 -0.001140 -0.010038 0.000000 0.000000 0.000000
# 2 -0.001140 0.010434 -0.011769 0.000000 0.000000 0.000000
# 3 -0.010038 -0.011769 0.054010 0.000000 0.000000 0.000000
# 4 0.000000 0.000000 0.000000 0.042240 0.000000 0.000000
# 5 0.000000 0.000000 0.000000 0.000000 0.072837 0.000000
# 6 0.000000 0.000000 0.000000 0.000000 0.000000 0.048451
#
#
# Mechanical properties :
#
#
# Convention : Reuss Voigt Hill
#
# Bulk Modulus (GPa) = 33.20512 61.75268 47.47890
# Shear Modulus (GPa) = 16.92217 23.38916 20.15566
#
# Velocity S-wave (km/s) = 3.03273 3.56545 3.30982
# Velocity P-wave (km/s) = 5.50553 7.10728 6.35706
#
# Compressibility (1/GPa) = 0.03011584
#
# Stress axis : x y z
#
# Youngs Moduli (GPa) = 86.46282 95.83697 18.51525
#
# Poissons Ratio (x) = 0.10923 0.18585
# Poissons Ratio (y) = 0.09855 0.21791
# Poissons Ratio (z) = 0.86789 1.12794
#
# Static dielectric constant tensor:
#      x y z
#    x 3.783090 0.000000 0.000000 
#    y 0.000000 3.997340 0.000000 
#    z 0.000000 0.000000 2.737710 
# 
# 
# High freq. dielectric constant tensor:
#      x y z
#    x 1.737020 0.000000 0.000000 
#    y 0.000000 1.734800 0.000000 
#    z 0.000000 0.000000 1.637300 
# 
# From -- ./inp_files/9035.got.cif
#   From: 2010.03.12/outbox.cif.g09.slc.cpg/sg59_5_cif.got.tgz:9035.got - 2010.04.16 16:29:54.
