data_PCOD8245309
_publ_section_title
;
Structure prediction by ZEFSAII (Michael W. Deem and Ramdas Pophale) SiO2 
 PCOD8245309
Probable space group: P M M N
;
_chemical_formula_sum "Si O2"
_cell_formula_units_Z 56
_cell_length_a 8.872251
_cell_length_b 19.061730
_cell_length_c 16.407759
_cell_angle_alpha 90.000000
_cell_angle_beta 90.000000
_cell_angle_gamma 90.000000
_cell_volume 2774.887636
_symmetry_space_group_name_H-M "P M M N"
_symmetry_group_IT_number 59
_space_group.IT_coordinate_system_code '2'
_symmetry_cell_setting 'orthorhombic'
loop_
_space_group_symop_operation_xyz
x,y,z
1/2-x,1/2-y,z
1/2+x,-y,-z
-x,1/2+y,-z
-x,-y,-z
1/2+x,1/2+y,-z
1/2-x,y,z
x,1/2-y,z
loop_
_atom_site_type_symbol
_atom_site_label
_atom_site_fract_x
_atom_site_fract_y
_atom_site_fract_z
Si Si1 0.428329 0.553681 0.246895
Si Si2 0.075716 0.168994 0.485608
Si Si3 0.427565 0.168703 0.851449
Si Si4 0.573786 0.450865 0.567835
Si Si5 0.077254 0.668922 0.678474
Si Si6 0.071937 0.076499 0.006596
Si Si7 0.572049 0.422941 0.169242
O O1 0.250000 0.549912 0.234322
O O2 0.486993 0.631631 0.224311
O O3 0.473275 0.531925 0.339341
O O4 0.511610 0.501114 0.185385
O O5 0.250000 0.151288 0.496904
O O6 0.038233 0.250000 0.498060
O O7 0.979829 0.128526 0.552965
O O8 0.027025 0.143910 0.395739
O O9 0.250000 0.162895 0.836243
O O10 0.478077 0.250000 0.856606
O O11 0.475857 0.128968 0.934349
O O12 0.500000 0.500000 0.500000
O O13 0.750000 0.457129 0.556160
O O14 0.250000 0.652833 0.655192
O O15 0.052424 0.750000 0.698608
O O16 0.024347 0.626554 0.756773
O O17 0.250000 0.068160 0.010912
O O18 0.007677 0.109847 0.089960
O O19 0.000000 0.000000 0.000000
O O20 0.750000 0.426416 0.155575
#
# Coordination Sequence:
#
# PCOD8245309 Si02
#       7
#     8   8   8   8   8   8   8
#     4  11  24  40  60  87 118 155 199 247 298 353
#     4  10  21  37  58  84 115 154 198 243 297 359
#     4  10  23  43  65  90 121 158 200 246 298 356
#     4  11  24  40  60  88 120 155 200 252 304 359
#     4   9  19  36  57  83 117 156 198 245 297 352
#     4  11  22  38  62  89 119 155 197 242 292 352
#     4  11  22  36  59  88 119 156 197 240 294 355
#
# _framework density 20.180997000000001
#
# number of rings (size 3 to 8) (size 9 to 14) (size 15 to 20)
#    0.000    1.571    1.429    3.000    0.000    8.571 
#    0.000    2.857    0.000    0.000    0.000    0.000 
#    0.000    0.000    0.000    0.000    0.000    0.000 
#
# Total GULP energy -694565.978195 kJ/mol
# GULP energy per Si atom -12402.963896 kJ/mol
# Density = 2.013506 g / cm^3
# Si number density = 20.180997 Si / 1000 Ang^3
#
#
#
# Elastic Constant Matrix: (Units=GPa)
#
#
# Indices 1 2 3 4 5 6 
#
# 1 66.8242 29.8251 47.1964 0.0000 0.0000 0.0000
# 2 29.8251 81.1964 37.6643 0.0000 0.0000 0.0000
# 3 47.1964 37.6643 104.0324 0.0000 0.0000 0.0000
# 4 0.0000 0.0000 0.0000 38.2589 0.0000 0.0000
# 5 0.0000 0.0000 0.0000 0.0000 37.5687 0.0000
# 6 0.0000 0.0000 0.0000 0.0000 0.0000 29.5471
#
#
#
# Elastic Compliance Matrix: (Units=1/GPa)
#
#
# Indices 1 2 3 4 5 6 
#
# 1 0.023250 -0.004384 -0.008961 0.000000 0.000000 0.000000
# 2 -0.004384 0.015628 -0.003669 0.000000 0.000000 0.000000
# 3 -0.008961 -0.003669 0.015006 0.000000 0.000000 0.000000
# 4 0.000000 0.000000 0.000000 0.026138 0.000000 0.000000
# 5 0.000000 0.000000 0.000000 0.000000 0.026618 0.000000
# 6 0.000000 0.000000 0.000000 0.000000 0.000000 0.033844
#
#
# Mechanical properties :
#
#
# Convention : Reuss Voigt Hill
#
# Bulk Modulus (GPa) = 50.36078 53.49160 51.92619
# Shear Modulus (GPa) = 27.60447 30.23275 28.91861
#
# Velocity S-wave (km/s) = 3.70245 3.87470 3.78956
# Velocity P-wave (km/s) = 6.57923 6.82504 6.70326
#
# Compressibility (1/GPa) = 0.01985672
#
# Stress axis : x y z
#
# Youngs Moduli (GPa) = 43.01100 63.98735 66.63972
#
# Poissons Ratio (x) = 0.28049 0.59714
# Poissons Ratio (y) = 0.18854 0.24452
# Poissons Ratio (z) = 0.38541 0.23479
#
# Static dielectric constant tensor:
#      x y z
#    x 3.647930 0.000000 0.000000 
#    y 0.000000 3.762220 0.000000 
#    z 0.000000 0.000000 4.021670 
# 
# 
# High freq. dielectric constant tensor:
#      x y z
#    x 1.791260 0.000000 0.000000 
#    y 0.000000 1.788620 0.000000 
#    z 0.000000 0.000000 1.796700 
# 
# From -- ./inp_files/21071.got.cif
#   From: 2010.03.12/outbox.cif.g09.slc.cpg/sg59_11_cif.got.tgz:21071.got - 2010.04.16 16:29:54.
