data_PCOD8245647
_publ_section_title
;
Structure prediction by ZEFSAII (Michael W. Deem and Ramdas Pophale) SiO2 
 PCOD8245647
Probable space group: P M M N
;
_chemical_formula_sum "Si O2"
_cell_formula_units_Z 40
_cell_length_a 16.167791
_cell_length_b 8.727545
_cell_length_c 13.723574
_cell_angle_alpha 90.000000
_cell_angle_beta 90.000000
_cell_angle_gamma 90.000000
_cell_volume 1936.466604
_symmetry_space_group_name_H-M "P M M N"
_symmetry_group_IT_number 59
_space_group.IT_coordinate_system_code '2'
_symmetry_cell_setting 'orthorhombic'
loop_
_space_group_symop_operation_xyz
x,y,z
1/2-x,1/2-y,z
1/2+x,-y,-z
-x,1/2+y,-z
-x,-y,-z
1/2+x,1/2+y,-z
1/2-x,y,z
x,1/2-y,z
loop_
_atom_site_type_symbol
_atom_site_label
_atom_site_fract_x
_atom_site_fract_y
_atom_site_fract_z
Si Si1 0.078724 0.569729 0.445353
Si Si2 0.750000 0.430285 0.464481
Si Si3 0.250000 0.426555 0.743392
Si Si4 0.066996 0.074537 0.238459
Si Si5 0.607019 0.426720 0.140097
Si Si6 0.345003 0.577115 0.070233
O O1 0.074744 0.750000 0.461897
O O2 0.165787 0.502825 0.486950
O O3 0.075094 0.532507 0.331727
O O4 0.000000 0.500000 0.500000
O O5 0.750000 0.250000 0.479204
O O6 0.750000 0.468777 0.351487
O O7 0.250000 0.250000 0.711983
O O8 0.169620 0.461416 0.806382
O O9 0.075859 0.250000 0.271501
O O10 0.981025 0.040832 0.186414
O O11 0.137447 0.034847 0.160232
O O12 0.635081 0.250000 0.153284
O O13 0.602743 0.468799 0.025633
O O14 0.250000 0.561321 0.040028
O O15 0.366585 0.750000 0.103066
#
# Coordination Sequence:
#
# PCOD8245647 Si02
#       6
#     8   4   4   8   8   8
#     4  11  24  44  67  93 125 165 214 263 315 379
#     4  10  24  44  65  86 119 168 211 250 312 388
#     4  12  24  36  61  96 123 152 201 264 314 356
#     4  11  24  39  62  93 126 163 204 257 313 365
#     4  10  21  41  63  86 123 169 207 244 305 377
#     4  10  21  39  63  88 121 167 210 249 299 367
#
# _framework density 20.656178000000001
#
# number of rings (size 3 to 8) (size 9 to 14) (size 15 to 20)
#    0.000    1.400    1.000    3.900    1.400    9.200 
#    0.000    0.000    0.000    0.000    0.000    0.000 
#    0.000    0.000    0.000    0.000    0.000    0.000 
#
# Total GULP energy -496169.385895 kJ/mol
# GULP energy per Si atom -12404.234647 kJ/mol
# Density = 2.060916 g / cm^3
# Si number density = 20.656178 Si / 1000 Ang^3
#
#
#
# Elastic Constant Matrix: (Units=GPa)
#
#
# Indices 1 2 3 4 5 6 
#
# 1 114.6958 32.7315 48.5773 0.0000 0.0000 0.0000
# 2 32.7315 42.5387 17.9781 0.0000 0.0000 0.0000
# 3 48.5773 17.9781 126.4605 0.0000 0.0000 0.0000
# 4 0.0000 0.0000 0.0000 36.2104 0.0000 0.0000
# 5 0.0000 0.0000 0.0000 0.0000 56.0771 0.0000
# 6 0.0000 0.0000 0.0000 0.0000 0.0000 32.5454
#
#
#
# Elastic Compliance Matrix: (Units=1/GPa)
#
#
# Indices 1 2 3 4 5 6 
#
# 1 0.012602 -0.008140 -0.003684 0.000000 0.000000 0.000000
# 2 -0.008140 0.030268 -0.001176 0.000000 0.000000 0.000000
# 3 -0.003684 -0.001176 0.009490 0.000000 0.000000 0.000000
# 4 0.000000 0.000000 0.000000 0.027616 0.000000 0.000000
# 5 0.000000 0.000000 0.000000 0.000000 0.017833 0.000000
# 6 0.000000 0.000000 0.000000 0.000000 0.000000 0.030726
#
#
# Mechanical properties :
#
#
# Convention : Reuss Voigt Hill
#
# Bulk Modulus (GPa) = 37.93532 53.58541 45.76037
# Shear Modulus (GPa) = 30.61461 37.26048 33.93755
#
# Velocity S-wave (km/s) = 3.85399 4.25177 4.05776
# Velocity P-wave (km/s) = 6.18137 7.07823 6.64495
#
# Compressibility (1/GPa) = 0.02636066
#
# Stress axis : x y z
#
# Youngs Moduli (GPa) = 79.35469 33.03800 105.37629
#
# Poissons Ratio (x) = 0.26892 0.38816
# Poissons Ratio (y) = 0.64591 0.12396
# Poissons Ratio (z) = 0.29230 0.03887
#
# Static dielectric constant tensor:
#      x y z
#    x 3.974000 0.000000 0.000000 
#    y 0.000000 3.642330 0.000000 
#    z 0.000000 0.000000 3.743230 
# 
# 
# High freq. dielectric constant tensor:
#      x y z
#    x 1.819330 0.000000 0.000000 
#    y 0.000000 1.798800 0.000000 
#    z 0.000000 0.000000 1.820380 
# 
# From -- ./inp_files/19955.got.cif
#   From: 2010.03.12/outbox.cif.g09.slc.cpg/sg59_10_cif.got.tgz:19955.got - 2010.04.16 16:29:54.
