data_PCOD8245552
_publ_section_title
;
Structure prediction by ZEFSAII (Michael W. Deem and Ramdas Pophale) SiO2 
 PCOD8245552
Probable space group: P M M N
;
_chemical_formula_sum "Si O2"
_cell_formula_units_Z 48
_cell_length_a 8.493926
_cell_length_b 24.942257
_cell_length_c 11.736765
_cell_angle_alpha 90.000000
_cell_angle_beta 90.000000
_cell_angle_gamma 90.000000
_cell_volume 2486.523865
_symmetry_space_group_name_H-M "P M M N"
_symmetry_group_IT_number 59
_space_group.IT_coordinate_system_code '2'
_symmetry_cell_setting 'orthorhombic'
loop_
_space_group_symop_operation_xyz
x,y,z
1/2-x,1/2-y,z
1/2+x,-y,-z
-x,1/2+y,-z
-x,-y,-z
1/2+x,1/2+y,-z
1/2-x,y,z
x,1/2-y,z
loop_
_atom_site_type_symbol
_atom_site_label
_atom_site_fract_x
_atom_site_fract_y
_atom_site_fract_z
Si Si1 0.432097 0.399591 0.762623
Si Si2 0.932307 0.094704 0.240905
Si Si3 0.431934 0.689245 0.386480
Si Si4 0.066359 0.502135 0.374233
Si Si5 0.067206 0.311706 0.374440
Si Si6 0.565317 0.559554 0.990584
O O1 0.250000 0.387295 0.743692
O O2 0.529526 0.348479 0.720009
O O3 0.475460 0.452652 0.694463
O O4 0.472162 0.408084 0.894716
O O5 0.750000 0.079875 0.257024
O O6 0.039089 0.054452 0.313674
O O7 0.965744 0.154546 0.284693
O O8 0.977605 0.091545 0.108777
O O9 0.250000 0.684189 0.418880
O O10 0.476609 0.750000 0.352307
O O11 0.530083 0.670000 0.496489
O O12 0.250000 0.515942 0.376652
O O13 0.000000 0.500000 0.500000
O O14 0.250000 0.321093 0.349760
O O15 0.017736 0.250000 0.358176
O O16 0.750000 0.556505 0.965065
O O17 0.500000 0.500000 0.000000
#
# Coordination Sequence:
#
# PCOD8245552 Si02
#       6
#     8   8   8   8   8   8
#     4  11  23  39  60  87 118 152 197 243 294 352
#     4  12  24  39  60  87 120 155 198 244 294 355
#     4  10  21  38  61  89 121 157 197 241 294 353
#     4  12  24  38  58  84 119 154 192 241 296 354
#     4  10  21  39  63  89 119 156 198 244 297 354
#     4  11  23  40  62  86 117 158 201 246 295 353
#
# _framework density 19.304057
#
# number of rings (size 3 to 8) (size 9 to 14) (size 15 to 20)
#    0.000    1.000    1.667    6.000    0.000    4.000 
#    0.000    0.833    0.000    1.000    0.000    0.000 
#    0.000    0.000    0.000    0.000    0.000    0.000 
#
# Total GULP energy -595556.070407 kJ/mol
# GULP energy per Si atom -12407.418133 kJ/mol
# Density = 1.926012 g / cm^3
# Si number density = 19.304057 Si / 1000 Ang^3
#
#
#
# Elastic Constant Matrix: (Units=GPa)
#
#
# Indices 1 2 3 4 5 6 
#
# 1 54.7816 22.8135 35.7420 0.0000 0.0000 0.0000
# 2 22.8135 99.1057 53.6685 0.0000 0.0000 0.0000
# 3 35.7420 53.6685 124.5286 0.0000 0.0000 0.0000
# 4 0.0000 0.0000 0.0000 14.0089 0.0000 0.0000
# 5 0.0000 0.0000 0.0000 0.0000 33.4276 0.0000
# 6 0.0000 0.0000 0.0000 0.0000 0.0000 34.1748
#
#
#
# Elastic Compliance Matrix: (Units=1/GPa)
#
#
# Indices 1 2 3 4 5 6 
#
# 1 0.022831 -0.002227 -0.005593 0.000000 0.000000 0.000000
# 2 -0.002227 0.013379 -0.005127 0.000000 0.000000 0.000000
# 3 -0.005593 -0.005127 0.011845 0.000000 0.000000 0.000000
# 4 0.000000 0.000000 0.000000 0.071383 0.000000 0.000000
# 5 0.000000 0.000000 0.000000 0.000000 0.029915 0.000000
# 6 0.000000 0.000000 0.000000 0.000000 0.000000 0.029261
#
#
# Mechanical properties :
#
#
# Convention : Reuss Voigt Hill
#
# Bulk Modulus (GPa) = 45.12315 55.87375 50.49845
# Shear Modulus (GPa) = 23.59644 27.40171 25.49908
#
# Velocity S-wave (km/s) = 3.50001 3.77169 3.63839
# Velocity P-wave (km/s) = 6.30549 6.92635 6.62320
#
# Compressibility (1/GPa) = 0.02216157
#
# Stress axis : x y z
#
# Youngs Moduli (GPa) = 43.80033 74.74289 84.42194
#
# Poissons Ratio (x) = 0.16642 0.47220
# Poissons Ratio (y) = 0.09753 0.43283
# Poissons Ratio (z) = 0.24499 0.38321
#
# Static dielectric constant tensor:
#      x y z
#    x 3.748980 0.000000 0.000000 
#    y 0.000000 3.519530 0.000000 
#    z 0.000000 0.000000 3.585740 
# 
# 
# High freq. dielectric constant tensor:
#      x y z
#    x 1.768430 0.000000 0.000000 
#    y 0.000000 1.750360 0.000000 
#    z 0.000000 0.000000 1.753020 
# 
# From -- ./inp_files/14394.got.cif
#   From: 2010.03.12/outbox.cif.g09.slc.cpg/sg59_8_cif.got.tgz:14394.got - 2010.04.16 16:29:54.
