data_PCOD8245728
_publ_section_title
;
Structure prediction by ZEFSAII (Michael W. Deem and Ramdas Pophale) SiO2 
 PCOD8245728
Probable space group: P M M N
;
_chemical_formula_sum "Si O2"
_cell_formula_units_Z 64
_cell_length_a 14.574125
_cell_length_b 9.098516
_cell_length_c 25.754582
_cell_angle_alpha 90.000000
_cell_angle_beta 90.000000
_cell_angle_gamma 90.000000
_cell_volume 3415.132506
_symmetry_space_group_name_H-M "P M M N"
_symmetry_group_IT_number 59
_space_group.IT_coordinate_system_code '2'
_symmetry_cell_setting 'orthorhombic'
loop_
_space_group_symop_operation_xyz
x,y,z
1/2-x,1/2-y,z
1/2+x,-y,-z
-x,1/2+y,-z
-x,-y,-z
1/2+x,1/2+y,-z
1/2-x,y,z
x,1/2-y,z
loop_
_atom_site_type_symbol
_atom_site_label
_atom_site_fract_x
_atom_site_fract_y
_atom_site_fract_z
Si Si1 0.648059 0.085429 0.103301
Si Si2 0.004464 0.420382 0.829616
Si Si3 0.143729 0.576865 0.640102
Si Si4 0.647359 0.585238 0.888618
Si Si5 0.404243 0.079542 0.996162
Si Si6 0.499342 0.922200 0.291182
Si Si7 0.143953 0.422366 0.360745
Si Si8 0.499122 0.919699 0.554101
O O1 0.750000 0.092001 0.126174
O O2 0.610380 0.250000 0.092046
O O3 0.588243 0.010879 0.147490
O O4 0.651688 0.994130 0.050217
O O5 0.022664 0.250000 0.839726
O O6 0.911979 0.465647 0.858805
O O7 0.995468 0.456856 0.769385
O O8 0.250000 0.526899 0.636550
O O9 0.135403 0.750000 0.650715
O O10 0.091352 0.534638 0.586808
O O11 0.092691 0.493637 0.686790
O O12 0.750000 0.568914 0.867359
O O13 0.609646 0.750000 0.877679
O O14 0.649086 0.555964 0.950180
O O15 0.418400 0.250000 0.982947
O O16 0.500000 0.000000 0.000000
O O17 0.501035 0.750000 0.303495
O O18 0.406711 0.990948 0.314873
O O19 0.250000 0.472687 0.364983
O O20 0.136180 0.250000 0.348329
O O21 0.091756 0.459747 0.414416
O O22 0.495951 0.750000 0.540909
O O23 0.500000 0.000000 0.500000
#
# Coordination Sequence:
#
# PCOD8245728 Si02
#       8
#     8   8   8   8   8   8   8   8
#     4  11  24  40  59  84 112 145 186 228 272 328
#     4  11  24  40  58  81 112 147 180 225 283 335
#     4   9  19  37  59  81 108 147 191 230 273 327
#     4  10  22  39  59  83 111 144 182 223 268 325
#     4  11  21  36  60  86 113 146 182 221 271 328
#     4  10  22  38  56  82 112 141 180 232 286 334
#     4   9  19  37  59  81 108 148 193 231 272 326
#     4   9  18  32  51  80 117 151 185 227 272 322
#
# _framework density 18.740120000000001
#
# number of rings (size 3 to 8) (size 9 to 14) (size 15 to 20)
#    0.000    2.000    1.250    2.625    0.000    8.250 
#    0.000    5.000    0.000    0.000    0.000    0.000 
#    0.000    0.000    0.000    0.000    0.000    0.000 
#
# Total GULP energy -793649.788900 kJ/mol
# GULP energy per Si atom -12400.777952 kJ/mol
# Density = 1.869747 g / cm^3
# Si number density = 18.740120 Si / 1000 Ang^3
#
#
#
# Elastic Constant Matrix: (Units=GPa)
#
#
# Indices 1 2 3 4 5 6 
#
# 1 148.6057 53.3319 57.1869 0.0000 0.0000 0.0000
# 2 53.3319 102.5370 71.1937 0.0000 0.0000 0.0000
# 3 57.1869 71.1937 126.4296 0.0000 0.0000 0.0000
# 4 0.0000 0.0000 0.0000 36.0332 0.0000 0.0000
# 5 0.0000 0.0000 0.0000 0.0000 48.8662 0.0000
# 6 0.0000 0.0000 0.0000 0.0000 0.0000 21.2046
#
#
#
# Elastic Compliance Matrix: (Units=1/GPa)
#
#
# Indices 1 2 3 4 5 6 
#
# 1 0.008651 -0.002927 -0.002265 0.000000 0.000000 0.000000
# 2 -0.002927 0.017004 -0.008251 0.000000 0.000000 0.000000
# 3 -0.002265 -0.008251 0.013580 0.000000 0.000000 0.000000
# 4 0.000000 0.000000 0.000000 0.027752 0.000000 0.000000
# 5 0.000000 0.000000 0.000000 0.000000 0.020464 0.000000
# 6 0.000000 0.000000 0.000000 0.000000 0.000000 0.047160
#
#
# Mechanical properties :
#
#
# Convention : Reuss Voigt Hill
#
# Bulk Modulus (GPa) = 80.97630 82.33302 81.65466
# Shear Modulus (GPa) = 30.19072 34.27814 32.23443
#
# Velocity S-wave (km/s) = 4.01811 4.28147 4.15188
# Velocity P-wave (km/s) = 8.05176 8.27471 8.16400
#
# Compressibility (1/GPa) = 0.01234929
#
# Stress axis : x y z
#
# Youngs Moduli (GPa) = 115.58947 58.80983 73.63655
#
# Poissons Ratio (x) = 0.17215 0.16677
# Poissons Ratio (y) = 0.33836 0.60758
# Poissons Ratio (z) = 0.26179 0.48524
#
# Static dielectric constant tensor:
#      x y z
#    x 3.635900 0.000000 0.000000 
#    y 0.000000 3.197980 0.000000 
#    z 0.000000 0.000000 3.462290 
# 
# 
# High freq. dielectric constant tensor:
#      x y z
#    x 1.736640 0.000000 0.000000 
#    y 0.000000 1.732950 0.000000 
#    z 0.000000 0.000000 1.721950 
# 
# From -- ./inp_files/32253.got.cif
#   From: 2010.03.12/outbox.cif.g09.slc.cpg/sg59_17_cif.got.tgz:32253.got - 2010.04.16 16:29:54.
