data_PCOD8245438
_publ_section_title
;
Structure prediction by ZEFSAII (Michael W. Deem and Ramdas Pophale) SiO2 
 PCOD8245438
Probable space group: P M M N
;
_chemical_formula_sum "Si O2"
_cell_formula_units_Z 64
_cell_length_a 8.752318
_cell_length_b 14.491734
_cell_length_c 25.279249
_cell_angle_alpha 90.000000
_cell_angle_beta 90.000000
_cell_angle_gamma 90.000000
_cell_volume 3206.325508
_symmetry_space_group_name_H-M "P M M N"
_symmetry_group_IT_number 59
_space_group.IT_coordinate_system_code '2'
_symmetry_cell_setting 'orthorhombic'
loop_
_space_group_symop_operation_xyz
x,y,z
1/2-x,1/2-y,z
1/2+x,-y,-z
-x,1/2+y,-z
-x,-y,-z
1/2+x,1/2+y,-z
1/2-x,y,z
x,1/2-y,z
loop_
_atom_site_type_symbol
_atom_site_label
_atom_site_fract_x
_atom_site_fract_y
_atom_site_fract_z
Si Si1 0.924956 0.143275 0.024911
Si Si2 0.577718 0.149330 0.412659
Si Si3 0.569720 0.851656 0.085459
Si Si4 0.430278 0.401884 0.513395
Si Si5 0.425261 0.646674 0.377510
Si Si6 0.931702 0.460108 0.127700
Si Si7 0.069180 0.854809 0.770159
Si Si8 0.073994 0.036822 0.324842
O O1 0.750000 0.116119 0.014119
O O2 0.941250 0.250000 0.039504
O O3 0.994099 0.087543 0.074450
O O4 0.019559 0.117528 0.972913
O O5 0.750000 0.108178 0.414786
O O6 0.581156 0.250000 0.384961
O O7 0.509796 0.165363 0.471130
O O8 0.467703 0.081002 0.381124
O O9 0.750000 0.845004 0.085253
O O10 0.500626 0.750000 0.100476
O O11 0.517317 0.931470 0.126783
O O12 0.500000 0.500000 0.500000
O O13 0.250000 0.401434 0.505637
O O14 0.466913 0.369321 0.572422
O O15 0.250000 0.633582 0.395925
O O16 0.453529 0.750000 0.355004
O O17 0.461223 0.572856 0.330703
O O18 0.750000 0.451416 0.128993
O O19 0.000338 0.407528 0.178659
O O20 0.250000 0.849701 0.773925
O O21 0.003037 0.750000 0.766759
O O22 0.028003 0.915973 0.719648
O O23 0.250000 0.055591 0.311391
#
# Coordination Sequence:
#
# PCOD8245438 Si02
#       8
#     8   8   8   8   8   8   8   8
#     4   9  16  27  46  72 101 134 174 216 258 313
#     4  11  23  38  58  84 115 150 184 222 272 328
#     4   9  17  29  46  71 104 139 173 212 262 316
#     4  12  23  36  57  86 119 153 187 226 271 322
#     4  10  22  41  62  83 111 148 186 225 274 330
#     4   9  17  31  51  73  99 136 179 219 263 320
#     4  10  21  38  59  80 104 137 178 226 277 327
#     4  11  23  39  60  83 109 142 179 225 276 327
#
# _framework density 19.960543000000001
#
# number of rings (size 3 to 8) (size 9 to 14) (size 15 to 20)
#    0.000    1.875    1.250    3.375    0.000    6.500 
#    0.000    1.875    0.000    2.250    0.000    0.000 
#    0.000    0.000    0.000    0.000    0.000    0.000 
#
# Total GULP energy -793365.943687 kJ/mol
# GULP energy per Si atom -12396.342870 kJ/mol
# Density = 1.991511 g / cm^3
# Si number density = 19.960543 Si / 1000 Ang^3
#
#
#
# Elastic Constant Matrix: (Units=GPa)
#
#
# Indices 1 2 3 4 5 6 
#
# 1 40.0441 26.4910 10.4702 0.0000 0.0000 0.0000
# 2 26.4910 150.2423 65.3432 0.0000 0.0000 0.0000
# 3 10.4702 65.3432 90.2124 0.0000 0.0000 0.0000
# 4 0.0000 0.0000 0.0000 33.3986 0.0000 0.0000
# 5 0.0000 0.0000 0.0000 0.0000 25.2255 0.0000
# 6 0.0000 0.0000 0.0000 0.0000 0.0000 21.3796
#
#
#
# Elastic Compliance Matrix: (Units=1/GPa)
#
#
# Indices 1 2 3 4 5 6 
#
# 1 0.028284 -0.005196 0.000481 0.000000 0.000000 0.000000
# 2 -0.005196 0.010672 -0.007127 0.000000 0.000000 0.000000
# 3 0.000481 -0.007127 0.016191 0.000000 0.000000 0.000000
# 4 0.000000 0.000000 0.000000 0.029941 0.000000 0.000000
# 5 0.000000 0.000000 0.000000 0.000000 0.039642 0.000000
# 6 0.000000 0.000000 0.000000 0.000000 0.000000 0.046774
#
#
# Mechanical properties :
#
#
# Convention : Reuss Voigt Hill
#
# Bulk Modulus (GPa) = 31.78303 53.90085 42.84194
# Shear Modulus (GPa) = 24.31005 27.88036 26.09521
#
# Velocity S-wave (km/s) = 3.49364 3.74140 3.61964
# Velocity P-wave (km/s) = 5.67728 6.76213 6.24331
#
# Compressibility (1/GPa) = 0.03146333
#
# Stress axis : x y z
#
# Youngs Moduli (GPa) = 35.35527 93.70583 61.76213
#
# Poissons Ratio (x) = 0.48694 -0.02972
# Poissons Ratio (y) = 0.18372 0.44016
# Poissons Ratio (z) = -0.01701 0.66781
#
# Static dielectric constant tensor:
#      x y z
#    x 3.411890 0.000000 0.000000 
#    y 0.000000 4.115090 0.000000 
#    z 0.000000 0.000000 3.514910 
# 
# 
# High freq. dielectric constant tensor:
#      x y z
#    x 1.757660 0.000000 0.000000 
#    y 0.000000 1.800780 0.000000 
#    z 0.000000 0.000000 1.753610 
# 
# From -- ./inp_files/31576.got.cif
#   From: 2010.03.12/outbox.cif.g09.slc.cpg/sg59_16_cif.got.tgz:31576.got - 2010.04.16 16:29:54.
