data_PCOD8245362
_publ_section_title
;
Structure prediction by ZEFSAII (Michael W. Deem and Ramdas Pophale) SiO2 
 PCOD8245362
Probable space group: P M M N
;
_chemical_formula_sum "Si O2"
_cell_formula_units_Z 56
_cell_length_a 8.891427
_cell_length_b 20.452171
_cell_length_c 15.780187
_cell_angle_alpha 90.000000
_cell_angle_beta 90.000000
_cell_angle_gamma 90.000000
_cell_volume 2869.610996
_symmetry_space_group_name_H-M "P M M N"
_symmetry_group_IT_number 59
_space_group.IT_coordinate_system_code '2'
_symmetry_cell_setting 'orthorhombic'
loop_
_space_group_symop_operation_xyz
x,y,z
1/2-x,1/2-y,z
1/2+x,-y,-z
-x,1/2+y,-z
-x,-y,-z
1/2+x,1/2+y,-z
1/2-x,y,z
x,1/2-y,z
loop_
_atom_site_type_symbol
_atom_site_label
_atom_site_fract_x
_atom_site_fract_y
_atom_site_fract_z
Si Si1 0.576018 0.110678 0.219968
Si Si2 0.426559 0.447948 0.380587
Si Si3 0.576098 0.925428 0.429722
Si Si4 0.573551 0.363652 0.860603
Si Si5 0.072564 0.250000 0.965223
Si Si6 0.416087 0.675282 0.327756
Si Si7 0.928666 0.503175 0.092296
Si Si8 0.076295 0.750000 0.858771
O O1 0.750000 0.098690 0.237688
O O2 0.491255 0.097700 0.307528
O O3 0.523057 0.061219 0.145476
O O4 0.542113 0.185447 0.195901
O O5 0.250000 0.448768 0.369862
O O6 0.477914 0.421578 0.472814
O O7 0.487531 0.521558 0.373448
O O8 0.750000 0.943054 0.424774
O O9 0.541553 0.856578 0.386974
O O10 0.750000 0.371291 0.881283
O O11 0.500817 0.315811 0.929144
O O12 0.542166 0.331828 0.770176
O O13 0.493908 0.433768 0.860405
O O14 0.250000 0.250000 0.947870
O O15 0.039365 0.250000 0.064407
O O16 0.250000 0.645073 0.344673
O O17 0.417004 0.750000 0.353319
O O18 0.750000 0.508604 0.083957
O O19 0.000000 0.500000 0.000000
O O20 0.250000 0.750000 0.890322
#
# Coordination Sequence:
#
# PCOD8245362 Si02
#       8
#     8   8   8   8   4   8   8   4
#     4  10  22  40  62  88 118 154 200 248 296 352
#     4  10  21  38  61  87 116 153 195 241 294 350
#     4  10  21  37  59  88 119 153 192 239 292 346
#     4  11  22  39  60  84 119 159 197 244 295 352
#     4  12  24  38  60  89 118 155 200 245 296 359
#     4  10  21  38  58  85 118 156 197 234 284 349
#     4  11  23  38  58  89 121 155 200 250 303 356
#     4  10  22  42  64  85 116 157 198 243 298 355
#
# _framework density 19.51484
#
# number of rings (size 3 to 8) (size 9 to 14) (size 15 to 20)
#    0.000    1.571    0.714    4.071    0.000    8.286 
#    1.286    0.000    0.000    0.000    0.000    0.000 
#    0.000    0.000    0.000    0.000    0.000    0.000 
#
# Total GULP energy -694599.309744 kJ/mol
# GULP energy per Si atom -12403.559103 kJ/mol
# Density = 1.947042 g / cm^3
# Si number density = 19.514840 Si / 1000 Ang^3
#
#
#
# Elastic Constant Matrix: (Units=GPa)
#
#
# Indices 1 2 3 4 5 6 
#
# 1 81.1015 46.6625 48.5308 0.0000 0.0000 0.0000
# 2 46.6625 133.0467 53.1414 0.0000 0.0000 0.0000
# 3 48.5308 53.1414 101.1022 0.0000 0.0000 0.0000
# 4 0.0000 0.0000 0.0000 33.1482 0.0000 0.0000
# 5 0.0000 0.0000 0.0000 0.0000 35.9117 0.0000
# 6 0.0000 0.0000 0.0000 0.0000 0.0000 33.5638
#
#
#
# Elastic Compliance Matrix: (Units=1/GPa)
#
#
# Indices 1 2 3 4 5 6 
#
# 1 0.018675 -0.003758 -0.006989 0.000000 0.000000 0.000000
# 2 -0.003758 0.010270 -0.003594 0.000000 0.000000 0.000000
# 3 -0.006989 -0.003594 0.015135 0.000000 0.000000 0.000000
# 4 0.000000 0.000000 0.000000 0.030168 0.000000 0.000000
# 5 0.000000 0.000000 0.000000 0.000000 0.027846 0.000000
# 6 0.000000 0.000000 0.000000 0.000000 0.000000 0.029794
#
#
# Mechanical properties :
#
#
# Convention : Reuss Voigt Hill
#
# Bulk Modulus (GPa) = 64.94659 67.99109 66.46884
# Shear Modulus (GPa) = 30.17485 31.65246 30.91366
#
# Velocity S-wave (km/s) = 3.93651 4.03174 3.98441
# Velocity P-wave (km/s) = 7.34944 7.52260 7.43653
#
# Compressibility (1/GPa) = 0.01539727
#
# Stress axis : x y z
#
# Youngs Moduli (GPa) = 53.54882 97.37347 66.07303
#
# Poissons Ratio (x) = 0.36594 0.46177
# Poissons Ratio (y) = 0.20124 0.23747
# Poissons Ratio (z) = 0.37424 0.34996
#
# Static dielectric constant tensor:
#      x y z
#    x 3.614330 0.000000 0.000000 
#    y 0.000000 4.359110 0.000000 
#    z 0.000000 0.000000 3.553310 
# 
# 
# High freq. dielectric constant tensor:
#      x y z
#    x 1.764690 0.000000 0.000000 
#    y 0.000000 1.764790 0.000000 
#    z 0.000000 0.000000 1.764010 
# 
# From -- ./inp_files/21091.got.cif
#   From: 2010.03.12/outbox.cif.g09.slc.cpg/sg59_11_cif.got.tgz:21091.got - 2010.04.16 16:29:54.
