data_PCOD8245279
_publ_section_title
;
Structure prediction by ZEFSAII (Michael W. Deem and Ramdas Pophale) SiO2 
 PCOD8245279
Probable space group: P M M N
;
_chemical_formula_sum "Si O2"
_cell_formula_units_Z 56
_cell_length_a 14.967105
_cell_length_b 8.696954
_cell_length_c 21.898002
_cell_angle_alpha 90.000000
_cell_angle_beta 90.000000
_cell_angle_gamma 90.000000
_cell_volume 2850.424023
_symmetry_space_group_name_H-M "P M M N"
_symmetry_group_IT_number 59
_space_group.IT_coordinate_system_code '2'
_symmetry_cell_setting 'orthorhombic'
loop_
_space_group_symop_operation_xyz
x,y,z
1/2-x,1/2-y,z
1/2+x,-y,-z
-x,1/2+y,-z
-x,-y,-z
1/2+x,1/2+y,-z
1/2-x,y,z
x,1/2-y,z
loop_
_atom_site_type_symbol
_atom_site_label
_atom_site_fract_x
_atom_site_fract_y
_atom_site_fract_z
Si Si1 0.848337 0.922594 0.608393
Si Si2 0.552853 0.430228 0.056830
Si Si3 0.595676 0.069162 0.489828
Si Si4 0.065766 0.930955 0.159610
Si Si5 0.981870 0.567593 0.712412
Si Si6 0.847340 0.432104 0.358804
Si Si7 0.750000 0.072032 0.016365
Si Si8 0.750000 0.569446 0.886192
O O1 0.750000 0.924471 0.638064
O O2 0.878224 0.750000 0.590490
O O3 0.916024 0.987397 0.658636
O O4 0.843821 0.023341 0.547228
O O5 0.534297 0.250000 0.057146
O O6 0.513617 0.501862 0.118279
O O7 0.659659 0.464430 0.054507
O O8 0.500000 0.500000 0.000000
O O9 0.589754 0.250000 0.485393
O O10 0.633952 0.000653 0.426452
O O11 0.500000 0.000000 0.500000
O O12 0.070131 0.750000 0.149529
O O13 0.042593 0.971192 0.228603
O O14 0.161899 0.999672 0.143882
O O15 0.973776 0.750000 0.725318
O O16 0.080615 0.515786 0.691347
O O17 0.750000 0.490442 0.336939
O O18 0.849989 0.250000 0.363907
O O19 0.750000 0.250000 0.995245
O O20 0.750000 0.963751 0.957833
O O21 0.750000 0.750000 0.874555
#
# Coordination Sequence:
#
# PCOD8245279 Si02
#       8
#     8   8   8   8   8   8   4   4
#     4  10  21  37  57  85 118 152 191 241 301 363
#     4  11  22  40  66  96 128 166 206 254 307 359
#     4  11  20  34  57  85 117 152 195 245 303 362
#     4  12  26  43  62  91 130 166 206 256 307 367
#     4  10  21  40  61  83 115 158 206 249 299 364
#     4   9  18  35  60  85 110 148 200 254 304 361
#     4  10  22  40  66  98 132 162 205 258 305 358
#     4  12  24  40  68  98 126 164 207 246 303 370
#
# _framework density 19.646198999999999
#
# number of rings (size 3 to 8) (size 9 to 14) (size 15 to 20)
#    0.000    1.429    2.857    3.214    1.000    2.000 
#    1.286    0.000    0.000    1.714    0.000    0.000 
#    0.000    0.000    0.000    0.000    0.000    0.000 
#
# Total GULP energy -694394.984362 kJ/mol
# GULP energy per Si atom -12399.910435 kJ/mol
# Density = 1.960148 g / cm^3
# Si number density = 19.646199 Si / 1000 Ang^3
#
#
#
# Elastic Constant Matrix: (Units=GPa)
#
#
# Indices 1 2 3 4 5 6 
#
# 1 174.3914 49.2889 64.3712 0.0000 0.0000 0.0000
# 2 49.2889 93.5585 41.9794 0.0000 0.0000 0.0000
# 3 64.3712 41.9794 110.5152 0.0000 0.0000 0.0000
# 4 0.0000 0.0000 0.0000 33.7252 0.0000 0.0000
# 5 0.0000 0.0000 0.0000 0.0000 8.4052 0.0000
# 6 0.0000 0.0000 0.0000 0.0000 0.0000 24.1962
#
#
#
# Elastic Compliance Matrix: (Units=1/GPa)
#
#
# Indices 1 2 3 4 5 6 
#
# 1 0.007755 -0.002482 -0.003574 0.000000 0.000000 0.000000
# 2 -0.002482 0.013679 -0.003750 0.000000 0.000000 0.000000
# 3 -0.003574 -0.003750 0.012555 0.000000 0.000000 0.000000
# 4 0.000000 0.000000 0.000000 0.029651 0.000000 0.000000
# 5 0.000000 0.000000 0.000000 0.000000 0.118974 0.000000
# 6 0.000000 0.000000 0.000000 0.000000 0.000000 0.041329
#
#
# Mechanical properties :
#
#
# Convention : Reuss Voigt Hill
#
# Bulk Modulus (GPa) = 69.56085 76.63823 73.09954
# Shear Modulus (GPa) = 20.13307 28.12036 24.12672
#
# Velocity S-wave (km/s) = 3.20469 3.78741 3.50817
# Velocity P-wave (km/s) = 7.01264 7.63019 7.32792
#
# Compressibility (1/GPa) = 0.01437590
#
# Stress axis : x y z
#
# Youngs Moduli (GPa) = 128.94910 73.10626 79.64932
#
# Poissons Ratio (x) = 0.18143 0.28469
# Poissons Ratio (y) = 0.32002 0.29871
# Poissons Ratio (z) = 0.46091 0.27418
#
# Static dielectric constant tensor:
#      x y z
#    x 3.656320 0.000000 0.000000 
#    y 0.000000 3.519510 0.000000 
#    z 0.000000 0.000000 3.593750 
# 
# 
# High freq. dielectric constant tensor:
#      x y z
#    x 1.786580 0.000000 0.000000 
#    y 0.000000 1.751090 0.000000 
#    z 0.000000 0.000000 1.759330 
# 
# From -- ./inp_files/30478.got.cif
#   From: 2010.03.12/outbox.cif.g09.slc.cpg/sg59_16_cif.got.tgz:30478.got - 2010.04.16 16:29:54.
