data_PCOD8245524
_publ_section_title
;
Structure prediction by ZEFSAII (Michael W. Deem and Ramdas Pophale) SiO2 
 PCOD8245524
Probable space group: P M M N
;
_chemical_formula_sum "Si O2"
_cell_formula_units_Z 48
_cell_length_a 8.989046
_cell_length_b 30.245285
_cell_length_c 9.229110
_cell_angle_alpha 90.000000
_cell_angle_beta 90.000000
_cell_angle_gamma 90.000000
_cell_volume 2509.175893
_symmetry_space_group_name_H-M "P M M N"
_symmetry_group_IT_number 59
_space_group.IT_coordinate_system_code '2'
_symmetry_cell_setting 'orthorhombic'
loop_
_space_group_symop_operation_xyz
x,y,z
1/2-x,1/2-y,z
1/2+x,-y,-z
-x,1/2+y,-z
-x,-y,-z
1/2+x,1/2+y,-z
1/2-x,y,z
x,1/2-y,z
loop_
_atom_site_type_symbol
_atom_site_label
_atom_site_fract_x
_atom_site_fract_y
_atom_site_fract_z
Si Si1 0.424426 0.955010 0.166574
Si Si2 0.579251 0.301078 0.832914
Si Si3 0.920750 0.198923 0.167087
Si Si4 0.078512 0.123639 0.669902
Si Si5 0.578511 0.876361 0.669901
Si Si6 0.424427 0.955010 0.833426
O O1 0.250000 0.960236 0.188034
O O2 0.480647 0.914844 0.262121
O O3 0.500000 1.000000 0.221765
O O4 0.466915 0.945573 1.000000
O O5 0.750000 0.312084 0.794543
O O6 0.544471 0.250000 0.802067
O O7 0.470658 0.329334 0.733207
O O8 0.548505 0.312732 0.000000
O O9 0.750000 0.187919 0.205458
O O10 0.955538 0.250000 0.197932
O O11 0.029339 0.170666 0.266794
O O12 0.250000 0.115338 0.708390
O O13 0.050024 0.124328 0.500001
O O14 0.750000 0.884662 0.708389
O O15 0.480649 0.914844 0.737879
O O16 0.250000 0.960236 0.811965
#
# Coordination Sequence:
#
# PCOD8245524 Si02
#       6
#     8   8   8   8   8   8
#     4  10  21  38  61  86 110 140 181 227 274 325
#     4   9  19  37  60  84 109 140 182 230 277 326
#     4   9  19  37  60  84 109 140 182 230 277 326
#     4  11  24  38  53  79 115 151 185 223 270 324
#     4  11  24  38  53  79 115 151 185 223 270 324
#     4  10  21  38  61  86 110 140 181 227 274 325
#
# _framework density 19.129788000000001
#
# number of rings (size 3 to 8) (size 9 to 14) (size 15 to 20)
#    0.000    2.000    0.000    4.000    0.000   11.333 
#    0.000    5.000    0.000    0.000    0.000    0.000 
#    0.000    0.000    0.000    0.000    0.000    0.000 
#
# Total GULP energy -595449.791600 kJ/mol
# GULP energy per Si atom -12405.203992 kJ/mol
# Density = 1.908625 g / cm^3
# Si number density = 19.129788 Si / 1000 Ang^3
#
#
#
# Elastic Constant Matrix: (Units=GPa)
#
#
# Indices 1 2 3 4 5 6 
#
# 1 79.3203 46.6690 47.2478 0.0000 0.0000 0.0000
# 2 46.6690 110.5484 50.0302 0.0000 0.0000 0.0000
# 3 47.2478 50.0302 73.9628 0.0000 0.0000 0.0000
# 4 0.0000 0.0000 0.0000 -17.8076 0.0000 0.0000
# 5 0.0000 0.0000 0.0000 0.0000 33.7713 0.0000
# 6 0.0000 0.0000 0.0000 0.0000 0.0000 41.0218
#
#
#
# Elastic Compliance Matrix: (Units=1/GPa)
#
#
# Indices 1 2 3 4 5 6 
#
# 1 0.021590 -0.004140 -0.010991 0.000000 0.000000 0.000000
# 2 -0.004140 0.013831 -0.006711 0.000000 0.000000 0.000000
# 3 -0.010991 -0.006711 0.025081 0.000000 0.000000 0.000000
# 4 0.000000 0.000000 0.000000 -0.056156 0.000000 0.000000
# 5 0.000000 0.000000 0.000000 0.000000 0.029611 0.000000
# 6 0.000000 0.000000 0.000000 0.000000 0.000000 0.024377
#
#
# Mechanical properties :
#
#
# Convention : Reuss Voigt Hill
#
# Bulk Modulus (GPa) = 59.46249 61.30283 60.38266
# Shear Modulus (GPa) = 46.45795 19.38938 32.92366
#
# Velocity S-wave (km/s) = 4.93339 3.18712 4.15308
# Velocity P-wave (km/s) = 7.97511 6.75714 7.39125
#
# Compressibility (1/GPa) = 0.01681732
#
# Stress axis : x y z
#
# Youngs Moduli (GPa) = 46.31739 72.30355 39.87107
#
# Poissons Ratio (x) = 0.29935 0.43824
# Poissons Ratio (y) = 0.19176 0.26756
# Poissons Ratio (z) = 0.50909 0.48520
#
# Static dielectric constant tensor:
#      x y z
#    x 3.562570 0.000000 0.000000 
#    y 0.000000 3.578130 0.000000 
#    z 0.000000 0.000000 3.444970 
# 
# 
# High freq. dielectric constant tensor:
#      x y z
#    x 1.751490 0.000000 0.000000 
#    y 0.000000 1.757800 0.000000 
#    z 0.000000 0.000000 1.738320 
# 
# From -- ./inp_files/6243.got.cif
#   From: 2010.03.12/outbox.cif.g09.slc.cpg/sg59_4_cif.got.tgz:6243.got - 2010.04.16 16:29:54.
