data_PCOD8245007
_publ_section_title
;
Structure prediction by ZEFSAII (Michael W. Deem and Ramdas Pophale) SiO2 
 PCOD8245007
Probable space group: P M M N
;
_chemical_formula_sum "Si O2"
_cell_formula_units_Z 48
_cell_length_a 9.084127
_cell_length_b 9.011772
_cell_length_c 30.734891
_cell_angle_alpha 90.000000
_cell_angle_beta 90.000000
_cell_angle_gamma 90.000000
_cell_volume 2516.083617
_symmetry_space_group_name_H-M "P M M N"
_symmetry_group_IT_number 59
_space_group.IT_coordinate_system_code '2'
_symmetry_cell_setting 'orthorhombic'
loop_
_space_group_symop_operation_xyz
x,y,z
1/2-x,1/2-y,z
1/2+x,-y,-z
-x,1/2+y,-z
-x,-y,-z
1/2+x,1/2+y,-z
1/2-x,y,z
x,1/2-y,z
loop_
_atom_site_type_symbol
_atom_site_label
_atom_site_fract_x
_atom_site_fract_y
_atom_site_fract_z
Si Si1 0.576977 0.921275 0.285409
Si Si2 0.420027 0.076019 0.871845
Si Si3 0.577690 0.578045 0.793061
Si Si4 0.081159 0.922209 0.373367
Si Si5 0.422974 0.920149 0.960360
Si Si6 0.922715 0.579348 0.539605
O O1 0.750000 0.947936 0.283843
O O2 0.537094 0.750000 0.275314
O O3 0.518008 0.968495 0.332560
O O4 0.501004 0.026442 0.250632
O O5 0.250000 0.038824 0.861595
O O6 0.445211 0.250000 0.877422
O O7 0.519038 0.017200 0.833034
O O8 0.473407 0.997326 0.915831
O O9 0.750000 0.549090 0.787937
O O10 0.541619 0.750000 0.801356
O O11 0.250000 0.962900 0.362527
O O12 0.063631 0.750000 0.384491
O O13 0.021811 0.011753 0.414869
O O14 0.250000 0.936088 0.966999
O O15 0.473656 0.750000 0.958703
O O16 0.500000 0.000000 0.000000
O O17 0.750000 0.553799 0.534661
O O18 0.967573 0.750000 0.538876
O O19 0.000000 0.500000 0.500000
#
# Coordination Sequence:
#
# PCOD8245007 Si02
#       6
#     8   8   8   8   8   8
#     4  10  21  37  58  84 112 143 180 222 270 325
#     4  10  21  38  60  84 110 143 184 229 277 328
#     4  11  24  39  56  81 112 146 184 226 272 323
#     4   9  18  34  55  78 108 146 184 223 269 321
#     4  10  21  37  58  84 114 149 187 227 274 326
#     4  10  21  36  55  80 110 144 182 225 272 322
#
# _framework density 19.077268
#
# number of rings (size 3 to 8) (size 9 to 14) (size 15 to 20)
#    0.000    2.000    0.000    3.000    0.000    9.333 
#    0.000    3.333    0.000    0.000    0.000    0.000 
#    0.000    0.000    0.000    0.000    0.000    0.000 
#
# Total GULP energy -595447.870619 kJ/mol
# GULP energy per Si atom -12405.163971 kJ/mol
# Density = 1.903385 g / cm^3
# Si number density = 19.077268 Si / 1000 Ang^3
#
#
#
# Elastic Constant Matrix: (Units=GPa)
#
#
# Indices 1 2 3 4 5 6 
#
# 1 64.8325 46.4908 57.1596 0.0000 0.0000 0.0000
# 2 46.4908 110.1359 77.8041 0.0000 0.0000 0.0000
# 3 57.1596 77.8041 156.0155 0.0000 0.0000 0.0000
# 4 0.0000 0.0000 0.0000 44.0829 0.0000 0.0000
# 5 0.0000 0.0000 0.0000 0.0000 42.4210 0.0000
# 6 0.0000 0.0000 0.0000 0.0000 0.0000 30.1661
#
#
#
# Elastic Compliance Matrix: (Units=1/GPa)
#
#
# Indices 1 2 3 4 5 6 
#
# 1 0.025409 -0.006406 -0.006114 0.000000 0.000000 0.000000
# 2 -0.006406 0.015634 -0.005449 0.000000 0.000000 0.000000
# 3 -0.006114 -0.005449 0.011367 0.000000 0.000000 0.000000
# 4 0.000000 0.000000 0.000000 0.022685 0.000000 0.000000
# 5 0.000000 0.000000 0.000000 0.000000 0.023573 0.000000
# 6 0.000000 0.000000 0.000000 0.000000 0.000000 0.033150
#
#
# Mechanical properties :
#
#
# Convention : Reuss Voigt Hill
#
# Bulk Modulus (GPa) = 60.71672 77.09922 68.90797
# Shear Modulus (GPa) = 28.86053 33.30262 31.08157
#
# Velocity S-wave (km/s) = 3.89372 4.18265 4.04077
# Velocity P-wave (km/s) = 7.21877 7.98925 7.61376
#
# Compressibility (1/GPa) = 0.01646993
#
# Stress axis : x y z
#
# Youngs Moduli (GPa) = 39.35622 63.96519 87.97204
#
# Poissons Ratio (x) = 0.40978 0.53789
# Poissons Ratio (y) = 0.25213 0.47938
# Poissons Ratio (z) = 0.24064 0.34856
#
# Static dielectric constant tensor:
#      x y z
#    x 3.463580 0.000000 0.000000 
#    y 0.000000 3.624480 0.000000 
#    z 0.000000 0.000000 3.499570 
# 
# 
# High freq. dielectric constant tensor:
#      x y z
#    x 1.737830 0.000000 0.000000 
#    y 0.000000 1.750680 0.000000 
#    z 0.000000 0.000000 1.756850 
# 
# From -- ./inp_files/32777.got.cif
#   From: 2010.03.12/outbox.cif.g09.slc.cpg/sg59_17_cif.got.tgz:32777.got - 2010.04.16 16:29:54.
