data_PCOD8245887
_publ_section_title
;
Structure prediction by ZEFSAII (Michael W. Deem and Ramdas Pophale) SiO2 
 PCOD8245887
Probable space group: P M M N
;
_chemical_formula_sum "Si O2"
_cell_formula_units_Z 48
_cell_length_a 18.626542
_cell_length_b 7.741363
_cell_length_c 16.263602
_cell_angle_alpha 90.000000
_cell_angle_beta 90.000000
_cell_angle_gamma 90.000000
_cell_volume 2345.127213
_symmetry_space_group_name_H-M "P M M N"
_symmetry_group_IT_number 59
_space_group.IT_coordinate_system_code '2'
_symmetry_cell_setting 'orthorhombic'
loop_
_space_group_symop_operation_xyz
x,y,z
1/2-x,1/2-y,z
1/2+x,-y,-z
-x,1/2+y,-z
-x,-y,-z
1/2+x,1/2+y,-z
1/2-x,y,z
x,1/2-y,z
loop_
_atom_site_type_symbol
_atom_site_label
_atom_site_fract_x
_atom_site_fract_y
_atom_site_fract_z
Si Si1 0.570693 0.953296 0.550080
Si Si2 0.906804 0.560988 0.197693
Si Si3 0.665958 0.250000 0.290378
Si Si4 0.831198 0.045110 0.861219
Si Si5 0.918764 0.047483 0.017777
Si Si6 0.665612 0.250000 0.480568
Si Si7 0.947862 0.946601 0.738399
O O1 0.590349 0.750000 0.539921
O O2 0.557557 0.004605 0.644319
O O3 0.500000 0.000000 0.500000
O O4 0.635322 0.073369 0.519175
O O5 0.878531 0.750000 0.223838
O O6 0.865515 0.421767 0.250996
O O7 0.891665 0.539304 0.101271
O O8 0.992306 0.556161 0.213820
O O9 0.750000 0.250000 0.275593
O O10 0.644434 0.250000 0.385230
O O11 0.750000 0.975201 0.859723
O O12 0.833546 0.250000 0.858016
O O13 0.871063 0.971045 0.781365
O O14 0.869508 0.976629 0.943847
O O15 0.910120 0.250000 0.028734
O O16 0.000000 0.000000 0.000000
O O17 0.750000 0.250000 0.495566
O O18 0.973517 0.750000 0.743497
#
# Coordination Sequence:
#
# PCOD8245887 Si02
#       7
#     8   8   4   8   8   4   8
#     4  11  24  42  69 102 134 173 228 280 331 404
#     4  12  24  41  70  99 129 174 223 273 328 393
#     4  11  26  48  68  97 134 170 217 277 338 398
#     4  10  23  40  61  92 130 175 222 270 327 391
#     4  11  21  38  62  94 129 172 219 271 326 388
#     4  11  26  46  70  99 138 180 215 271 354 412
#     4  11  23  40  64  97 133 172 219 273 330 390
#
# _framework density 20.467973000000001
#
# number of rings (size 3 to 8) (size 9 to 14) (size 15 to 20)
#    0.000    1.000    4.167    2.000    2.333    5.000 
#    0.000    3.333    0.000    0.000    0.000    0.000 
#    0.000    0.000    0.000    0.000    0.000    0.000 
#
# Total GULP energy -595416.030881 kJ/mol
# GULP energy per Si atom -12404.500643 kJ/mol
# Density = 2.042139 g / cm^3
# Si number density = 20.467973 Si / 1000 Ang^3
#
#
#
# Elastic Constant Matrix: (Units=GPa)
#
#
# Indices 1 2 3 4 5 6 
#
# 1 95.5277 35.6037 75.2496 0.0000 0.0000 0.0000
# 2 35.6037 120.2927 49.9515 0.0000 0.0000 0.0000
# 3 75.2496 49.9515 167.5252 0.0000 0.0000 0.0000
# 4 0.0000 0.0000 0.0000 20.1513 0.0000 0.0000
# 5 0.0000 0.0000 0.0000 0.0000 35.8877 0.0000
# 6 0.0000 0.0000 0.0000 0.0000 0.0000 28.4188
#
#
#
# Elastic Compliance Matrix: (Units=1/GPa)
#
#
# Indices 1 2 3 4 5 6 
#
# 1 0.016644 -0.002079 -0.006856 0.000000 0.000000 0.000000
# 2 -0.002079 0.009748 -0.001973 0.000000 0.000000 0.000000
# 3 -0.006856 -0.001973 0.009637 0.000000 0.000000 0.000000
# 4 0.000000 0.000000 0.000000 0.049625 0.000000 0.000000
# 5 0.000000 0.000000 0.000000 0.000000 0.027865 0.000000
# 6 0.000000 0.000000 0.000000 0.000000 0.000000 0.035188
#
#
# Mechanical properties :
#
#
# Convention : Reuss Voigt Hill
#
# Bulk Modulus (GPa) = 70.35944 78.32835 74.34389
# Shear Modulus (GPa) = 28.52917 31.72761 30.12839
#
# Velocity S-wave (km/s) = 3.73747 3.94141 3.84080
# Velocity P-wave (km/s) = 7.28526 7.68536 7.48798
#
# Compressibility (1/GPa) = 0.01421273
#
# Stress axis : x y z
#
# Youngs Moduli (GPa) = 60.08212 102.59017 103.76559
#
# Poissons Ratio (x) = 0.21330 0.71144
# Poissons Ratio (y) = 0.12492 0.20468
# Poissons Ratio (z) = 0.41194 0.20236
#
# Static dielectric constant tensor:
#      x y z
#    x 3.734900 0.000000 0.000000 
#    y 0.000000 3.882990 0.000000 
#    z 0.000000 0.000000 3.989040 
# 
# 
# High freq. dielectric constant tensor:
#      x y z
#    x 1.792540 0.000000 0.000000 
#    y 0.000000 1.810670 0.000000 
#    z 0.000000 0.000000 1.815640 
# 
# From -- ./inp_files/23731.got.cif
#   From: 2010.03.12/outbox.cif.g09.slc.cpg/sg59_12_cif.got.tgz:23731.got - 2010.04.16 16:29:54.
