data_PCOD8245754
_publ_section_title
;
Structure prediction by ZEFSAII (Michael W. Deem and Ramdas Pophale) SiO2 
 PCOD8245754
Probable space group: P M M N
;
_chemical_formula_sum "Si O2"
_cell_formula_units_Z 56
_cell_length_a 8.954121
_cell_length_b 15.486935
_cell_length_c 21.267645
_cell_angle_alpha 90.000000
_cell_angle_beta 90.000000
_cell_angle_gamma 90.000000
_cell_volume 2949.224526
_symmetry_space_group_name_H-M "P M M N"
_symmetry_group_IT_number 59
_space_group.IT_coordinate_system_code '2'
_symmetry_cell_setting 'orthorhombic'
loop_
_space_group_symop_operation_xyz
x,y,z
1/2-x,1/2-y,z
1/2+x,-y,-z
-x,1/2+y,-z
-x,-y,-z
1/2+x,1/2+y,-z
1/2-x,y,z
x,1/2-y,z
loop_
_atom_site_type_symbol
_atom_site_label
_atom_site_fract_x
_atom_site_fract_y
_atom_site_fract_z
Si Si1 0.925690 0.996161 0.155680
Si Si2 0.077238 0.155090 0.091098
Si Si3 0.577492 0.152866 0.619093
Si Si4 0.572516 0.508498 0.295956
Si Si5 0.577452 0.578520 0.032661
Si Si6 0.924258 0.907427 0.501137
Si Si7 0.422569 0.151509 0.359058
O O1 0.750000 0.002783 0.162519
O O2 0.989468 0.977885 0.224947
O O3 0.975461 0.918996 0.106368
O O4 0.979774 0.088105 0.129739
O O5 0.250000 0.131458 0.102207
O O6 0.038987 0.250000 0.116902
O O7 0.044911 0.157913 0.014662
O O8 0.750000 0.125896 0.612062
O O9 0.561697 0.250000 0.646479
O O10 0.498628 0.084888 0.664182
O O11 0.500317 0.152043 0.551202
O O12 0.750000 0.515331 0.301204
O O13 0.523363 0.414122 0.319426
O O14 0.750000 0.556376 0.035600
O O15 0.500000 0.500000 0.000000
O O16 0.750000 0.917920 0.486022
O O17 0.952113 0.861580 0.567315
O O18 0.000000 0.000000 0.500000
O O19 0.250000 0.133104 0.342995
O O20 0.465683 0.250000 0.341270
#
# Coordination Sequence:
#
# PCOD8245754 Si02
#       7
#     8   8   8   8   8   8   8
#     4   9  19  34  51  73 102 139 179 216 264 319
#     4   9  17  29  49  78 105 132 170 214 263 319
#     4  11  24  41  61  84 111 146 188 234 285 337
#     4  11  23  38  57  81 111 149 191 234 278 331
#     4   8  14  28  48  69  96 127 163 207 251 301
#     4  11  21  36  61  89 115 144 182 229 284 338
#     4  10  22  39  58  81 112 149 186 226 276 333
#
# _framework density 18.988043000000001
#
# number of rings (size 3 to 8) (size 9 to 14) (size 15 to 20)
#    0.000    2.143    1.429    1.714    0.000    4.571 
#    0.000    3.571    0.000    2.571    0.000    0.000 
#    0.000    0.000    0.000    0.000    0.000    0.000 
#
# Total GULP energy -693841.427097 kJ/mol
# GULP energy per Si atom -12390.025484 kJ/mol
# Density = 1.894482 g / cm^3
# Si number density = 18.988043 Si / 1000 Ang^3
#
#
#
# Elastic Constant Matrix: (Units=GPa)
#
#
# Indices 1 2 3 4 5 6 
#
# 1 61.8619 26.5377 42.0378 0.0000 0.0000 0.0000
# 2 26.5377 74.8310 24.8390 0.0000 0.0000 0.0000
# 3 42.0378 24.8390 119.7836 0.0000 0.0000 0.0000
# 4 0.0000 0.0000 0.0000 14.3875 0.0000 0.0000
# 5 0.0000 0.0000 0.0000 0.0000 24.4678 0.0000
# 6 0.0000 0.0000 0.0000 0.0000 0.0000 22.8356
#
#
#
# Elastic Compliance Matrix: (Units=1/GPa)
#
#
# Indices 1 2 3 4 5 6 
#
# 1 0.023501 -0.006010 -0.007001 0.000000 0.000000 0.000000
# 2 -0.006010 0.015888 -0.001185 0.000000 0.000000 0.000000
# 3 -0.007001 -0.001185 0.011051 0.000000 0.000000 0.000000
# 4 0.000000 0.000000 0.000000 0.069505 0.000000 0.000000
# 5 0.000000 0.000000 0.000000 0.000000 0.040870 0.000000
# 6 0.000000 0.000000 0.000000 0.000000 0.000000 0.043791
#
#
# Mechanical properties :
#
#
# Convention : Reuss Voigt Hill
#
# Bulk Modulus (GPa) = 45.35833 49.25620 47.30726
# Shear Modulus (GPa) = 20.80302 23.20898 22.00600
#
# Velocity S-wave (km/s) = 3.31355 3.49993 3.40801
# Velocity P-wave (km/s) = 6.21122 6.50612 6.36038
#
# Compressibility (1/GPa) = 0.02204667
#
# Stress axis : x y z
#
# Youngs Moduli (GPa) = 42.55126 62.93904 90.48715
#
# Poissons Ratio (x) = 0.37828 0.63353
# Poissons Ratio (y) = 0.25575 0.10726
# Poissons Ratio (z) = 0.29791 0.07461
#
# Static dielectric constant tensor:
#      x y z
#    x 3.549450 0.000000 0.000000 
#    y 0.000000 3.340370 0.000000 
#    z 0.000000 0.000000 3.988110 
# 
# 
# High freq. dielectric constant tensor:
#      x y z
#    x 1.738010 0.000000 0.000000 
#    y 0.000000 1.726960 0.000000 
#    z 0.000000 0.000000 1.744700 
# 
# From -- ./inp_files/28974.got.cif
#   From: 2010.03.12/outbox.cif.g09.slc.cpg/sg59_15_cif.got.tgz:28974.got - 2010.04.16 16:29:54.
