data_PCOD8245514
_publ_section_title
;
Structure prediction by ZEFSAII (Michael W. Deem and Ramdas Pophale) SiO2 
 PCOD8245514
Probable space group: P M M N
;
_chemical_formula_sum "Si O2"
_cell_formula_units_Z 40
_cell_length_a 8.571720
_cell_length_b 14.263274
_cell_length_c 16.966440
_cell_angle_alpha 90.000000
_cell_angle_beta 90.000000
_cell_angle_gamma 90.000000
_cell_volume 2074.330375
_symmetry_space_group_name_H-M "P M M N"
_symmetry_group_IT_number 59
_space_group.IT_coordinate_system_code '2'
_symmetry_cell_setting 'orthorhombic'
loop_
_space_group_symop_operation_xyz
x,y,z
1/2-x,1/2-y,z
1/2+x,-y,-z
-x,1/2+y,-z
-x,-y,-z
1/2+x,1/2+y,-z
1/2-x,y,z
x,1/2-y,z
loop_
_atom_site_type_symbol
_atom_site_label
_atom_site_fract_x
_atom_site_fract_y
_atom_site_fract_z
Si Si1 0.570356 0.482892 0.875185
Si Si2 0.068101 0.443364 0.711417
Si Si3 0.935642 0.250000 0.657883
Si Si4 0.066768 0.058622 0.428426
Si Si5 0.934124 0.250000 0.477052
Si Si6 0.069281 0.357494 0.004370
O O1 0.750000 0.475847 0.849029
O O2 0.459895 0.478636 0.799657
O O3 0.534208 0.581698 0.917706
O O4 0.533418 0.395958 0.932532
O O5 0.250000 0.445785 0.690994
O O6 0.003259 0.338983 0.702840
O O7 0.976099 0.511894 0.653754
O O8 0.750000 0.250000 0.662926
O O9 0.993700 0.250000 0.567321
O O10 0.250000 0.063179 0.437971
O O11 0.996983 0.161786 0.429607
O O12 0.000000 0.000000 0.500000
O O13 0.750000 0.250000 0.475667
O O14 0.250000 0.366967 0.980361
O O15 0.023045 0.250000 0.021689
#
# Coordination Sequence:
#
# PCOD8245514 Si02
#       6
#     8   8   4   8   4   8
#     4  10  21  38  60  88 122 156 197 248 300 355
#     4  12  25  41  62  89 124 162 201 251 305 360
#     4  11  23  39  63  91 121 154 201 256 304 360
#     4  12  24  41  64  90 122 162 204 252 305 361
#     4  11  23  41  65  91 119 158 207 254 304 366
#     4   9  19  38  63  88 117 155 198 244 297 359
#
# _framework density 19.283331
#
# number of rings (size 3 to 8) (size 9 to 14) (size 15 to 20)
#    0.000    1.200    2.000    4.800    1.400    2.000 
#    1.800    0.000    0.000    0.000    0.000    0.000 
#    0.000    0.000    0.000    0.000    0.000    0.000 
#
# Total GULP energy -496264.248062 kJ/mol
# GULP energy per Si atom -12406.606202 kJ/mol
# Density = 1.923944 g / cm^3
# Si number density = 19.283331 Si / 1000 Ang^3
#
#
#
# Elastic Constant Matrix: (Units=GPa)
#
#
# Indices 1 2 3 4 5 6 
#
# 1 79.6742 30.3324 19.4847 0.0000 0.0000 0.0000
# 2 30.3324 161.5845 52.2178 0.0000 0.0000 0.0000
# 3 19.4847 52.2178 98.4320 0.0000 0.0000 0.0000
# 4 0.0000 0.0000 0.0000 23.3597 0.0000 0.0000
# 5 0.0000 0.0000 0.0000 0.0000 33.3296 0.0000
# 6 0.0000 0.0000 0.0000 0.0000 0.0000 27.9211
#
#
#
# Elastic Compliance Matrix: (Units=1/GPa)
#
#
# Indices 1 2 3 4 5 6 
#
# 1 0.013730 -0.002051 -0.001630 0.000000 0.000000 0.000000
# 2 -0.002051 0.007775 -0.003719 0.000000 0.000000 0.000000
# 3 -0.001630 -0.003719 0.012455 0.000000 0.000000 0.000000
# 4 0.000000 0.000000 0.000000 0.042809 0.000000 0.000000
# 5 0.000000 0.000000 0.000000 0.000000 0.030003 0.000000
# 6 0.000000 0.000000 0.000000 0.000000 0.000000 0.035815
#
#
# Mechanical properties :
#
#
# Convention : Reuss Voigt Hill
#
# Bulk Modulus (GPa) = 52.18822 60.41783 56.30303
# Shear Modulus (GPa) = 30.52977 32.76580 31.64779
#
# Velocity S-wave (km/s) = 3.98329 4.12658 4.05557
# Velocity P-wave (km/s) = 6.94824 7.35558 7.15481
#
# Compressibility (1/GPa) = 0.01916141
#
# Stress axis : x y z
#
# Youngs Moduli (GPa) = 72.83078 128.60948 80.28999
#
# Poissons Ratio (x) = 0.26374 0.13088
# Poissons Ratio (y) = 0.14935 0.29859
# Poissons Ratio (z) = 0.11872 0.47829
#
# Static dielectric constant tensor:
#      x y z
#    x 2.890600 0.000000 0.000000 
#    y 0.000000 4.298440 0.000000 
#    z 0.000000 0.000000 3.658250 
# 
# 
# High freq. dielectric constant tensor:
#      x y z
#    x 1.763760 0.000000 0.000000 
#    y 0.000000 1.760160 0.000000 
#    z 0.000000 0.000000 1.747620 
# 
# From -- ./inp_files/19970.got.cif
#   From: 2010.03.12/outbox.cif.g09.slc.cpg/sg59_10_cif.got.tgz:19970.got - 2010.04.16 16:29:54.
