data_PCOD8245781
_publ_section_title
;
Structure prediction by ZEFSAII (Michael W. Deem and Ramdas Pophale) SiO2 
 PCOD8245781
Probable space group: P M M N
;
_chemical_formula_sum "Si O2"
_cell_formula_units_Z 32
_cell_length_a 20.209724
_cell_length_b 13.545696
_cell_length_c 5.081937
_cell_angle_alpha 90.000000
_cell_angle_beta 90.000000
_cell_angle_gamma 90.000000
_cell_volume 1391.204533
_symmetry_space_group_name_H-M "P M M N"
_symmetry_group_IT_number 59
_space_group.IT_coordinate_system_code '2'
_symmetry_cell_setting 'orthorhombic'
loop_
_space_group_symop_operation_xyz
x,y,z
1/2-x,1/2-y,z
1/2+x,-y,-z
-x,1/2+y,-z
-x,-y,-z
1/2+x,1/2+y,-z
1/2-x,y,z
x,1/2-y,z
loop_
_atom_site_type_symbol
_atom_site_label
_atom_site_fract_x
_atom_site_fract_y
_atom_site_fract_z
Si Si1 0.946182 0.860324 0.859372
Si Si2 0.677056 0.861426 0.233427
Si Si3 0.885864 0.015339 0.552705
Si Si4 0.908793 0.137553 0.035167
O O1 0.940955 0.750000 0.740476
O O2 0.947055 0.940774 0.623645
O O3 0.881728 0.887302 0.032149
O O4 0.012777 0.869098 0.033225
O O5 0.750000 0.871217 0.102025
O O6 0.667444 0.750000 0.343103
O O7 0.673477 0.940675 0.471593
O O8 0.867679 0.079964 0.811296
O O9 0.900767 0.091546 0.322162
O O10 0.883604 0.250000 0.043665
#
# Coordination Sequence:
#
# PCOD8245781 Si02
#       4
#     8   8   8   8
#     4  10  22  39  64  98 133 169 207 259 323 390
#     4  10  23  42  65  96 131 167 209 257 314 386
#     4  12  22  42  65  94 129 167 212 259 322 378
#     4  11  25  40  64  96 130 166 215 266 317 373
#
# _framework density 23.001650999999999
#
# number of rings (size 3 to 8) (size 9 to 14) (size 15 to 20)
#    0.000    1.250    2.500    3.000    3.500    1.000 
#    0.000    2.500    0.000    4.500    0.000    0.000 
#    0.000    0.000    0.000    0.000    0.000    0.000 
#
# Total GULP energy -396497.301800 kJ/mol
# GULP energy per Si atom -12390.540681 kJ/mol
# Density = 2.294930 g / cm^3
# Si number density = 23.001651 Si / 1000 Ang^3
#
#
#
# Elastic Constant Matrix: (Units=GPa)
#
#
# Indices 1 2 3 4 5 6 
#
# 1 63.7491 9.8428 12.7994 0.0000 0.0000 0.0000
# 2 9.8428 189.2934 68.3488 0.0000 0.0000 0.0000
# 3 12.7994 68.3488 115.2247 0.0000 0.0000 0.0000
# 4 0.0000 0.0000 0.0000 37.5100 0.0000 0.0000
# 5 0.0000 0.0000 0.0000 0.0000 23.1168 0.0000
# 6 0.0000 0.0000 0.0000 0.0000 0.0000 17.7284
#
#
#
# Elastic Compliance Matrix: (Units=1/GPa)
#
#
# Indices 1 2 3 4 5 6 
#
# 1 0.016053 -0.000243 -0.001639 0.000000 0.000000 0.000000
# 2 -0.000243 0.006726 -0.003963 0.000000 0.000000 0.000000
# 3 -0.001639 -0.003963 0.011212 0.000000 0.000000 0.000000
# 4 0.000000 0.000000 0.000000 0.026660 0.000000 0.000000
# 5 0.000000 0.000000 0.000000 0.000000 0.043259 0.000000
# 6 0.000000 0.000000 0.000000 0.000000 0.000000 0.056407
#
#
# Mechanical properties :
#
#
# Convention : Reuss Voigt Hill
#
# Bulk Modulus (GPa) = 44.84096 61.13879 52.98987
# Shear Modulus (GPa) = 27.86455 34.15611 31.01033
#
# Velocity S-wave (km/s) = 3.48431 3.85767 3.67574
# Velocity P-wave (km/s) = 5.97698 6.81763 6.41110
#
# Compressibility (1/GPa) = 0.02230104
#
# Stress axis : x y z
#
# Youngs Moduli (GPa) = 62.29323 148.66917 89.19408
#
# Poissons Ratio (x) = 0.03611 0.14620
# Poissons Ratio (y) = 0.01513 0.35347
# Poissons Ratio (z) = 0.10211 0.58917
#
# Static dielectric constant tensor:
#      x y z
#    x 3.852620 0.000000 0.000000 
#    y 0.000000 4.598860 0.000000 
#    z 0.000000 0.000000 3.903230 
# 
# 
# High freq. dielectric constant tensor:
#      x y z
#    x 1.863090 0.000000 0.000000 
#    y 0.000000 1.942600 0.000000 
#    z 0.000000 0.000000 1.893240 
# 
# From -- ./inp_files/2489.got.cif
#   From: 2010.03.12/outbox.cif.g09.slc.cpg/sg59_2_cif.got.tgz:2489.got - 2010.04.16 16:29:54.
