data_PCOD8245256
_publ_section_title
;
Structure prediction by ZEFSAII (Michael W. Deem and Ramdas Pophale) SiO2 
 PCOD8245256
Probable space group: P M M N
;
_chemical_formula_sum "Si O2"
_cell_formula_units_Z 64
_cell_length_a 30.838908
_cell_length_b 8.561772
_cell_length_c 12.029612
_cell_angle_alpha 90.000000
_cell_angle_beta 90.000000
_cell_angle_gamma 90.000000
_cell_volume 3176.247013
_symmetry_space_group_name_H-M "P M M N"
_symmetry_group_IT_number 59
_space_group.IT_coordinate_system_code '2'
_symmetry_cell_setting 'orthorhombic'
loop_
_space_group_symop_operation_xyz
x,y,z
1/2-x,1/2-y,z
1/2+x,-y,-z
-x,1/2+y,-z
-x,-y,-z
1/2+x,1/2+y,-z
1/2-x,y,z
x,1/2-y,z
loop_
_atom_site_type_symbol
_atom_site_label
_atom_site_fract_x
_atom_site_fract_y
_atom_site_fract_z
Si Si1 0.200524 0.932593 0.757834
Si Si2 0.953370 0.431365 0.766853
Si Si3 0.449832 0.433937 0.766848
Si Si4 0.426167 0.432770 0.008552
Si Si5 0.374719 0.066396 0.365529
Si Si6 0.373902 0.065552 0.613165
Si Si7 0.666412 0.068198 0.001335
Si Si8 0.701736 0.931260 0.789394
O O1 0.250000 0.981683 0.735920
O O2 0.193401 0.750000 0.739045
O O3 0.188126 0.980413 0.882799
O O4 0.171307 0.025358 0.670884
O O5 0.942931 0.250000 0.750784
O O6 0.919523 0.529369 0.695604
O O7 0.001804 0.473723 0.724468
O O8 0.951533 0.473317 0.896690
O O9 0.442630 0.250000 0.774791
O O10 0.442055 0.501555 0.890423
O O11 0.414430 0.506875 0.682415
O O12 0.435877 0.250000 0.022823
O O13 0.375236 0.461960 0.020867
O O14 0.369661 0.250000 0.375013
O O15 0.374828 0.992777 0.489191
O O16 0.333503 0.999893 0.297463
O O17 0.379097 0.250000 0.607016
O O18 0.653710 0.250000 0.999733
O O19 0.699824 0.029428 0.903137
O O20 0.750000 0.953102 0.738994
O O21 0.692212 0.750000 0.815184
#
# Coordination Sequence:
#
# PCOD8245256 Si02
#       8
#     8   8   8   8   8   8   8   8
#     4  10  22  39  58  85 121 152 183 232 288 339
#     4  11  22  37  58  85 117 152 189 231 287 347
#     4   9  20  37  58  85 117 150 187 237 285 336
#     4  11  20  35  59  85 117 150 186 234 286 341
#     4  10  22  39  59  83 114 150 193 242 285 329
#     4  10  21  40  62  83 111 151 199 241 280 331
#     4  11  21  35  58  87 117 150 186 230 286 344
#     4  10  21  37  57  82 114 151 189 232 283 336
#
# _framework density 20.149567000000001
#
# number of rings (size 3 to 8) (size 9 to 14) (size 15 to 20)
#    0.000    1.750    2.500    1.875    0.000    3.000 
#    0.000    4.375    0.000    0.000    0.000    0.000 
#    0.000    0.000    0.000    0.000    0.000    0.000 
#
# Total GULP energy -793745.624395 kJ/mol
# GULP energy per Si atom -12402.275381 kJ/mol
# Density = 2.010371 g / cm^3
# Si number density = 20.149567 Si / 1000 Ang^3
#
#
#
# Elastic Constant Matrix: (Units=GPa)
#
#
# Indices 1 2 3 4 5 6 
#
# 1 126.2164 7.5791 52.8816 0.0000 0.0000 0.0000
# 2 7.5791 13.6817 10.2772 0.0000 0.0000 0.0000
# 3 52.8816 10.2772 147.9546 0.0000 0.0000 0.0000
# 4 0.0000 0.0000 0.0000 17.9173 0.0000 0.0000
# 5 0.0000 0.0000 0.0000 0.0000 15.5834 0.0000
# 6 0.0000 0.0000 0.0000 0.0000 0.0000 27.7704
#
#
#
# Elastic Compliance Matrix: (Units=1/GPa)
#
#
# Indices 1 2 3 4 5 6 
#
# 1 0.009422 -0.002838 -0.003170 0.000000 0.000000 0.000000
# 2 -0.002838 0.077968 -0.004402 0.000000 0.000000 0.000000
# 3 -0.003170 -0.004402 0.008198 0.000000 0.000000 0.000000
# 4 0.000000 0.000000 0.000000 0.055812 0.000000 0.000000
# 5 0.000000 0.000000 0.000000 0.000000 0.064171 0.000000
# 6 0.000000 0.000000 0.000000 0.000000 0.000000 0.036010
#
#
# Mechanical properties :
#
#
# Convention : Reuss Voigt Hill
#
# Bulk Modulus (GPa) = 13.37463 47.70315 30.53889
# Shear Modulus (GPa) = 16.81676 26.72852 21.77264
#
# Velocity S-wave (km/s) = 2.89207 3.64607 3.29074
# Velocity P-wave (km/s) = 4.21950 6.43825 5.44313
#
# Compressibility (1/GPa) = 0.07476841
#
# Stress axis : x y z
#
# Youngs Moduli (GPa) = 106.13918 12.82572 121.98537
#
# Poissons Ratio (x) = 0.03640 0.38673
# Poissons Ratio (y) = 0.30119 0.53693
# Poissons Ratio (z) = 0.33650 0.05645
#
# Static dielectric constant tensor:
#      x y z
#    x 3.755030 0.000000 0.000000 
#    y 0.000000 3.352060 0.000000 
#    z 0.000000 0.000000 3.870180 
# 
# 
# High freq. dielectric constant tensor:
#      x y z
#    x 1.798780 0.000000 0.000000 
#    y 0.000000 1.762950 0.000000 
#    z 0.000000 0.000000 1.785980 
# 
# From -- ./inp_files/14908.got.cif
#   From: 2010.03.12/outbox.cif.g09.slc.cpg/sg59_8_cif.got.tgz:14908.got - 2010.04.16 16:29:54.
