data_PCOD8245651
_publ_section_title
;
Structure prediction by ZEFSAII (Michael W. Deem and Ramdas Pophale) SiO2 
 PCOD8245651
Probable space group: P M M N
;
_chemical_formula_sum "Si O2"
_cell_formula_units_Z 64
_cell_length_a 8.725215
_cell_length_b 14.471510
_cell_length_c 24.317903
_cell_angle_alpha 90.000000
_cell_angle_beta 90.000000
_cell_angle_gamma 90.000000
_cell_volume 3070.549537
_symmetry_space_group_name_H-M "P M M N"
_symmetry_group_IT_number 59
_space_group.IT_coordinate_system_code '2'
_symmetry_cell_setting 'orthorhombic'
loop_
_space_group_symop_operation_xyz
x,y,z
1/2-x,1/2-y,z
1/2+x,-y,-z
-x,1/2+y,-z
-x,-y,-z
1/2+x,1/2+y,-z
1/2-x,y,z
x,1/2-y,z
loop_
_atom_site_type_symbol
_atom_site_label
_atom_site_fract_x
_atom_site_fract_y
_atom_site_fract_z
Si Si1 0.567277 0.855072 0.347216
Si Si2 0.074319 0.487412 0.558762
Si Si3 0.070457 0.644258 0.914523
Si Si4 0.070763 0.531047 0.127526
Si Si5 0.926797 0.644087 0.029892
Si Si6 0.928626 0.961646 0.238691
Si Si7 0.918658 0.851544 0.611878
Si Si8 0.921762 0.648240 0.741483
O O1 0.750000 0.857965 0.347072
O O2 0.505629 0.750000 0.346107
O O3 0.504880 0.905085 0.402808
O O4 0.507495 0.909649 0.293094
O O5 0.250000 0.466438 0.548863
O O6 0.000000 0.500000 0.500000
O O7 0.052794 0.582509 0.591262
O O8 0.250000 0.627750 0.905823
O O9 0.023448 0.750000 0.901614
O O10 0.975588 0.577757 0.873545
O O11 0.027803 0.618562 0.977025
O O12 0.250000 0.544887 0.118638
O O13 0.978106 0.581084 0.079873
O O14 0.020092 0.575974 0.185627
O O15 0.750000 0.624108 0.015669
O O16 0.952770 0.750000 0.047154
O O17 0.750000 0.941721 0.230616
O O18 0.955919 0.071670 0.241102
O O19 0.750000 0.886925 0.592388
O O20 0.948795 0.750000 0.586733
O O21 0.922110 0.845663 0.676563
O O22 0.750000 0.620935 0.762040
O O23 0.967936 0.750000 0.764939
#
# Coordination Sequence:
#
# PCOD8245651 Si02
#       8
#     8   8   8   8   8   8   8   8
#     4   9  20  40  63  85 113 153 198 241 291 350
#     4  11  22  37  59  89 120 154 195 243 295 349
#     4  10  21  39  63  90 121 158 201 250 303 360
#     4  12  25  39  58  86 122 161 201 249 302 360
#     4  10  21  39  63  89 119 157 201 250 304 361
#     4  11  22  38  60  86 114 150 200 252 299 350
#     4   9  18  34  57  83 113 149 185 227 284 347
#     4   9  18  34  57  83 112 147 184 226 286 355
#
# _framework density 20.843174999999999
#
# number of rings (size 3 to 8) (size 9 to 14) (size 15 to 20)
#    0.000    1.875    1.250    3.750    0.000    3.500 
#    0.000    3.750    0.000    5.250    0.000    0.000 
#    0.000    0.000    0.000    0.000    0.000    0.000 
#
# Total GULP energy -793504.207031 kJ/mol
# GULP energy per Si atom -12398.503235 kJ/mol
# Density = 2.079574 g / cm^3
# Si number density = 20.843175 Si / 1000 Ang^3
#
#
#
# Elastic Constant Matrix: (Units=GPa)
#
#
# Indices 1 2 3 4 5 6 
#
# 1 54.4891 15.4888 17.0383 0.0000 0.0000 0.0000
# 2 15.4888 92.7582 35.2597 0.0000 0.0000 0.0000
# 3 17.0383 35.2597 97.9825 0.0000 0.0000 0.0000
# 4 0.0000 0.0000 0.0000 14.2299 0.0000 0.0000
# 5 0.0000 0.0000 0.0000 0.0000 33.5134 0.0000
# 6 0.0000 0.0000 0.0000 0.0000 0.0000 28.9905
#
#
#
# Elastic Compliance Matrix: (Units=1/GPa)
#
#
# Indices 1 2 3 4 5 6 
#
# 1 0.019828 -0.002317 -0.002614 0.000000 0.000000 0.000000
# 2 -0.002317 0.012760 -0.004189 0.000000 0.000000 0.000000
# 3 -0.002614 -0.004189 0.012168 0.000000 0.000000 0.000000
# 4 0.000000 0.000000 0.000000 0.070275 0.000000 0.000000
# 5 0.000000 0.000000 0.000000 0.000000 0.029839 0.000000
# 6 0.000000 0.000000 0.000000 0.000000 0.000000 0.034494
#
#
# Mechanical properties :
#
#
# Convention : Reuss Voigt Hill
#
# Bulk Modulus (GPa) = 37.71334 42.31150 40.01242
# Shear Modulus (GPa) = 24.21980 27.17629 25.69804
#
# Velocity S-wave (km/s) = 3.41251 3.61480 3.51511
# Velocity P-wave (km/s) = 5.80173 6.14543 5.97606
#
# Compressibility (1/GPa) = 0.02651582
#
# Stress axis : x y z
#
# Youngs Moduli (GPa) = 50.43276 78.37033 82.18382
#
# Poissons Ratio (x) = 0.18161 0.21484
# Poissons Ratio (y) = 0.11687 0.34425
# Poissons Ratio (z) = 0.13184 0.32828
#
# Static dielectric constant tensor:
#      x y z
#    x 3.424620 0.000000 0.000000 
#    y 0.000000 2.480580 0.000000 
#    z 0.000000 0.000000 3.879320 
# 
# 
# High freq. dielectric constant tensor:
#      x y z
#    x 1.799990 0.000000 0.000000 
#    y 0.000000 1.816940 0.000000 
#    z 0.000000 0.000000 1.819620 
# 
# From -- ./inp_files/31488.got.cif
#   From: 2010.03.12/outbox.cif.g09.slc.cpg/sg59_16_cif.got.tgz:31488.got - 2010.04.16 16:29:54.
