data_PCOD8245999
_publ_section_title
;
Structure prediction by ZEFSAII (Michael W. Deem and Ramdas Pophale) SiO2 
 PCOD8245999
Probable space group: P M M N
;
_chemical_formula_sum "Si O2"
_cell_formula_units_Z 48
_cell_length_a 9.062681
_cell_length_b 10.197435
_cell_length_c 28.862390
_cell_angle_alpha 90.000000
_cell_angle_beta 90.000000
_cell_angle_gamma 90.000000
_cell_volume 2667.349533
_symmetry_space_group_name_H-M "P M M N"
_symmetry_group_IT_number 59
_space_group.IT_coordinate_system_code '2'
_symmetry_cell_setting 'orthorhombic'
loop_
_space_group_symop_operation_xyz
x,y,z
1/2-x,1/2-y,z
1/2+x,-y,-z
-x,1/2+y,-z
-x,-y,-z
1/2+x,1/2+y,-z
1/2-x,y,z
x,1/2-y,z
loop_
_atom_site_type_symbol
_atom_site_label
_atom_site_fract_x
_atom_site_fract_y
_atom_site_fract_z
Si Si1 0.575632 0.250000 0.952709
Si Si2 0.081051 0.096740 0.810648
Si Si3 0.076677 0.101757 0.361324
Si Si4 0.923431 0.602176 0.533294
Si Si5 0.926008 0.250000 0.057929
Si Si6 0.575086 0.997582 0.896792
Si Si7 0.076521 0.102353 0.705428
O O1 0.750000 0.250000 0.952112
O O2 0.517891 0.121624 0.926311
O O3 0.516189 0.250000 0.005071
O O4 0.250000 0.056195 0.820717
O O5 0.058871 0.250000 0.819859
O O6 0.037479 0.062449 0.758003
O O7 0.971307 0.015858 0.843433
O O8 0.250000 0.084382 0.355559
O O9 0.030018 0.250000 0.347827
O O10 0.028775 0.072456 0.414029
O O11 0.997916 0.999339 0.328555
O O12 0.750000 0.586484 0.527779
O O13 0.971487 0.750000 0.519777
O O14 0.000000 0.500000 0.500000
O O15 0.750000 0.250000 0.060701
O O16 0.989882 0.375111 0.083218
O O17 0.750000 0.976464 0.899966
O O18 0.250000 0.097170 0.697719
O O19 0.019179 0.250000 0.695123
#
# Coordination Sequence:
#
# PCOD8245999 Si02
#       7
#     4   8   8   8   4   8   8
#     4   9  20  37  59  83 109 139 179 223 266 315
#     4   9  18  35  57  80 106 140 180 218 264 324
#     4   9  19  36  54  75 107 144 180 219 266 319
#     4   9  19  35  53  75 106 142 180 223 268 316
#     4  11  23  39  55  79 113 147 179 217 264 319
#     4  11  21  37  58  83 111 140 176 224 271 316
#     4   9  19  35  55  80 108 136 174 222 265 314
#
# _framework density 17.995391000000001
#
# number of rings (size 3 to 8) (size 9 to 14) (size 15 to 20)
#    0.000    2.500    0.833    3.250    0.000    3.000 
#    1.500    9.167    0.000    0.000    0.000    0.000 
#    0.000    0.000    0.000    0.000    0.000    0.000 
#
# Total GULP energy -595180.654525 kJ/mol
# GULP energy per Si atom -12399.596969 kJ/mol
# Density = 1.795443 g / cm^3
# Si number density = 17.995391 Si / 1000 Ang^3
#
#
#
# Elastic Constant Matrix: (Units=GPa)
#
#
# Indices 1 2 3 4 5 6 
#
# 1 60.7711 55.5428 56.9168 0.0000 0.0000 0.0000
# 2 55.5428 146.1441 98.9595 0.0000 0.0000 0.0000
# 3 56.9168 98.9595 145.2664 0.0000 0.0000 0.0000
# 4 0.0000 0.0000 0.0000 31.5740 0.0000 0.0000
# 5 0.0000 0.0000 0.0000 0.0000 33.5345 0.0000
# 6 0.0000 0.0000 0.0000 0.0000 0.0000 172.7307
#
#
#
# Elastic Compliance Matrix: (Units=1/GPa)
#
#
# Indices 1 2 3 4 5 6 
#
# 1 0.028654 -0.006103 -0.007069 0.000000 0.000000 0.000000
# 2 -0.006103 0.014002 -0.007147 0.000000 0.000000 0.000000
# 3 -0.007069 -0.007147 0.014522 0.000000 0.000000 0.000000
# 4 0.000000 0.000000 0.000000 0.031672 0.000000 0.000000
# 5 0.000000 0.000000 0.000000 0.000000 0.029820 0.000000
# 6 0.000000 0.000000 0.000000 0.000000 0.000000 0.005789
#
#
# Mechanical properties :
#
#
# Convention : Reuss Voigt Hill
#
# Bulk Modulus (GPa) = 60.46227 86.11331 73.28779
# Shear Modulus (GPa) = 29.30630 56.95200 43.12915
#
# Velocity S-wave (km/s) = 4.03990 5.63177 4.90090
# Velocity P-wave (km/s) = 7.44532 9.49979 8.53460
#
# Compressibility (1/GPa) = 0.01653924
#
# Stress axis : x y z
#
# Youngs Moduli (GPa) = 34.89868 71.42020 68.85904
#
# Poissons Ratio (x) = 0.43590 0.48678
# Poissons Ratio (y) = 0.21300 0.49213
# Poissons Ratio (z) = 0.24671 0.51044
#
# Static dielectric constant tensor:
#      x y z
#    x 3.167360 0.000000 0.000000 
#    y 0.000000 2.857070 0.000000 
#    z 0.000000 0.000000 3.697780 
# 
# 
# High freq. dielectric constant tensor:
#      x y z
#    x 1.687380 0.000000 0.000000 
#    y 0.000000 1.698810 0.000000 
#    z 0.000000 0.000000 1.705110 
# 
# From -- ./inp_files/32955.got.cif
#   From: 2010.03.12/outbox.cif.g09.slc.cpg/sg59_17_cif.got.tgz:32955.got - 2010.04.16 16:29:54.
