data_PCOD8245917
_publ_section_title
;
Structure prediction by ZEFSAII (Michael W. Deem and Ramdas Pophale) SiO2 
 PCOD8245917
Probable space group: P M M N
;
_chemical_formula_sum "Si O2"
_cell_formula_units_Z 40
_cell_length_a 7.771068
_cell_length_b 15.258944
_cell_length_c 16.204592
_cell_angle_alpha 90.000000
_cell_angle_beta 90.000000
_cell_angle_gamma 90.000000
_cell_volume 1921.512833
_symmetry_space_group_name_H-M "P M M N"
_symmetry_group_IT_number 59
_space_group.IT_coordinate_system_code '2'
_symmetry_cell_setting 'orthorhombic'
loop_
_space_group_symop_operation_xyz
x,y,z
1/2-x,1/2-y,z
1/2+x,-y,-z
-x,1/2+y,-z
-x,-y,-z
1/2+x,1/2+y,-z
1/2-x,y,z
x,1/2-y,z
loop_
_atom_site_type_symbol
_atom_site_label
_atom_site_fract_x
_atom_site_fract_y
_atom_site_fract_z
Si Si1 0.750000 0.645635 0.494212
Si Si2 0.550101 0.250000 0.077811
Si Si3 0.750000 0.646106 0.680853
Si Si4 0.056681 0.250000 0.895854
Si Si5 0.443469 0.646000 0.380987
Si Si6 0.556144 0.399582 0.203230
Si Si7 0.053517 0.584891 0.201463
O O1 0.750000 0.750000 0.493072
O O2 0.750000 0.610603 0.587456
O O3 0.577873 0.610271 0.448865
O O4 0.750000 0.250000 0.054538
O O5 0.497957 0.336139 0.129316
O O6 0.441924 0.250000 0.994511
O O7 0.750000 0.750000 0.686097
O O8 0.575412 0.609788 0.721103
O O9 0.250000 0.250000 0.862301
O O10 0.963893 0.163226 0.863370
O O11 0.250000 0.611857 0.401463
O O12 0.443272 0.750000 0.378661
O O13 0.508687 0.613902 0.291912
O O14 0.750000 0.374279 0.231885
O O15 0.554428 0.500165 0.171926
O O16 0.250000 0.555368 0.204818
#
# Coordination Sequence:
#
# PCOD8245917 Si02
#       7
#     4   4   4   4   8   8   8
#     4   9  20  34  60  92 123 162 209 269 312 369
#     4  10  24  46  66  90 125 166 212 268 319 371
#     4  11  22  42  68  93 123 168 219 266 324 374
#     4  12  26  38  66 102 129 164 208 262 323 383
#     4   9  18  34  58  87 125 167 206 257 318 372
#     4  11  24  42  68  93 125 173 218 261 317 381
#     4  11  22  40  65  94 130 174 213 258 319 384
#
# _framework density 20.816929999999999
#
# number of rings (size 3 to 8) (size 9 to 14) (size 15 to 20)
#    0.000    1.600    3.000    1.500    4.200    1.600 
#    0.000    3.000    0.000    0.000    0.000    0.000 
#    0.000    0.000    0.000    0.000    0.000    0.000 
#
# Total GULP energy -496088.624654 kJ/mol
# GULP energy per Si atom -12402.215616 kJ/mol
# Density = 2.076955 g / cm^3
# Si number density = 20.816930 Si / 1000 Ang^3
#
#
#
# Elastic Constant Matrix: (Units=GPa)
#
#
# Indices 1 2 3 4 5 6 
#
# 1 109.1793 29.3593 58.6630 0.0000 0.0000 0.0000
# 2 29.3593 97.7070 52.5889 0.0000 0.0000 0.0000
# 3 58.6630 52.5889 148.0717 0.0000 0.0000 0.0000
# 4 0.0000 0.0000 0.0000 3.4591 0.0000 0.0000
# 5 0.0000 0.0000 0.0000 0.0000 34.4318 0.0000
# 6 0.0000 0.0000 0.0000 0.0000 0.0000 23.5659
#
#
#
# Elastic Compliance Matrix: (Units=1/GPa)
#
#
# Indices 1 2 3 4 5 6 
#
# 1 0.011762 -0.001269 -0.004209 0.000000 0.000000 0.000000
# 2 -0.001269 0.012790 -0.004040 0.000000 0.000000 0.000000
# 3 -0.004209 -0.004040 0.009856 0.000000 0.000000 0.000000
# 4 0.000000 0.000000 0.000000 0.289089 0.000000 0.000000
# 5 0.000000 0.000000 0.000000 0.000000 0.029043 0.000000
# 6 0.000000 0.000000 0.000000 0.000000 0.000000 0.042434
#
#
# Mechanical properties :
#
#
# Convention : Reuss Voigt Hill
#
# Bulk Modulus (GPa) = 65.05157 70.68670 67.86913
# Shear Modulus (GPa) = 11.92935 26.58117 19.25526
#
# Velocity S-wave (km/s) = 2.39646 3.57725 3.04465
# Velocity P-wave (km/s) = 6.24296 7.14789 6.71070
#
# Compressibility (1/GPa) = 0.01537242
#
# Stress axis : x y z
#
# Youngs Moduli (GPa) = 85.01873 78.18401 101.46157
#
# Poissons Ratio (x) = 0.09919 0.42708
# Poissons Ratio (y) = 0.10787 0.40990
# Poissons Ratio (z) = 0.35787 0.31586
#
# Static dielectric constant tensor:
#      x y z
#    x 3.950740 0.000000 0.000000 
#    y 0.000000 3.746090 0.000000 
#    z 0.000000 0.000000 3.649890 
# 
# 
# High freq. dielectric constant tensor:
#      x y z
#    x 1.826070 0.000000 0.000000 
#    y 0.000000 1.814640 0.000000 
#    z 0.000000 0.000000 1.798950 
# 
# From -- ./inp_files/20035.got.cif
#   From: 2010.03.12/outbox.cif.g09.slc.cpg/sg59_11_cif.got.tgz:20035.got - 2010.04.16 16:29:54.
