data_PCOD8245257
_publ_section_title
;
Structure prediction by ZEFSAII (Michael W. Deem and Ramdas Pophale) SiO2 
 PCOD8245257
Probable space group: P M M N
;
_chemical_formula_sum "Si O2"
_cell_formula_units_Z 56
_cell_length_a 8.841373
_cell_length_b 19.078718
_cell_length_c 16.485706
_cell_angle_alpha 90.000000
_cell_angle_beta 90.000000
_cell_angle_gamma 90.000000
_cell_volume 2780.842885
_symmetry_space_group_name_H-M "P M M N"
_symmetry_group_IT_number 59
_space_group.IT_coordinate_system_code '2'
_symmetry_cell_setting 'orthorhombic'
loop_
_space_group_symop_operation_xyz
x,y,z
1/2-x,1/2-y,z
1/2+x,-y,-z
-x,1/2+y,-z
-x,-y,-z
1/2+x,1/2+y,-z
1/2-x,y,z
x,1/2-y,z
loop_
_atom_site_type_symbol
_atom_site_label
_atom_site_fract_x
_atom_site_fract_y
_atom_site_fract_z
Si Si1 0.071268 0.577013 0.004616
Si Si2 0.927645 0.578828 0.167642
Si Si3 0.924985 0.669554 0.866374
Si Si4 0.423159 0.168904 0.679812
Si Si5 0.572454 0.549650 0.567637
Si Si6 0.574767 0.547646 0.751768
Si Si7 0.575362 0.331035 0.516570
O O1 0.250000 0.569317 0.000534
O O2 0.017632 0.608700 0.090505
O O3 0.000000 0.500000 0.000000
O O4 0.018814 0.630529 0.935713
O O5 0.750000 0.581541 0.149840
O O6 0.976941 0.627424 0.241858
O O7 0.975462 0.499405 0.187799
O O8 0.750000 0.667921 0.892204
O O9 0.981029 0.750000 0.855664
O O10 0.948222 0.628214 0.780975
O O11 0.250000 0.152012 0.656835
O O12 0.446887 0.250000 0.699034
O O13 0.528058 0.143560 0.606137
O O14 0.500000 0.500000 0.500000
O O15 0.750000 0.541512 0.561090
O O16 0.517655 0.535053 0.659567
O O17 0.523199 0.629049 0.549926
O O18 0.750000 0.526034 0.759844
O O19 0.750000 0.348909 0.504007
O O20 0.537829 0.250000 0.505122
#
# Coordination Sequence:
#
# PCOD8245257 Si02
#       7
#     8   8   8   8   8   8   8
#     4  12  24  40  63  90 121 158 201 245 295 355
#     4  11  22  36  60  90 119 155 196 242 299 358
#     4  10  22  42  66  91 121 158 201 251 307 363
#     4   9  19  36  57  83 116 154 198 245 296 356
#     4  11  23  38  59  88 121 158 204 253 304 361
#     4  10  22  39  60  86 117 157 201 248 300 360
#     4  10  21  37  57  82 115 156 200 247 302 358
#
# _framework density 20.137778999999998
#
# number of rings (size 3 to 8) (size 9 to 14) (size 15 to 20)
#    0.000    1.571    1.429    3.429    0.000    6.857 
#    0.000    2.857    0.000    0.000    0.000    0.000 
#    0.000    0.000    0.000    0.000    0.000    0.000 
#
# Total GULP energy -694498.724002 kJ/mol
# GULP energy per Si atom -12401.762929 kJ/mol
# Density = 2.009194 g / cm^3
# Si number density = 20.137779 Si / 1000 Ang^3
#
#
#
# Elastic Constant Matrix: (Units=GPa)
#
#
# Indices 1 2 3 4 5 6 
#
# 1 78.2828 30.5213 42.3570 0.0000 0.0000 0.0000
# 2 30.5213 79.9335 39.7241 0.0000 0.0000 0.0000
# 3 42.3570 39.7241 116.1665 0.0000 0.0000 0.0000
# 4 0.0000 0.0000 0.0000 37.4866 0.0000 0.0000
# 5 0.0000 0.0000 0.0000 0.0000 34.1689 0.0000
# 6 0.0000 0.0000 0.0000 0.0000 0.0000 31.8405
#
#
#
# Elastic Compliance Matrix: (Units=1/GPa)
#
#
# Indices 1 2 3 4 5 6 
#
# 1 0.016960 -0.004099 -0.004782 0.000000 0.000000 0.000000
# 2 -0.004099 0.016063 -0.003998 0.000000 0.000000 0.000000
# 3 -0.004782 -0.003998 0.011719 0.000000 0.000000 0.000000
# 4 0.000000 0.000000 0.000000 0.026676 0.000000 0.000000
# 5 0.000000 0.000000 0.000000 0.000000 0.029266 0.000000
# 6 0.000000 0.000000 0.000000 0.000000 0.000000 0.031407
#
#
# Mechanical properties :
#
#
# Convention : Reuss Voigt Hill
#
# Bulk Modulus (GPa) = 52.67968 55.50973 54.09471
# Shear Modulus (GPa) = 30.45487 31.48458 30.96972
#
# Velocity S-wave (km/s) = 3.89308 3.95835 3.92585
# Velocity P-wave (km/s) = 6.81355 6.96536 6.88987
#
# Compressibility (1/GPa) = 0.01898265
#
# Stress axis : x y z
#
# Youngs Moduli (GPa) = 58.96228 62.25674 85.33015
#
# Poissons Ratio (x) = 0.25521 0.40807
# Poissons Ratio (y) = 0.24170 0.34115
# Poissons Ratio (z) = 0.28197 0.24890
#
# Static dielectric constant tensor:
#      x y z
#    x 3.618840 0.000000 0.000000 
#    y 0.000000 3.751490 0.000000 
#    z 0.000000 0.000000 3.962370 
# 
# 
# High freq. dielectric constant tensor:
#      x y z
#    x 1.785240 0.000000 0.000000 
#    y 0.000000 1.787060 0.000000 
#    z 0.000000 0.000000 1.793900 
# 
# From -- ./inp_files/20943.got.cif
#   From: 2010.03.12/outbox.cif.g09.slc.cpg/sg59_11_cif.got.tgz:20943.got - 2010.04.16 16:29:54.
