data_PCOD8245128
_publ_section_title
;
Structure prediction by ZEFSAII (Michael W. Deem and Ramdas Pophale) SiO2 
 PCOD8245128
Probable space group: P M M N
;
_chemical_formula_sum "Si O2"
_cell_formula_units_Z 64
_cell_length_a 19.060752
_cell_length_b 9.121097
_cell_length_c 20.952810
_cell_angle_alpha 90.000000
_cell_angle_beta 90.000000
_cell_angle_gamma 90.000000
_cell_volume 3642.750110
_symmetry_space_group_name_H-M "P M M N"
_symmetry_group_IT_number 59
_space_group.IT_coordinate_system_code '2'
_symmetry_cell_setting 'orthorhombic'
loop_
_space_group_symop_operation_xyz
x,y,z
1/2-x,1/2-y,z
1/2+x,-y,-z
-x,1/2+y,-z
-x,-y,-z
1/2+x,1/2+y,-z
1/2-x,y,z
x,1/2-y,z
loop_
_atom_site_type_symbol
_atom_site_label
_atom_site_fract_x
_atom_site_fract_y
_atom_site_fract_z
Si Si1 0.929403 0.923668 0.329231
Si Si2 0.576660 0.923825 0.676121
Si Si3 0.418174 0.911527 0.199706
Si Si4 0.414898 0.088628 0.809016
Si Si5 0.576591 0.417659 0.072525
Si Si6 0.169090 0.419237 0.554533
Si Si7 0.567266 0.080619 0.935544
Si Si8 0.332783 0.917961 0.427317
O O1 0.945727 0.750000 0.327171
O O2 0.894801 0.973220 0.261421
O O3 0.875692 0.967234 0.384386
O O4 0.001777 0.007630 0.341455
O O5 0.572259 0.750000 0.672347
O O6 0.602816 0.970252 0.746999
O O7 0.633191 0.982813 0.626684
O O8 0.393541 0.750000 0.223182
O O9 0.501239 0.911454 0.188312
O O10 0.385961 0.947263 0.128940
O O11 0.383250 0.250000 0.816921
O O12 0.383653 0.997666 0.868782
O O13 0.577805 0.250000 0.092300
O O14 0.496791 0.468479 0.065759
O O15 0.611177 0.444521 0.001809
O O16 0.250000 0.447204 0.571574
O O17 0.155754 0.250000 0.536518
O O18 0.144196 0.519159 0.495897
O O19 0.539835 0.250000 0.934664
O O20 0.250000 0.930779 0.418703
O O21 0.358440 0.750000 0.422224
#
# Coordination Sequence:
#
# PCOD8245128 Si02
#       8
#     8   8   8   8   8   8   8   8
#     4   9  18  32  48  67  95 127 154 184 228 279
#     4  11  21  31  47  71  96 122 154 191 227 265
#     4   8  14  26  40  54  80 116 149 183 225 271
#     4   8  14  24  36  52  79 115 147 176 217 265
#     4   9  14  19  30  49  73 104 144 184 218 256
#     4   9  18  34  55  75  93 116 150 192 232 267
#     4   8  14  22  31  46  72 108 144 177 219 266
#     4  10  21  37  55  72  92 120 150 181 224 277
#
# _framework density 17.569144999999999
#
# number of rings (size 3 to 8) (size 9 to 14) (size 15 to 20)
#    0.000    3.000    0.000    3.375    0.000    6.750 
#    0.000    0.000    0.000    0.000    0.000    0.000 
#    0.000    1.000    0.000    6.750    0.000    4.750 
#
# Total GULP energy -792872.991580 kJ/mol
# GULP energy per Si atom -12388.640493 kJ/mol
# Density = 1.752916 g / cm^3
# Si number density = 17.569145 Si / 1000 Ang^3
#
#
#
# Elastic Constant Matrix: (Units=GPa)
#
#
# Indices 1 2 3 4 5 6 
#
# 1 22.1902 22.6985 38.4561 0.0000 0.0000 0.0000
# 2 22.6985 88.3990 64.5904 0.0000 0.0000 0.0000
# 3 38.4561 64.5904 176.0726 0.0000 0.0000 0.0000
# 4 0.0000 0.0000 0.0000 33.7755 0.0000 0.0000
# 5 0.0000 0.0000 0.0000 0.0000 -1.0736 0.0000
# 6 0.0000 0.0000 0.0000 0.0000 0.0000 13.6787
#
#
#
# Elastic Compliance Matrix: (Units=1/GPa)
#
#
# Indices 1 2 3 4 5 6 
#
# 1 0.079049 -0.010496 -0.013415 0.000000 0.000000 0.000000
# 2 -0.010496 0.016848 -0.003888 0.000000 0.000000 0.000000
# 3 -0.013415 -0.003888 0.010036 0.000000 0.000000 0.000000
# 4 0.000000 0.000000 0.000000 0.029607 0.000000 0.000000
# 5 0.000000 0.000000 0.000000 0.000000 -0.931411 0.000000
# 6 0.000000 0.000000 0.000000 0.000000 0.000000 0.073106
#
#
# Mechanical properties :
#
#
# Convention : Reuss Voigt Hill
#
# Bulk Modulus (GPa) = 19.86669 59.79463 39.83066
# Shear Modulus (GPa) = -7.68774 20.00391 6.15809
#
# Velocity S-wave (km/s) = -2.09409 3.37795 1.87421
# Velocity P-wave (km/s) = 2.34208 7.02295 5.23484
#
# Compressibility (1/GPa) = 0.05033552
#
# Stress axis : x y z
#
# Youngs Moduli (GPa) = 12.65031 59.35257 99.64337
#
# Poissons Ratio (x) = 0.62296 1.33670
# Poissons Ratio (y) = 0.13278 0.38744
# Poissons Ratio (z) = 0.16970 0.23078
#
# Static dielectric constant tensor:
#      x y z
#    x 2.628900 0.000000 0.000000 
#    y 0.000000 3.316270 0.000000 
#    z 0.000000 0.000000 4.022430 
# 
# 
# High freq. dielectric constant tensor:
#      x y z
#    x 1.598770 0.000000 0.000000 
#    y 0.000000 1.679260 0.000000 
#    z 0.000000 0.000000 1.711720 
# 
# From -- ./inp_files/30831.got.cif
#   From: 2010.03.12/outbox.cif.g09.slc.cpg/sg59_16_cif.got.tgz:30831.got - 2010.04.16 16:29:54.
