data_PCOD8245525
_publ_section_title
;
Structure prediction by ZEFSAII (Michael W. Deem and Ramdas Pophale) SiO2 
 PCOD8245525
Probable space group: P M M N
;
_chemical_formula_sum "Si O2"
_cell_formula_units_Z 64
_cell_length_a 23.954906
_cell_length_b 14.607989
_cell_length_c 9.464237
_cell_angle_alpha 90.000000
_cell_angle_beta 90.000000
_cell_angle_gamma 90.000000
_cell_volume 3311.848878
_symmetry_space_group_name_H-M "P M M N"
_symmetry_group_IT_number 59
_space_group.IT_coordinate_system_code '2'
_symmetry_cell_setting 'orthorhombic'
loop_
_space_group_symop_operation_xyz
x,y,z
1/2-x,1/2-y,z
1/2+x,-y,-z
-x,1/2+y,-z
-x,-y,-z
1/2+x,1/2+y,-z
1/2-x,y,z
x,1/2-y,z
loop_
_atom_site_type_symbol
_atom_site_label
_atom_site_fract_x
_atom_site_fract_y
_atom_site_fract_z
Si Si1 0.858554 0.647777 0.395624
Si Si2 0.686608 0.143045 0.357330
Si Si3 0.378895 0.499948 0.141920
Si Si4 0.380163 0.996940 0.816933
Si Si5 0.494784 0.495492 0.272257
Si Si6 0.014694 0.145503 0.510272
Si Si7 0.686843 0.644565 0.686874
Si Si8 0.313962 0.856348 0.319576
O O1 0.842386 0.750000 0.346286
O O2 0.851159 0.582697 0.261130
O O3 0.920351 0.644526 0.457171
O O4 0.819063 0.613280 0.523266
O O5 0.750000 0.110597 0.326511
O O6 0.681439 0.250000 0.328172
O O7 0.642643 0.094829 0.254912
O O8 0.670185 0.120643 0.518868
O O9 0.445705 0.496491 0.157274
O O10 0.353731 0.409425 0.210657
O O11 0.354324 0.589483 0.216045
O O12 0.361941 0.501860 0.978794
O O13 0.446811 0.003568 0.808065
O O14 0.494879 0.399995 0.357753
O O15 0.483416 0.582998 0.373817
O O16 0.991170 0.250000 0.511605
O O17 0.750000 0.627309 0.735272
O O18 0.669064 0.750000 0.698568
O O19 0.250000 0.885366 0.291224
O O20 0.322357 0.750000 0.287629
#
# Coordination Sequence:
#
# PCOD8245525 Si02
#       8
#     8   8   8   8   8   8   8   8
#     4   9  18  37  60  82 107 142 189 237 283 330
#     4   9  20  40  63  86 113 147 192 243 289 336
#     4  12  23  37  56  83 122 158 188 228 288 344
#     4  11  24  37  55  84 121 158 187 226 283 348
#     4  10  22  37  54  84 117 150 192 232 278 342
#     4   9  18  35  60  84 106 139 190 242 281 318
#     4  10  21  38  61  86 110 143 193 245 288 334
#     4   9  20  39  62  86 112 148 195 243 288 336
#
# _framework density 19.324553999999999
#
# number of rings (size 3 to 8) (size 9 to 14) (size 15 to 20)
#    0.000    2.125    1.250    2.250    3.500    4.500 
#    0.000    1.250    0.000    6.000    0.000    0.000 
#    0.000    0.000    0.000    0.000    0.000    0.000 
#
# Total GULP energy -793701.466433 kJ/mol
# GULP energy per Si atom -12401.585413 kJ/mol
# Density = 1.928057 g / cm^3
# Si number density = 19.324554 Si / 1000 Ang^3
#
#
#
# Elastic Constant Matrix: (Units=GPa)
#
#
# Indices 1 2 3 4 5 6 
#
# 1 72.5204 32.8719 43.4199 0.0000 0.0000 0.0000
# 2 32.8719 110.3906 59.7771 0.0000 0.0000 0.0000
# 3 43.4199 59.7771 129.1142 0.0000 0.0000 0.0000
# 4 0.0000 0.0000 0.0000 -5.5382 0.0000 0.0000
# 5 0.0000 0.0000 0.0000 0.0000 17.4083 0.0000
# 6 0.0000 0.0000 0.0000 0.0000 0.0000 26.0841
#
#
#
# Elastic Compliance Matrix: (Units=1/GPa)
#
#
# Indices 1 2 3 4 5 6 
#
# 1 0.017874 -0.002759 -0.004733 0.000000 0.000000 0.000000
# 2 -0.002759 0.012516 -0.004867 0.000000 0.000000 0.000000
# 3 -0.004733 -0.004867 0.011590 0.000000 0.000000 0.000000
# 4 0.000000 0.000000 0.000000 -0.180565 0.000000 0.000000
# 5 0.000000 0.000000 0.000000 0.000000 0.057444 0.000000
# 6 0.000000 0.000000 0.000000 0.000000 0.000000 0.038338
#
#
# Mechanical properties :
#
#
# Convention : Reuss Voigt Hill
#
# Bulk Modulus (GPa) = 57.93359 64.90700 61.42030
# Shear Modulus (GPa) = -405.43822 19.32128 -193.05847
#
# Velocity S-wave (km/s) = -14.50035 3.16544 -10.00600
# Velocity P-wave (km/s) = 15.82095 6.85717 10.08171
#
# Compressibility (1/GPa) = 0.01726114
#
# Stress axis : x y z
#
# Youngs Moduli (GPa) = 55.94739 79.89978 86.28155
#
# Poissons Ratio (x) = 0.22047 0.40840
# Poissons Ratio (y) = 0.15438 0.41989
# Poissons Ratio (z) = 0.26482 0.38884
#
# Static dielectric constant tensor:
#      x y z
#    x 3.510430 0.000000 0.000000 
#    y 0.000000 3.687220 0.000000 
#    z 0.000000 0.000000 3.296610 
# 
# 
# High freq. dielectric constant tensor:
#      x y z
#    x 1.753490 0.000000 0.000000 
#    y 0.000000 1.761040 0.000000 
#    z 0.000000 0.000000 1.730960 
# 
# From -- ./inp_files/12194.got.cif
#   From: 2010.03.12/outbox.cif.g09.slc.cpg/sg59_7_cif.got.tgz:12194.got - 2010.04.16 16:29:54.
