data_PCOD8245670
_publ_section_title
;
Structure prediction by ZEFSAII (Michael W. Deem and Ramdas Pophale) SiO2 
 PCOD8245670
Probable space group: P M M N
;
_chemical_formula_sum "Si O2"
_cell_formula_units_Z 56
_cell_length_a 22.137753
_cell_length_b 8.846724
_cell_length_c 14.590063
_cell_angle_alpha 90.000000
_cell_angle_beta 90.000000
_cell_angle_gamma 90.000000
_cell_volume 2857.414098
_symmetry_space_group_name_H-M "P M M N"
_symmetry_group_IT_number 59
_space_group.IT_coordinate_system_code '2'
_symmetry_cell_setting 'orthorhombic'
loop_
_space_group_symop_operation_xyz
x,y,z
1/2-x,1/2-y,z
1/2+x,-y,-z
-x,1/2+y,-z
-x,-y,-z
1/2+x,1/2+y,-z
1/2-x,y,z
x,1/2-y,z
loop_
_atom_site_type_symbol
_atom_site_label
_atom_site_fract_x
_atom_site_fract_y
_atom_site_fract_z
Si Si1 0.182501 0.921263 0.001034
Si Si2 0.750000 0.928877 0.678970
Si Si3 0.645963 0.926758 0.818883
Si Si4 0.150427 0.429638 0.650111
Si Si5 0.250000 0.929691 0.522626
Si Si6 0.480073 0.574727 0.216908
Si Si7 0.107125 0.927789 0.824874
Si Si8 0.979112 0.921113 0.410614
O O1 0.250000 0.935492 0.959635
O O2 0.170727 0.750000 0.035384
O O3 0.133684 0.965441 0.924484
O O4 0.178019 0.035072 0.085896
O O5 0.750000 0.750000 0.662666
O O6 0.689975 0.977897 0.735568
O O7 0.750000 0.010753 0.581226
O O8 0.633466 0.750000 0.811852
O O9 0.582022 0.011177 0.821643
O O10 0.161527 0.250000 0.649914
O O11 0.193265 0.510223 0.578397
O O12 0.153646 0.491691 0.753877
O O13 0.085080 0.484455 0.618654
O O14 0.250000 0.750000 0.519985
O O15 0.487411 0.750000 0.190320
O O16 0.538677 0.489896 0.177103
O O17 0.475015 0.554090 0.326740
O O18 0.106507 0.750000 0.804369
O O19 0.971738 0.750000 0.438387
O O20 0.000000 0.000000 0.500000
#
# Coordination Sequence:
#
# PCOD8245670 Si02
#       8
#     8   4   8   8   4   8   8   8
#     4  10  22  40  63  91 124 160 199 249 305 362
#     4  10  24  44  61  86 123 158 199 254 306 362
#     4  11  23  41  65  91 120 158 205 254 304 364
#     4  10  22  41  60  87 124 161 198 248 302 356
#     4  12  26  40  61  90 119 162 209 248 296 358
#     4  10  22  40  60  87 122 161 202 250 307 362
#     4  10  21  39  64  94 125 160 203 250 303 365
#     4   9  20  36  57  83 114 151 196 241 292 351
#
# _framework density 19.598140000000001
#
# number of rings (size 3 to 8) (size 9 to 14) (size 15 to 20)
#    0.000    1.857    0.714    3.214    3.000    6.286 
#    0.000    0.000    0.000    0.000    0.000    0.000 
#    0.000    0.000    0.000    0.000    0.000    0.000 
#
# Total GULP energy -694283.090767 kJ/mol
# GULP energy per Si atom -12397.912335 kJ/mol
# Density = 1.955353 g / cm^3
# Si number density = 19.598140 Si / 1000 Ang^3
#
#
#
# Elastic Constant Matrix: (Units=GPa)
#
#
# Indices 1 2 3 4 5 6 
#
# 1 101.1766 43.2006 52.3858 0.0000 0.0000 0.0000
# 2 43.2006 86.5941 49.0559 0.0000 0.0000 0.0000
# 3 52.3858 49.0559 109.4574 0.0000 0.0000 0.0000
# 4 0.0000 0.0000 0.0000 38.7396 0.0000 0.0000
# 5 0.0000 0.0000 0.0000 0.0000 9.6966 0.0000
# 6 0.0000 0.0000 0.0000 0.0000 0.0000 27.4983
#
#
#
# Elastic Compliance Matrix: (Units=1/GPa)
#
#
# Indices 1 2 3 4 5 6 
#
# 1 0.014269 -0.004356 -0.004877 0.000000 0.000000 0.000000
# 2 -0.004356 0.016807 -0.005448 0.000000 0.000000 0.000000
# 3 -0.004877 -0.005448 0.013912 0.000000 0.000000 0.000000
# 4 0.000000 0.000000 0.000000 0.025813 0.000000 0.000000
# 5 0.000000 0.000000 0.000000 0.000000 0.103129 0.000000
# 6 0.000000 0.000000 0.000000 0.000000 0.000000 0.036366
#
#
# Mechanical properties :
#
#
# Convention : Reuss Voigt Hill
#
# Bulk Modulus (GPa) = 63.99319 65.16809 64.58064
# Shear Modulus (GPa) = 20.41934 25.35928 22.88931
#
# Velocity S-wave (km/s) = 3.23135 3.60107 3.42121
# Velocity P-wave (km/s) = 6.82977 7.11440 6.97354
#
# Compressibility (1/GPa) = 0.01562666
#
# Stress axis : x y z
#
# Youngs Moduli (GPa) = 70.08436 59.49742 71.88226
#
# Poissons Ratio (x) = 0.25915 0.35055
# Poissons Ratio (y) = 0.30526 0.39162
# Poissons Ratio (z) = 0.34178 0.32415
#
# Static dielectric constant tensor:
#      x y z
#    x 3.383250 0.000000 0.000000 
#    y 0.000000 3.497930 0.000000 
#    z 0.000000 0.000000 3.503800 
# 
# 
# High freq. dielectric constant tensor:
#      x y z
#    x 1.771460 0.000000 0.000000 
#    y 0.000000 1.769580 0.000000 
#    z 0.000000 0.000000 1.767180 
# 
# From -- ./inp_files/24398.got.cif
#   From: 2010.03.12/outbox.cif.g09.slc.cpg/sg59_13_cif.got.tgz:24398.got - 2010.04.16 16:29:54.
