data_PCOD8245636
_publ_section_title
;
Structure prediction by ZEFSAII (Michael W. Deem and Ramdas Pophale) SiO2 
 PCOD8245636
Probable space group: P M M N
;
_chemical_formula_sum "Si O2"
_cell_formula_units_Z 32
_cell_length_a 8.400296
_cell_length_b 13.437682
_cell_length_c 13.441211
_cell_angle_alpha 90.000000
_cell_angle_beta 90.000000
_cell_angle_gamma 90.000000
_cell_volume 1517.250704
_symmetry_space_group_name_H-M "P M M N"
_symmetry_group_IT_number 59
_space_group.IT_coordinate_system_code '2'
_symmetry_cell_setting 'orthorhombic'
loop_
_space_group_symop_operation_xyz
x,y,z
1/2-x,1/2-y,z
1/2+x,-y,-z
-x,1/2+y,-z
-x,-y,-z
1/2+x,1/2+y,-z
1/2-x,y,z
x,1/2-y,z
loop_
_atom_site_type_symbol
_atom_site_label
_atom_site_fract_x
_atom_site_fract_y
_atom_site_fract_z
Si Si1 0.060926 0.466449 0.394012
Si Si2 0.429120 0.750000 0.877847
Si Si3 0.064648 0.396113 0.972236
Si Si4 0.067260 0.250000 0.331157
Si Si5 0.565008 0.361777 0.757383
O O1 0.250000 0.464051 0.391953
O O2 0.991619 0.354674 0.371851
O O3 0.000950 0.550655 0.315429
O O4 0.000000 0.500000 0.500000
O O5 0.250000 0.750000 0.835056
O O6 0.551130 0.750000 0.786843
O O7 0.457643 0.658699 0.948531
O O8 0.250000 0.380086 0.994640
O O9 0.032810 0.366008 0.859085
O O10 0.000000 0.500000 0.000000
O O11 0.250000 0.250000 0.362246
O O12 0.750000 0.379604 0.781207
O O13 0.539714 0.250000 0.711236
#
# Coordination Sequence:
#
# PCOD8245636 Si02
#       5
#     8   4   8   4   8
#     4  10  23  41  64  92 123 165 211 265 324 380
#     4  12  24  40  63  94 129 168 211 258 316 380
#     4  12  24  39  62  93 129 171 214 260 313 374
#     4  10  22  42  63  90 129 168 213 264 320 382
#     4  10  21  39  62  90 126 166 213 265 319 380
#
# _framework density 21.090778
#
# number of rings (size 3 to 8) (size 9 to 14) (size 15 to 20)
#    0.000    1.250    1.250    4.875    1.750    4.000 
#    0.000    0.000    0.000    0.000    0.000    0.000 
#    0.000    0.000    0.000    0.000    0.000    0.000 
#
# Total GULP energy -396504.342718 kJ/mol
# GULP energy per Si atom -12390.760710 kJ/mol
# Density = 2.104277 g / cm^3
# Si number density = 21.090778 Si / 1000 Ang^3
#
#
#
# Elastic Constant Matrix: (Units=GPa)
#
#
# Indices 1 2 3 4 5 6 
#
# 1 48.6506 16.0249 2.7998 0.0000 0.0000 0.0000
# 2 16.0249 210.4271 67.3803 0.0000 0.0000 0.0000
# 3 2.7998 67.3803 125.5980 0.0000 0.0000 0.0000
# 4 0.0000 0.0000 0.0000 246.1050 0.0000 0.0000
# 5 0.0000 0.0000 0.0000 0.0000 37.3204 0.0000
# 6 0.0000 0.0000 0.0000 0.0000 0.0000 30.8301
#
#
#
# Elastic Compliance Matrix: (Units=1/GPa)
#
#
# Indices 1 2 3 4 5 6 
#
# 1 0.021107 -0.001759 0.000473 0.000000 0.000000 0.000000
# 2 -0.001759 0.005884 -0.003118 0.000000 0.000000 0.000000
# 3 0.000473 -0.003118 0.009624 0.000000 0.000000 0.000000
# 4 0.000000 0.000000 0.000000 0.004063 0.000000 0.000000
# 5 0.000000 0.000000 0.000000 0.000000 0.026795 0.000000
# 6 0.000000 0.000000 0.000000 0.000000 0.000000 0.032436
#
#
# Mechanical properties :
#
#
# Convention : Reuss Voigt Hill
#
# Bulk Modulus (GPa) = 35.96043 61.89841 48.92942
# Shear Modulus (GPa) = 42.37799 82.74914 62.56356
#
# Velocity S-wave (km/s) = 4.48740 6.27056 5.45237
# Velocity P-wave (km/s) = 6.62845 9.04648 7.93017
#
# Compressibility (1/GPa) = 0.02780834
#
# Stress axis : x y z
#
# Youngs Moduli (GPa) = 47.37797 169.93833 103.90777
#
# Poissons Ratio (x) = 0.29890 -0.04916
# Poissons Ratio (y) = 0.08333 0.32395
# Poissons Ratio (z) = -0.02241 0.52981
#
# Static dielectric constant tensor:
#      x y z
#    x 3.875120 0.000000 0.000000 
#    y 0.000000 4.728670 0.000000 
#    z 0.000000 0.000000 3.869540 
# 
# 
# High freq. dielectric constant tensor:
#      x y z
#    x 1.809690 0.000000 0.000000 
#    y 0.000000 1.861540 0.000000 
#    z 0.000000 0.000000 1.821970 
# 
# From -- ./inp_files/13627.got.cif
#   From: 2010.03.12/outbox.cif.g09.slc.cpg/sg59_7_cif.got.tgz:13627.got - 2010.04.16 16:29:54.
