data_PCOD8245874
_publ_section_title
;
Structure prediction by ZEFSAII (Michael W. Deem and Ramdas Pophale) SiO2 
 PCOD8245874
Probable space group: P M M N
;
_chemical_formula_sum "Si O2"
_cell_formula_units_Z 48
_cell_length_a 8.590281
_cell_length_b 15.728982
_cell_length_c 16.848409
_cell_angle_alpha 90.000000
_cell_angle_beta 90.000000
_cell_angle_gamma 90.000000
_cell_volume 2276.495952
_symmetry_space_group_name_H-M "P M M N"
_symmetry_group_IT_number 59
_space_group.IT_coordinate_system_code '2'
_symmetry_cell_setting 'orthorhombic'
loop_
_space_group_symop_operation_xyz
x,y,z
1/2-x,1/2-y,z
1/2+x,-y,-z
-x,1/2+y,-z
-x,-y,-z
1/2+x,1/2+y,-z
1/2-x,y,z
x,1/2-y,z
loop_
_atom_site_type_symbol
_atom_site_label
_atom_site_fract_x
_atom_site_fract_y
_atom_site_fract_z
Si Si1 0.430376 0.586386 0.153273
Si Si2 0.430703 0.155018 0.694261
Si Si3 0.931239 0.091315 0.163394
Si Si4 0.566032 0.001096 0.412577
Si Si5 0.427539 0.347953 0.004033
Si Si6 0.930050 0.655241 0.685123
O O1 0.250000 0.597883 0.133442
O O2 0.478247 0.651052 0.222494
O O3 0.469471 0.492348 0.183060
O O4 0.527694 0.599355 0.073275
O O5 0.250000 0.138736 0.712561
O O6 0.457332 0.250000 0.658679
O O7 0.493931 0.083558 0.633367
O O8 0.750000 0.070995 0.173255
O O9 0.987319 0.158455 0.228955
O O10 0.961574 0.127275 0.076182
O O11 0.750000 0.000385 0.416422
O O12 0.511163 0.087097 0.371094
O O13 0.500000 0.000000 0.500000
O O14 0.250000 0.369282 0.027503
O O15 0.450915 0.250000 0.983026
O O16 0.750000 0.631003 0.695005
O O17 0.948225 0.750000 0.648294
#
# Coordination Sequence:
#
# PCOD8245874 Si02
#       6
#     8   8   8   8   8   8
#     4  12  24  39  62  91 126 167 215 267 321 380
#     4  10  22  42  67  95 129 171 216 263 322 387
#     4  12  24  40  63  91 126 168 216 268 323 382
#     4  11  24  43  69  99 134 174 214 265 324 387
#     4  11  24  41  60  86 124 168 215 267 322 379
#     4  11  24  43  68  98 133 173 217 268 327 387
#
# _framework density 21.085037
#
# number of rings (size 3 to 8) (size 9 to 14) (size 15 to 20)
#    0.000    0.833    1.667    6.000    0.000    8.333 
#    0.000    1.667    0.000    0.000    0.000    0.000 
#    0.000    0.000    0.000    0.000    0.000    0.000 
#
# Total GULP energy -595464.616547 kJ/mol
# GULP energy per Si atom -12405.512845 kJ/mol
# Density = 2.103705 g / cm^3
# Si number density = 21.085037 Si / 1000 Ang^3
#
#
#
# Elastic Constant Matrix: (Units=GPa)
#
#
# Indices 1 2 3 4 5 6 
#
# 1 80.4691 36.4562 29.8969 0.0000 0.0000 0.0000
# 2 36.4562 115.5553 46.0080 0.0000 0.0000 0.0000
# 3 29.8969 46.0080 134.0006 0.0000 0.0000 0.0000
# 4 0.0000 0.0000 0.0000 17.1365 0.0000 0.0000
# 5 0.0000 0.0000 0.0000 0.0000 37.8837 0.0000
# 6 0.0000 0.0000 0.0000 0.0000 0.0000 32.7786
#
#
#
# Elastic Compliance Matrix: (Units=1/GPa)
#
#
# Indices 1 2 3 4 5 6 
#
# 1 0.014943 -0.003923 -0.001987 0.000000 0.000000 0.000000
# 2 -0.003923 0.011054 -0.002920 0.000000 0.000000 0.000000
# 3 -0.001987 -0.002920 0.008909 0.000000 0.000000 0.000000
# 4 0.000000 0.000000 0.000000 0.058355 0.000000 0.000000
# 5 0.000000 0.000000 0.000000 0.000000 0.026397 0.000000
# 6 0.000000 0.000000 0.000000 0.000000 0.000000 0.030508
#
#
# Mechanical properties :
#
#
# Convention : Reuss Voigt Hill
#
# Bulk Modulus (GPa) = 57.98718 61.63860 59.81289
# Shear Modulus (GPa) = 28.80629 32.07069 30.43849
#
# Velocity S-wave (km/s) = 3.70022 3.90425 3.80360
# Velocity P-wave (km/s) = 6.76881 7.04422 6.90789
#
# Compressibility (1/GPa) = 0.01724519
#
# Stress axis : x y z
#
# Youngs Moduli (GPa) = 66.92232 90.46343 112.25200
#
# Poissons Ratio (x) = 0.35490 0.22303
# Poissons Ratio (y) = 0.26255 0.32778
# Poissons Ratio (z) = 0.13297 0.26416
#
# Static dielectric constant tensor:
#      x y z
#    x 3.844470 0.000000 0.000000 
#    y 0.000000 3.990690 0.000000 
#    z 0.000000 0.000000 3.745100 
# 
# 
# High freq. dielectric constant tensor:
#      x y z
#    x 1.832300 0.000000 0.000000 
#    y 0.000000 1.840530 0.000000 
#    z 0.000000 0.000000 1.822270 
# 
# From -- ./inp_files/25429.got.cif
#   From: 2010.03.12/outbox.cif.g09.slc.cpg/sg59_13_cif.got.tgz:25429.got - 2010.04.16 16:29:54.
