data_PCOD8245288
_publ_section_title
;
Structure prediction by ZEFSAII (Michael W. Deem and Ramdas Pophale) SiO2 
 PCOD8245288
Probable space group: P M M N
;
_chemical_formula_sum "Si O2"
_cell_formula_units_Z 40
_cell_length_a 14.915293
_cell_length_b 17.825136
_cell_length_c 7.340051
_cell_angle_alpha 90.000000
_cell_angle_beta 90.000000
_cell_angle_gamma 90.000000
_cell_volume 1951.478266
_symmetry_space_group_name_H-M "P M M N"
_symmetry_group_IT_number 59
_space_group.IT_coordinate_system_code '2'
_symmetry_cell_setting 'orthorhombic'
loop_
_space_group_symop_operation_xyz
x,y,z
1/2-x,1/2-y,z
1/2+x,-y,-z
-x,1/2+y,-z
-x,-y,-z
1/2+x,1/2+y,-z
1/2-x,y,z
x,1/2-y,z
loop_
_atom_site_type_symbol
_atom_site_label
_atom_site_fract_x
_atom_site_fract_y
_atom_site_fract_z
Si Si1 0.969477 0.335774 0.656680
Si Si2 0.462373 0.835425 0.914414
Si Si3 0.845523 0.664801 0.960616
Si Si4 0.353865 0.921899 0.624826
Si Si5 0.151796 0.404211 0.659043
O O1 0.948998 0.250000 0.609631
O O2 0.897255 0.385887 0.553654
O O3 0.069908 0.354281 0.583184
O O4 0.959721 0.352853 0.870688
O O5 0.433151 0.750000 0.874419
O O6 0.565041 0.850079 0.841406
O O7 0.396546 0.890555 0.810528
O O8 0.750000 0.656844 0.851400
O O9 0.854219 0.750000 0.040914
O O10 0.842973 0.605959 0.124251
O O11 0.250000 0.900831 0.627240
O O12 0.370418 0.010036 0.615206
O O13 0.250000 0.382001 0.575248
#
# Coordination Sequence:
#
# PCOD8245288 Si02
#       5
#     8   8   8   8   8
#     4  10  21  37  58  82 108 142 182 223 268 318
#     4   9  19  35  55  79 105 138 179 218 262 318
#     4   8  14  28  52  79 106 136 171 215 268 324
#     4  11  23  37  54  78 110 145 181 224 269 313
#     4   9  18  34  56  82 110 139 174 220 275 328
#
# _framework density 20.497281000000001
#
# number of rings (size 3 to 8) (size 9 to 14) (size 15 to 20)
#    0.000    2.600    0.000    3.000    0.000    6.800 
#    0.000    3.000    0.000   10.800    0.000    0.000 
#    0.000    0.000    0.000    0.000    0.000    0.000 
#
# Total GULP energy -495626.780580 kJ/mol
# GULP energy per Si atom -12390.669514 kJ/mol
# Density = 2.045063 g / cm^3
# Si number density = 20.497281 Si / 1000 Ang^3
#
#
#
# Elastic Constant Matrix: (Units=GPa)
#
#
# Indices 1 2 3 4 5 6 
#
# 1 129.3004 16.7665 27.1011 0.0000 0.0000 0.0000
# 2 16.7665 28.0093 11.3176 0.0000 0.0000 0.0000
# 3 27.1011 11.3176 57.1757 0.0000 0.0000 0.0000
# 4 0.0000 0.0000 0.0000 -3.2435 0.0000 0.0000
# 5 0.0000 0.0000 0.0000 0.0000 9.4309 0.0000
# 6 0.0000 0.0000 0.0000 0.0000 0.0000 35.0865
#
#
#
# Elastic Compliance Matrix: (Units=1/GPa)
#
#
# Indices 1 2 3 4 5 6 
#
# 1 0.008976 -0.003972 -0.003468 0.000000 0.000000 0.000000
# 2 -0.003972 0.040563 -0.006147 0.000000 0.000000 0.000000
# 3 -0.003468 -0.006147 0.020351 0.000000 0.000000 0.000000
# 4 0.000000 0.000000 0.000000 -0.308309 0.000000 0.000000
# 5 0.000000 0.000000 0.000000 0.000000 0.106035 0.000000
# 6 0.000000 0.000000 0.000000 0.000000 0.000000 0.028501
#
#
# Mechanical properties :
#
#
# Convention : Reuss Voigt Hill
#
# Bulk Modulus (GPa) = 23.41013 36.09510 29.75262
# Shear Modulus (GPa) = -80.03674 18.87479 -30.58098
#
# Velocity S-wave (km/s) = -6.25558 3.03783 -3.86677
# Velocity P-wave (km/s) = 6.38204 5.47289 2.32142
#
# Compressibility (1/GPa) = 0.04271654
#
# Stress axis : x y z
#
# Youngs Moduli (GPa) = 111.40944 24.65272 49.13838
#
# Poissons Ratio (x) = 0.09791 0.17043
# Poissons Ratio (y) = 0.44247 0.30204
# Poissons Ratio (z) = 0.38641 0.15154
#
# Static dielectric constant tensor:
#      x y z
#    x 4.149310 0.000000 0.000000 
#    y 0.000000 3.621770 0.000000 
#    z 0.000000 0.000000 3.257690 
# 
# 
# High freq. dielectric constant tensor:
#      x y z
#    x 1.821500 0.000000 0.000000 
#    y 0.000000 1.798240 0.000000 
#    z 0.000000 0.000000 1.766490 
# 
# From -- ./inp_files/8791.got.cif
#   From: 2010.03.12/outbox.cif.g09.slc.cpg/sg59_5_cif.got.tgz:8791.got - 2010.04.16 16:29:54.
