data_PCOD8245518
_publ_section_title
;
Structure prediction by ZEFSAII (Michael W. Deem and Ramdas Pophale) SiO2 
 PCOD8245518
Probable space group: P M M N
;
_chemical_formula_sum "Si O2"
_cell_formula_units_Z 32
_cell_length_a 12.523969
_cell_length_b 15.493194
_cell_length_c 7.955080
_cell_angle_alpha 90.000000
_cell_angle_beta 90.000000
_cell_angle_gamma 90.000000
_cell_volume 1543.574141
_symmetry_space_group_name_H-M "P M M N"
_symmetry_group_IT_number 59
_space_group.IT_coordinate_system_code '2'
_symmetry_cell_setting 'orthorhombic'
loop_
_space_group_symop_operation_xyz
x,y,z
1/2-x,1/2-y,z
1/2+x,-y,-z
-x,1/2+y,-z
-x,-y,-z
1/2+x,1/2+y,-z
1/2-x,y,z
x,1/2-y,z
loop_
_atom_site_type_symbol
_atom_site_label
_atom_site_fract_x
_atom_site_fract_y
_atom_site_fract_z
Si Si1 0.372958 0.250000 0.984700
Si Si2 0.870646 0.057432 0.166234
Si Si3 0.125796 0.250000 0.379834
Si Si4 0.481301 0.894367 0.148275
Si Si5 0.026194 0.899047 0.513178
O O1 0.250000 0.250000 0.938909
O O2 0.422395 0.333048 0.899486
O O3 0.393700 0.250000 0.181952
O O4 0.750000 0.021256 0.166866
O O5 0.888757 0.115294 0.335060
O O6 0.889035 0.111109 0.993759
O O7 0.963112 0.986878 0.166067
O O8 0.250000 0.250000 0.427364
O O9 0.076417 0.338405 0.453372
O O10 0.428466 0.870693 0.329404
O O11 0.000000 0.000000 0.500000
#
# Coordination Sequence:
#
# PCOD8245518 Si02
#       5
#     4   8   4   8   8
#     4  11  21  37  65  95 125 160 207 266 326 376
#     4  10  21  39  60  86 123 163 204 254 312 375
#     4  11  23  41  67  97 129 168 215 272 326 384
#     4  10  21  38  60  90 121 158 206 255 312 377
#     4  10  22  40  62  93 131 166 210 266 322 383
#
# _framework density 20.731107000000002
#
# number of rings (size 3 to 8) (size 9 to 14) (size 15 to 20)
#    0.000    1.750    2.500    1.500    0.000    7.000 
#    0.000    2.500    0.000    3.000    0.000    0.000 
#    0.000    0.000    0.000    0.000    0.000    0.000 
#
# Total GULP energy -396457.923760 kJ/mol
# GULP energy per Si atom -12389.310118 kJ/mol
# Density = 2.068392 g / cm^3
# Si number density = 20.731107 Si / 1000 Ang^3
#
#
#
# Elastic Constant Matrix: (Units=GPa)
#
#
# Indices 1 2 3 4 5 6 
#
# 1 82.6661 19.7633 57.8523 0.0000 0.0000 0.0000
# 2 19.7633 84.5883 24.8639 0.0000 0.0000 0.0000
# 3 57.8523 24.8639 214.9388 0.0000 0.0000 0.0000
# 4 0.0000 0.0000 0.0000 33.2520 0.0000 0.0000
# 5 0.0000 0.0000 0.0000 0.0000 17.1570 0.0000
# 6 0.0000 0.0000 0.0000 0.0000 0.0000 48.1503
#
#
#
# Elastic Compliance Matrix: (Units=1/GPa)
#
#
# Indices 1 2 3 4 5 6 
#
# 1 0.015384 -0.002461 -0.003856 0.000000 0.000000 0.000000
# 2 -0.002461 0.012632 -0.000799 0.000000 0.000000 0.000000
# 3 -0.003856 -0.000799 0.005783 0.000000 0.000000 0.000000
# 4 0.000000 0.000000 0.000000 0.030073 0.000000 0.000000
# 5 0.000000 0.000000 0.000000 0.000000 0.058285 0.000000
# 6 0.000000 0.000000 0.000000 0.000000 0.000000 0.020768
#
#
# Mechanical properties :
#
#
# Convention : Reuss Voigt Hill
#
# Bulk Modulus (GPa) = 51.10687 65.23914 58.17301
# Shear Modulus (GPa) = 30.54761 38.35943 34.45352
#
# Velocity S-wave (km/s) = 3.84280 4.30622 4.08109
# Velocity P-wave (km/s) = 6.66298 7.50081 7.09428
#
# Compressibility (1/GPa) = 0.01956684
#
# Stress axis : x y z
#
# Youngs Moduli (GPa) = 65.00383 79.16566 172.92782
#
# Poissons Ratio (x) = 0.19481 0.66680
# Poissons Ratio (y) = 0.15996 0.13815
# Poissons Ratio (z) = 0.25065 0.06324
#
# Static dielectric constant tensor:
#      x y z
#    x 3.307220 0.000000 0.000000 
#    y 0.000000 3.513650 0.000000 
#    z 0.000000 0.000000 5.021890 
# 
# 
# High freq. dielectric constant tensor:
#      x y z
#    x 1.772940 0.000000 0.000000 
#    y 0.000000 1.796080 0.000000 
#    z 0.000000 0.000000 1.853330 
# 
# From -- ./inp_files/6856.got.cif
#   From: 2010.03.12/outbox.cif.g09.slc.cpg/sg59_4_cif.got.tgz:6856.got - 2010.04.16 16:29:54.
