data_PCOD8245030
_publ_section_title
;
Structure prediction by ZEFSAII (Michael W. Deem and Ramdas Pophale) SiO2 
 PCOD8245030
Probable space group: P M M N
;
_chemical_formula_sum "Si O2"
_cell_formula_units_Z 64
_cell_length_a 14.394929
_cell_length_b 8.977121
_cell_length_c 26.126507
_cell_angle_alpha 90.000000
_cell_angle_beta 90.000000
_cell_angle_gamma 90.000000
_cell_volume 3376.198374
_symmetry_space_group_name_H-M "P M M N"
_symmetry_group_IT_number 59
_space_group.IT_coordinate_system_code '2'
_symmetry_cell_setting 'orthorhombic'
loop_
_space_group_symop_operation_xyz
x,y,z
1/2-x,1/2-y,z
1/2+x,-y,-z
-x,1/2+y,-z
-x,-y,-z
1/2+x,1/2+y,-z
1/2-x,y,z
x,1/2-y,z
loop_
_atom_site_type_symbol
_atom_site_label
_atom_site_fract_x
_atom_site_fract_y
_atom_site_fract_z
Si Si1 0.009774 0.425849 0.054587
Si Si2 0.642652 0.077984 0.503193
Si Si3 0.140268 0.920704 0.131412
Si Si4 0.859584 0.920322 0.765299
Si Si5 0.987323 0.074511 0.687418
Si Si6 0.145381 0.923822 0.866254
Si Si7 0.354197 0.424311 0.763815
Si Si8 0.989414 0.577255 0.579364
O O1 0.022368 0.250000 0.048581
O O2 0.917551 0.469057 0.085905
O O3 0.098871 0.492064 0.083251
O O4 0.000000 0.500000 0.000000
O O5 0.750000 0.033643 0.493691
O O6 0.633606 0.250000 0.519886
O O7 0.584711 0.048659 0.451514
O O8 0.600630 0.976294 0.547914
O O9 0.250000 0.933799 0.126330
O O10 0.106913 0.750000 0.130987
O O11 0.105113 0.994665 0.184087
O O12 0.750000 0.932411 0.759722
O O13 0.892754 0.750000 0.769422
O O14 0.901030 0.996157 0.714942
O O15 0.969805 0.250000 0.687571
O O16 0.081818 0.029356 0.716415
O O17 0.996925 0.018291 0.630174
O O18 0.250000 0.977838 0.878474
O O19 0.141434 0.750000 0.855678
O O20 0.106402 0.001698 0.815336
O O21 0.250000 0.481722 0.751918
O O22 0.355779 0.250000 0.773130
O O23 0.975990 0.750000 0.592772
#
# Coordination Sequence:
#
# PCOD8245030 Si02
#       8
#     8   8   8   8   8   8   8   8
#     4  11  23  37  55  80 109 141 180 226 275 327
#     4   9  19  38  61  81 105 141 183 225 270 321
#     4  10  21  38  59  81 108 143 181 223 273 329
#     4  10  21  37  57  81 109 142 181 224 270 322
#     4  11  22  35  54  80 113 149 180 218 267 317
#     4   9  19  36  56  77 103 137 175 215 263 319
#     4   9  19  35  54  78 107 139 176 215 257 310
#     4  10  21  36  55  82 112 141 179 224 269 318
#
# _framework density 18.956233000000001
#
# number of rings (size 3 to 8) (size 9 to 14) (size 15 to 20)
#    0.000    2.125    0.000    2.625    0.000    7.750 
#    0.000    1.250    0.000    0.000    0.000    0.000 
#    0.000    0.000    0.000    0.000    0.000    0.000 
#
# Total GULP energy -793849.729486 kJ/mol
# GULP energy per Si atom -12403.902023 kJ/mol
# Density = 1.891309 g / cm^3
# Si number density = 18.956233 Si / 1000 Ang^3
#
#
#
# Elastic Constant Matrix: (Units=GPa)
#
#
# Indices 1 2 3 4 5 6 
#
# 1 84.4711 47.0519 50.8729 0.0000 0.0000 0.0000
# 2 47.0519 96.1808 59.6140 0.0000 0.0000 0.0000
# 3 50.8729 59.6140 136.0201 0.0000 0.0000 0.0000
# 4 0.0000 0.0000 0.0000 39.7361 0.0000 0.0000
# 5 0.0000 0.0000 0.0000 0.0000 18.1196 0.0000
# 6 0.0000 0.0000 0.0000 0.0000 0.0000 27.1990
#
#
#
# Elastic Compliance Matrix: (Units=1/GPa)
#
#
# Indices 1 2 3 4 5 6 
#
# 1 0.017638 -0.006233 -0.003865 0.000000 0.000000 0.000000
# 2 -0.006233 0.016477 -0.004890 0.000000 0.000000 0.000000
# 3 -0.003865 -0.004890 0.010941 0.000000 0.000000 0.000000
# 4 0.000000 0.000000 0.000000 0.025166 0.000000 0.000000
# 5 0.000000 0.000000 0.000000 0.000000 0.055189 0.000000
# 6 0.000000 0.000000 0.000000 0.000000 0.000000 0.036766
#
#
# Mechanical properties :
#
#
# Convention : Reuss Voigt Hill
#
# Bulk Modulus (GPa) = 66.31602 70.19438 68.25520
# Shear Modulus (GPa) = 25.35751 27.61982 26.48867
#
# Velocity S-wave (km/s) = 3.66141 3.82125 3.74218
# Velocity P-wave (km/s) = 7.27559 7.52192 7.39978
#
# Compressibility (1/GPa) = 0.01507931
#
# Stress axis : x y z
#
# Youngs Moduli (GPa) = 56.69592 60.68923 91.40129
#
# Poissons Ratio (x) = 0.37827 0.35327
# Poissons Ratio (y) = 0.35338 0.44699
# Poissons Ratio (z) = 0.21913 0.29680
#
# Static dielectric constant tensor:
#      x y z
#    x 3.642280 0.000000 0.000000 
#    y 0.000000 3.533900 0.000000 
#    z 0.000000 0.000000 3.452340 
# 
# 
# High freq. dielectric constant tensor:
#      x y z
#    x 1.744120 0.000000 0.000000 
#    y 0.000000 1.745540 0.000000 
#    z 0.000000 0.000000 1.733750 
# 
# From -- ./inp_files/31485.got.cif
#   From: 2010.03.12/outbox.cif.g09.slc.cpg/sg59_16_cif.got.tgz:31485.got - 2010.04.16 16:29:54.
