data_PCOD8245240
_publ_section_title
;
Structure prediction by ZEFSAII (Michael W. Deem and Ramdas Pophale) SiO2 
 PCOD8245240
Probable space group: P M M N
;
_chemical_formula_sum "Si O2"
_cell_formula_units_Z 64
_cell_length_a 25.344322
_cell_length_b 9.134320
_cell_length_c 14.264323
_cell_angle_alpha 90.000000
_cell_angle_beta 90.000000
_cell_angle_gamma 90.000000
_cell_volume 3302.235669
_symmetry_space_group_name_H-M "P M M N"
_symmetry_group_IT_number 59
_space_group.IT_coordinate_system_code '2'
_symmetry_cell_setting 'orthorhombic'
loop_
_space_group_symop_operation_xyz
x,y,z
1/2-x,1/2-y,z
1/2+x,-y,-z
-x,1/2+y,-z
-x,-y,-z
1/2+x,1/2+y,-z
1/2-x,y,z
x,1/2-y,z
loop_
_atom_site_type_symbol
_atom_site_label
_atom_site_fract_x
_atom_site_fract_y
_atom_site_fract_z
Si Si1 0.689877 0.920582 0.919265
Si Si2 0.897030 0.580635 0.383590
Si Si3 0.638554 0.416376 0.084075
Si Si4 0.807937 0.576379 0.709740
Si Si5 0.689887 0.077076 0.272984
Si Si6 0.409242 0.422209 0.401555
Si Si7 0.496011 0.577152 0.279661
Si Si8 0.984283 0.081348 0.094080
O O1 0.750000 0.955286 0.948479
O O2 0.678034 0.750000 0.924253
O O3 0.678758 0.980769 0.814510
O O4 0.649773 0.996499 0.989659
O O5 0.882456 0.750000 0.375545
O O6 0.845444 0.491625 0.354312
O O7 0.911740 0.539093 0.489409
O O8 0.945919 0.539212 0.317588
O O9 0.655220 0.250000 0.065366
O O10 0.671785 0.481783 0.171006
O O11 0.577757 0.431020 0.110347
O O12 0.750000 0.516671 0.678268
O O13 0.805225 0.750000 0.713523
O O14 0.852598 0.523838 0.637804
O O15 0.750000 0.029452 0.290502
O O16 0.682259 0.250000 0.276859
O O17 0.418340 0.250000 0.382425
O O18 0.454406 0.515670 0.353176
O O19 0.487835 0.750000 0.267570
O O20 0.486742 0.497878 0.180490
O O21 0.002860 0.250000 0.089361
O O22 0.000000 0.000000 0.000000
#
# Coordination Sequence:
#
# PCOD8245240 Si02
#       8
#     8   8   8   8   8   8   8   8
#     4   9  18  32  52  79 109 144 185 227 274 332
#     4  10  22  39  59  86 118 152 197 249 299 350
#     4  10  21  37  57  81 112 149 189 235 288 346
#     4   8  16  33  55  81 113 146 183 230 284 341
#     4  10  21  38  60  85 116 156 199 244 299 360
#     4  10  21  37  61  89 113 151 200 244 295 351
#     4  11  23  40  60  86 120 156 194 243 294 350
#     4  11  24  41  61  87 118 155 192 237 293 351
#
# _framework density 19.380807999999998
#
# number of rings (size 3 to 8) (size 9 to 14) (size 15 to 20)
#    0.000    2.125    1.250    2.250    1.750    4.000 
#    0.000    1.250    0.000    1.125    0.000    0.000 
#    0.000    0.000    0.000    0.000    0.000    0.000 
#
# Total GULP energy -793738.233300 kJ/mol
# GULP energy per Si atom -12402.159895 kJ/mol
# Density = 1.933670 g / cm^3
# Si number density = 19.380808 Si / 1000 Ang^3
#
#
#
# Elastic Constant Matrix: (Units=GPa)
#
#
# Indices 1 2 3 4 5 6 
#
# 1 88.0590 46.0696 44.8988 0.0000 0.0000 0.0000
# 2 46.0696 70.3929 52.7947 0.0000 0.0000 0.0000
# 3 44.8988 52.7947 124.7576 0.0000 0.0000 0.0000
# 4 0.0000 0.0000 0.0000 28.6553 0.0000 0.0000
# 5 0.0000 0.0000 0.0000 0.0000 28.5331 0.0000
# 6 0.0000 0.0000 0.0000 0.0000 0.0000 28.4554
#
#
#
# Elastic Compliance Matrix: (Units=1/GPa)
#
#
# Indices 1 2 3 4 5 6 
#
# 1 0.017652 -0.009944 -0.002145 0.000000 0.000000 0.000000
# 2 -0.009944 0.026413 -0.007599 0.000000 0.000000 0.000000
# 3 -0.002145 -0.007599 0.012003 0.000000 0.000000 0.000000
# 4 0.000000 0.000000 0.000000 0.034898 0.000000 0.000000
# 5 0.000000 0.000000 0.000000 0.000000 0.035047 0.000000
# 6 0.000000 0.000000 0.000000 0.000000 0.000000 0.035143
#
#
# Mechanical properties :
#
#
# Convention : Reuss Voigt Hill
#
# Bulk Modulus (GPa) = 59.90466 63.41509 61.65987
# Shear Modulus (GPa) = 24.26075 26.42518 25.34296
#
# Velocity S-wave (km/s) = 3.54191 3.69653 3.62004
# Velocity P-wave (km/s) = 6.90675 7.14218 7.02545
#
# Compressibility (1/GPa) = 0.01669319
#
# Stress axis : x y z
#
# Youngs Moduli (GPa) = 56.65107 37.86016 83.31292
#
# Poissons Ratio (x) = 0.37648 0.17867
# Poissons Ratio (y) = 0.56334 0.63306
# Poissons Ratio (z) = 0.12149 0.28769
#
# Static dielectric constant tensor:
#      x y z
#    x 3.718580 0.000000 0.000000 
#    y 0.000000 3.405300 0.000000 
#    z 0.000000 0.000000 3.588460 
# 
# 
# High freq. dielectric constant tensor:
#      x y z
#    x 1.760960 0.000000 0.000000 
#    y 0.000000 1.735240 0.000000 
#    z 0.000000 0.000000 1.762640 
# 
# From -- ./inp_files/21433.got.cif
#   From: 2010.03.12/outbox.cif.g09.slc.cpg/sg59_11_cif.got.tgz:21433.got - 2010.04.16 16:29:54.
