data_PCOD8245738
_publ_section_title
;
Structure prediction by ZEFSAII (Michael W. Deem and Ramdas Pophale) SiO2 
 PCOD8245738
Probable space group: P M M N
;
_chemical_formula_sum "Si O2"
_cell_formula_units_Z 40
_cell_length_a 24.986579
_cell_length_b 13.657501
_cell_length_c 4.897248
_cell_angle_alpha 90.000000
_cell_angle_beta 90.000000
_cell_angle_gamma 90.000000
_cell_volume 1671.206584
_symmetry_space_group_name_H-M "P M M N"
_symmetry_group_IT_number 59
_space_group.IT_coordinate_system_code '2'
_symmetry_cell_setting 'orthorhombic'
loop_
_space_group_symop_operation_xyz
x,y,z
1/2-x,1/2-y,z
1/2+x,-y,-z
-x,1/2+y,-z
-x,-y,-z
1/2+x,1/2+y,-z
1/2-x,y,z
x,1/2-y,z
loop_
_atom_site_type_symbol
_atom_site_label
_atom_site_fract_x
_atom_site_fract_y
_atom_site_fract_z
Si Si1 0.413319 0.642311 0.731996
Si Si2 0.192302 0.583500 0.474054
Si Si3 0.807498 0.952833 0.028964
Si Si4 0.523269 0.638657 0.463255
Si Si5 0.078955 0.443698 0.038953
O O1 0.421264 0.750000 0.870373
O O2 0.358166 0.648737 0.559932
O O3 0.460787 0.622214 0.516377
O O4 0.414010 0.558090 0.961457
O O5 0.250000 0.638358 0.514703
O O6 0.187697 0.549870 0.160476
O O7 0.192136 0.485177 0.656677
O O8 0.750000 0.898470 0.968073
O O9 0.862158 0.890810 0.980494
O O10 0.540824 0.750000 0.518966
O O11 0.535428 0.609904 0.151082
O O12 0.558156 0.566073 0.653078
#
# Coordination Sequence:
#
# PCOD8245738 Si02
#       5
#     8   8   8   8   8
#     4  10  22  38  59  90 123 158 200 244 293 358
#     4   9  18  34  54  81 118 155 190 229 278 343
#     4   9  18  34  58  85 112 148 191 236 289 346
#     4  11  24  40  60  86 118 156 203 254 302 353
#     4  11  21  40  63  86 118 158 197 245 305 358
#
# _framework density 23.934804
#
# number of rings (size 3 to 8) (size 9 to 14) (size 15 to 20)
#    0.000    2.000    0.000    4.200    0.000    3.600 
#    0.000   15.000    0.000   13.200    0.000    0.000 
#    0.000    0.000    0.000    0.000    0.000    0.000 
#
# Total GULP energy -495613.453951 kJ/mol
# GULP energy per Si atom -12390.336349 kJ/mol
# Density = 2.388033 g / cm^3
# Si number density = 23.934804 Si / 1000 Ang^3
#
#
#
# Elastic Constant Matrix: (Units=GPa)
#
#
# Indices 1 2 3 4 5 6 
#
# 1 170.8374 19.8358 -2.3028 0.0000 0.0000 0.0000
# 2 19.8358 70.4430 9.5529 0.0000 0.0000 0.0000
# 3 -2.3028 9.5529 63.4026 0.0000 0.0000 0.0000
# 4 0.0000 0.0000 0.0000 11.7805 0.0000 0.0000
# 5 0.0000 0.0000 0.0000 0.0000 30.5428 0.0000
# 6 0.0000 0.0000 0.0000 0.0000 0.0000 -1.8035
#
#
#
# Elastic Compliance Matrix: (Units=1/GPa)
#
#
# Indices 1 2 3 4 5 6 
#
# 1 0.006066 -0.001774 0.000488 0.000000 0.000000 0.000000
# 2 -0.001774 0.015011 -0.002326 0.000000 0.000000 0.000000
# 3 0.000488 -0.002326 0.016140 0.000000 0.000000 0.000000
# 4 0.000000 0.000000 0.000000 0.084886 0.000000 0.000000
# 5 0.000000 0.000000 0.000000 0.000000 0.032741 0.000000
# 6 0.000000 0.000000 0.000000 0.000000 0.000000 -0.554477
#
#
# Mechanical properties :
#
#
# Convention : Reuss Voigt Hill
#
# Bulk Modulus (GPa) = 33.34229 39.87276 36.60753
# Shear Modulus (GPa) = -13.07497 26.61045 6.76774
#
# Velocity S-wave (km/s) = -2.33979 3.33797 1.68336
# Velocity P-wave (km/s) = 2.58094 5.61704 4.37106
#
# Compressibility (1/GPa) = 0.02999194
#
# Stress axis : x y z
#
# Youngs Moduli (GPa) = 164.85055 66.61807 61.95628
#
# Poissons Ratio (x) = 0.11820 -0.03021
# Poissons Ratio (y) = 0.29249 0.14412
# Poissons Ratio (z) = -0.08039 0.15496
#
# Static dielectric constant tensor:
#      x y z
#    x 5.128840 0.000000 0.000000 
#    y 0.000000 3.726950 0.000000 
#    z 0.000000 0.000000 4.028360 
# 
# 
# High freq. dielectric constant tensor:
#      x y z
#    x 1.990790 0.000000 0.000000 
#    y 0.000000 1.881170 0.000000 
#    z 0.000000 0.000000 1.948360 
# 
# From -- ./inp_files/2067.got.cif
#   From: 2010.03.12/outbox.cif.g09.slc.cpg/sg59_2_cif.got.tgz:2067.got - 2010.04.16 16:29:54.
