data_PCOD8245470
_publ_section_title
;
Structure prediction by ZEFSAII (Michael W. Deem and Ramdas Pophale) SiO2 
 PCOD8245470
Probable space group: P M M N
;
_chemical_formula_sum "Si O2"
_cell_formula_units_Z 40
_cell_length_a 15.891139
_cell_length_b 8.937615
_cell_length_c 14.403430
_cell_angle_alpha 90.000000
_cell_angle_beta 90.000000
_cell_angle_gamma 90.000000
_cell_volume 2045.703064
_symmetry_space_group_name_H-M "P M M N"
_symmetry_group_IT_number 59
_space_group.IT_coordinate_system_code '2'
_symmetry_cell_setting 'orthorhombic'
loop_
_space_group_symop_operation_xyz
x,y,z
1/2-x,1/2-y,z
1/2+x,-y,-z
-x,1/2+y,-z
-x,-y,-z
1/2+x,1/2+y,-z
1/2-x,y,z
x,1/2-y,z
loop_
_atom_site_type_symbol
_atom_site_label
_atom_site_fract_x
_atom_site_fract_y
_atom_site_fract_z
Si Si1 0.750000 0.573000 0.790720
Si Si2 0.846098 0.421497 0.297651
Si Si3 0.585935 0.926295 0.468309
Si Si4 0.102804 0.923207 0.097618
Si Si5 0.569258 0.421304 0.108537
Si Si6 0.250000 0.072299 0.420760
O O1 0.750000 0.750000 0.791097
O O2 0.832561 0.517694 0.842638
O O3 0.750000 0.512860 0.684914
O O4 0.750000 0.462016 0.315844
O O5 0.866250 0.250000 0.323616
O O6 0.901878 0.529427 0.361083
O O7 0.864755 0.451746 0.189898
O O8 0.577208 0.750000 0.478325
O O9 0.665485 0.987460 0.528273
O O10 0.500000 0.000000 0.500000
O O11 0.116839 0.750000 0.120714
O O12 0.116310 0.956960 0.988247
O O13 0.009042 0.970080 0.125641
O O14 0.536649 0.250000 0.107932
O O15 0.250000 0.250000 0.424566
#
# Coordination Sequence:
#
# PCOD8245470 Si02
#       6
#     4   8   8   8   8   4
#     4  11  23  39  60  83 114 158 199 235 290 357
#     4  10  21  38  62  90 117 154 197 239 291 357
#     4  11  23  42  64  89 119 156 198 249 303 356
#     4  10  21  38  59  87 119 152 197 247 286 337
#     4   9  20  38  61  84 119 159 192 233 293 355
#     4   9  22  43  62  81 116 158 197 239 296 361
#
# _framework density 19.553180000000001
#
# number of rings (size 3 to 8) (size 9 to 14) (size 15 to 20)
#    0.000    2.000    1.000    1.500    4.200    1.600 
#    0.000    3.000    0.000    0.000    0.000    0.000 
#    0.000    0.000    0.000    0.000    0.000    0.000 
#
# Total GULP energy -496097.333765 kJ/mol
# GULP energy per Si atom -12402.433344 kJ/mol
# Density = 1.950868 g / cm^3
# Si number density = 19.553180 Si / 1000 Ang^3
#
#
#
# Elastic Constant Matrix: (Units=GPa)
#
#
# Indices 1 2 3 4 5 6 
#
# 1 108.9044 40.4380 58.9986 0.0000 0.0000 0.0000
# 2 40.4380 66.8072 38.9263 0.0000 0.0000 0.0000
# 3 58.9986 38.9263 122.9832 0.0000 0.0000 0.0000
# 4 0.0000 0.0000 0.0000 31.3987 0.0000 0.0000
# 5 0.0000 0.0000 0.0000 0.0000 36.0279 0.0000
# 6 0.0000 0.0000 0.0000 0.0000 0.0000 27.6770
#
#
#
# Elastic Compliance Matrix: (Units=1/GPa)
#
#
# Indices 1 2 3 4 5 6 
#
# 1 0.013907 -0.005555 -0.004913 0.000000 0.000000 0.000000
# 2 -0.005555 0.020572 -0.003847 0.000000 0.000000 0.000000
# 3 -0.004913 -0.003847 0.011706 0.000000 0.000000 0.000000
# 4 0.000000 0.000000 0.000000 0.031848 0.000000 0.000000
# 5 0.000000 0.000000 0.000000 0.000000 0.027756 0.000000
# 6 0.000000 0.000000 0.000000 0.000000 0.000000 0.036131
#
#
# Mechanical properties :
#
#
# Convention : Reuss Voigt Hill
#
# Bulk Modulus (GPa) = 56.96351 63.93565 60.44958
# Shear Modulus (GPa) = 28.34445 29.70951 29.02698
#
# Velocity S-wave (km/s) = 3.81150 3.90220 3.85712
# Velocity P-wave (km/s) = 6.96893 7.28507 7.12875
#
# Compressibility (1/GPa) = 0.01755510
#
# Stress axis : x y z
#
# Youngs Moduli (GPa) = 71.90774 48.60965 85.42832
#
# Poissons Ratio (x) = 0.27002 0.41973
# Poissons Ratio (y) = 0.39944 0.32861
# Poissons Ratio (z) = 0.35330 0.18698
#
# Static dielectric constant tensor:
#      x y z
#    x 3.598150 0.000000 0.000000 
#    y 0.000000 3.502050 0.000000 
#    z 0.000000 0.000000 3.738090 
# 
# 
# High freq. dielectric constant tensor:
#      x y z
#    x 1.763340 0.000000 0.000000 
#    y 0.000000 1.753880 0.000000 
#    z 0.000000 0.000000 1.773130 
# 
# From -- ./inp_files/19949.got.cif
#   From: 2010.03.12/outbox.cif.g09.slc.cpg/sg59_10_cif.got.tgz:19949.got - 2010.04.16 16:29:54.
