data_PCOD8245606
_publ_section_title
;
Structure prediction by ZEFSAII (Michael W. Deem and Ramdas Pophale) SiO2 
 PCOD8245606
Probable space group: P M M N
;
_chemical_formula_sum "Si O2"
_cell_formula_units_Z 56
_cell_length_a 8.977447
_cell_length_b 19.093923
_cell_length_c 16.244957
_cell_angle_alpha 90.000000
_cell_angle_beta 90.000000
_cell_angle_gamma 90.000000
_cell_volume 2784.624134
_symmetry_space_group_name_H-M "P M M N"
_symmetry_group_IT_number 59
_space_group.IT_coordinate_system_code '2'
_symmetry_cell_setting 'orthorhombic'
loop_
_space_group_symop_operation_xyz
x,y,z
1/2-x,1/2-y,z
1/2+x,-y,-z
-x,1/2+y,-z
-x,-y,-z
1/2+x,1/2+y,-z
1/2-x,y,z
x,1/2-y,z
loop_
_atom_site_type_symbol
_atom_site_label
_atom_site_fract_x
_atom_site_fract_y
_atom_site_fract_z
Si Si1 0.579703 0.554235 0.263396
Si Si2 0.079495 0.169804 0.492097
Si Si3 0.073271 0.329004 0.858562
Si Si4 0.575373 0.452460 0.568829
Si Si5 0.917339 0.667829 0.695013
Si Si6 0.426141 0.075452 0.007962
Si Si7 0.580963 0.415124 0.170758
O O1 0.750000 0.558981 0.294476
O O2 0.526611 0.628209 0.223867
O O3 0.477560 0.529758 0.339070
O O4 0.564872 0.497407 0.190638
O O5 0.250000 0.158983 0.520412
O O6 0.032230 0.250000 0.499862
O O7 0.059956 0.143005 0.398782
O O8 0.969992 0.127604 0.551584
O O9 0.250000 0.325098 0.863431
O O10 0.006092 0.250000 0.855389
O O11 0.014324 0.370411 0.938933
O O12 0.500000 0.500000 0.500000
O O13 0.750000 0.464000 0.563476
O O14 0.750000 0.648618 0.723764
O O15 0.944140 0.750000 0.701871
O O16 0.038601 0.629074 0.749274
O O17 0.250000 0.066269 0.002358
O O18 0.473609 0.106922 0.096096
O O19 0.500000 0.000000 0.000000
O O20 0.750000 0.397244 0.146496
#
# Coordination Sequence:
#
# PCOD8245606 Si02
#       7
#     8   8   8   8   8   8   8
#     4  10  21  39  60  85 116 152 197 247 298 358
#     4   9  19  38  62  85 113 152 196 242 298 360
#     4   9  19  38  63  89 117 153 198 244 291 350
#     4  12  25  39  58  87 121 156 200 250 301 357
#     4   9  19  36  57  83 114 150 194 240 288 347
#     4  11  21  37  61  88 117 154 198 243 293 350
#     4  11  22  36  57  87 118 151 194 239 294 355
#
# _framework density 20.110433
#
# number of rings (size 3 to 8) (size 9 to 14) (size 15 to 20)
#    0.000    1.857    1.429    3.857    0.000    5.714 
#    0.000    4.286    0.000    3.000    0.000    0.000 
#    0.000    0.000    0.000    0.000    0.000    0.000 
#
# Total GULP energy -694487.409145 kJ/mol
# GULP energy per Si atom -12401.560878 kJ/mol
# Density = 2.006466 g / cm^3
# Si number density = 20.110433 Si / 1000 Ang^3
#
#
#
# Elastic Constant Matrix: (Units=GPa)
#
#
# Indices 1 2 3 4 5 6 
#
# 1 92.6619 29.2137 40.8865 0.0000 0.0000 0.0000
# 2 29.2137 66.9996 31.8949 0.0000 0.0000 0.0000
# 3 40.8865 31.8949 94.7764 0.0000 0.0000 0.0000
# 4 0.0000 0.0000 0.0000 35.2466 0.0000 0.0000
# 5 0.0000 0.0000 0.0000 0.0000 35.2816 0.0000
# 6 0.0000 0.0000 0.0000 0.0000 0.0000 27.6937
#
#
#
# Elastic Compliance Matrix: (Units=1/GPa)
#
#
# Indices 1 2 3 4 5 6 
#
# 1 0.014129 -0.003881 -0.004789 0.000000 0.000000 0.000000
# 2 -0.003881 0.018839 -0.004666 0.000000 0.000000 0.000000
# 3 -0.004789 -0.004666 0.014187 0.000000 0.000000 0.000000
# 4 0.000000 0.000000 0.000000 0.028372 0.000000 0.000000
# 5 0.000000 0.000000 0.000000 0.000000 0.028343 0.000000
# 6 0.000000 0.000000 0.000000 0.000000 0.000000 0.036109
#
#
# Mechanical properties :
#
#
# Convention : Reuss Voigt Hill
#
# Bulk Modulus (GPa) = 48.81923 50.93645 49.87784
# Shear Modulus (GPa) = 28.82225 29.80724 29.31475
#
# Velocity S-wave (km/s) = 3.78987 3.85408 3.82211
# Velocity P-wave (km/s) = 6.59387 6.72225 6.65837
#
# Compressibility (1/GPa) = 0.02048373
#
# Stress axis : x y z
#
# Youngs Moduli (GPa) = 70.77874 53.08263 70.48570
#
# Poissons Ratio (x) = 0.20599 0.33756
# Poissons Ratio (y) = 0.27466 0.32886
# Poissons Ratio (z) = 0.33897 0.24766
#
# Static dielectric constant tensor:
#      x y z
#    x 3.469230 0.000000 0.000000 
#    y 0.000000 3.812310 0.000000 
#    z 0.000000 0.000000 3.739010 
# 
# 
# High freq. dielectric constant tensor:
#      x y z
#    x 1.762840 0.000000 0.000000 
#    y 0.000000 1.789670 0.000000 
#    z 0.000000 0.000000 1.790510 
# 
# From -- ./inp_files/20944.got.cif
#   From: 2010.03.12/outbox.cif.g09.slc.cpg/sg59_11_cif.got.tgz:20944.got - 2010.04.16 16:29:54.
