data_PCOD8245894
_publ_section_title
;
Structure prediction by ZEFSAII (Michael W. Deem and Ramdas Pophale) SiO2 
 PCOD8245894
Probable space group: P M M N
;
_chemical_formula_sum "Si O2"
_cell_formula_units_Z 64
_cell_length_a 23.538133
_cell_length_b 8.721517
_cell_length_c 15.335325
_cell_angle_alpha 90.000000
_cell_angle_beta 90.000000
_cell_angle_gamma 90.000000
_cell_volume 3148.161681
_symmetry_space_group_name_H-M "P M M N"
_symmetry_group_IT_number 59
_space_group.IT_coordinate_system_code '2'
_symmetry_cell_setting 'orthorhombic'
loop_
_space_group_symop_operation_xyz
x,y,z
1/2-x,1/2-y,z
1/2+x,-y,-z
-x,1/2+y,-z
-x,-y,-z
1/2+x,1/2+y,-z
1/2-x,y,z
x,1/2-y,z
loop_
_atom_site_type_symbol
_atom_site_label
_atom_site_fract_x
_atom_site_fract_y
_atom_site_fract_z
Si Si1 0.497549 0.428177 0.905385
Si Si2 0.611038 0.931097 0.338396
Si Si3 0.383499 0.927303 0.346277
Si Si4 0.501799 0.930528 0.595534
Si Si5 0.123682 0.575594 0.150018
Si Si6 0.684334 0.927844 0.503751
Si Si7 0.885660 0.430381 0.161416
Si Si8 0.684426 0.572008 0.006594
O O1 0.482061 0.250000 0.913494
O O2 0.556719 0.455977 0.857072
O O3 0.449777 0.511716 0.849420
O O4 0.500000 0.500000 0.000000
O O5 0.606941 0.750000 0.332378
O O6 0.649550 0.983606 0.419418
O O7 0.548281 0.999759 0.346683
O O8 0.639389 0.995343 0.249815
O O9 0.400484 0.750000 0.358993
O O10 0.358564 0.956048 0.249709
O O11 0.438598 0.031224 0.359993
O O12 0.334342 0.973052 0.413461
O O13 0.494071 0.750000 0.588834
O O14 0.500000 0.000000 0.500000
O O15 0.137357 0.750000 0.122174
O O16 0.159080 0.463347 0.088407
O O17 0.750000 0.958662 0.484518
O O18 0.672036 0.750000 0.523507
O O19 0.885722 0.250000 0.171129
O O20 0.847507 0.474833 0.079391
O O21 0.750000 0.524827 0.007466
O O22 0.675630 0.750000 0.027101
#
# Coordination Sequence:
#
# PCOD8245894 Si02
#       8
#     8   8   8   8   8   8   8   8
#     4  11  21  37  63  94 128 164 204 253 310 374
#     4  11  23  41  65  93 127 166 209 261 315 375
#     4  11  23  40  64  94 128 166 209 256 310 376
#     4  12  23  38  63  95 130 167 206 255 315 378
#     4  10  23  41  63  92 126 164 205 252 312 373
#     4  10  23  43  65  89 121 164 212 261 314 370
#     4  12  25  41  64  95 129 167 207 255 315 378
#     4  11  25  44  66  91 121 163 214 265 315 370
#
# _framework density 20.329325000000001
#
# number of rings (size 3 to 8) (size 9 to 14) (size 15 to 20)
#    0.000    1.000    2.500    4.500    0.000    5.250 
#    0.000    3.750    0.000    0.000    0.000    0.000 
#    0.000    0.000    0.000    0.000    0.000    0.000 
#
# Total GULP energy -794040.713859 kJ/mol
# GULP energy per Si atom -12406.886154 kJ/mol
# Density = 2.028305 g / cm^3
# Si number density = 20.329325 Si / 1000 Ang^3
#
#
#
# Elastic Constant Matrix: (Units=GPa)
#
#
# Indices 1 2 3 4 5 6 
#
# 1 90.0466 32.4904 33.9227 0.0000 0.0000 0.0000
# 2 32.4904 108.6681 47.6071 0.0000 0.0000 0.0000
# 3 33.9227 47.6071 138.9103 0.0000 0.0000 0.0000
# 4 0.0000 0.0000 0.0000 37.6202 0.0000 0.0000
# 5 0.0000 0.0000 0.0000 0.0000 8.7635 0.0000
# 6 0.0000 0.0000 0.0000 0.0000 0.0000 29.0760
#
#
#
# Elastic Compliance Matrix: (Units=1/GPa)
#
#
# Indices 1 2 3 4 5 6 
#
# 1 0.012979 -0.002932 -0.002165 0.000000 0.000000 0.000000
# 2 -0.002932 0.011491 -0.003222 0.000000 0.000000 0.000000
# 3 -0.002165 -0.003222 0.008832 0.000000 0.000000 0.000000
# 4 0.000000 0.000000 0.000000 0.026581 0.000000 0.000000
# 5 0.000000 0.000000 0.000000 0.000000 0.114110 0.000000
# 6 0.000000 0.000000 0.000000 0.000000 0.000000 0.034393
#
#
# Mechanical properties :
#
#
# Convention : Reuss Voigt Hill
#
# Bulk Modulus (GPa) = 60.01109 62.85171 61.43140
# Shear Modulus (GPa) = 21.68474 29.99891 25.84182
#
# Velocity S-wave (km/s) = 3.26954 3.84558 3.56920
# Velocity P-wave (km/s) = 6.62093 7.12053 6.87527
#
# Compressibility (1/GPa) = 0.01666359
#
# Stress axis : x y z
#
# Youngs Moduli (GPa) = 77.04868 87.02797 113.22817
#
# Poissons Ratio (x) = 0.25518 0.24509
# Poissons Ratio (y) = 0.22592 0.36482
# Poissons Ratio (z) = 0.16678 0.28040
#
# Static dielectric constant tensor:
#      x y z
#    x 3.690050 0.000000 0.000000 
#    y 0.000000 3.848470 0.000000 
#    z 0.000000 0.000000 3.875110 
# 
# 
# High freq. dielectric constant tensor:
#      x y z
#    x 1.788060 0.000000 0.000000 
#    y 0.000000 1.802580 0.000000 
#    z 0.000000 0.000000 1.811000 
# 
# From -- ./inp_files/24674.got.cif
#   From: 2010.03.12/outbox.cif.g09.slc.cpg/sg59_13_cif.got.tgz:24674.got - 2010.04.16 16:29:54.
