data_PCOD8245020
_publ_section_title
;
Structure prediction by ZEFSAII (Michael W. Deem and Ramdas Pophale) SiO2 
 PCOD8245020
Probable space group: P M M N
;
_chemical_formula_sum "Si O2"
_cell_formula_units_Z 40
_cell_length_a 24.907977
_cell_length_b 9.152530
_cell_length_c 9.196535
_cell_angle_alpha 90.000000
_cell_angle_beta 90.000000
_cell_angle_gamma 90.000000
_cell_volume 2096.543342
_symmetry_space_group_name_H-M "P M M N"
_symmetry_group_IT_number 59
_space_group.IT_coordinate_system_code '2'
_symmetry_cell_setting 'orthorhombic'
loop_
_space_group_symop_operation_xyz
x,y,z
1/2-x,1/2-y,z
1/2+x,-y,-z
-x,1/2+y,-z
-x,-y,-z
1/2+x,1/2+y,-z
1/2-x,y,z
x,1/2-y,z
loop_
_atom_site_type_symbol
_atom_site_label
_atom_site_fract_x
_atom_site_fract_y
_atom_site_fract_z
Si Si1 0.908593 0.918967 0.668479
Si Si2 0.189419 0.082204 0.134405
Si Si3 0.187812 0.579807 0.845345
Si Si4 0.103477 0.419858 0.663256
Si Si5 0.001233 0.578133 0.153647
O O1 0.925413 0.750000 0.689569
O O2 0.848689 0.947532 0.728463
O O3 0.910047 0.965452 0.500931
O O4 0.949243 0.021423 0.753169
O O5 0.250000 0.038320 0.180212
O O6 0.186476 0.250000 0.084622
O O7 0.168952 0.988115 0.998232
O O8 0.250000 0.545128 0.816745
O O9 0.175638 0.750000 0.852025
O O10 0.154987 0.510242 0.713601
O O11 0.118042 0.250000 0.672841
O O12 0.053192 0.461138 0.762828
O O13 0.007537 0.750000 0.129748
O O14 0.000000 0.500000 0.000000
#
# Coordination Sequence:
#
# PCOD8245020 Si02
#       5
#     8   8   8   8   8
#     4  10  21  37  57  82 110 140 179 225 272 323
#     4   9  18  34  56  80 106 138 177 220 265 316
#     4  10  21  36  55  81 111 143 181 223 266 315
#     4  10  22  38  56  80 110 144 181 222 270 325
#     4  11  23  38  57  81 109 143 183 225 271 323
#
# _framework density 19.079025000000001
#
# number of rings (size 3 to 8) (size 9 to 14) (size 15 to 20)
#    0.000    2.000    0.000    3.000    0.000   10.000 
#    0.000    2.000    0.000    2.400    0.000    0.000 
#    0.000    0.000    0.000    0.000    0.000    0.000 
#
# Total GULP energy -496207.411287 kJ/mol
# GULP energy per Si atom -12405.185282 kJ/mol
# Density = 1.903560 g / cm^3
# Si number density = 19.079025 Si / 1000 Ang^3
#
#
#
# Elastic Constant Matrix: (Units=GPa)
#
#
# Indices 1 2 3 4 5 6 
#
# 1 99.0846 59.8347 74.2009 0.0000 0.0000 0.0000
# 2 59.8347 80.2579 69.9360 0.0000 0.0000 0.0000
# 3 74.2009 69.9360 163.1462 0.0000 0.0000 0.0000
# 4 0.0000 0.0000 0.0000 27.7938 0.0000 0.0000
# 5 0.0000 0.0000 0.0000 0.0000 24.7439 0.0000
# 6 0.0000 0.0000 0.0000 0.0000 0.0000 34.2964
#
#
#
# Elastic Compliance Matrix: (Units=1/GPa)
#
#
# Indices 1 2 3 4 5 6 
#
# 1 0.020115 -0.011213 -0.004342 0.000000 0.000000 0.000000
# 2 -0.011213 0.026140 -0.006106 0.000000 0.000000 0.000000
# 3 -0.004342 -0.006106 0.010722 0.000000 0.000000 0.000000
# 4 0.000000 0.000000 0.000000 0.035979 0.000000 0.000000
# 5 0.000000 0.000000 0.000000 0.000000 0.040414 0.000000
# 6 0.000000 0.000000 0.000000 0.000000 0.000000 0.029158
#
#
# Mechanical properties :
#
#
# Convention : Reuss Voigt Hill
#
# Bulk Modulus (GPa) = 73.23044 83.38131 78.30588
# Shear Modulus (GPa) = 23.76429 26.60129 25.18279
#
# Velocity S-wave (km/s) = 3.53309 3.73804 3.63701
# Velocity P-wave (km/s) = 7.42359 7.90118 7.66610
#
# Compressibility (1/GPa) = 0.01365552
#
# Stress axis : x y z
#
# Youngs Moduli (GPa) = 49.71395 38.25599 93.27013
#
# Poissons Ratio (x) = 0.42896 0.40498
# Poissons Ratio (y) = 0.55743 0.56947
# Poissons Ratio (z) = 0.21586 0.23358
#
# Static dielectric constant tensor:
#      x y z
#    x 3.612150 0.000000 0.000000 
#    y 0.000000 3.525050 0.000000 
#    z 0.000000 0.000000 3.608000 
# 
# 
# High freq. dielectric constant tensor:
#      x y z
#    x 1.751640 0.000000 0.000000 
#    y 0.000000 1.741990 0.000000 
#    z 0.000000 0.000000 1.745480 
# 
# From -- ./inp_files/5634.got.cif
#   From: 2010.03.12/outbox.cif.g09.slc.cpg/sg59_3_cif.got.tgz:5634.got - 2010.04.16 16:29:54.
