data_PCOD8245850
_publ_section_title
;
Structure prediction by ZEFSAII (Michael W. Deem and Ramdas Pophale) SiO2 
 PCOD8245850
Probable space group: P M M N
;
_chemical_formula_sum "Si O2"
_cell_formula_units_Z 56
_cell_length_a 8.832999
_cell_length_b 15.130364
_cell_length_c 21.050252
_cell_angle_alpha 90.000000
_cell_angle_beta 90.000000
_cell_angle_gamma 90.000000
_cell_volume 2813.292295
_symmetry_space_group_name_H-M "P M M N"
_symmetry_group_IT_number 59
_space_group.IT_coordinate_system_code '2'
_symmetry_cell_setting 'orthorhombic'
loop_
_space_group_symop_operation_xyz
x,y,z
1/2-x,1/2-y,z
1/2+x,-y,-z
-x,1/2+y,-z
-x,-y,-z
1/2+x,1/2+y,-z
1/2-x,y,z
x,1/2-y,z
loop_
_atom_site_type_symbol
_atom_site_label
_atom_site_fract_x
_atom_site_fract_y
_atom_site_fract_z
Si Si1 0.424167 0.406595 0.489257
Si Si2 0.070892 0.492455 0.844262
Si Si3 0.927590 0.005611 0.710277
Si Si4 0.574520 0.852019 0.914308
Si Si5 0.421977 0.348905 0.628505
Si Si6 0.570049 0.847819 0.057175
Si Si7 0.076226 0.649774 0.636881
O O1 0.500000 0.500000 0.500000
O O2 0.250000 0.420525 0.469915
O O3 0.441097 0.349280 0.552711
O O4 0.506941 0.355133 0.433151
O O5 0.250000 0.487665 0.839562
O O6 0.005864 0.420291 0.894107
O O7 0.002686 0.468316 0.776514
O O8 0.022189 0.589960 0.865692
O O9 0.750000 0.997711 0.719415
O O10 0.988976 0.911883 0.686277
O O11 0.963889 0.082174 0.659884
O O12 0.750000 0.877519 0.907344
O O13 0.548302 0.750000 0.896485
O O14 0.515813 0.870950 0.985854
O O15 0.250000 0.375170 0.646848
O O16 0.459453 0.250000 0.652583
O O17 0.750000 0.846949 0.057664
O O18 0.510377 0.750000 0.076550
O O19 0.250000 0.618682 0.633671
O O20 0.062120 0.750000 0.661685
#
# Coordination Sequence:
#
# PCOD8245850 Si02
#       7
#     8   8   8   8   8   8   8
#     4  11  21  36  63  94 124 156 192 238 293 349
#     4  11  22  36  58  85 116 153 194 239 289 346
#     4  12  26  42  60  83 116 158 201 248 295 349
#     4   9  18  35  59  86 117 151 189 234 284 341
#     4  10  22  41  64  88 118 156 196 239 290 349
#     4   8  16  33  58  87 116 149 189 232 282 342
#     4  11  24  42  64  89 118 153 196 247 301 356
#
# _framework density 19.905501999999998
#
# number of rings (size 3 to 8) (size 9 to 14) (size 15 to 20)
#    0.000    1.714    1.429    4.286    0.000    4.000 
#    0.000    2.143    0.000    3.000    0.000    0.000 
#    0.000    0.000    0.000    0.000    0.000    0.000 
#
# Total GULP energy -694583.870930 kJ/mol
# GULP energy per Si atom -12403.283409 kJ/mol
# Density = 1.986020 g / cm^3
# Si number density = 19.905502 Si / 1000 Ang^3
#
#
#
# Elastic Constant Matrix: (Units=GPa)
#
#
# Indices 1 2 3 4 5 6 
#
# 1 91.6295 31.7765 23.2352 0.0000 0.0000 0.0000
# 2 31.7765 91.5034 18.4831 0.0000 0.0000 0.0000
# 3 23.2352 18.4831 67.9458 0.0000 0.0000 0.0000
# 4 0.0000 0.0000 0.0000 16.4304 0.0000 0.0000
# 5 0.0000 0.0000 0.0000 0.0000 32.8121 0.0000
# 6 0.0000 0.0000 0.0000 0.0000 0.0000 23.2693
#
#
#
# Elastic Compliance Matrix: (Units=1/GPa)
#
#
# Indices 1 2 3 4 5 6 
#
# 1 0.013125 -0.003864 -0.003437 0.000000 0.000000 0.000000
# 2 -0.003864 0.012701 -0.002134 0.000000 0.000000 0.000000
# 3 -0.003437 -0.002134 0.016474 0.000000 0.000000 0.000000
# 4 0.000000 0.000000 0.000000 0.060863 0.000000 0.000000
# 5 0.000000 0.000000 0.000000 0.000000 0.030477 0.000000
# 6 0.000000 0.000000 0.000000 0.000000 0.000000 0.042975
#
#
# Mechanical properties :
#
#
# Convention : Reuss Voigt Hill
#
# Bulk Modulus (GPa) = 42.67984 44.22978 43.45481
# Shear Modulus (GPa) = 24.59492 26.34128 25.46810
#
# Velocity S-wave (km/s) = 3.51890 3.64169 3.58082
# Velocity P-wave (km/s) = 6.16425 6.32065 6.24294
#
# Compressibility (1/GPa) = 0.02343026
#
# Stress axis : x y z
#
# Youngs Moduli (GPa) = 76.19039 78.73201 60.70347
#
# Poissons Ratio (x) = 0.30419 0.20866
# Poissons Ratio (y) = 0.29437 0.12953
# Poissons Ratio (z) = 0.26189 0.16800
#
# Static dielectric constant tensor:
#      x y z
#    x 3.543750 0.000000 0.000000 
#    y 0.000000 3.694750 0.000000 
#    z 0.000000 0.000000 3.666650 
# 
# 
# High freq. dielectric constant tensor:
#      x y z
#    x 1.765980 0.000000 0.000000 
#    y 0.000000 1.786880 0.000000 
#    z 0.000000 0.000000 1.774340 
# 
# From -- ./inp_files/29092.got.cif
#   From: 2010.03.12/outbox.cif.g09.slc.cpg/sg59_15_cif.got.tgz:29092.got - 2010.04.16 16:29:54.
