data_PCOD8245756
_publ_section_title
;
Structure prediction by ZEFSAII (Michael W. Deem and Ramdas Pophale) SiO2 
 PCOD8245756
Probable space group: P M M N
;
_chemical_formula_sum "Si O2"
_cell_formula_units_Z 64
_cell_length_a 20.861538
_cell_length_b 8.881090
_cell_length_c 17.763822
_cell_angle_alpha 90.000000
_cell_angle_beta 90.000000
_cell_angle_gamma 90.000000
_cell_volume 3291.160084
_symmetry_space_group_name_H-M "P M M N"
_symmetry_group_IT_number 59
_space_group.IT_coordinate_system_code '2'
_symmetry_cell_setting 'orthorhombic'
loop_
_space_group_symop_operation_xyz
x,y,z
1/2-x,1/2-y,z
1/2+x,-y,-z
-x,1/2+y,-z
-x,-y,-z
1/2+x,1/2+y,-z
1/2-x,y,z
x,1/2-y,z
loop_
_atom_site_type_symbol
_atom_site_label
_atom_site_fract_x
_atom_site_fract_y
_atom_site_fract_z
Si Si1 0.859630 0.920292 0.857050
Si Si2 0.426743 0.572929 0.578813
Si Si3 0.820957 0.580822 0.010146
Si Si4 0.500546 0.078497 0.082249
Si Si5 0.677396 0.929219 0.696507
Si Si6 0.175955 0.927266 0.702571
Si Si7 0.388397 0.429461 0.845562
Si Si8 0.571817 0.927673 0.580217
O O1 0.833838 0.750000 0.849533
O O2 0.840841 0.999387 0.778346
O O3 0.933656 0.926596 0.875696
O O4 0.824919 0.000991 0.928737
O O5 0.421658 0.750000 0.566929
O O6 0.372674 0.516773 0.637489
O O7 0.411058 0.495328 0.500320
O O8 0.499051 0.528266 0.605831
O O9 0.750000 0.585165 0.041719
O O10 0.848957 0.750000 0.998689
O O11 0.861219 0.502957 0.075616
O O12 0.523807 0.250000 0.070684
O O13 0.540242 0.993102 0.148090
O O14 0.500000 0.000000 0.000000
O O15 0.750000 0.978614 0.674367
O O16 0.671437 0.750000 0.697480
O O17 0.624679 0.993642 0.638075
O O18 0.250000 0.971112 0.683605
O O19 0.169440 0.750000 0.714334
O O20 0.153893 0.007300 0.778353
O O21 0.386489 0.250000 0.840753
O O22 0.577911 0.750000 0.573605
#
# Coordination Sequence:
#
# PCOD8245756 Si02
#       8
#     8   8   8   8   8   8   8   8
#     4   9  17  29  48  74 105 139 177 220 270 324
#     4   9  19  36  57  79 108 145 182 219 266 329
#     4   9  16  28  47  71 101 137 177 220 265 317
#     4  11  21  35  55  79 107 143 189 238 287 336
#     4   9  17  29  49  80 111 137 172 220 269 318
#     4  10  22  39  58  82 111 146 188 231 279 337
#     4  11  22  36  53  80 112 145 186 231 282 335
#     4   9  18  33  55  82 111 140 176 221 270 322
#
# _framework density 19.446031000000001
#
# number of rings (size 3 to 8) (size 9 to 14) (size 15 to 20)
#    0.000    2.375    1.250    1.500    1.750    3.250 
#    0.000    0.000    0.000    0.000    0.000    0.000 
#    0.000    0.000    0.000    0.000    0.000    0.000 
#
# Total GULP energy -792945.212931 kJ/mol
# GULP energy per Si atom -12389.768952 kJ/mol
# Density = 1.940177 g / cm^3
# Si number density = 19.446031 Si / 1000 Ang^3
#
#
#
# Elastic Constant Matrix: (Units=GPa)
#
#
# Indices 1 2 3 4 5 6 
#
# 1 131.3148 28.4483 79.0181 0.0000 0.0000 0.0000
# 2 28.4483 29.9835 31.9032 0.0000 0.0000 0.0000
# 3 79.0181 31.9032 143.0752 0.0000 0.0000 0.0000
# 4 0.0000 0.0000 0.0000 26.3539 0.0000 0.0000
# 5 0.0000 0.0000 0.0000 0.0000 35.0384 0.0000
# 6 0.0000 0.0000 0.0000 0.0000 0.0000 18.7466
#
#
#
# Elastic Compliance Matrix: (Units=1/GPa)
#
#
# Indices 1 2 3 4 5 6 
#
# 1 0.012114 -0.005736 -0.005411 0.000000 0.000000 0.000000
# 2 -0.005736 0.046442 -0.007188 0.000000 0.000000 0.000000
# 3 -0.005411 -0.007188 0.011581 0.000000 0.000000 0.000000
# 4 0.000000 0.000000 0.000000 0.037945 0.000000 0.000000
# 5 0.000000 0.000000 0.000000 0.000000 0.028540 0.000000
# 6 0.000000 0.000000 0.000000 0.000000 0.000000 0.053343
#
#
# Mechanical properties :
#
#
# Convention : Reuss Voigt Hill
#
# Bulk Modulus (GPa) = 29.88070 64.79029 47.33549
# Shear Modulus (GPa) = 21.02681 27.02803 24.02742
#
# Velocity S-wave (km/s) = 3.29187 3.73218 3.51892
# Velocity P-wave (km/s) = 5.46332 7.20851 6.39572
#
# Compressibility (1/GPa) = 0.03346642
#
# Stress axis : x y z
#
# Youngs Moduli (GPa) = 82.54713 21.53218 86.35011
#
# Poissons Ratio (x) = 0.12351 0.46728
# Poissons Ratio (y) = 0.47350 0.62067
# Poissons Ratio (z) = 0.44670 0.15477
#
# Static dielectric constant tensor:
#      x y z
#    x 3.862630 0.000000 0.000000 
#    y 0.000000 3.201490 0.000000 
#    z 0.000000 0.000000 3.723730 
# 
# 
# High freq. dielectric constant tensor:
#      x y z
#    x 1.773860 0.000000 0.000000 
#    y 0.000000 1.708800 0.000000 
#    z 0.000000 0.000000 1.762890 
# 
# From -- ./inp_files/28203.got.cif
#   From: 2010.03.12/outbox.cif.g09.slc.cpg/sg59_15_cif.got.tgz:28203.got - 2010.04.16 16:29:54.
