data_PCOD8245106
_publ_section_title
;
Structure prediction by ZEFSAII (Michael W. Deem and Ramdas Pophale) SiO2 
 PCOD8245106
Probable space group: P M M N
;
_chemical_formula_sum "Si O2"
_cell_formula_units_Z 48
_cell_length_a 9.892274
_cell_length_b 8.651935
_cell_length_c 28.931016
_cell_angle_alpha 90.000000
_cell_angle_beta 90.000000
_cell_angle_gamma 90.000000
_cell_volume 2476.127883
_symmetry_space_group_name_H-M "P M M N"
_symmetry_group_IT_number 59
_space_group.IT_coordinate_system_code '2'
_symmetry_cell_setting 'orthorhombic'
loop_
_space_group_symop_operation_xyz
x,y,z
1/2-x,1/2-y,z
1/2+x,-y,-z
-x,1/2+y,-z
-x,-y,-z
1/2+x,1/2+y,-z
1/2-x,y,z
x,1/2-y,z
loop_
_atom_site_type_symbol
_atom_site_label
_atom_site_fract_x
_atom_site_fract_y
_atom_site_fract_z
Si Si1 0.901945 0.573425 0.806674
Si Si2 0.250000 0.933451 0.932512
Si Si3 0.524412 0.431633 0.901285
Si Si4 0.907980 0.572251 0.267588
Si Si5 0.250000 0.433211 0.034519
Si Si6 0.910075 0.079098 0.360741
Si Si7 0.098113 0.933336 0.538043
O O1 0.750000 0.551436 0.787254
O O2 0.926346 0.750000 0.822328
O O3 0.918637 0.462479 0.850470
O O4 0.008265 0.532509 0.767221
O O5 0.250000 0.750000 0.933098
O O6 0.123196 0.996329 0.904263
O O7 0.250000 0.996243 0.984032
O O8 0.521047 0.250000 0.911001
O O9 0.616516 0.511522 0.939623
O O10 0.750000 0.533254 0.261017
O O11 0.938614 0.750000 0.257036
O O12 0.956010 0.535193 0.319848
O O13 0.250000 0.250000 0.031091
O O14 0.750000 0.092365 0.362519
O O15 0.971099 0.250000 0.351154
O O16 0.956452 0.015412 0.411022
O O17 0.250000 0.996829 0.529419
O O18 0.098368 0.750000 0.535509
O O19 0.000000 0.000000 0.500000
#
# Coordination Sequence:
#
# PCOD8245106 Si02
#       7
#     8   4   8   8   4   8   8
#     4  11  24  42  63  86 116 155 197 236 286 350
#     4  12  26  44  66  94 126 160 200 246 293 342
#     4  12  25  43  66  93 124 159 198 245 296 346
#     4  10  21  36  58  88 117 145 186 238 291 345
#     4  12  24  44  68  94 126 162 202 240 289 354
#     4   8  15  31  53  76 106 145 188 233 283 336
#     4   9  18  32  51  77 109 145 187 234 282 338
#
# _framework density 19.385106
#
# number of rings (size 3 to 8) (size 9 to 14) (size 15 to 20)
#    0.000    1.667    0.833    5.500    1.167    3.000 
#    0.000    2.500    0.000    1.000    0.000    0.000 
#    0.000    0.000    0.000    0.000    0.000    0.000 
#
# Total GULP energy -595256.904214 kJ/mol
# GULP energy per Si atom -12401.185504 kJ/mol
# Density = 1.934098 g / cm^3
# Si number density = 19.385106 Si / 1000 Ang^3
#
#
#
# Elastic Constant Matrix: (Units=GPa)
#
#
# Indices 1 2 3 4 5 6 
#
# 1 92.5362 42.9883 36.1254 0.0000 0.0000 0.0000
# 2 42.9883 119.0079 34.4963 0.0000 0.0000 0.0000
# 3 36.1254 34.4963 108.3746 0.0000 0.0000 0.0000
# 4 0.0000 0.0000 0.0000 38.1657 0.0000 0.0000
# 5 0.0000 0.0000 0.0000 0.0000 34.3640 0.0000
# 6 0.0000 0.0000 0.0000 0.0000 0.0000 14.6752
#
#
#
# Elastic Compliance Matrix: (Units=1/GPa)
#
#
# Indices 1 2 3 4 5 6 
#
# 1 0.014022 -0.004087 -0.003373 0.000000 0.000000 0.000000
# 2 -0.004087 0.010448 -0.001963 0.000000 0.000000 0.000000
# 3 -0.003373 -0.001963 0.010977 0.000000 0.000000 0.000000
# 4 0.000000 0.000000 0.000000 0.026202 0.000000 0.000000
# 5 0.000000 0.000000 0.000000 0.000000 0.029100 0.000000
# 6 0.000000 0.000000 0.000000 0.000000 0.000000 0.068142
#
#
# Mechanical properties :
#
#
# Convention : Reuss Voigt Hill
#
# Bulk Modulus (GPa) = 60.24251 60.79320 60.51785
# Shear Modulus (GPa) = 27.28189 31.19489 29.23839
#
# Velocity S-wave (km/s) = 3.75555 4.01586 3.88789
# Velocity P-wave (km/s) = 7.06751 7.27542 7.17222
#
# Compressibility (1/GPa) = 0.01659957
#
# Stress axis : x y z
#
# Youngs Moduli (GPa) = 71.31520 95.70886 91.10318
#
# Poissons Ratio (x) = 0.39120 0.30730
# Poissons Ratio (y) = 0.29149 0.17886
# Poissons Ratio (z) = 0.24055 0.18790
#
# Static dielectric constant tensor:
#      x y z
#    x 1.914440 0.000000 0.000000 
#    y 0.000000 3.809400 0.000000 
#    z 0.000000 0.000000 4.038850 
# 
# 
# High freq. dielectric constant tensor:
#      x y z
#    x 1.741860 0.000000 0.000000 
#    y 0.000000 1.760900 0.000000 
#    z 0.000000 0.000000 1.764230 
# 
# From -- ./inp_files/33051.got.cif
#   From: 2010.03.12/outbox.cif.g09.slc.cpg/sg59_17_cif.got.tgz:33051.got - 2010.04.16 16:29:54.
