data_PCOD8245039
_publ_section_title
;
Structure prediction by ZEFSAII (Michael W. Deem and Ramdas Pophale) SiO2 
 PCOD8245039
Probable space group: P M M N
;
_chemical_formula_sum "Si O2"
_cell_formula_units_Z 56
_cell_length_a 9.163827
_cell_length_b 20.697931
_cell_length_c 14.527796
_cell_angle_alpha 90.000000
_cell_angle_beta 90.000000
_cell_angle_gamma 90.000000
_cell_volume 2755.519885
_symmetry_space_group_name_H-M "P M M N"
_symmetry_group_IT_number 59
_space_group.IT_coordinate_system_code '2'
_symmetry_cell_setting 'orthorhombic'
loop_
_space_group_symop_operation_xyz
x,y,z
1/2-x,1/2-y,z
1/2+x,-y,-z
-x,1/2+y,-z
-x,-y,-z
1/2+x,1/2+y,-z
1/2-x,y,z
x,1/2-y,z
loop_
_atom_site_type_symbol
_atom_site_label
_atom_site_fract_x
_atom_site_fract_y
_atom_site_fract_z
Si Si1 0.078263 0.872723 0.108205
Si Si2 0.081631 0.177329 0.272569
Si Si3 0.919930 0.424832 0.400234
Si Si4 0.084777 0.862793 0.896073
Si Si5 0.416247 0.493811 0.905801
Si Si6 0.915977 0.821118 0.266376
Si Si7 0.419606 0.071130 0.590731
O O1 0.250000 0.881434 0.116056
O O2 0.999943 0.937514 0.148907
O O3 0.018135 0.817645 0.175529
O O4 0.033492 0.857920 0.002561
O O5 0.250000 0.157007 0.270527
O O6 0.062723 0.250000 0.312639
O O7 0.995812 0.125609 0.332771
O O8 0.021127 0.178693 0.167969
O O9 0.750000 0.407717 0.402481
O O10 0.945123 0.499154 0.367813
O O11 0.984121 0.416597 0.501456
O O12 0.250000 0.836401 0.888037
O O13 0.078394 0.936465 0.857011
O O14 0.250000 0.472663 0.923306
O O15 0.500000 0.500000 0.000000
O O16 0.750000 0.836695 0.236839
O O17 0.926142 0.750000 0.312604
O O18 0.972505 0.875334 0.336723
O O19 0.250000 0.080697 0.564506
#
# Coordination Sequence:
#
# PCOD8245039 Si02
#       7
#     8   8   8   8   8   8   8
#     4  10  21  36  55  83 118 158 201 248 298 349
#     4  11  25  41  58  85 120 158 201 247 296 354
#     4  10  21  39  65  93 120 152 193 243 297 355
#     4   9  20  37  56  80 114 155 198 245 296 348
#     4   9  17  31  52  79 110 144 189 242 295 347
#     4  10  22  39  59  85 119 161 202 243 295 352
#     4   9  20  40  64  91 122 155 194 240 294 357
#
# _framework density 20.322842999999999
#
# number of rings (size 3 to 8) (size 9 to 14) (size 15 to 20)
#    0.000    2.286    0.000    2.571    2.000    7.143 
#    0.000    4.286    0.000    0.000    0.000    0.000 
#    0.000    0.000    0.000    0.000    0.000    0.000 
#
# Total GULP energy -694173.757509 kJ/mol
# GULP energy per Si atom -12395.959956 kJ/mol
# Density = 2.027659 g / cm^3
# Si number density = 20.322843 Si / 1000 Ang^3
#
#
#
# Elastic Constant Matrix: (Units=GPa)
#
#
# Indices 1 2 3 4 5 6 
#
# 1 118.2334 56.8687 58.6751 0.0000 0.0000 0.0000
# 2 56.8687 116.4344 66.5818 0.0000 0.0000 0.0000
# 3 58.6751 66.5818 95.2600 0.0000 0.0000 0.0000
# 4 0.0000 0.0000 0.0000 23.2553 0.0000 0.0000
# 5 0.0000 0.0000 0.0000 0.0000 34.5359 0.0000
# 6 0.0000 0.0000 0.0000 0.0000 0.0000 30.3052
#
#
#
# Elastic Compliance Matrix: (Units=1/GPa)
#
#
# Indices 1 2 3 4 5 6 
#
# 1 0.012740 -0.002890 -0.005827 0.000000 0.000000 0.000000
# 2 -0.002890 0.014962 -0.008678 0.000000 0.000000 0.000000
# 3 -0.005827 -0.008678 0.020152 0.000000 0.000000 0.000000
# 4 0.000000 0.000000 0.000000 0.043001 0.000000 0.000000
# 5 0.000000 0.000000 0.000000 0.000000 0.028955 0.000000
# 6 0.000000 0.000000 0.000000 0.000000 0.000000 0.032998
#
#
# Mechanical properties :
#
#
# Convention : Reuss Voigt Hill
#
# Bulk Modulus (GPa) = 76.54402 77.13099 76.83750
# Shear Modulus (GPa) = 26.04813 27.47276 26.76044
#
# Velocity S-wave (km/s) = 3.58399 3.68069 3.63266
# Velocity P-wave (km/s) = 7.40759 7.48990 7.44886
#
# Compressibility (1/GPa) = 0.01306438
#
# Stress axis : x y z
#
# Youngs Moduli (GPa) = 78.49499 66.83395 49.62323
#
# Poissons Ratio (x) = 0.19317 0.28914
# Poissons Ratio (y) = 0.22687 0.43062
# Poissons Ratio (z) = 0.45737 0.57997
#
# Static dielectric constant tensor:
#      x y z
#    x 5.639070 0.000000 0.000000 
#    y 0.000000 3.958300 0.000000 
#    z 0.000000 0.000000 3.457060 
# 
# 
# High freq. dielectric constant tensor:
#      x y z
#    x 1.797250 0.000000 0.000000 
#    y 0.000000 1.800080 0.000000 
#    z 0.000000 0.000000 1.776810 
# 
# From -- ./inp_files/20977.got.cif
#   From: 2010.03.12/outbox.cif.g09.slc.cpg/sg59_11_cif.got.tgz:20977.got - 2010.04.16 16:29:54.
