data_PCOD8245083
_publ_section_title
;
Structure prediction by ZEFSAII (Michael W. Deem and Ramdas Pophale) SiO2 
 PCOD8245083
Probable space group: P M M N
;
_chemical_formula_sum "Si O2"
_cell_formula_units_Z 64
_cell_length_a 18.799465
_cell_length_b 8.833467
_cell_length_c 20.116029
_cell_angle_alpha 90.000000
_cell_angle_beta 90.000000
_cell_angle_gamma 90.000000
_cell_volume 3340.557366
_symmetry_space_group_name_H-M "P M M N"
_symmetry_group_IT_number 59
_space_group.IT_coordinate_system_code '2'
_symmetry_cell_setting 'orthorhombic'
loop_
_space_group_symop_operation_xyz
x,y,z
1/2-x,1/2-y,z
1/2+x,-y,-z
-x,1/2+y,-z
-x,-y,-z
1/2+x,1/2+y,-z
1/2-x,y,z
x,1/2-y,z
loop_
_atom_site_type_symbol
_atom_site_label
_atom_site_fract_x
_atom_site_fract_y
_atom_site_fract_z
Si Si1 0.915858 0.928632 0.306936
Si Si2 0.563810 0.925629 0.682637
Si Si3 0.170004 0.070793 0.202560
Si Si4 0.327963 0.070531 0.817858
Si Si5 0.575242 0.572070 0.065787
Si Si6 0.168607 0.571143 0.573181
Si Si7 0.571887 0.928885 0.916340
Si Si8 0.571576 0.926478 0.528477
O O1 0.907717 0.750000 0.317278
O O2 0.875646 0.990240 0.242126
O O3 0.882612 0.012969 0.369356
O O4 0.997571 0.971296 0.297230
O O5 0.544311 0.750000 0.694218
O O6 0.629652 0.975084 0.729425
O O7 0.582657 0.957103 0.606293
O O8 0.250000 0.001914 0.203695
O O9 0.174924 0.250000 0.196859
O O10 0.127531 0.006495 0.138049
O O11 0.250000 0.997787 0.811280
O O12 0.323861 0.250000 0.813959
O O13 0.359417 0.019985 0.888597
O O14 0.561350 0.750000 0.068934
O O15 0.505998 0.494136 0.096860
O O16 0.594560 0.520747 0.990849
O O17 0.250000 0.520568 0.585858
O O18 0.161709 0.750000 0.568207
O O19 0.141231 0.498770 0.504796
O O20 0.567565 0.750000 0.909771
O O21 0.567549 0.750000 0.511846
O O22 0.500000 0.000000 0.500000
#
# Coordination Sequence:
#
# PCOD8245083 Si02
#       8
#     8   8   8   8   8   8   8   8
#     4  11  21  34  56  80 105 141 181 222 267 324
#     4  10  21  36  57  81 107 139 176 221 270 322
#     4   9  18  33  53  79 109 140 179 226 272 320
#     4   9  18  31  47  72 105 136 171 216 261 308
#     4   9  17  30  50  75 103 137 176 217 265 316
#     4  11  24  40  58  82 113 145 179 225 277 327
#     4   9  17  30  51  77 103 135 175 220 264 311
#     4  11  22  37  59  84 111 144 183 227 273 329
#
# _framework density 19.158480000000001
#
# number of rings (size 3 to 8) (size 9 to 14) (size 15 to 20)
#    0.000    2.125    1.250    2.250    0.000    3.000 
#    0.000    4.375    0.000    3.375    0.000    3.500 
#    0.000    0.000    0.000    0.000    0.000    0.000 
#
# Total GULP energy -793590.114885 kJ/mol
# GULP energy per Si atom -12399.845545 kJ/mol
# Density = 1.911487 g / cm^3
# Si number density = 19.158480 Si / 1000 Ang^3
#
#
#
# Elastic Constant Matrix: (Units=GPa)
#
#
# Indices 1 2 3 4 5 6 
#
# 1 140.5503 29.8734 78.4558 0.0000 0.0000 0.0000
# 2 29.8734 40.5109 27.1871 0.0000 0.0000 0.0000
# 3 78.4558 27.1871 141.2302 0.0000 0.0000 0.0000
# 4 0.0000 0.0000 0.0000 18.6004 0.0000 0.0000
# 5 0.0000 0.0000 0.0000 0.0000 29.7157 0.0000
# 6 0.0000 0.0000 0.0000 0.0000 0.0000 24.8107
#
#
#
# Elastic Compliance Matrix: (Units=1/GPa)
#
#
# Indices 1 2 3 4 5 6 
#
# 1 0.011015 -0.004612 -0.005231 0.000000 0.000000 0.000000
# 2 -0.004612 0.030278 -0.003266 0.000000 0.000000 0.000000
# 3 -0.005231 -0.003266 0.010616 0.000000 0.000000 0.000000
# 4 0.000000 0.000000 0.000000 0.053762 0.000000 0.000000
# 5 0.000000 0.000000 0.000000 0.000000 0.033652 0.000000
# 6 0.000000 0.000000 0.000000 0.000000 0.000000 0.040305
#
#
# Mechanical properties :
#
#
# Convention : Reuss Voigt Hill
#
# Bulk Modulus (GPa) = 38.92726 65.92489 52.42607
# Shear Modulus (GPa) = 23.31967 27.07705 25.19836
#
# Velocity S-wave (km/s) = 3.49262 3.76349 3.63058
# Velocity P-wave (km/s) = 6.05204 7.30549 6.70811
#
# Compressibility (1/GPa) = 0.02568894
#
# Stress axis : x y z
#
# Youngs Moduli (GPa) = 90.78242 33.02740 94.20137
#
# Poissons Ratio (x) = 0.15233 0.49280
# Poissons Ratio (y) = 0.41870 0.30771
# Poissons Ratio (z) = 0.47492 0.10788
#
# Static dielectric constant tensor:
#      x y z
#    x 3.767110 0.000000 0.000000 
#    y 0.000000 3.271260 0.000000 
#    z 0.000000 0.000000 3.803570 
# 
# 
# High freq. dielectric constant tensor:
#      x y z
#    x 1.746660 0.000000 0.000000 
#    y 0.000000 1.718660 0.000000 
#    z 0.000000 0.000000 1.761260 
# 
# From -- ./inp_files/30832.got.cif
#   From: 2010.03.12/outbox.cif.g09.slc.cpg/sg59_16_cif.got.tgz:30832.got - 2010.04.16 16:29:54.
