data_PCOD8245718
_publ_section_title
;
Structure prediction by ZEFSAII (Michael W. Deem and Ramdas Pophale) SiO2 
 PCOD8245718
Probable space group: P M M N
;
_chemical_formula_sum "Si O2"
_cell_formula_units_Z 48
_cell_length_a 21.257208
_cell_length_b 21.578724
_cell_length_c 5.143643
_cell_angle_alpha 90.000000
_cell_angle_beta 90.000000
_cell_angle_gamma 90.000000
_cell_volume 2359.406658
_symmetry_space_group_name_H-M "P M M N"
_symmetry_group_IT_number 59
_space_group.IT_coordinate_system_code '2'
_symmetry_cell_setting 'orthorhombic'
loop_
_space_group_symop_operation_xyz
x,y,z
1/2-x,1/2-y,z
1/2+x,-y,-z
-x,1/2+y,-z
-x,-y,-z
1/2+x,1/2+y,-z
1/2-x,y,z
x,1/2-y,z
loop_
_atom_site_type_symbol
_atom_site_label
_atom_site_fract_x
_atom_site_fract_y
_atom_site_fract_z
Si Si1 0.371775 0.180934 0.556756
Si Si2 0.882231 0.028993 0.041185
Si Si3 0.750000 0.612463 0.603833
Si Si4 0.999516 0.318570 0.257264
Si Si5 0.938588 0.085093 0.557645
Si Si6 0.250000 0.028457 0.899054
Si Si7 0.052277 0.090472 0.870059
O O1 0.358990 0.250000 0.670602
O O2 0.310630 0.156326 0.410032
O O3 0.429755 0.184018 0.361374
O O4 0.388946 0.133171 0.786161
O O5 0.909306 0.047925 0.319514
O O6 0.808754 0.017220 0.071100
O O7 0.918702 0.965445 0.961606
O O8 0.893048 0.078058 0.808545
O O9 0.750000 0.560053 0.382948
O O10 0.750000 0.581308 0.884362
O O11 0.979027 0.250000 0.162318
O O12 0.948491 0.342700 0.469807
O O13 0.000806 0.368723 0.026050
O O14 0.010183 0.062956 0.631437
#
# Coordination Sequence:
#
# PCOD8245718 Si02
#       7
#     8   8   4   8   8   4   8
#     4  10  22  37  58  87 125 173 220 259 296 351
#     4  12  24  40  62  92 124 160 209 253 315 368
#     4  12  23  44  58  86 120 174 223 253 298 340
#     4  10  22  40  62  93 127 162 204 256 314 373
#     4  11  24  39  63  93 123 160 200 256 312 377
#     4  12  26  42  65  86 123 166 206 263 304 366
#     4  11  21  37  63  90 129 162 205 256 313 364
#
# _framework density 20.344099
#
# number of rings (size 3 to 8) (size 9 to 14) (size 15 to 20)
#    0.000    1.000    3.333    3.750    4.667    0.667 
#    0.000    0.833    0.000    0.000    0.000    3.500 
#    0.000    0.000    0.000    0.000    0.000    0.000 
#
# Total GULP energy -594921.401449 kJ/mol
# GULP energy per Si atom -12394.195864 kJ/mol
# Density = 2.029779 g / cm^3
# Si number density = 20.344099 Si / 1000 Ang^3
#
#
#
# Elastic Constant Matrix: (Units=GPa)
#
#
# Indices 1 2 3 4 5 6 
#
# 1 106.2023 69.1942 28.4732 0.0000 0.0000 0.0000
# 2 69.1942 84.0172 34.1621 0.0000 0.0000 0.0000
# 3 28.4732 34.1621 88.8021 0.0000 0.0000 0.0000
# 4 0.0000 0.0000 0.0000 26.1541 0.0000 0.0000
# 5 0.0000 0.0000 0.0000 0.0000 19.3345 0.0000
# 6 0.0000 0.0000 0.0000 0.0000 0.0000 26.5030
#
#
#
# Elastic Compliance Matrix: (Units=1/GPa)
#
#
# Indices 1 2 3 4 5 6 
#
# 1 0.020319 -0.016697 -0.000092 0.000000 0.000000 0.000000
# 2 -0.016697 0.027830 -0.005352 0.000000 0.000000 0.000000
# 3 -0.000092 -0.005352 0.013349 0.000000 0.000000 0.000000
# 4 0.000000 0.000000 0.000000 0.038235 0.000000 0.000000
# 5 0.000000 0.000000 0.000000 0.000000 0.051721 0.000000
# 6 0.000000 0.000000 0.000000 0.000000 0.000000 0.037732
#
#
# Mechanical properties :
#
#
# Convention : Reuss Voigt Hill
#
# Bulk Modulus (GPa) = 58.08508 60.29785 59.19146
# Shear Modulus (GPa) = 20.90235 24.21111 22.55673
#
# Velocity S-wave (km/s) = 3.20885 3.45350 3.33342
# Velocity P-wave (km/s) = 6.50709 6.75319 6.63128
#
# Compressibility (1/GPa) = 0.01721613
#
# Stress axis : x y z
#
# Youngs Moduli (GPa) = 49.21436 35.93255 74.90921
#
# Poissons Ratio (x) = 0.59997 0.00687
# Poissons Ratio (y) = 0.82174 0.40095
# Poissons Ratio (z) = 0.00452 0.19233
#
# Static dielectric constant tensor:
#      x y z
#    x 3.665190 0.000000 0.000000 
#    y 0.000000 3.893840 0.000000 
#    z 0.000000 0.000000 3.695580 
# 
# 
# High freq. dielectric constant tensor:
#      x y z
#    x 1.775940 0.000000 0.000000 
#    y 0.000000 1.785940 0.000000 
#    z 0.000000 0.000000 1.800300 
# 
# From -- ./inp_files/3352.got.cif
#   From: 2010.03.12/outbox.cif.g09.slc.cpg/sg59_2_cif.got.tgz:3352.got - 2010.04.16 16:29:54.
