data_PCOD8245386
_publ_section_title
;
Structure prediction by ZEFSAII (Michael W. Deem and Ramdas Pophale) SiO2 
 PCOD8245386
Probable space group: P M M N
;
_chemical_formula_sum "Si O2"
_cell_formula_units_Z 48
_cell_length_a 16.703678
_cell_length_b 9.034131
_cell_length_c 16.649509
_cell_angle_alpha 90.000000
_cell_angle_beta 90.000000
_cell_angle_gamma 90.000000
_cell_volume 2512.464440
_symmetry_space_group_name_H-M "P M M N"
_symmetry_group_IT_number 59
_space_group.IT_coordinate_system_code '2'
_symmetry_cell_setting 'orthorhombic'
loop_
_space_group_symop_operation_xyz
x,y,z
1/2-x,1/2-y,z
1/2+x,-y,-z
-x,1/2+y,-z
-x,-y,-z
1/2+x,1/2+y,-z
1/2-x,y,z
x,1/2-y,z
loop_
_atom_site_type_symbol
_atom_site_label
_atom_site_fract_x
_atom_site_fract_y
_atom_site_fract_z
Si Si1 0.750000 0.074273 0.342700
Si Si2 0.432032 0.423512 0.103683
Si Si3 0.928408 0.079110 0.597162
Si Si4 0.657647 0.420692 0.758501
Si Si5 0.750000 0.576892 0.173049
Si Si6 0.610483 0.578607 0.438396
Si Si7 0.090848 0.077760 0.921442
O O1 0.750000 0.250000 0.346580
O O2 0.750000 0.022004 0.251498
O O3 0.828888 0.014142 0.385278
O O4 0.438234 0.250000 0.114862
O O5 0.366472 0.484731 0.164584
O O6 0.519065 0.491546 0.122213
O O7 0.403128 0.468418 0.014630
O O8 0.907151 0.250000 0.579281
O O9 0.893531 0.026672 0.682029
O O10 0.023318 0.053972 0.599775
O O11 0.887176 0.979415 0.529372
O O12 0.750000 0.449299 0.738707
O O13 0.640311 0.250000 0.777911
O O14 0.750000 0.750000 0.196504
O O15 0.826805 0.533844 0.120637
O O16 0.635564 0.750000 0.437827
O O17 0.071926 0.250000 0.912392
#
# Coordination Sequence:
#
# PCOD8245386 Si02
#       7
#     4   8   8   8   4   8   8
#     4  12  26  40  58  87 122 153 192 245 296 345
#     4  10  21  37  60  88 118 152 194 241 291 346
#     4   9  20  39  62  87 117 155 194 238 291 346
#     4  10  22  38  58  86 119 157 197 236 288 347
#     4  10  22  40  62  85 112 153 198 241 292 351
#     4  10  21  39  62  88 117 153 196 238 289 351
#     4   9  20  39  62  84 114 154 194 239 295 351
#
# _framework density 19.104748000000001
#
# number of rings (size 3 to 8) (size 9 to 14) (size 15 to 20)
#    0.000    2.167    0.000    1.750    4.667    3.000 
#    0.000    0.000    0.000    0.000    0.000    0.000 
#    0.000    0.000    0.000    0.000    0.000    0.000 
#
# Total GULP energy -595448.427555 kJ/mol
# GULP energy per Si atom -12405.175574 kJ/mol
# Density = 1.906126 g / cm^3
# Si number density = 19.104748 Si / 1000 Ang^3
#
#
#
# Elastic Constant Matrix: (Units=GPa)
#
#
# Indices 1 2 3 4 5 6 
#
# 1 105.5860 55.2743 65.6334 0.0000 0.0000 0.0000
# 2 55.2743 91.9330 58.8357 0.0000 0.0000 0.0000
# 3 65.6334 58.8357 116.2005 0.0000 0.0000 0.0000
# 4 0.0000 0.0000 0.0000 36.0015 0.0000 0.0000
# 5 0.0000 0.0000 0.0000 0.0000 25.1506 0.0000
# 6 0.0000 0.0000 0.0000 0.0000 0.0000 32.6611
#
#
#
# Elastic Compliance Matrix: (Units=1/GPa)
#
#
# Indices 1 2 3 4 5 6 
#
# 1 0.016476 -0.005844 -0.006347 0.000000 0.000000 0.000000
# 2 -0.005844 0.018165 -0.005897 0.000000 0.000000 0.000000
# 3 -0.006347 -0.005897 0.015176 0.000000 0.000000 0.000000
# 4 0.000000 0.000000 0.000000 0.027777 0.000000 0.000000
# 5 0.000000 0.000000 0.000000 0.000000 0.039760 0.000000
# 6 0.000000 0.000000 0.000000 0.000000 0.000000 0.030617
#
#
# Mechanical properties :
#
#
# Convention : Reuss Voigt Hill
#
# Bulk Modulus (GPa) = 73.30352 74.80070 74.05211
# Shear Modulus (GPa) = 26.49800 27.69438 27.09619
#
# Velocity S-wave (km/s) = 3.72827 3.81150 3.77011
# Velocity P-wave (km/s) = 7.54890 7.65559 7.60243
#
# Compressibility (1/GPa) = 0.01364191
#
# Stress axis : x y z
#
# Youngs Moduli (GPa) = 60.69588 55.05140 65.89195
#
# Poissons Ratio (x) = 0.32172 0.41821
# Poissons Ratio (y) = 0.35470 0.38854
# Poissons Ratio (z) = 0.38523 0.32461
#
# Static dielectric constant tensor:
#      x y z
#    x 3.573970 0.000000 0.000000 
#    y 0.000000 3.499600 0.000000 
#    z 0.000000 0.000000 3.550450 
# 
# 
# High freq. dielectric constant tensor:
#      x y z
#    x 1.751440 0.000000 0.000000 
#    y 0.000000 1.742190 0.000000 
#    z 0.000000 0.000000 1.747640 
# 
# From -- ./inp_files/23762.got.cif
#   From: 2010.03.12/outbox.cif.g09.slc.cpg/sg59_12_cif.got.tgz:23762.got - 2010.04.16 16:29:54.
