data_PCOD8245425
_publ_section_title
;
Structure prediction by ZEFSAII (Michael W. Deem and Ramdas Pophale) SiO2 
 PCOD8245425
Probable space group: P M M N
;
_chemical_formula_sum "Si O2"
_cell_formula_units_Z 56
_cell_length_a 9.073948
_cell_length_b 13.675478
_cell_length_c 23.339275
_cell_angle_alpha 90.000000
_cell_angle_beta 90.000000
_cell_angle_gamma 90.000000
_cell_volume 2896.184084
_symmetry_space_group_name_H-M "P M M N"
_symmetry_group_IT_number 59
_space_group.IT_coordinate_system_code '2'
_symmetry_cell_setting 'orthorhombic'
loop_
_space_group_symop_operation_xyz
x,y,z
1/2-x,1/2-y,z
1/2+x,-y,-z
-x,1/2+y,-z
-x,-y,-z
1/2+x,1/2+y,-z
1/2-x,y,z
x,1/2-y,z
loop_
_atom_site_type_symbol
_atom_site_label
_atom_site_fract_x
_atom_site_fract_y
_atom_site_fract_z
Si Si1 0.422916 0.449874 0.416723
Si Si2 0.078639 0.858679 0.479118
Si Si3 0.077330 0.637915 0.149334
Si Si4 0.919753 0.635116 0.910121
Si Si5 0.079537 0.363976 0.297559
Si Si6 0.423747 0.537032 0.806699
Si Si7 0.086323 0.365996 0.962888
O O1 0.250000 0.432874 0.421647
O O2 0.468810 0.561956 0.431129
O O3 0.495861 0.376177 0.461459
O O4 0.476086 0.424263 0.352898
O O5 0.250000 0.869488 0.492792
O O6 0.040256 0.750000 0.456086
O O7 0.250000 0.622561 0.155651
O O8 0.031047 0.750000 0.160056
O O9 0.994310 0.571814 0.196498
O O10 0.029868 0.601924 0.085659
O O11 0.750000 0.609450 0.895014
O O12 0.945520 0.750000 0.905410
O O13 0.030292 0.584079 0.866739
O O14 0.959965 0.595386 0.973970
O O15 0.250000 0.386168 0.283732
O O16 0.054276 0.250000 0.309508
O O17 0.982045 0.396361 0.244390
O O18 0.250000 0.528884 0.802154
O O19 0.250000 0.404445 0.946141
O O20 0.091888 0.250000 0.967543
#
# Coordination Sequence:
#
# PCOD8245425 Si02
#       7
#     8   8   8   8   8   8   8
#     4   9  18  33  54  80 110 147 189 225 262 312
#     4   9  17  30  51  82 118 149 177 218 269 315
#     4  10  21  38  59  79 100 131 172 217 265 321
#     4   9  18  34  55  78 107 141 174 213 263 318
#     4  10  21  38  58  78 105 142 182 224 266 312
#     4  12  25  37  53  77 105 138 176 221 270 319
#     4   8  15  30  53  79 105 133 166 209 264 320
#
# _framework density 19.335788000000001
#
# number of rings (size 3 to 8) (size 9 to 14) (size 15 to 20)
#    0.000    2.429    0.000    3.429    0.000    5.714 
#    0.000    2.143    0.000    2.571    0.000    0.000 
#    0.000    0.000    0.000    0.000    0.000    0.000 
#
# Total GULP energy -694362.993019 kJ/mol
# GULP energy per Si atom -12399.339161 kJ/mol
# Density = 1.929178 g / cm^3
# Si number density = 19.335788 Si / 1000 Ang^3
#
#
#
# Elastic Constant Matrix: (Units=GPa)
#
#
# Indices 1 2 3 4 5 6 
#
# 1 80.6005 34.3568 38.5166 0.0000 0.0000 0.0000
# 2 34.3568 89.1635 44.3049 0.0000 0.0000 0.0000
# 3 38.5166 44.3049 78.4805 0.0000 0.0000 0.0000
# 4 0.0000 0.0000 0.0000 28.5909 0.0000 0.0000
# 5 0.0000 0.0000 0.0000 0.0000 28.3855 0.0000
# 6 0.0000 0.0000 0.0000 0.0000 0.0000 25.6601
#
#
#
# Elastic Compliance Matrix: (Units=1/GPa)
#
#
# Indices 1 2 3 4 5 6 
#
# 1 0.016887 -0.003320 -0.006413 0.000000 0.000000 0.000000
# 2 -0.003320 0.016241 -0.007539 0.000000 0.000000 0.000000
# 3 -0.006413 -0.007539 0.020146 0.000000 0.000000 0.000000
# 4 0.000000 0.000000 0.000000 0.034976 0.000000 0.000000
# 5 0.000000 0.000000 0.000000 0.000000 0.035229 0.000000
# 6 0.000000 0.000000 0.000000 0.000000 0.000000 0.038971
#
#
# Mechanical properties :
#
#
# Convention : Reuss Voigt Hill
#
# Bulk Modulus (GPa) = 53.39551 53.62236 53.50894
# Shear Modulus (GPa) = 24.60175 25.26505 24.93340
#
# Velocity S-wave (km/s) = 3.57086 3.61868 3.59485
# Velocity P-wave (km/s) = 6.68403 6.72697 6.70553
#
# Compressibility (1/GPa) = 0.01872817
#
# Stress axis : x y z
#
# Youngs Moduli (GPa) = 59.21756 61.57334 49.63851
#
# Poissons Ratio (x) = 0.20443 0.31835
# Poissons Ratio (y) = 0.19661 0.37423
# Poissons Ratio (z) = 0.37979 0.46420
#
# Static dielectric constant tensor:
#      x y z
#    x 3.436220 0.000000 0.000000 
#    y 0.000000 3.783050 0.000000 
#    z 0.000000 0.000000 3.490400 
# 
# 
# High freq. dielectric constant tensor:
#      x y z
#    x 1.744520 0.000000 0.000000 
#    y 0.000000 1.764380 0.000000 
#    z 0.000000 0.000000 1.733960 
# 
# From -- ./inp_files/29014.got.cif
#   From: 2010.03.12/outbox.cif.g09.slc.cpg/sg59_15_cif.got.tgz:29014.got - 2010.04.16 16:29:54.
