data_PCOD8245603
_publ_section_title
;
Structure prediction by ZEFSAII (Michael W. Deem and Ramdas Pophale) SiO2 
 PCOD8245603
Probable space group: P M M N
;
_chemical_formula_sum "Si O2"
_cell_formula_units_Z 48
_cell_length_a 8.803617
_cell_length_b 28.641633
_cell_length_c 10.015271
_cell_angle_alpha 90.000000
_cell_angle_beta 90.000000
_cell_angle_gamma 90.000000
_cell_volume 2525.350254
_symmetry_space_group_name_H-M "P M M N"
_symmetry_group_IT_number 59
_space_group.IT_coordinate_system_code '2'
_symmetry_cell_setting 'orthorhombic'
loop_
_space_group_symop_operation_xyz
x,y,z
1/2-x,1/2-y,z
1/2+x,-y,-z
-x,1/2+y,-z
-x,-y,-z
1/2+x,1/2+y,-z
1/2-x,y,z
x,1/2-y,z
loop_
_atom_site_type_symbol
_atom_site_label
_atom_site_fract_x
_atom_site_fract_y
_atom_site_fract_z
Si Si1 0.073356 0.472959 0.379630
Si Si2 0.928479 0.196008 0.981029
Si Si3 0.074239 0.371125 0.482501
Si Si4 0.429816 0.479549 0.867492
Si Si5 0.930924 0.877032 0.218546
Si Si6 0.427554 0.196162 0.258380
O O1 0.250000 0.485829 0.367095
O O2 0.047472 0.418671 0.403826
O O3 0.000000 0.500000 0.500000
O O4 0.984859 0.486228 0.247452
O O5 0.750000 0.188378 0.974809
O O6 0.973551 0.250000 0.956697
O O7 0.006166 0.165529 0.867119
O O8 0.987295 0.179180 0.125252
O O9 0.250000 0.360762 0.504236
O O10 0.001396 0.372066 0.630797
O O11 0.005176 0.330881 0.387277
O O12 0.250000 0.481047 0.876454
O O13 0.486493 0.426605 0.841084
O O14 0.500000 0.500000 0.000000
O O15 0.750000 0.875261 0.218540
O O16 0.250000 0.185263 0.237626
O O17 0.459755 0.250000 0.286362
#
# Coordination Sequence:
#
# PCOD8245603 Si02
#       6
#     8   8   8   8   8   8
#     4  11  21  38  60  84 118 157 195 239 287 344
#     4  10  22  39  57  82 117 151 186 234 288 340
#     4   9  19  36  58  85 113 144 185 236 285 333
#     4  11  24  41  59  86 119 155 197 244 293 346
#     4  10  21  39  60  83 114 151 192 236 283 340
#     4   9  18  35  60  86 110 142 185 230 282 344
#
# _framework density 19.007265
#
# number of rings (size 3 to 8) (size 9 to 14) (size 15 to 20)
#    0.000    2.000    1.667    1.500    2.333    3.000 
#    0.000    3.333    0.000    2.000    0.000    0.000 
#    0.000    0.000    0.000    0.000    0.000    0.000 
#
# Total GULP energy -595216.762395 kJ/mol
# GULP energy per Si atom -12400.349217 kJ/mol
# Density = 1.896400 g / cm^3
# Si number density = 19.007265 Si / 1000 Ang^3
#
#
#
# Elastic Constant Matrix: (Units=GPa)
#
#
# Indices 1 2 3 4 5 6 
#
# 1 39.3834 26.8382 32.8463 0.0000 0.0000 0.0000
# 2 26.8382 81.6987 70.3015 0.0000 0.0000 0.0000
# 3 32.8463 70.3015 173.6175 0.0000 0.0000 0.0000
# 4 0.0000 0.0000 0.0000 32.5575 0.0000 0.0000
# 5 0.0000 0.0000 0.0000 0.0000 29.8851 0.0000
# 6 0.0000 0.0000 0.0000 0.0000 0.0000 28.9429
#
#
#
# Elastic Compliance Matrix: (Units=1/GPa)
#
#
# Indices 1 2 3 4 5 6 
#
# 1 0.033640 -0.008555 -0.002900 0.000000 0.000000 0.000000
# 2 -0.008555 0.020961 -0.006869 0.000000 0.000000 0.000000
# 3 -0.002900 -0.006869 0.009090 0.000000 0.000000 0.000000
# 4 0.000000 0.000000 0.000000 0.030715 0.000000 0.000000
# 5 0.000000 0.000000 0.000000 0.000000 0.033461 0.000000
# 6 0.000000 0.000000 0.000000 0.000000 0.000000 0.034551
#
#
# Mechanical properties :
#
#
# Convention : Reuss Voigt Hill
#
# Bulk Modulus (GPa) = 36.97897 61.63015 49.30456
# Shear Modulus (GPa) = 24.02896 29.25801 26.64348
#
# Velocity S-wave (km/s) = 3.55941 3.92766 3.74806
# Velocity P-wave (km/s) = 6.03241 7.28447 6.68781
#
# Compressibility (1/GPa) = 0.02704240
#
# Stress axis : x y z
#
# Youngs Moduli (GPa) = 29.72627 47.70655 110.01195
#
# Poissons Ratio (x) = 0.40815 0.31904
# Poissons Ratio (y) = 0.25432 0.75569
# Poissons Ratio (z) = 0.08621 0.32770
#
# Static dielectric constant tensor:
#      x y z
#    x 3.370820 0.000000 0.000000 
#    y 0.000000 3.572730 0.000000 
#    z 0.000000 0.000000 3.820140 
# 
# 
# High freq. dielectric constant tensor:
#      x y z
#    x 1.722400 0.000000 0.000000 
#    y 0.000000 1.746210 0.000000 
#    z 0.000000 0.000000 1.754670 
# 
# From -- ./inp_files/6281.got.cif
#   From: 2010.03.12/outbox.cif.g09.slc.cpg/sg59_4_cif.got.tgz:6281.got - 2010.04.16 16:29:54.
