data_PCOD8245305
_publ_section_title
;
Structure prediction by ZEFSAII (Michael W. Deem and Ramdas Pophale) SiO2 
 PCOD8245305
Probable space group: P M M N
;
_chemical_formula_sum "Si O2"
_cell_formula_units_Z 48
_cell_length_a 8.697782
_cell_length_b 8.902135
_cell_length_c 30.708408
_cell_angle_alpha 90.000000
_cell_angle_beta 90.000000
_cell_angle_gamma 90.000000
_cell_volume 2377.716089
_symmetry_space_group_name_H-M "P M M N"
_symmetry_group_IT_number 59
_space_group.IT_coordinate_system_code '2'
_symmetry_cell_setting 'orthorhombic'
loop_
_space_group_symop_operation_xyz
x,y,z
1/2-x,1/2-y,z
1/2+x,-y,-z
-x,1/2+y,-z
-x,-y,-z
1/2+x,1/2+y,-z
1/2-x,y,z
x,1/2-y,z
loop_
_atom_site_type_symbol
_atom_site_label
_atom_site_fract_x
_atom_site_fract_y
_atom_site_fract_z
Si Si1 0.428335 0.926516 0.630529
Si Si2 0.072044 0.574829 0.287197
Si Si3 0.071884 0.576144 0.123313
Si Si4 0.572441 0.074758 0.205176
Si Si5 0.430696 0.580636 0.958578
Si Si6 0.568659 0.920013 0.458455
O O1 0.250000 0.965321 0.639331
O O2 0.457758 0.750000 0.631114
O O3 0.533183 0.003792 0.666533
O O4 0.484053 0.990645 0.584361
O O5 0.250000 0.545684 0.276035
O O6 0.033344 0.750000 0.288473
O O7 0.965775 0.498120 0.251247
O O8 0.250000 0.552908 0.112133
O O9 0.029013 0.750000 0.127705
O O10 0.034272 0.496858 0.168525
O O11 0.972003 0.505939 0.085124
O O12 0.750000 0.044741 0.193679
O O13 0.536004 0.250000 0.207942
O O14 0.250000 0.582041 0.964199
O O15 0.495507 0.750000 0.955858
O O16 0.500000 0.500000 0.000000
O O17 0.750000 0.922802 0.462958
O O18 0.506346 0.750000 0.455474
O O19 0.500000 0.000000 0.500000
#
# Coordination Sequence:
#
# PCOD8245305 Si02
#       6
#     8   8   8   8   8   8
#     4  10  21  38  60  85 113 148 191 237 286 342
#     4  11  24  40  59  86 118 152 192 237 286 342
#     4  11  24  41  62  90 122 156 197 243 291 346
#     4  11  24  41  62  89 119 153 195 240 288 345
#     4  11  24  41  62  90 122 157 200 246 293 349
#     4  10  21  37  58  84 114 150 191 235 286 342
#
# _framework density 20.187441
#
# number of rings (size 3 to 8) (size 9 to 14) (size 15 to 20)
#    0.000    1.333    0.000    5.000    0.000   16.000 
#    0.000    0.000    0.000    0.000    0.000    0.000 
#    0.000    0.000    0.000    0.000    0.000    0.000 
#
# Total GULP energy -595538.069811 kJ/mol
# GULP energy per Si atom -12407.043121 kJ/mol
# Density = 2.014149 g / cm^3
# Si number density = 20.187441 Si / 1000 Ang^3
#
#
#
# Elastic Constant Matrix: (Units=GPa)
#
#
# Indices 1 2 3 4 5 6 
#
# 1 34.6428 39.8131 34.7425 0.0000 0.0000 0.0000
# 2 39.8131 144.3525 65.0162 0.0000 0.0000 0.0000
# 3 34.7425 65.0162 125.1742 0.0000 0.0000 0.0000
# 4 0.0000 0.0000 0.0000 48.1659 0.0000 0.0000
# 5 0.0000 0.0000 0.0000 0.0000 42.2162 0.0000
# 6 0.0000 0.0000 0.0000 0.0000 0.0000 31.8056
#
#
#
# Elastic Compliance Matrix: (Units=1/GPa)
#
#
# Indices 1 2 3 4 5 6 
#
# 1 0.048274 -0.009502 -0.008463 0.000000 0.000000 0.000000
# 2 -0.009502 0.010914 -0.003031 0.000000 0.000000 0.000000
# 3 -0.008463 -0.003031 0.011912 0.000000 0.000000 0.000000
# 4 0.000000 0.000000 0.000000 0.020762 0.000000 0.000000
# 5 0.000000 0.000000 0.000000 0.000000 0.023688 0.000000
# 6 0.000000 0.000000 0.000000 0.000000 0.000000 0.031441
#
#
# Mechanical properties :
#
#
# Convention : Reuss Voigt Hill
#
# Bulk Modulus (GPa) = 34.35649 64.81256 49.58452
# Shear Modulus (GPa) = 25.16546 35.41073 30.28809
#
# Velocity S-wave (km/s) = 3.53454 4.19274 3.87763
# Velocity P-wave (km/s) = 5.80629 7.45747 6.68307
#
# Compressibility (1/GPa) = 0.02910658
#
# Stress axis : x y z
#
# Youngs Moduli (GPa) = 20.71510 91.62957 83.94788
#
# Poissons Ratio (x) = 0.87071 0.71045
# Poissons Ratio (y) = 0.19684 0.25445
# Poissons Ratio (z) = 0.17531 0.27774
#
# Static dielectric constant tensor:
#      x y z
#    x 3.656960 0.000000 0.000000 
#    y 0.000000 3.990460 0.000000 
#    z 0.000000 0.000000 3.631180 
# 
# 
# High freq. dielectric constant tensor:
#      x y z
#    x 1.788930 0.000000 0.000000 
#    y 0.000000 1.809400 0.000000 
#    z 0.000000 0.000000 1.805100 
# 
# From -- ./inp_files/32888.got.cif
#   From: 2010.03.12/outbox.cif.g09.slc.cpg/sg59_17_cif.got.tgz:32888.got - 2010.04.16 16:29:54.
