data_PCOD8245568
_publ_section_title
;
Structure prediction by ZEFSAII (Michael W. Deem and Ramdas Pophale) SiO2 
 PCOD8245568
Probable space group: P M M N
;
_chemical_formula_sum "Si O2"
_cell_formula_units_Z 56
_cell_length_a 8.777177
_cell_length_b 21.867634
_cell_length_c 14.856493
_cell_angle_alpha 90.000000
_cell_angle_beta 90.000000
_cell_angle_gamma 90.000000
_cell_volume 2851.497240
_symmetry_space_group_name_H-M "P M M N"
_symmetry_group_IT_number 59
_space_group.IT_coordinate_system_code '2'
_symmetry_cell_setting 'orthorhombic'
loop_
_space_group_symop_operation_xyz
x,y,z
1/2-x,1/2-y,z
1/2+x,-y,-z
-x,1/2+y,-z
-x,-y,-z
1/2+x,1/2+y,-z
1/2-x,y,z
x,1/2-y,z
loop_
_atom_site_type_symbol
_atom_site_label
_atom_site_fract_x
_atom_site_fract_y
_atom_site_fract_z
Si Si1 0.929476 0.053477 0.292155
Si Si2 0.428658 0.250000 0.439215
Si Si3 0.927411 0.428053 0.656208
Si Si4 0.427066 0.821112 0.019469
Si Si5 0.070572 0.750000 0.755433
Si Si6 0.570964 0.865152 0.849629
Si Si7 0.926237 0.372981 0.468196
Si Si8 0.069308 0.682660 0.221967
O O1 0.750000 0.059283 0.277489
O O2 0.983633 0.095379 0.376188
O O3 0.016909 0.073716 0.201569
O O4 0.971597 0.983914 0.310981
O O5 0.250000 0.250000 0.430873
O O6 0.501201 0.250000 0.342057
O O7 0.482180 0.188889 0.490238
O O8 0.750000 0.440275 0.677779
O O9 0.954159 0.419649 0.549936
O O10 0.989037 0.367965 0.708110
O O11 0.250000 0.837035 0.006963
O O12 0.456533 0.750000 0.995501
O O13 0.482451 0.834893 0.120927
O O14 0.525312 0.865631 0.954897
O O15 0.250000 0.750000 0.746892
O O16 0.019432 0.690400 0.806890
O O17 0.750000 0.856700 0.838310
O O18 0.750000 0.355139 0.460560
O O19 0.250000 0.686528 0.224060
O O20 0.003664 0.750000 0.248079
#
# Coordination Sequence:
#
# PCOD8245568 Si02
#       8
#     8   4   8   8   4   8   8   8
#     4  11  23  39  57  80 117 161 196 234 289 351
#     4  12  24  36  56  87 120 153 192 243 286 330
#     4  10  21  38  62  87 112 149 201 247 283 337
#     4   9  17  32  56  84 116 151 185 230 291 351
#     4  12  22  36  56  81 118 155 188 231 290 348
#     4  12  23  35  56  87 118 150 192 237 282 338
#     4  10  22  38  59  84 116 157 195 237 292 346
#     4   8  16  33  59  89 115 144 189 241 292 342
#
# _framework density 19.638805000000001
#
# number of rings (size 3 to 8) (size 9 to 14) (size 15 to 20)
#    0.000    1.714    2.143    4.286    1.000    1.143 
#    0.000    1.429    0.000    0.857    0.000    0.000 
#    0.000    0.000    0.000    0.000    0.000    0.000 
#
# Total GULP energy -694474.598367 kJ/mol
# GULP energy per Si atom -12401.332114 kJ/mol
# Density = 1.959411 g / cm^3
# Si number density = 19.638805 Si / 1000 Ang^3
#
#
#
# Elastic Constant Matrix: (Units=GPa)
#
#
# Indices 1 2 3 4 5 6 
#
# 1 100.5557 32.6899 29.2168 0.0000 0.0000 0.0000
# 2 32.6899 98.1240 31.2984 0.0000 0.0000 0.0000
# 3 29.2168 31.2984 86.2966 0.0000 0.0000 0.0000
# 4 0.0000 0.0000 0.0000 355.5695 0.0000 0.0000
# 5 0.0000 0.0000 0.0000 0.0000 16.1972 0.0000
# 6 0.0000 0.0000 0.0000 0.0000 0.0000 32.9878
#
#
#
# Elastic Compliance Matrix: (Units=1/GPa)
#
#
# Indices 1 2 3 4 5 6 
#
# 1 0.011759 -0.002994 -0.002895 0.000000 0.000000 0.000000
# 2 -0.002994 0.012287 -0.003443 0.000000 0.000000 0.000000
# 3 -0.002895 -0.003443 0.013817 0.000000 0.000000 0.000000
# 4 0.000000 0.000000 0.000000 0.002812 0.000000 0.000000
# 5 0.000000 0.000000 0.000000 0.000000 0.061739 0.000000
# 6 0.000000 0.000000 0.000000 0.000000 0.000000 0.030314
#
#
# Mechanical properties :
#
#
# Convention : Reuss Voigt Hill
#
# Bulk Modulus (GPa) = 52.08636 52.37628 52.23132
# Shear Modulus (GPa) = 31.68729 93.73566 62.71148
#
# Velocity S-wave (km/s) = 4.02120 6.91617 5.65701
# Velocity P-wave (km/s) = 6.93829 9.51344 8.32603
#
# Compressibility (1/GPa) = 0.01919888
#
# Stress axis : x y z
#
# Youngs Moduli (GPa) = 85.03873 81.38869 72.37595
#
# Poissons Ratio (x) = 0.24368 0.20955
# Poissons Ratio (y) = 0.25461 0.24916
# Poissons Ratio (z) = 0.24622 0.28018
#
# Static dielectric constant tensor:
#      x y z
#    x 3.350010 0.000000 0.000000 
#    y 0.000000 3.815760 0.000000 
#    z 0.000000 0.000000 3.817230 
# 
# 
# High freq. dielectric constant tensor:
#      x y z
#    x 1.746850 0.000000 0.000000 
#    y 0.000000 1.755780 0.000000 
#    z 0.000000 0.000000 1.771990 
# 
# From -- ./inp_files/21140.got.cif
#   From: 2010.03.12/outbox.cif.g09.slc.cpg/sg59_11_cif.got.tgz:21140.got - 2010.04.16 16:29:54.
