data_PCOD8245629
_publ_section_title
;
Structure prediction by ZEFSAII (Michael W. Deem and Ramdas Pophale) SiO2 
 PCOD8245629
Probable space group: P M M N
;
_chemical_formula_sum "Si O2"
_cell_formula_units_Z 56
_cell_length_a 8.993871
_cell_length_b 16.253136
_cell_length_c 18.780812
_cell_angle_alpha 90.000000
_cell_angle_beta 90.000000
_cell_angle_gamma 90.000000
_cell_volume 2745.352965
_symmetry_space_group_name_H-M "P M M N"
_symmetry_group_IT_number 59
_space_group.IT_coordinate_system_code '2'
_symmetry_cell_setting 'orthorhombic'
loop_
_space_group_symop_operation_xyz
x,y,z
1/2-x,1/2-y,z
1/2+x,-y,-z
-x,1/2+y,-z
-x,-y,-z
1/2+x,1/2+y,-z
1/2-x,y,z
x,1/2-y,z
loop_
_atom_site_type_symbol
_atom_site_label
_atom_site_fract_x
_atom_site_fract_y
_atom_site_fract_z
Si Si1 0.582962 0.842009 0.589490
Si Si2 0.423782 0.659704 0.163346
Si Si3 0.426874 0.998303 0.076365
Si Si4 0.576998 0.077941 0.694720
Si Si5 0.575943 0.083380 0.287053
Si Si6 0.080713 0.068878 0.546588
Si Si7 0.577830 0.658548 0.836813
O O1 0.750000 0.863689 0.615698
O O2 0.539370 0.750000 0.609359
O O3 0.466479 0.900454 0.630339
O O4 0.574476 0.851501 0.504302
O O5 0.250000 0.659864 0.147826
O O6 0.490450 0.750000 0.141106
O O7 0.489996 0.582504 0.118431
O O8 0.451006 0.650639 0.248500
O O9 0.250000 0.994869 0.069789
O O10 0.477003 0.084574 0.112522
O O11 0.500000 0.000000 0.000000
O O12 0.750000 0.063357 0.679840
O O13 0.498473 0.094418 0.619585
O O14 0.507945 0.999604 0.735243
O O15 0.750000 0.072485 0.279163
O O16 0.516163 0.155541 0.236277
O O17 0.250000 0.042062 0.563726
O O18 0.000000 0.000000 0.500000
O O19 0.750000 0.646697 0.817607
O O20 0.550664 0.750000 0.870606
#
# Coordination Sequence:
#
# PCOD8245629 Si02
#       7
#     8   8   8   8   8   8   8
#     4  10  22  39  57  78 111 155 195 235 294 363
#     4   9  19  38  64  90 117 155 202 246 292 350
#     4  10  21  39  62  91 124 159 196 236 285 345
#     4  11  21  37  61  85 114 153 200 247 299 359
#     4  12  23  35  57  87 118 150 194 248 298 348
#     4  11  22  36  56  82 112 150 196 245 300 356
#     4  10  21  39  62  87 119 160 199 235 287 356
#
# _framework density 20.398107
#
# number of rings (size 3 to 8) (size 9 to 14) (size 15 to 20)
#    0.000    1.571    2.857    2.571    0.000    4.571 
#    0.000    0.000    0.000    3.000    0.000    0.000 
#    0.000    0.000    0.000    0.000    0.000    0.000 
#
# Total GULP energy -694090.256336 kJ/mol
# GULP energy per Si atom -12394.468863 kJ/mol
# Density = 2.035168 g / cm^3
# Si number density = 20.398107 Si / 1000 Ang^3
#
#
#
# Elastic Constant Matrix: (Units=GPa)
#
#
# Indices 1 2 3 4 5 6 
#
# 1 91.9992 35.3340 38.6787 0.0000 0.0000 0.0000
# 2 35.3340 137.7099 57.7338 0.0000 0.0000 0.0000
# 3 38.6787 57.7338 122.4055 0.0000 0.0000 0.0000
# 4 0.0000 0.0000 0.0000 22.7525 0.0000 0.0000
# 5 0.0000 0.0000 0.0000 0.0000 36.3765 0.0000
# 6 0.0000 0.0000 0.0000 0.0000 0.0000 10.9132
#
#
#
# Elastic Compliance Matrix: (Units=1/GPa)
#
#
# Indices 1 2 3 4 5 6 
#
# 1 0.012965 -0.002006 -0.003151 0.000000 0.000000 0.000000
# 2 -0.002006 0.009362 -0.003782 0.000000 0.000000 0.000000
# 3 -0.003151 -0.003782 0.010949 0.000000 0.000000 0.000000
# 4 0.000000 0.000000 0.000000 0.043951 0.000000 0.000000
# 5 0.000000 0.000000 0.000000 0.000000 0.027490 0.000000
# 6 0.000000 0.000000 0.000000 0.000000 0.000000 0.091632
#
#
# Mechanical properties :
#
#
# Convention : Reuss Voigt Hill
#
# Bulk Modulus (GPa) = 64.93928 68.40083 66.67006
# Shear Modulus (GPa) = 22.79381 28.69964 25.74673
#
# Velocity S-wave (km/s) = 3.34645 3.75504 3.55662
# Velocity P-wave (km/s) = 6.84373 7.23921 7.04425
#
# Compressibility (1/GPa) = 0.01539900
#
# Stress axis : x y z
#
# Youngs Moduli (GPa) = 77.13330 106.81776 91.33352
#
# Poissons Ratio (x) = 0.21423 0.28776
# Poissons Ratio (y) = 0.15470 0.34541
# Poissons Ratio (z) = 0.24302 0.40397
#
# Static dielectric constant tensor:
#      x y z
#    x 3.471660 0.000000 0.000000 
#    y 0.000000 3.997680 0.000000 
#    z 0.000000 0.000000 3.716970 
# 
# 
# High freq. dielectric constant tensor:
#      x y z
#    x 1.776140 0.000000 0.000000 
#    y 0.000000 1.802020 0.000000 
#    z 0.000000 0.000000 1.793840 
# 
# From -- ./inp_files/29094.got.cif
#   From: 2010.03.12/outbox.cif.g09.slc.cpg/sg59_15_cif.got.tgz:29094.got - 2010.04.16 16:29:54.
