data_PCOD8245662
_publ_section_title
;
Structure prediction by ZEFSAII (Michael W. Deem and Ramdas Pophale) SiO2 
 PCOD8245662
Probable space group: P M M N
;
_chemical_formula_sum "Si O2"
_cell_formula_units_Z 64
_cell_length_a 24.330666
_cell_length_b 14.309739
_cell_length_c 8.882476
_cell_angle_alpha 90.000000
_cell_angle_beta 90.000000
_cell_angle_gamma 90.000000
_cell_volume 3092.571522
_symmetry_space_group_name_H-M "P M M N"
_symmetry_group_IT_number 59
_space_group.IT_coordinate_system_code '2'
_symmetry_cell_setting 'orthorhombic'
loop_
_space_group_symop_operation_xyz
x,y,z
1/2-x,1/2-y,z
1/2+x,-y,-z
-x,1/2+y,-z
-x,-y,-z
1/2+x,1/2+y,-z
1/2-x,y,z
x,1/2-y,z
loop_
_atom_site_type_symbol
_atom_site_label
_atom_site_fract_x
_atom_site_fract_y
_atom_site_fract_z
Si Si1 0.998763 0.893596 0.541061
Si Si2 0.520319 0.354215 0.118465
Si Si3 0.814080 0.146192 0.144853
Si Si4 0.610626 0.451826 0.940454
Si Si5 0.092003 0.146067 0.963327
Si Si6 0.606032 0.144963 0.635299
Si Si7 0.613272 0.853067 0.383539
Si Si8 0.184613 0.529939 0.563181
O O1 0.943849 0.849377 0.473565
O O2 0.996322 0.880471 0.719513
O O3 0.054244 0.847898 0.476428
O O4 0.000000 0.000000 0.500000
O O5 0.545819 0.250000 0.121582
O O6 0.472576 0.358362 0.995045
O O7 0.566221 0.428316 0.070357
O O8 0.750000 0.154447 0.131949
O O9 0.838948 0.250000 0.172882
O O10 0.831298 0.077502 0.279293
O O11 0.834157 0.102411 0.987149
O O12 0.621284 0.563984 0.939293
O O13 0.589072 0.415656 0.780610
O O14 0.114951 0.250000 0.006999
O O15 0.101003 0.124266 0.789191
O O16 0.622544 0.250000 0.682400
O O17 0.659597 0.096318 0.564619
O O18 0.640186 0.750000 0.399400
O O19 0.656207 0.928441 0.447937
O O20 0.250000 0.519952 0.540018
#
# Coordination Sequence:
#
# PCOD8245662 Si02
#       8
#     8   8   8   8   8   8   8   8
#     4  12  22  39  62  95 133 170 209 257 316 379
#     4  11  22  36  59  91 126 167 207 250 306 376
#     4  10  21  39  64  89 116 154 205 262 314 368
#     4  12  22  40  61  91 126 165 209 252 306 373
#     4  10  22  39  60  89 125 164 205 253 307 362
#     4  12  25  40  63  96 133 170 207 258 317 381
#     4  11  22  41  66  95 128 166 210 263 317 374
#     4  11  24  44  65  91 124 165 213 263 315 374
#
# _framework density 20.694749999999999
#
# number of rings (size 3 to 8) (size 9 to 14) (size 15 to 20)
#    0.000    0.875    2.500    6.000    0.000    2.500 
#    0.000    0.000    0.000    0.375    0.000    0.000 
#    0.000    0.000    0.000    0.000    0.000    0.000 
#
# Total GULP energy -793613.351069 kJ/mol
# GULP energy per Si atom -12400.208610 kJ/mol
# Density = 2.064765 g / cm^3
# Si number density = 20.694750 Si / 1000 Ang^3
#
#
#
# Elastic Constant Matrix: (Units=GPa)
#
#
# Indices 1 2 3 4 5 6 
#
# 1 79.2476 43.6652 33.6577 0.0000 0.0000 0.0000
# 2 43.6652 160.0575 31.5132 0.0000 0.0000 0.0000
# 3 33.6577 31.5132 69.9463 0.0000 0.0000 0.0000
# 4 0.0000 0.0000 0.0000 29.3292 0.0000 0.0000
# 5 0.0000 0.0000 0.0000 0.0000 26.6042 0.0000
# 6 0.0000 0.0000 0.0000 0.0000 0.0000 21.1624
#
#
#
# Elastic Compliance Matrix: (Units=1/GPa)
#
#
# Indices 1 2 3 4 5 6 
#
# 1 0.017397 -0.003399 -0.006840 0.000000 0.000000 0.000000
# 2 -0.003399 0.007520 -0.001752 0.000000 0.000000 0.000000
# 3 -0.006840 -0.001752 0.018377 0.000000 0.000000 0.000000
# 4 0.000000 0.000000 0.000000 0.034096 0.000000 0.000000
# 5 0.000000 0.000000 0.000000 0.000000 0.037588 0.000000
# 6 0.000000 0.000000 0.000000 0.000000 0.000000 0.047254
#
#
# Mechanical properties :
#
#
# Convention : Reuss Voigt Hill
#
# Bulk Modulus (GPa) = 51.78260 58.54708 55.16484
# Shear Modulus (GPa) = 25.95364 28.78018 27.36691
#
# Velocity S-wave (km/s) = 3.54519 3.73325 3.64044
# Velocity P-wave (km/s) = 6.46794 6.85092 6.66218
#
# Compressibility (1/GPa) = 0.01931151
#
# Stress axis : x y z
#
# Youngs Moduli (GPa) = 57.48257 132.97633 54.41474
#
# Poissons Ratio (x) = 0.45203 0.37218
# Poissons Ratio (y) = 0.19540 0.09535
# Poissons Ratio (z) = 0.39316 0.23302
#
# Static dielectric constant tensor:
#      x y z
#    x 3.598610 0.000000 0.000000 
#    y 0.000000 4.210890 0.000000 
#    z 0.000000 0.000000 3.682170 
# 
# 
# High freq. dielectric constant tensor:
#      x y z
#    x 1.785520 0.000000 0.000000 
#    y 0.000000 1.835810 0.000000 
#    z 0.000000 0.000000 1.807220 
# 
# From -- ./inp_files/12230.got.cif
#   From: 2010.03.12/outbox.cif.g09.slc.cpg/sg59_7_cif.got.tgz:12230.got - 2010.04.16 16:29:54.
