data_PCOD8245565
_publ_section_title
;
Structure prediction by ZEFSAII (Michael W. Deem and Ramdas Pophale) SiO2 
 PCOD8245565
Probable space group: P M M N
;
_chemical_formula_sum "Si O2"
_cell_formula_units_Z 56
_cell_length_a 16.693286
_cell_length_b 30.259878
_cell_length_c 5.265259
_cell_angle_alpha 90.000000
_cell_angle_beta 90.000000
_cell_angle_gamma 90.000000
_cell_volume 2659.676071
_symmetry_space_group_name_H-M "P M M N"
_symmetry_group_IT_number 59
_space_group.IT_coordinate_system_code '2'
_symmetry_cell_setting 'orthorhombic'
loop_
_space_group_symop_operation_xyz
x,y,z
1/2-x,1/2-y,z
1/2+x,-y,-z
-x,1/2+y,-z
-x,-y,-z
1/2+x,1/2+y,-z
1/2-x,y,z
x,1/2-y,z
loop_
_atom_site_type_symbol
_atom_site_label
_atom_site_fract_x
_atom_site_fract_y
_atom_site_fract_z
Si Si1 0.656589 0.198706 0.956541
Si Si2 0.069104 0.006261 0.806029
Si Si3 0.907758 0.799409 0.667646
Si Si4 0.427290 0.667631 0.555797
Si Si5 0.838612 0.660910 0.167854
Si Si6 0.161661 0.429824 0.068645
Si Si7 0.993616 0.927094 0.582529
O O1 0.750000 0.192716 0.906901
O O2 0.634144 0.250000 0.996036
O O3 0.634370 0.171002 0.209381
O O4 0.612443 0.179583 0.710725
O O5 0.045131 0.050441 0.658542
O O6 0.068823 0.959636 0.659406
O O7 0.152272 0.021010 0.940837
O O8 0.000000 0.000000 0.000000
O O9 0.873381 0.750000 0.647151
O O10 0.894095 0.817641 0.951352
O O11 0.002363 0.797999 0.618066
O O12 0.866545 0.829500 0.453869
O O13 0.465073 0.619156 0.526104
O O14 0.750000 0.680661 0.128923
O O15 0.837915 0.608101 0.144998
O O16 0.250000 0.429653 0.207288
O O17 0.082698 0.420462 0.234089
#
# Coordination Sequence:
#
# PCOD8245565 Si02
#       7
#     8   8   8   8   8   8   8
#     4  11  25  46  70  98 131 170 216 269 337 406
#     4   9  20  38  64  91 118 167 212 264 327 384
#     4  12  24  39  60  90 125 167 222 268 316 377
#     4  12  24  41  71  98 131 169 214 275 327 396
#     4  11  24  40  59  86 127 176 219 267 319 368
#     4  10  21  38  61  90 126 167 215 264 315 384
#     4  10  21  39  65  92 128 165 217 266 324 388
#
# _framework density 21.055195999999999
#
# number of rings (size 3 to 8) (size 9 to 14) (size 15 to 20)
#    0.000    1.286    1.429    4.286    4.000    3.429 
#    0.000    1.429    0.000    0.857    0.000    0.000 
#    0.000    0.000    0.000    0.000    0.000    0.000 
#
# Total GULP energy -693741.516740 kJ/mol
# GULP energy per Si atom -12388.241370 kJ/mol
# Density = 2.100727 g / cm^3
# Si number density = 21.055196 Si / 1000 Ang^3
#
#
#
# Elastic Constant Matrix: (Units=GPa)
#
#
# Indices 1 2 3 4 5 6 
#
# 1 61.4880 21.7362 -20.1641 0.0000 0.0000 0.0000
# 2 21.7362 83.6974 -9.4116 0.0000 0.0000 0.0000
# 3 -20.1641 -9.4116 36.6320 0.0000 0.0000 0.0000
# 4 0.0000 0.0000 0.0000 36.5746 0.0000 0.0000
# 5 0.0000 0.0000 0.0000 0.0000 28.4366 0.0000
# 6 0.0000 0.0000 0.0000 0.0000 0.0000 29.7057
#
#
#
# Elastic Compliance Matrix: (Units=1/GPa)
#
#
# Indices 1 2 3 4 5 6 
#
# 1 0.021269 -0.004332 0.010595 0.000000 0.000000 0.000000
# 2 -0.004332 0.013186 0.001003 0.000000 0.000000 0.000000
# 3 0.010595 0.001003 0.033388 0.000000 0.000000 0.000000
# 4 0.000000 0.000000 0.000000 0.027341 0.000000 0.000000
# 5 0.000000 0.000000 0.000000 0.000000 0.035166 0.000000
# 6 0.000000 0.000000 0.000000 0.000000 0.000000 0.033664
#
#
# Mechanical properties :
#
#
# Convention : Reuss Voigt Hill
#
# Bulk Modulus (GPa) = 12.13982 18.45982 15.29982
# Shear Modulus (GPa) = 28.25802 31.58718 29.92260
#
# Velocity S-wave (km/s) = 3.66743 3.87745 3.77390
# Velocity P-wave (km/s) = 4.86946 5.36960 5.12563
#
# Compressibility (1/GPa) = 0.08237354
#
# Stress axis : x y z
#
# Youngs Moduli (GPa) = 47.01644 75.83996 29.95083
#
# Poissons Ratio (x) = 0.32856 -0.31732
# Poissons Ratio (y) = 0.20369 -0.03004
# Poissons Ratio (z) = -0.49812 -0.07607
#
# Static dielectric constant tensor:
#      x y z
#    x -1.240450 0.000000 0.000000 
#    y 0.000000 7.001780 0.000000 
#    z 0.000000 0.000000 4.092130 
# 
# 
# High freq. dielectric constant tensor:
#      x y z
#    x 1.820750 0.000000 0.000000 
#    y 0.000000 1.830970 0.000000 
#    z 0.000000 0.000000 1.831540 
# 
# From -- ./inp_files/2296.got.cif
#   From: 2010.03.12/outbox.cif.g09.slc.cpg/sg59_2_cif.got.tgz:2296.got - 2010.04.16 16:29:54.
