data_PCOD8245546
_publ_section_title
;
Structure prediction by ZEFSAII (Michael W. Deem and Ramdas Pophale) SiO2 
 PCOD8245546
Probable space group: P M M N
;
_chemical_formula_sum "Si O2"
_cell_formula_units_Z 56
_cell_length_a 8.696412
_cell_length_b 22.691578
_cell_length_c 14.214612
_cell_angle_alpha 90.000000
_cell_angle_beta 90.000000
_cell_angle_gamma 90.000000
_cell_volume 2805.044883
_symmetry_space_group_name_H-M "P M M N"
_symmetry_group_IT_number 59
_space_group.IT_coordinate_system_code '2'
_symmetry_cell_setting 'orthorhombic'
loop_
_space_group_symop_operation_xyz
x,y,z
1/2-x,1/2-y,z
1/2+x,-y,-z
-x,1/2+y,-z
-x,-y,-z
1/2+x,1/2+y,-z
1/2-x,y,z
x,1/2-y,z
loop_
_atom_site_type_symbol
_atom_site_label
_atom_site_fract_x
_atom_site_fract_y
_atom_site_fract_z
Si Si1 0.930454 0.563573 0.509472
Si Si2 0.573707 0.683356 0.182283
Si Si3 0.430853 0.460081 0.139365
Si Si4 0.071925 0.618148 0.696083
Si Si5 0.927605 0.572173 0.067348
Si Si6 0.928808 0.750000 0.477769
Si Si7 0.425900 0.750000 0.668078
Si Si8 0.071072 0.644595 0.370968
O O1 0.750000 0.560659 0.524207
O O2 0.000000 0.500000 0.500000
O O3 0.997388 0.601974 0.595709
O O4 0.972202 0.589664 0.407101
O O5 0.750000 0.680160 0.216955
O O6 0.530853 0.750000 0.151912
O O7 0.544612 0.640193 0.094691
O O8 0.464219 0.661670 0.264678
O O9 0.250000 0.456638 0.153364
O O10 0.505023 0.422718 0.222307
O O11 0.482509 0.528706 0.139119
O O12 0.486796 0.433480 0.039503
O O13 0.250000 0.603346 0.687025
O O14 0.046848 0.687875 0.723492
O O15 0.750000 0.554230 0.073955
O O16 0.750000 0.750000 0.446958
O O17 0.943508 0.750000 0.589124
O O18 0.021379 0.695514 0.439952
O O19 0.250000 0.750000 0.628953
O O20 0.250000 0.630549 0.381501
#
# Coordination Sequence:
#
# PCOD8245546 Si02
#       8
#     8   8   8   8   8   4   4   8
#     4  12  26  43  62  89 123 161 205 252 305 360
#     4  10  21  38  61  88 120 159 208 256 307 367
#     4  10  21  39  63  92 121 156 203 253 308 371
#     4  11  23  41  64  90 123 162 204 253 307 365
#     4   9  20  40  64  89 118 157 204 255 311 367
#     4  12  22  36  60  85 114 157 206 249 290 350
#     4  10  22  40  62  85 118 161 206 249 304 364
#     4  12  24  39  59  86 122 160 200 247 300 358
#
# _framework density 19.964030000000001
#
# number of rings (size 3 to 8) (size 9 to 14) (size 15 to 20)
#    0.000    1.286    2.143    4.071    2.000    1.714 
#    1.286    0.000    0.000    0.000    0.000    0.000 
#    0.000    0.000    0.000    0.000    0.000    0.000 
#
# Total GULP energy -694215.584944 kJ/mol
# GULP energy per Si atom -12396.706874 kJ/mol
# Density = 1.991859 g / cm^3
# Si number density = 19.964030 Si / 1000 Ang^3
#
#
#
# Elastic Constant Matrix: (Units=GPa)
#
#
# Indices 1 2 3 4 5 6 
#
# 1 103.3084 39.9932 31.4321 0.0000 0.0000 0.0000
# 2 39.9932 147.9640 42.9945 0.0000 0.0000 0.0000
# 3 31.4321 42.9945 70.5097 0.0000 0.0000 0.0000
# 4 0.0000 0.0000 0.0000 39.0001 0.0000 0.0000
# 5 0.0000 0.0000 0.0000 0.0000 29.5462 0.0000
# 6 0.0000 0.0000 0.0000 0.0000 0.0000 26.5162
#
#
#
# Elastic Compliance Matrix: (Units=1/GPa)
#
#
# Indices 1 2 3 4 5 6 
#
# 1 0.011664 -0.001995 -0.003983 0.000000 0.000000 0.000000
# 2 -0.001995 0.008555 -0.004327 0.000000 0.000000 0.000000
# 3 -0.003983 -0.004327 0.018597 0.000000 0.000000 0.000000
# 4 0.000000 0.000000 0.000000 0.025641 0.000000 0.000000
# 5 0.000000 0.000000 0.000000 0.000000 0.033845 0.000000
# 6 0.000000 0.000000 0.000000 0.000000 0.000000 0.037713
#
#
# Mechanical properties :
#
#
# Convention : Reuss Voigt Hill
#
# Bulk Modulus (GPa) = 54.93049 61.18017 58.05533
# Shear Modulus (GPa) = 30.73260 32.83666 31.78463
#
# Velocity S-wave (km/s) = 3.92777 4.06000 3.99444
# Velocity P-wave (km/s) = 6.93861 7.25878 7.10050
#
# Compressibility (1/GPa) = 0.01820483
#
# Stress axis : x y z
#
# Youngs Moduli (GPa) = 85.73366 116.88979 53.77349
#
# Poissons Ratio (x) = 0.23323 0.21418
# Poissons Ratio (y) = 0.17107 0.23268
# Poissons Ratio (z) = 0.34147 0.50580
#
# Static dielectric constant tensor:
#      x y z
#    x 3.698670 0.000000 0.000000 
#    y 0.000000 3.873050 0.000000 
#    z 0.000000 0.000000 3.582620 
# 
# 
# High freq. dielectric constant tensor:
#      x y z
#    x 1.785590 0.000000 0.000000 
#    y 0.000000 1.796340 0.000000 
#    z 0.000000 0.000000 1.762070 
# 
# From -- ./inp_files/21182.got.cif
#   From: 2010.03.12/outbox.cif.g09.slc.cpg/sg59_11_cif.got.tgz:21182.got - 2010.04.16 16:29:54.
