data_PCOD8245068
_publ_section_title
;
Structure prediction by ZEFSAII (Michael W. Deem and Ramdas Pophale) SiO2 
 PCOD8245068
Probable space group: P M M N
;
_chemical_formula_sum "Si O2"
_cell_formula_units_Z 64
_cell_length_a 14.630003
_cell_length_b 8.774720
_cell_length_c 24.408580
_cell_angle_alpha 90.000000
_cell_angle_beta 90.000000
_cell_angle_gamma 90.000000
_cell_volume 3133.431441
_symmetry_space_group_name_H-M "P M M N"
_symmetry_group_IT_number 59
_space_group.IT_coordinate_system_code '2'
_symmetry_cell_setting 'orthorhombic'
loop_
_space_group_symop_operation_xyz
x,y,z
1/2-x,1/2-y,z
1/2+x,-y,-z
-x,1/2+y,-z
-x,-y,-z
1/2+x,1/2+y,-z
1/2-x,y,z
x,1/2-y,z
loop_
_atom_site_type_symbol
_atom_site_label
_atom_site_fract_x
_atom_site_fract_y
_atom_site_fract_z
Si Si1 0.855746 0.926588 0.966990
Si Si2 0.153267 0.427800 0.621792
Si Si3 0.855431 0.430288 0.655608
Si Si4 0.028303 0.930350 0.129352
Si Si5 0.651414 0.420014 0.267091
Si Si6 0.515648 0.069574 0.558991
Si Si7 0.854323 0.430207 0.083832
Si Si8 0.048585 0.074682 0.238548
O O1 0.750000 0.945654 0.951289
O O2 0.883759 0.750000 0.971384
O O3 0.915237 0.008352 0.921532
O O4 0.878217 0.007755 0.023896
O O5 0.250000 0.492319 0.598914
O O6 0.147768 0.250000 0.611390
O O7 0.146332 0.455511 0.685879
O O8 0.069464 0.504337 0.591150
O O9 0.750000 0.483360 0.657579
O O10 0.865000 0.250000 0.662913
O O11 0.896017 0.479091 0.595692
O O12 0.911474 0.505296 0.705409
O O13 0.026495 0.750000 0.129262
O O14 0.081896 0.986843 0.184269
O O15 0.924247 0.993120 0.126548
O O16 0.750000 0.439595 0.235209
O O17 0.648124 0.250000 0.292916
O O18 0.561269 0.443625 0.231402
O O19 0.514245 0.250000 0.552948
O O20 0.500000 0.000000 0.500000
O O21 0.750000 0.473648 0.099930
O O22 0.868604 0.250000 0.084981
O O23 0.079512 0.250000 0.236236
#
# Coordination Sequence:
#
# PCOD8245068 Si02
#       8
#     8   8   8   8   8   8   8   8
#     4  10  21  39  63  89 119 156 202 255 308 364
#     4   9  17  31  53  79 107 139 176 222 274 330
#     4  10  22  42  64  85 115 157 201 244 294 351
#     4  12  25  39  59  87 122 161 204 252 302 360
#     4   9  18  33  55  82 109 139 176 221 277 340
#     4  10  21  36  56  84 117 150 189 235 287 346
#     4  10  21  39  63  90 123 162 202 248 304 363
#     4  11  23  39  60  86 117 153 197 246 297 353
#
# _framework density 20.424893000000001
#
# number of rings (size 3 to 8) (size 9 to 14) (size 15 to 20)
#    0.000    1.875    1.250    2.625    0.000    4.750 
#    0.000    1.250    0.000    0.000    0.000    0.000 
#    0.000    0.000    0.000    0.000    0.000    0.000 
#
# Total GULP energy -793008.130937 kJ/mol
# GULP energy per Si atom -12390.752046 kJ/mol
# Density = 2.037840 g / cm^3
# Si number density = 20.424893 Si / 1000 Ang^3
#
#
#
# Elastic Constant Matrix: (Units=GPa)
#
#
# Indices 1 2 3 4 5 6 
#
# 1 102.0163 40.4805 44.6959 0.0000 0.0000 0.0000
# 2 40.4805 89.8979 48.2786 0.0000 0.0000 0.0000
# 3 44.6959 48.2786 119.2143 0.0000 0.0000 0.0000
# 4 0.0000 0.0000 0.0000 34.6593 0.0000 0.0000
# 5 0.0000 0.0000 0.0000 0.0000 14.3223 0.0000
# 6 0.0000 0.0000 0.0000 0.0000 0.0000 26.5778
#
#
#
# Elastic Compliance Matrix: (Units=1/GPa)
#
#
# Indices 1 2 3 4 5 6 
#
# 1 0.012798 -0.004071 -0.003149 0.000000 0.000000 0.000000
# 2 -0.004071 0.015511 -0.004755 0.000000 0.000000 0.000000
# 3 -0.003149 -0.004755 0.011495 0.000000 0.000000 0.000000
# 4 0.000000 0.000000 0.000000 0.028852 0.000000 0.000000
# 5 0.000000 0.000000 0.000000 0.000000 0.069821 0.000000
# 6 0.000000 0.000000 0.000000 0.000000 0.000000 0.037625
#
#
# Mechanical properties :
#
#
# Convention : Reuss Voigt Hill
#
# Bulk Modulus (GPa) = 63.08499 64.22650 63.65575
# Shear Modulus (GPa) = 24.35021 26.95679 25.65350
#
# Velocity S-wave (km/s) = 3.45655 3.63685 3.54784
# Velocity P-wave (km/s) = 6.84716 7.01064 6.92938
#
# Compressibility (1/GPa) = 0.01585163
#
# Stress axis : x y z
#
# Youngs Moduli (GPa) = 78.13907 64.47182 86.99730
#
# Poissons Ratio (x) = 0.26249 0.27398
# Poissons Ratio (y) = 0.31814 0.41367
# Poissons Ratio (z) = 0.24608 0.30656
#
# Static dielectric constant tensor:
#      x y z
#    x 4.186840 0.000000 0.000000 
#    y 0.000000 3.665120 0.000000 
#    z 0.000000 0.000000 3.638600 
# 
# 
# High freq. dielectric constant tensor:
#      x y z
#    x 1.810950 0.000000 0.000000 
#    y 0.000000 1.793950 0.000000 
#    z 0.000000 0.000000 1.790310 
# 
# From -- ./inp_files/32207.got.cif
#   From: 2010.03.12/outbox.cif.g09.slc.cpg/sg59_17_cif.got.tgz:32207.got - 2010.04.16 16:29:54.
