data_PCOD8245827
_publ_section_title
;
Structure prediction by ZEFSAII (Michael W. Deem and Ramdas Pophale) SiO2 
 PCOD8245827
Probable space group: P M M N
;
_chemical_formula_sum "Si O2"
_cell_formula_units_Z 48
_cell_length_a 12.705579
_cell_length_b 27.467238
_cell_length_c 6.932060
_cell_angle_alpha 90.000000
_cell_angle_beta 90.000000
_cell_angle_gamma 90.000000
_cell_volume 2419.199948
_symmetry_space_group_name_H-M "P M M N"
_symmetry_group_IT_number 59
_space_group.IT_coordinate_system_code '2'
_symmetry_cell_setting 'orthorhombic'
loop_
_space_group_symop_operation_xyz
x,y,z
1/2-x,1/2-y,z
1/2+x,-y,-z
-x,1/2+y,-z
-x,-y,-z
1/2+x,1/2+y,-z
1/2-x,y,z
x,1/2-y,z
loop_
_atom_site_type_symbol
_atom_site_label
_atom_site_fract_x
_atom_site_fract_y
_atom_site_fract_z
Si Si1 0.512176 0.805478 0.156150
Si Si2 0.512658 0.564414 0.640982
Si Si3 0.370668 0.392550 0.003039
Si Si4 0.629451 0.522749 0.300388
Si Si5 0.630419 0.364108 0.557104
Si Si6 0.862126 0.302185 0.191226
O O1 0.549024 0.750000 0.210622
O O2 0.607928 0.842858 0.119548
O O3 0.429821 0.825300 0.311585
O O4 0.456842 0.805774 0.952541
O O5 0.608740 0.541969 0.518041
O O6 0.445652 0.522793 0.748618
O O7 0.438081 0.587438 0.472615
O O8 0.557950 0.601208 0.803937
O O9 0.250000 0.390958 0.069760
O O10 0.393933 0.436844 0.860239
O O11 0.750000 0.505458 0.289990
O O12 0.750000 0.374210 0.633885
O O13 0.633892 0.344733 0.342161
O O14 0.750000 0.305972 0.079002
O O15 0.868854 0.250000 0.299721
#
# Coordination Sequence:
#
# PCOD8245827 Si02
#       6
#     8   8   8   8   8   8
#     4  11  22  38  59  85 119 160 205 249 294 349
#     4  11  21  39  64  90 122 155 199 243 300 361
#     4  11  23  41  63  87 119 161 204 248 298 351
#     4  10  22  40  63  90 121 157 196 244 301 362
#     4  11  21  35  58  89 121 153 193 243 299 361
#     4   9  18  33  54  80 113 152 190 235 293 350
#
# _framework density 19.841270999999999
#
# number of rings (size 3 to 8) (size 9 to 14) (size 15 to 20)
#    0.000    1.500    3.333    2.500    0.000    2.000 
#    0.000    0.000    0.000    0.000    0.000    0.000 
#    0.000    0.000    0.000    0.000    0.000    0.000 
#
# Total GULP energy -594778.777691 kJ/mol
# GULP energy per Si atom -12391.224535 kJ/mol
# Density = 1.979611 g / cm^3
# Si number density = 19.841271 Si / 1000 Ang^3
#
#
#
# Elastic Constant Matrix: (Units=GPa)
#
#
# Indices 1 2 3 4 5 6 
#
# 1 98.0410 46.6707 34.2240 0.0000 0.0000 0.0000
# 2 46.6707 104.1721 22.2436 0.0000 0.0000 0.0000
# 3 34.2240 22.2436 54.7522 0.0000 0.0000 0.0000
# 4 0.0000 0.0000 0.0000 34.7599 0.0000 0.0000
# 5 0.0000 0.0000 0.0000 0.0000 21.5707 0.0000
# 6 0.0000 0.0000 0.0000 0.0000 0.0000 26.8685
#
#
#
# Elastic Compliance Matrix: (Units=1/GPa)
#
#
# Indices 1 2 3 4 5 6 
#
# 1 0.015299 -0.005269 -0.007422 0.000000 0.000000 0.000000
# 2 -0.005269 0.012326 -0.001714 0.000000 0.000000 0.000000
# 3 -0.007422 -0.001714 0.023600 0.000000 0.000000 0.000000
# 4 0.000000 0.000000 0.000000 0.028769 0.000000 0.000000
# 5 0.000000 0.000000 0.000000 0.000000 0.046359 0.000000
# 6 0.000000 0.000000 0.000000 0.000000 0.000000 0.037218
#
#
# Mechanical properties :
#
#
# Convention : Reuss Voigt Hill
#
# Bulk Modulus (GPa) = 44.61490 51.47132 48.04311
# Shear Modulus (GPa) = 25.01821 26.89493 25.95657
#
# Velocity S-wave (km/s) = 3.55479 3.68571 3.62084
# Velocity P-wave (km/s) = 6.27562 6.64157 6.46119
#
# Compressibility (1/GPa) = 0.02241403
#
# Stress axis : x y z
#
# Youngs Moduli (GPa) = 65.36281 81.12771 42.37308
#
# Poissons Ratio (x) = 0.42750 0.31451
# Poissons Ratio (y) = 0.34442 0.07262
# Poissons Ratio (z) = 0.48515 0.13904
#
# Static dielectric constant tensor:
#      x y z
#    x 3.737540 0.000000 0.000000 
#    y 0.000000 3.932960 0.000000 
#    z 0.000000 0.000000 3.367550 
# 
# 
# High freq. dielectric constant tensor:
#      x y z
#    x 1.772700 0.000000 0.000000 
#    y 0.000000 1.780500 0.000000 
#    z 0.000000 0.000000 1.761350 
# 
# From -- ./inp_files/2143.got.cif
#   From: 2010.03.12/outbox.cif.g09.slc.cpg/sg59_2_cif.got.tgz:2143.got - 2010.04.16 16:29:54.
