data_PCOD8245224
_publ_section_title
;
Structure prediction by ZEFSAII (Michael W. Deem and Ramdas Pophale) SiO2 
 PCOD8245224
Probable space group: P M M N
;
_chemical_formula_sum "Si O2"
_cell_formula_units_Z 48
_cell_length_a 8.958834
_cell_length_b 9.368031
_cell_length_c 30.831589
_cell_angle_alpha 90.000000
_cell_angle_beta 90.000000
_cell_angle_gamma 90.000000
_cell_volume 2587.591505
_symmetry_space_group_name_H-M "P M M N"
_symmetry_group_IT_number 59
_space_group.IT_coordinate_system_code '2'
_symmetry_cell_setting 'orthorhombic'
loop_
_space_group_symop_operation_xyz
x,y,z
1/2-x,1/2-y,z
1/2+x,-y,-z
-x,1/2+y,-z
-x,-y,-z
1/2+x,1/2+y,-z
1/2-x,y,z
x,1/2-y,z
loop_
_atom_site_type_symbol
_atom_site_label
_atom_site_fract_x
_atom_site_fract_y
_atom_site_fract_z
Si Si1 0.071799 0.590423 0.633218
Si Si2 0.073717 0.083978 0.960778
Si Si3 0.420935 0.916386 0.537656
Si Si4 0.927814 0.910362 0.286857
Si Si5 0.075419 0.414710 0.114923
Si Si6 0.921246 0.414441 0.204334
O O1 0.250000 0.590323 0.633135
O O2 0.014577 0.750000 0.643667
O O3 0.014975 0.542301 0.585431
O O4 0.007201 0.484995 0.669894
O O5 0.250000 0.064250 0.963615
O O6 0.028635 0.250000 0.963315
O O7 0.015657 0.018626 0.916109
O O8 0.000000 0.000000 0.000000
O O9 0.250000 0.960663 0.535665
O O10 0.444072 0.750000 0.529458
O O11 0.500000 0.000000 0.500000
O O12 0.750000 0.913397 0.288324
O O13 0.990126 0.750000 0.285140
O O14 0.983419 0.992987 0.244213
O O15 0.250000 0.446386 0.110119
O O16 0.039420 0.250000 0.103204
O O17 0.024480 0.450003 0.163491
O O18 0.750000 0.453310 0.192859
O O19 0.934291 0.250000 0.218096
#
# Coordination Sequence:
#
# PCOD8245224 Si02
#       6
#     8   8   8   8   8   8
#     4   8  14  26  43  63  90 123 157 195 242 296
#     4  11  24  40  59  84 112 142 177 216 258 305
#     4   9  18  31  47  69  96 126 162 204 249 299
#     4   9  16  25  41  68  97 122 155 202 249 292
#     4  10  21  37  57  81 108 139 177 217 255 299
#     4   9  17  30  49  72  99 132 165 199 246 300
#
# _framework density 18.550066999999999
#
# number of rings (size 3 to 8) (size 9 to 14) (size 15 to 20)
#    0.000    2.667    0.000    3.000    0.000    8.000 
#    0.000    3.333    0.000    1.000    0.000    2.333 
#    0.000    0.000    0.000    0.000    0.000    0.000 
#
# Total GULP energy -595126.698357 kJ/mol
# GULP energy per Si atom -12398.472882 kJ/mol
# Density = 1.850785 g / cm^3
# Si number density = 18.550067 Si / 1000 Ang^3
#
#
#
# Elastic Constant Matrix: (Units=GPa)
#
#
# Indices 1 2 3 4 5 6 
#
# 1 46.9254 43.5697 40.5615 0.0000 0.0000 0.0000
# 2 43.5697 125.2903 96.6228 0.0000 0.0000 0.0000
# 3 40.5615 96.6228 155.0323 0.0000 0.0000 0.0000
# 4 0.0000 0.0000 0.0000 40.9561 0.0000 0.0000
# 5 0.0000 0.0000 0.0000 0.0000 26.3245 0.0000
# 6 0.0000 0.0000 0.0000 0.0000 0.0000 21.1212
#
#
#
# Elastic Compliance Matrix: (Units=1/GPa)
#
#
# Indices 1 2 3 4 5 6 
#
# 1 0.032080 -0.009017 -0.002773 0.000000 0.000000 0.000000
# 2 -0.009017 0.017902 -0.008798 0.000000 0.000000 0.000000
# 3 -0.002773 -0.008798 0.012659 0.000000 0.000000 0.000000
# 4 0.000000 0.000000 0.000000 0.024416 0.000000 0.000000
# 5 0.000000 0.000000 0.000000 0.000000 0.037987 0.000000
# 6 0.000000 0.000000 0.000000 0.000000 0.000000 0.047346
#
#
# Mechanical properties :
#
#
# Convention : Reuss Voigt Hill
#
# Bulk Modulus (GPa) = 46.58929 76.52843 61.55886
# Shear Modulus (GPa) = 22.65279 27.44662 25.04970
#
# Velocity S-wave (km/s) = 3.49832 3.85073 3.67874
# Velocity P-wave (km/s) = 6.44108 7.81763 7.16251
#
# Compressibility (1/GPa) = 0.02146416
#
# Stress axis : x y z
#
# Youngs Moduli (GPa) = 31.17222 55.85858 78.99268
#
# Poissons Ratio (x) = 0.50368 0.21907
# Poissons Ratio (y) = 0.28108 0.69501
# Poissons Ratio (z) = 0.08645 0.49147
#
# Static dielectric constant tensor:
#      x y z
#    x 3.083170 0.000000 0.000000 
#    y 0.000000 3.678890 0.000000 
#    z 0.000000 0.000000 3.617190 
# 
# 
# High freq. dielectric constant tensor:
#      x y z
#    x 1.680750 0.000000 0.000000 
#    y 0.000000 1.719930 0.000000 
#    z 0.000000 0.000000 1.737250 
# 
# From -- ./inp_files/32850.got.cif
#   From: 2010.03.12/outbox.cif.g09.slc.cpg/sg59_17_cif.got.tgz:32850.got - 2010.04.16 16:29:54.
