data_PCOD8245471
_publ_section_title
;
Structure prediction by ZEFSAII (Michael W. Deem and Ramdas Pophale) SiO2 
 PCOD8245471
Probable space group: P M M N
;
_chemical_formula_sum "Si O2"
_cell_formula_units_Z 64
_cell_length_a 30.852466
_cell_length_b 8.750625
_cell_length_c 11.921589
_cell_angle_alpha 90.000000
_cell_angle_beta 90.000000
_cell_angle_gamma 90.000000
_cell_volume 3218.571050
_symmetry_space_group_name_H-M "P M M N"
_symmetry_group_IT_number 59
_space_group.IT_coordinate_system_code '2'
_symmetry_cell_setting 'orthorhombic'
loop_
_space_group_symop_operation_xyz
x,y,z
1/2-x,1/2-y,z
1/2+x,-y,-z
-x,1/2+y,-z
-x,-y,-z
1/2+x,1/2+y,-z
1/2-x,y,z
x,1/2-y,z
loop_
_atom_site_type_symbol
_atom_site_label
_atom_site_fract_x
_atom_site_fract_y
_atom_site_fract_z
Si Si1 0.299280 0.424770 0.273368
Si Si2 0.169683 0.571411 0.496568
Si Si3 0.628650 0.069800 0.139745
Si Si4 0.549690 0.929808 0.740756
Si Si5 0.201566 0.075235 0.711096
Si Si6 0.953939 0.429490 0.278476
Si Si7 0.625851 0.929588 0.898569
Si Si8 0.923112 0.569544 0.499838
O O1 0.250000 0.449594 0.232180
O O2 0.307432 0.250000 0.311220
O O3 0.308474 0.532591 0.378519
O O4 0.330967 0.467316 0.171694
O O5 0.159911 0.750000 0.502415
O O6 0.201205 0.522584 0.596984
O O7 0.125956 0.479861 0.518254
O O8 0.633664 0.250000 0.153955
O O9 0.584225 0.010737 0.197732
O O10 0.669264 0.989104 0.196266
O O11 0.627727 0.026423 0.010620
O O12 0.556659 0.750000 0.733659
O O13 0.500548 0.972806 0.776201
O O14 0.583877 0.992621 0.831404
O O15 0.560137 0.998592 0.618041
O O16 0.250000 0.063788 0.761201
O O17 0.189206 0.250000 0.683991
O O18 0.950113 0.250000 0.296566
O O19 0.952441 0.504643 0.400474
O O20 0.622462 0.750000 0.926184
O O21 0.926508 0.750000 0.497306
#
# Coordination Sequence:
#
# PCOD8245471 Si02
#       8
#     8   8   8   8   8   8   8   8
#     4  10  21  39  63  89 117 152 197 245 292 349
#     4  12  23  36  59  91 126 158 188 235 298 358
#     4  11  24  40  59  87 122 157 196 248 302 352
#     4   9  19  37  61  87 118 156 199 246 293 349
#     4  11  24  42  65  90 117 154 200 244 288 350
#     4  10  21  38  59  87 122 157 194 243 302 353
#     4  10  21  40  62  84 115 160 209 251 292 344
#     4  11  20  35  61  89 119 156 198 240 289 353
#
# _framework density 19.884601
#
# number of rings (size 3 to 8) (size 9 to 14) (size 15 to 20)
#    0.000    1.500    2.500    3.000    0.000    4.750 
#    0.000    2.500    0.000    0.000    0.000    0.000 
#    0.000    0.000    0.000    0.000    0.000    0.000 
#
# Total GULP energy -793784.025680 kJ/mol
# GULP energy per Si atom -12402.875401 kJ/mol
# Density = 1.983934 g / cm^3
# Si number density = 19.884601 Si / 1000 Ang^3
#
#
#
# Elastic Constant Matrix: (Units=GPa)
#
#
# Indices 1 2 3 4 5 6 
#
# 1 140.6962 30.5077 52.9916 0.0000 0.0000 0.0000
# 2 30.5077 22.9463 27.7212 0.0000 0.0000 0.0000
# 3 52.9916 27.7212 121.6969 0.0000 0.0000 0.0000
# 4 0.0000 0.0000 0.0000 30.5386 0.0000 0.0000
# 5 0.0000 0.0000 0.0000 0.0000 13.8006 0.0000
# 6 0.0000 0.0000 0.0000 0.0000 0.0000 20.3271
#
#
#
# Elastic Compliance Matrix: (Units=1/GPa)
#
#
# Indices 1 2 3 4 5 6 
#
# 1 0.010290 -0.011406 -0.001882 0.000000 0.000000 0.000000
# 2 -0.011406 0.072770 -0.011609 0.000000 0.000000 0.000000
# 3 -0.001882 -0.011609 0.011681 0.000000 0.000000 0.000000
# 4 0.000000 0.000000 0.000000 0.032745 0.000000 0.000000
# 5 0.000000 0.000000 0.000000 0.000000 0.072461 0.000000
# 6 0.000000 0.000000 0.000000 0.000000 0.000000 0.049195
#
#
# Mechanical properties :
#
#
# Convention : Reuss Voigt Hill
#
# Bulk Modulus (GPa) = 22.24946 56.42006 39.33476
# Shear Modulus (GPa) = 15.92758 24.54120 20.23439
#
# Velocity S-wave (km/s) = 2.83327 3.51690 3.19343
# Velocity P-wave (km/s) = 4.68154 6.70275 5.78116
#
# Compressibility (1/GPa) = 0.04494490
#
# Stress axis : x y z
#
# Youngs Moduli (GPa) = 97.18393 13.74187 85.60719
#
# Poissons Ratio (x) = 0.15675 0.16114
# Poissons Ratio (y) = 1.10853 0.99385
# Poissons Ratio (z) = 0.18293 0.15954
#
# Static dielectric constant tensor:
#      x y z
#    x 3.929180 0.000000 0.000000 
#    y 0.000000 3.467710 0.000000 
#    z 0.000000 0.000000 3.590670 
# 
# 
# High freq. dielectric constant tensor:
#      x y z
#    x 1.792910 0.000000 0.000000 
#    y 0.000000 1.761640 0.000000 
#    z 0.000000 0.000000 1.770390 
# 
# From -- ./inp_files/19265.got.cif
#   From: 2010.03.12/outbox.cif.g09.slc.cpg/sg59_10_cif.got.tgz:19265.got - 2010.04.16 16:29:54.
