data_PCOD8245557
_publ_section_title
;
Structure prediction by ZEFSAII (Michael W. Deem and Ramdas Pophale) SiO2 
 PCOD8245557
Probable space group: P M M N
;
_chemical_formula_sum "Si O2"
_cell_formula_units_Z 56
_cell_length_a 8.973438
_cell_length_b 22.376561
_cell_length_c 14.464473
_cell_angle_alpha 90.000000
_cell_angle_beta 90.000000
_cell_angle_gamma 90.000000
_cell_volume 2904.389268
_symmetry_space_group_name_H-M "P M M N"
_symmetry_group_IT_number 59
_space_group.IT_coordinate_system_code '2'
_symmetry_cell_setting 'orthorhombic'
loop_
_space_group_symop_operation_xyz
x,y,z
1/2-x,1/2-y,z
1/2+x,-y,-z
-x,1/2+y,-z
-x,-y,-z
1/2+x,1/2+y,-z
1/2-x,y,z
x,1/2-y,z
loop_
_atom_site_type_symbol
_atom_site_label
_atom_site_fract_x
_atom_site_fract_y
_atom_site_fract_z
Si Si1 0.921063 0.682428 0.682703
Si Si2 0.577247 0.452654 0.622682
Si Si3 0.077439 0.926668 0.588681
Si Si4 0.922436 0.862892 0.882612
Si Si5 0.419606 0.819180 0.064924
Si Si6 0.080306 0.517942 0.906686
Si Si7 0.919945 0.599506 0.211048
O O1 0.750000 0.668169 0.657907
O O2 0.963674 0.750000 0.653534
O O3 0.945338 0.677782 0.792775
O O4 0.023951 0.636850 0.626986
O O5 0.750000 0.456442 0.648173
O O6 0.510484 0.518928 0.635957
O O7 0.549238 0.427576 0.520579
O O8 0.497392 0.405113 0.689310
O O9 0.250000 0.935253 0.613383
O O10 0.750000 0.873449 0.906536
O O11 0.998638 0.926027 0.860860
O O12 0.996344 0.830979 0.969578
O O13 0.250000 0.841486 0.054709
O O14 0.427401 0.750000 0.089105
O O15 0.495744 0.852504 0.149578
O O16 0.250000 0.534751 0.929785
O O17 0.069640 0.464974 0.834705
O O18 0.000000 0.500000 0.000000
O O19 0.750000 0.620379 0.223476
#
# Coordination Sequence:
#
# PCOD8245557 Si02
#       7
#     8   8   8   8   8   8   8
#     4  10  22  39  59  85 118 157 198 239 289 349
#     4  10  21  38  62  89 118 152 188 235 294 350
#     4  10  21  38  61  90 119 149 190 238 290 348
#     4  11  22  37  58  84 115 153 194 237 285 340
#     4  11  24  40  58  80 110 151 195 238 284 337
#     4  11  22  35  54  83 116 150 188 234 287 340
#     4  11  23  38  59  87 116 149 191 237 284 339
#
# _framework density 19.281161999999998
#
# number of rings (size 3 to 8) (size 9 to 14) (size 15 to 20)
#    0.000    1.429    1.429    3.857    0.000    8.857 
#    0.000    0.714    0.000    0.857    0.000    0.000 
#    0.000    0.000    0.000    0.000    0.000    0.000 
#
# Total GULP energy -694697.003540 kJ/mol
# GULP energy per Si atom -12405.303635 kJ/mol
# Density = 1.923728 g / cm^3
# Si number density = 19.281162 Si / 1000 Ang^3
#
#
#
# Elastic Constant Matrix: (Units=GPa)
#
#
# Indices 1 2 3 4 5 6 
#
# 1 153.3366 55.8938 58.6541 0.0000 0.0000 0.0000
# 2 55.8938 98.5904 39.3875 0.0000 0.0000 0.0000
# 3 58.6541 39.3875 85.1458 0.0000 0.0000 0.0000
# 4 0.0000 0.0000 0.0000 26.5058 0.0000 0.0000
# 5 0.0000 0.0000 0.0000 0.0000 35.8563 0.0000
# 6 0.0000 0.0000 0.0000 0.0000 0.0000 31.8168
#
#
#
# Elastic Compliance Matrix: (Units=1/GPa)
#
#
# Indices 1 2 3 4 5 6 
#
# 1 0.009743 -0.003487 -0.005099 0.000000 0.000000 0.000000
# 2 -0.003487 0.013690 -0.003931 0.000000 0.000000 0.000000
# 3 -0.005099 -0.003931 0.017075 0.000000 0.000000 0.000000
# 4 0.000000 0.000000 0.000000 0.037728 0.000000 0.000000
# 5 0.000000 0.000000 0.000000 0.000000 0.027889 0.000000
# 6 0.000000 0.000000 0.000000 0.000000 0.000000 0.031430
#
#
# Mechanical properties :
#
#
# Convention : Reuss Voigt Hill
#
# Bulk Modulus (GPa) = 64.61778 71.66040 68.13909
# Shear Modulus (GPa) = 29.80694 31.04495 30.42594
#
# Velocity S-wave (km/s) = 3.93607 4.01698 3.97673
# Velocity P-wave (km/s) = 7.36499 7.66561 7.51680
#
# Compressibility (1/GPa) = 0.01547562
#
# Stress axis : x y z
#
# Youngs Moduli (GPa) = 102.63935 73.04539 58.56387
#
# Poissons Ratio (x) = 0.25468 0.29860
# Poissons Ratio (y) = 0.35786 0.23022
# Poissons Ratio (z) = 0.52333 0.28715
#
# Static dielectric constant tensor:
#      x y z
#    x 3.623450 0.000000 0.000000 
#    y 0.000000 3.468700 0.000000 
#    z 0.000000 0.000000 3.320860 
# 
# 
# High freq. dielectric constant tensor:
#      x y z
#    x 1.767390 0.000000 0.000000 
#    y 0.000000 1.746650 0.000000 
#    z 0.000000 0.000000 1.751010 
# 
# From -- ./inp_files/21086.got.cif
#   From: 2010.03.12/outbox.cif.g09.slc.cpg/sg59_11_cif.got.tgz:21086.got - 2010.04.16 16:29:54.
