data_PCOD8245594
_publ_section_title
;
Structure prediction by ZEFSAII (Michael W. Deem and Ramdas Pophale) SiO2 
 PCOD8245594
Probable space group: P M M N
;
_chemical_formula_sum "Si O2"
_cell_formula_units_Z 48
_cell_length_a 13.842911
_cell_length_b 17.914817
_cell_length_c 9.633587
_cell_angle_alpha 90.000000
_cell_angle_beta 90.000000
_cell_angle_gamma 90.000000
_cell_volume 2389.064234
_symmetry_space_group_name_H-M "P M M N"
_symmetry_group_IT_number 59
_space_group.IT_coordinate_system_code '2'
_symmetry_cell_setting 'orthorhombic'
loop_
_space_group_symop_operation_xyz
x,y,z
1/2-x,1/2-y,z
1/2+x,-y,-z
-x,1/2+y,-z
-x,-y,-z
1/2+x,1/2+y,-z
1/2-x,y,z
x,1/2-y,z
loop_
_atom_site_type_symbol
_atom_site_label
_atom_site_fract_x
_atom_site_fract_y
_atom_site_fract_z
Si Si1 0.137281 0.165173 0.875170
Si Si2 0.141063 0.836651 0.796195
Si Si3 0.643034 0.392456 0.511471
Si Si4 0.361981 0.053576 0.371288
Si Si5 0.948279 0.835593 0.409722
Si Si6 0.027730 0.428581 0.088195
O O1 0.250000 0.158954 0.851893
O O2 0.103796 0.250000 0.900268
O O3 0.088141 0.131906 0.736639
O O4 0.108845 0.117641 0.008124
O O5 0.250000 0.843407 0.856222
O O6 0.112226 0.750000 0.776491
O O7 0.133769 0.879349 0.651387
O O8 0.067379 0.876950 0.899664
O O9 0.750000 0.369111 0.564523
O O10 0.623005 0.479304 0.538748
O O11 0.564399 0.342743 0.590765
O O12 0.250000 0.066133 0.332145
O O13 0.399931 0.122070 0.462137
O O14 0.426821 0.047383 0.234221
O O15 0.916864 0.750000 0.425235
O O16 0.000000 0.500000 0.000000
#
# Coordination Sequence:
#
# PCOD8245594 Si02
#       6
#     8   8   8   8   8   8
#     4  10  23  42  62  87 124 168 210 253 309 374
#     4  10  22  41  65  93 124 163 212 261 314 373
#     4  10  21  38  63  93 125 159 203 262 319 372
#     4  11  24  40  61  91 127 163 211 263 312 376
#     4  11  22  39  65  94 124 161 209 263 320 375
#     4  12  25  40  63  92 128 169 209 258 310 374
#
# _framework density 20.091549000000001
#
# number of rings (size 3 to 8) (size 9 to 14) (size 15 to 20)
#    0.000    1.333    1.667    3.500    2.333    4.000 
#    0.000    0.833    0.000    1.000    0.000    0.000 
#    0.000    0.000    0.000    0.000    0.000    0.000 
#
# Total GULP energy -595378.926486 kJ/mol
# GULP energy per Si atom -12403.727635 kJ/mol
# Density = 2.004582 g / cm^3
# Si number density = 20.091549 Si / 1000 Ang^3
#
#
#
# Elastic Constant Matrix: (Units=GPa)
#
#
# Indices 1 2 3 4 5 6 
#
# 1 106.4018 43.7609 35.0097 0.0000 0.0000 0.0000
# 2 43.7609 104.4380 55.9201 0.0000 0.0000 0.0000
# 3 35.0097 55.9201 92.0932 0.0000 0.0000 0.0000
# 4 0.0000 0.0000 0.0000 34.7193 0.0000 0.0000
# 5 0.0000 0.0000 0.0000 0.0000 38.6454 0.0000
# 6 0.0000 0.0000 0.0000 0.0000 0.0000 30.7429
#
#
#
# Elastic Compliance Matrix: (Units=1/GPa)
#
#
# Indices 1 2 3 4 5 6 
#
# 1 0.011640 -0.003716 -0.002169 0.000000 0.000000 0.000000
# 2 -0.003716 0.015374 -0.007923 0.000000 0.000000 0.000000
# 3 -0.002169 -0.007923 0.016494 0.000000 0.000000 0.000000
# 4 0.000000 0.000000 0.000000 0.028802 0.000000 0.000000
# 5 0.000000 0.000000 0.000000 0.000000 0.025876 0.000000
# 6 0.000000 0.000000 0.000000 0.000000 0.000000 0.032528
#
#
# Mechanical properties :
#
#
# Convention : Reuss Voigt Hill
#
# Bulk Modulus (GPa) = 62.91981 63.59048 63.25515
# Shear Modulus (GPa) = 30.55714 32.03768 31.29741
#
# Velocity S-wave (km/s) = 3.90410 3.99756 3.95110
# Velocity P-wave (km/s) = 7.19077 7.28192 7.23649
#
# Compressibility (1/GPa) = 0.01589325
#
# Stress axis : x y z
#
# Youngs Moduli (GPa) = 85.90843 65.04327 60.62915
#
# Poissons Ratio (x) = 0.24172 0.13148
# Poissons Ratio (y) = 0.31926 0.48035
# Poissons Ratio (z) = 0.18629 0.51532
#
# Static dielectric constant tensor:
#      x y z
#    x 3.993990 0.000000 0.000000 
#    y 0.000000 3.597560 0.000000 
#    z 0.000000 0.000000 3.580350 
# 
# 
# High freq. dielectric constant tensor:
#      x y z
#    x 1.803370 0.000000 0.000000 
#    y 0.000000 1.790180 0.000000 
#    z 0.000000 0.000000 1.775690 
# 
# From -- ./inp_files/9019.got.cif
#   From: 2010.03.12/outbox.cif.g09.slc.cpg/sg59_5_cif.got.tgz:9019.got - 2010.04.16 16:29:54.
