data_PCOD8245232
_publ_section_title
;
Structure prediction by ZEFSAII (Michael W. Deem and Ramdas Pophale) SiO2 
 PCOD8245232
Probable space group: P M M N
;
_chemical_formula_sum "Si O2"
_cell_formula_units_Z 32
_cell_length_a 8.863878
_cell_length_b 27.922248
_cell_length_c 6.937208
_cell_angle_alpha 90.000000
_cell_angle_beta 90.000000
_cell_angle_gamma 90.000000
_cell_volume 1716.954816
_symmetry_space_group_name_H-M "P M M N"
_symmetry_group_IT_number 59
_space_group.IT_coordinate_system_code '2'
_symmetry_cell_setting 'orthorhombic'
loop_
_space_group_symop_operation_xyz
x,y,z
1/2-x,1/2-y,z
1/2+x,-y,-z
-x,1/2+y,-z
-x,-y,-z
1/2+x,1/2+y,-z
1/2-x,y,z
x,1/2-y,z
loop_
_atom_site_type_symbol
_atom_site_label
_atom_site_fract_x
_atom_site_fract_y
_atom_site_fract_z
Si Si1 0.424293 0.424901 0.503445
Si Si2 0.077514 0.750000 0.240949
Si Si3 0.575514 0.491217 0.796909
Si Si4 0.074125 0.824466 0.567406
Si Si5 0.427202 0.250000 0.161735
O O1 0.250000 0.413656 0.542275
O O2 0.495192 0.446023 0.698173
O O3 0.447501 0.461509 0.329160
O O4 0.510148 0.377285 0.445675
O O5 0.250000 0.750000 0.167505
O O6 0.043869 0.796982 0.367782
O O7 0.964066 0.750000 0.063742
O O8 0.750000 0.478437 0.824348
O O9 0.500000 0.500000 0.000000
O O10 0.250000 0.826235 0.615696
O O11 0.994494 0.797715 0.743880
O O12 0.250000 0.250000 0.192409
#
# Coordination Sequence:
#
# PCOD8245232 Si02
#       5
#     8   4   8   8   4
#     4  10  21  37  57  82 111 142 181 227 273 323
#     4   9  20  38  57  79 107 141 181 221 264 318
#     4  10  21  37  57  81 110 145 183 225 273 324
#     4  10  21  38  59  81 109 145 183 224 270 322
#     4  11  22  36  57  83 111 143 179 223 272 320
#
# _framework density 18.637647999999999
#
# number of rings (size 3 to 8) (size 9 to 14) (size 15 to 20)
#    0.000    2.000    0.000    4.125    0.000    8.000 
#    0.000    0.000    0.000    0.000    0.000    0.000 
#    0.000    0.000    0.000    0.000    0.000    0.000 
#
# Total GULP energy -396965.181103 kJ/mol
# GULP energy per Si atom -12405.161909 kJ/mol
# Density = 1.859523 g / cm^3
# Si number density = 18.637648 Si / 1000 Ang^3
#
#
#
# Elastic Constant Matrix: (Units=GPa)
#
#
# Indices 1 2 3 4 5 6 
#
# 1 146.6981 45.7308 57.3897 0.0000 0.0000 0.0000
# 2 45.7308 80.9313 12.3253 0.0000 0.0000 0.0000
# 3 57.3897 12.3253 94.8569 0.0000 0.0000 0.0000
# 4 0.0000 0.0000 0.0000 13.7329 0.0000 0.0000
# 5 0.0000 0.0000 0.0000 0.0000 35.7110 0.0000
# 6 0.0000 0.0000 0.0000 0.0000 0.0000 38.6756
#
#
#
# Elastic Compliance Matrix: (Units=1/GPa)
#
#
# Indices 1 2 3 4 5 6 
#
# 1 0.010694 -0.005159 -0.005800 0.000000 0.000000 0.000000
# 2 -0.005159 0.015095 0.001160 0.000000 0.000000 0.000000
# 3 -0.005800 0.001160 0.013900 0.000000 0.000000 0.000000
# 4 0.000000 0.000000 0.000000 0.072818 0.000000 0.000000
# 5 0.000000 0.000000 0.000000 0.000000 0.028003 0.000000
# 6 0.000000 0.000000 0.000000 0.000000 0.000000 0.025856
#
#
# Mechanical properties :
#
#
# Convention : Reuss Voigt Hill
#
# Bulk Modulus (GPa) = 49.77264 61.48643 55.62953
# Shear Modulus (GPa) = 25.95240 31.42660 28.68950
#
# Velocity S-wave (km/s) = 3.73563 4.11078 3.92769
# Velocity P-wave (km/s) = 6.73573 7.45610 7.10505
#
# Compressibility (1/GPa) = 0.02009136
#
# Stress axis : x y z
#
# Youngs Moduli (GPa) = 93.51074 66.24772 71.94101
#
# Poissons Ratio (x) = 0.34180 0.41723
# Poissons Ratio (y) = 0.48246 -0.08346
# Poissons Ratio (z) = 0.54232 -0.07686
#
# Static dielectric constant tensor:
#      x y z
#    x 3.611360 0.000000 0.000000 
#    y 0.000000 3.466640 0.000000 
#    z 0.000000 0.000000 3.349110 
# 
# 
# High freq. dielectric constant tensor:
#      x y z
#    x 1.741320 0.000000 0.000000 
#    y 0.000000 1.726990 0.000000 
#    z 0.000000 0.000000 1.724680 
# 
# From -- ./inp_files/647.got.cif
#   From: 2010.03.12/outbox.cif.g09.slc.cpg/sg59_1_cif.got.tgz:647.got - 2010.04.16 16:29:54.
