data_PCOD8245483
_publ_section_title
;
Structure prediction by ZEFSAII (Michael W. Deem and Ramdas Pophale) SiO2 
 PCOD8245483
Probable space group: P M M N
;
_chemical_formula_sum "Si O2"
_cell_formula_units_Z 48
_cell_length_a 8.809503
_cell_length_b 26.573398
_cell_length_c 10.340607
_cell_angle_alpha 90.000000
_cell_angle_beta 90.000000
_cell_angle_gamma 90.000000
_cell_volume 2420.719858
_symmetry_space_group_name_H-M "P M M N"
_symmetry_group_IT_number 59
_space_group.IT_coordinate_system_code '2'
_symmetry_cell_setting 'orthorhombic'
loop_
_space_group_symop_operation_xyz
x,y,z
1/2-x,1/2-y,z
1/2+x,-y,-z
-x,1/2+y,-z
-x,-y,-z
1/2+x,1/2+y,-z
1/2-x,y,z
x,1/2-y,z
loop_
_atom_site_type_symbol
_atom_site_label
_atom_site_fract_x
_atom_site_fract_y
_atom_site_fract_z
Si Si1 0.069363 0.693290 0.637268
Si Si2 0.425064 0.976890 0.874259
Si Si3 0.927467 0.692381 0.137722
Si Si4 0.929907 0.139929 0.619436
Si Si5 0.569939 0.474768 0.625246
Si Si6 0.924400 0.141561 0.102940
O O1 0.250000 0.692402 0.636344
O O2 0.006601 0.750000 0.628538
O O3 0.006544 0.661774 0.515727
O O4 0.009592 0.668317 0.769219
O O5 0.250000 0.993500 0.865971
O O6 0.441240 0.917430 0.878710
O O7 0.513915 0.996226 0.750446
O O8 0.500000 0.000000 0.000000
O O9 0.750000 0.686101 0.158656
O O10 0.973652 0.750000 0.110782
O O11 0.008989 0.674103 0.266254
O O12 0.977125 0.658489 0.017998
O O13 0.750000 0.142635 0.623285
O O14 0.986397 0.082774 0.634158
O O15 0.500000 0.500000 0.500000
O O16 0.750000 0.477802 0.615991
O O17 0.750000 0.156898 0.077963
#
# Coordination Sequence:
#
# PCOD8245483 Si02
#       6
#     8   8   8   8   8   8
#     4   9  17  32  57  85 108 135 179 233 281 325
#     4  11  23  39  59  85 117 152 195 246 296 349
#     4  11  24  39  56  84 120 153 188 234 288 344
#     4  10  21  38  60  85 113 149 194 237 279 337
#     4  11  23  39  60  87 119 156 197 241 292 349
#     4  10  21  38  60  84 111 147 191 237 284 340
#
# _framework density 19.828811999999999
#
# number of rings (size 3 to 8) (size 9 to 14) (size 15 to 20)
#    0.000    1.667    0.000    4.500    0.000   12.000 
#    0.000    0.833    0.000    3.000    0.000    0.000 
#    0.000    0.000    0.000    0.000    0.000    0.000 
#
# Total GULP energy -595420.082733 kJ/mol
# GULP energy per Si atom -12404.585057 kJ/mol
# Density = 1.978368 g / cm^3
# Si number density = 19.828812 Si / 1000 Ang^3
#
#
#
# Elastic Constant Matrix: (Units=GPa)
#
#
# Indices 1 2 3 4 5 6 
#
# 1 34.6791 32.7527 24.4308 0.0000 0.0000 0.0000
# 2 32.7527 85.8997 27.6829 0.0000 0.0000 0.0000
# 3 24.4308 27.6829 141.6788 0.0000 0.0000 0.0000
# 4 0.0000 0.0000 0.0000 44.1979 0.0000 0.0000
# 5 0.0000 0.0000 0.0000 0.0000 23.3583 0.0000
# 6 0.0000 0.0000 0.0000 0.0000 0.0000 27.8622
#
#
#
# Elastic Compliance Matrix: (Units=1/GPa)
#
#
# Indices 1 2 3 4 5 6 
#
# 1 0.048215 -0.016760 -0.005039 0.000000 0.000000 0.000000
# 2 -0.016760 0.018250 -0.000676 0.000000 0.000000 0.000000
# 3 -0.005039 -0.000676 0.008059 0.000000 0.000000 0.000000
# 4 0.000000 0.000000 0.000000 0.022625 0.000000 0.000000
# 5 0.000000 0.000000 0.000000 0.000000 0.042811 0.000000
# 6 0.000000 0.000000 0.000000 0.000000 0.000000 0.035891
#
#
# Mechanical properties :
#
#
# Convention : Reuss Voigt Hill
#
# Bulk Modulus (GPa) = 33.81375 47.99893 40.90634
# Shear Modulus (GPa) = 21.67703 30.90976 26.29340
#
# Velocity S-wave (km/s) = 3.30996 3.95249 3.64541
# Velocity P-wave (km/s) = 5.63006 6.71481 6.19622
#
# Compressibility (1/GPa) = 0.02957377
#
# Stress axis : x y z
#
# Youngs Moduli (GPa) = 20.74059 54.79576 124.08128
#
# Poissons Ratio (x) = 0.91836 0.62529
# Poissons Ratio (y) = 0.34761 0.08386
# Poissons Ratio (z) = 0.10452 0.03703
#
# Static dielectric constant tensor:
#      x y z
#    x 3.520030 0.000000 0.000000 
#    y 0.000000 3.726600 0.000000 
#    z 0.000000 0.000000 3.781670 
# 
# 
# High freq. dielectric constant tensor:
#      x y z
#    x 1.755500 0.000000 0.000000 
#    y 0.000000 1.792680 0.000000 
#    z 0.000000 0.000000 1.793950 
# 
# From -- ./inp_files/6318.got.cif
#   From: 2010.03.12/outbox.cif.g09.slc.cpg/sg59_4_cif.got.tgz:6318.got - 2010.04.16 16:29:54.
