data_PCOD8245567
_publ_section_title
;
Structure prediction by ZEFSAII (Michael W. Deem and Ramdas Pophale) SiO2 
 PCOD8245567
Probable space group: P M M N
;
_chemical_formula_sum "Si O2"
_cell_formula_units_Z 64
_cell_length_a 17.218768
_cell_length_b 18.104250
_cell_length_c 9.749780
_cell_angle_alpha 90.000000
_cell_angle_beta 90.000000
_cell_angle_gamma 90.000000
_cell_volume 3039.327004
_symmetry_space_group_name_H-M "P M M N"
_symmetry_group_IT_number 59
_space_group.IT_coordinate_system_code '2'
_symmetry_cell_setting 'orthorhombic'
loop_
_space_group_symop_operation_xyz
x,y,z
1/2-x,1/2-y,z
1/2+x,-y,-z
-x,1/2+y,-z
-x,-y,-z
1/2+x,1/2+y,-z
1/2-x,y,z
x,1/2-y,z
loop_
_atom_site_type_symbol
_atom_site_label
_atom_site_fract_x
_atom_site_fract_y
_atom_site_fract_z
Si Si1 0.557033 0.667588 0.030721
Si Si2 0.837421 0.670223 0.534769
Si Si3 0.100325 0.410378 0.700005
Si Si4 0.336964 0.943771 0.200963
Si Si5 0.157935 0.577357 0.688845
Si Si6 0.839247 0.892861 0.811977
Si Si7 0.452619 0.571279 0.450435
Si Si8 0.883494 0.161938 0.036953
O O1 0.552439 0.750000 0.090337
O O2 0.591357 0.614298 0.145038
O O3 0.614094 0.665153 0.902606
O O4 0.473569 0.641825 0.976465
O O5 0.750000 0.685311 0.576954
O O6 0.880904 0.750000 0.531552
O O7 0.834190 0.631758 0.385568
O O8 0.871080 0.616593 0.654837
O O9 0.123959 0.495729 0.711299
O O10 0.023419 0.382548 0.614682
O O11 0.250000 0.942849 0.261997
O O12 0.394842 0.940605 0.325963
O O13 0.353541 0.023818 0.132894
O O14 0.342605 0.877765 0.091454
O O15 0.250000 0.575741 0.647968
O O16 0.100786 0.609529 0.568728
O O17 0.149350 0.628466 0.822131
O O18 0.750000 0.871285 0.826405
O O19 0.500000 0.500000 0.500000
O O20 0.866765 0.250000 0.032928
#
# Coordination Sequence:
#
# PCOD8245567 Si02
#       8
#     8   8   8   8   8   8   8   8
#     4  11  24  40  60  89 128 168 207 258 314 377
#     4  10  21  38  61  92 134 175 207 251 311 379
#     4  11  22  39  64  94 127 163 214 253 308 382
#     4  11  22  41  69  94 124 166 212 265 318 379
#     4  11  24  42  66  95 127 164 210 268 324 381
#     4  10  22  38  62  96 128 163 209 255 311 384
#     4  10  22  39  63  96 127 162 198 258 318 374
#     4  11  26  45  65  92 125 169 221 276 334 384
#
# _framework density 21.057293000000001
#
# number of rings (size 3 to 8) (size 9 to 14) (size 15 to 20)
#    0.000    1.375    1.250    4.125    5.250    5.750 
#    0.000    1.250    0.000    1.500    0.000    0.000 
#    0.000    0.000    0.000    0.000    0.000    0.000 
#
# Total GULP energy -792863.281995 kJ/mol
# GULP energy per Si atom -12388.488781 kJ/mol
# Density = 2.100937 g / cm^3
# Si number density = 21.057293 Si / 1000 Ang^3
#
#
#
# Elastic Constant Matrix: (Units=GPa)
#
#
# Indices 1 2 3 4 5 6 
#
# 1 74.4632 24.9737 40.5606 0.0000 0.0000 0.0000
# 2 24.9737 99.7181 32.4684 0.0000 0.0000 0.0000
# 3 40.5606 32.4684 109.1410 0.0000 0.0000 0.0000
# 4 0.0000 0.0000 0.0000 28.5427 0.0000 0.0000
# 5 0.0000 0.0000 0.0000 0.0000 38.2120 0.0000
# 6 0.0000 0.0000 0.0000 0.0000 0.0000 24.3640
#
#
#
# Elastic Compliance Matrix: (Units=1/GPa)
#
#
# Indices 1 2 3 4 5 6 
#
# 1 0.017379 -0.002491 -0.005718 0.000000 0.000000 0.000000
# 2 -0.002491 0.011461 -0.002484 0.000000 0.000000 0.000000
# 3 -0.005718 -0.002484 0.012026 0.000000 0.000000 0.000000
# 4 0.000000 0.000000 0.000000 0.035035 0.000000 0.000000
# 5 0.000000 0.000000 0.000000 0.000000 0.026170 0.000000
# 6 0.000000 0.000000 0.000000 0.000000 0.000000 0.041044
#
#
# Mechanical properties :
#
#
# Convention : Reuss Voigt Hill
#
# Bulk Modulus (GPa) = 51.33036 53.25863 52.29450
# Shear Modulus (GPa) = 29.24074 30.57838 29.90956
#
# Velocity S-wave (km/s) = 3.73047 3.81484 3.77289
# Velocity P-wave (km/s) = 6.55627 6.68963 6.62329
#
# Compressibility (1/GPa) = 0.01948165
#
# Stress axis : x y z
#
# Youngs Moduli (GPa) = 57.53957 87.25388 83.15118
#
# Poissons Ratio (x) = 0.21733 0.47544
# Poissons Ratio (y) = 0.14332 0.20653
# Poissons Ratio (z) = 0.32900 0.21672
#
# Static dielectric constant tensor:
#      x y z
#    x 4.149840 0.000000 0.000000 
#    y 0.000000 3.625920 0.000000 
#    z 0.000000 0.000000 3.717980 
# 
# 
# High freq. dielectric constant tensor:
#      x y z
#    x 1.836160 0.000000 0.000000 
#    y 0.000000 1.811180 0.000000 
#    z 0.000000 0.000000 1.830180 
# 
# From -- ./inp_files/10705.got.cif
#   From: 2010.03.12/outbox.cif.g09.slc.cpg/sg59_6_cif.got.tgz:10705.got - 2010.04.16 16:29:54.
