data_PCOD8245839
_publ_section_title
;
Structure prediction by ZEFSAII (Michael W. Deem and Ramdas Pophale) SiO2 
 PCOD8245839
Probable space group: P M M N
;
_chemical_formula_sum "Si O2"
_cell_formula_units_Z 40
_cell_length_a 11.272538
_cell_length_b 18.992848
_cell_length_c 9.203981
_cell_angle_alpha 90.000000
_cell_angle_beta 90.000000
_cell_angle_gamma 90.000000
_cell_volume 1970.550250
_symmetry_space_group_name_H-M "P M M N"
_symmetry_group_IT_number 59
_space_group.IT_coordinate_system_code '2'
_symmetry_cell_setting 'orthorhombic'
loop_
_space_group_symop_operation_xyz
x,y,z
1/2-x,1/2-y,z
1/2+x,-y,-z
-x,1/2+y,-z
-x,-y,-z
1/2+x,1/2+y,-z
1/2-x,y,z
x,1/2-y,z
loop_
_atom_site_type_symbol
_atom_site_label
_atom_site_fract_x
_atom_site_fract_y
_atom_site_fract_z
Si Si1 0.014736 0.168402 0.876891
Si Si2 0.121596 0.547755 0.639911
Si Si3 0.561488 0.895395 0.422560
Si Si4 0.750000 0.833470 0.957621
Si Si5 0.250000 0.167366 0.368198
Si Si6 0.891068 0.447307 0.037050
O O1 0.988449 0.250000 0.910307
O O2 0.029520 0.159176 0.704181
O O3 0.133884 0.140767 0.956418
O O4 0.905384 0.121517 0.935502
O O5 0.250000 0.577932 0.608873
O O6 0.125928 0.462719 0.646476
O O7 0.080724 0.575166 0.797413
O O8 0.053674 0.577057 0.502759
O O9 0.635605 0.856638 0.545238
O O10 0.750000 0.750000 0.952622
O O11 0.750000 0.865684 0.794303
O O12 0.250000 0.250000 0.354061
O O13 0.750000 0.473717 0.020982
O O14 0.000000 0.500000 0.000000
#
# Coordination Sequence:
#
# PCOD8245839 Si02
#       6
#     8   8   8   4   4   8
#     4  11  23  41  65  96 131 172 222 281 335 395
#     4  10  22  41  60  88 130 165 211 261 327 391
#     4  11  21  37  60  94 126 168 211 268 328 392
#     4   9  21  37  61  93 131 171 216 265 328 400
#     4  11  21  37  61  93 129 171 214 267 334 398
#     4  11  24  43  66  96 132 175 220 274 330 398
#
# _framework density 20.298898999999999
#
# number of rings (size 3 to 8) (size 9 to 14) (size 15 to 20)
#    0.000    1.400    3.000    2.400    1.400    2.000 
#    1.800    1.000    0.000    4.200    0.000    0.000 
#    0.000    0.000    0.000    0.000    0.000    0.000 
#
# Total GULP energy -495718.379855 kJ/mol
# GULP energy per Si atom -12392.959496 kJ/mol
# Density = 2.025270 g / cm^3
# Si number density = 20.298899 Si / 1000 Ang^3
#
#
#
# Elastic Constant Matrix: (Units=GPa)
#
#
# Indices 1 2 3 4 5 6 
#
# 1 106.3803 36.4988 51.5283 0.0000 0.0000 0.0000
# 2 36.4988 73.3158 30.1421 0.0000 0.0000 0.0000
# 3 51.5283 30.1421 140.9462 0.0000 0.0000 0.0000
# 4 0.0000 0.0000 0.0000 37.0346 0.0000 0.0000
# 5 0.0000 0.0000 0.0000 0.0000 29.2550 0.0000
# 6 0.0000 0.0000 0.0000 0.0000 0.0000 28.2150
#
#
#
# Elastic Compliance Matrix: (Units=1/GPa)
#
#
# Indices 1 2 3 4 5 6 
#
# 1 0.012848 -0.004895 -0.003650 0.000000 0.000000 0.000000
# 2 -0.004895 0.016820 -0.001807 0.000000 0.000000 0.000000
# 3 -0.003650 -0.001807 0.008816 0.000000 0.000000 0.000000
# 4 0.000000 0.000000 0.000000 0.027002 0.000000 0.000000
# 5 0.000000 0.000000 0.000000 0.000000 0.034182 0.000000
# 6 0.000000 0.000000 0.000000 0.000000 0.000000 0.035442
#
#
# Mechanical properties :
#
#
# Convention : Reuss Voigt Hill
#
# Bulk Modulus (GPa) = 56.24984 61.88675 59.06829
# Shear Modulus (GPa) = 30.91360 32.39912 31.65636
#
# Velocity S-wave (km/s) = 3.90669 3.99946 3.95335
# Velocity P-wave (km/s) = 6.93690 7.20288 7.07114
#
# Compressibility (1/GPa) = 0.01777783
#
# Stress axis : x y z
#
# Youngs Moduli (GPa) = 77.83386 59.45402 113.43206
#
# Poissons Ratio (x) = 0.29105 0.41404
# Poissons Ratio (y) = 0.38103 0.20500
# Poissons Ratio (z) = 0.28410 0.10745
#
# Static dielectric constant tensor:
#      x y z
#    x 4.024780 0.000000 0.000000 
#    y 0.000000 3.534750 0.000000 
#    z 0.000000 0.000000 3.857070 
# 
# 
# High freq. dielectric constant tensor:
#      x y z
#    x 1.792470 0.000000 0.000000 
#    y 0.000000 1.776060 0.000000 
#    z 0.000000 0.000000 1.811450 
# 
# From -- ./inp_files/7409.got.cif
#   From: 2010.03.12/outbox.cif.g09.slc.cpg/sg59_4_cif.got.tgz:7409.got - 2010.04.16 16:29:54.
