data_PCOD8245126
_publ_section_title
;
Structure prediction by ZEFSAII (Michael W. Deem and Ramdas Pophale) SiO2 
 PCOD8245126
Probable space group: P M M N
;
_chemical_formula_sum "Si O2"
_cell_formula_units_Z 64
_cell_length_a 24.297526
_cell_length_b 8.604448
_cell_length_c 15.366327
_cell_angle_alpha 90.000000
_cell_angle_beta 90.000000
_cell_angle_gamma 90.000000
_cell_volume 3212.588798
_symmetry_space_group_name_H-M "P M M N"
_symmetry_group_IT_number 59
_space_group.IT_coordinate_system_code '2'
_symmetry_cell_setting 'orthorhombic'
loop_
_space_group_symop_operation_xyz
x,y,z
1/2-x,1/2-y,z
1/2+x,-y,-z
-x,1/2+y,-z
-x,-y,-z
1/2+x,1/2+y,-z
1/2-x,y,z
x,1/2-y,z
loop_
_atom_site_type_symbol
_atom_site_label
_atom_site_fract_x
_atom_site_fract_y
_atom_site_fract_z
Si Si1 0.848642 0.570844 0.406219
Si Si2 0.041731 0.927696 0.563734
Si Si3 0.384112 0.430656 0.273279
Si Si4 0.881460 0.571486 0.215357
Si Si5 0.688399 0.070243 0.575552
Si Si6 0.685186 0.425815 0.872604
Si Si7 0.310691 0.566816 0.934200
Si Si8 0.000141 0.928877 0.272980
O O1 0.831655 0.750000 0.405277
O O2 0.907793 0.543814 0.448135
O O3 0.854279 0.506729 0.306340
O O4 0.808728 0.482028 0.473407
O O5 0.058199 0.750000 0.543457
O O6 0.000000 0.000000 0.500000
O O7 0.013367 0.941163 0.656407
O O8 0.398336 0.250000 0.281211
O O9 0.357328 0.483754 0.365445
O O10 0.340873 0.457907 0.196651
O O11 0.438744 0.525446 0.241834
O O12 0.864496 0.750000 0.208362
O O13 0.855796 0.481006 0.135433
O O14 0.948130 0.553775 0.206891
O O15 0.750000 0.041240 0.613193
O O16 0.672769 0.250000 0.579054
O O17 0.750000 0.428833 0.859390
O O18 0.663233 0.250000 0.857397
O O19 0.670319 0.487223 0.969594
O O20 0.250000 0.497339 0.911483
O O21 0.305782 0.750000 0.935831
O O22 0.000641 0.750000 0.306983
#
# Coordination Sequence:
#
# PCOD8245126 Si02
#       8
#     8   8   8   8   8   8   8   8
#     4  10  21  37  54  76 108 145 184 225 271 322
#     4  11  20  32  51  75 103 136 178 226 272 319
#     4  12  24  37  57  85 113 145 187 234 286 338
#     4   9  20  37  58  84 114 149 186 229 279 328
#     4  11  24  40  57  79 110 150 192 234 284 340
#     4   9  19  38  61  84 112 147 186 228 278 335
#     4   9  19  36  60  88 115 145 182 225 275 333
#     4  10  21  38  56  77 109 148 189 230 277 333
#
# _framework density 19.921627999999998
#
# number of rings (size 3 to 8) (size 9 to 14) (size 15 to 20)
#    0.000    1.875    0.000    6.000    0.000    7.000 
#    0.000    4.375    0.000    0.000    0.000    0.000 
#    0.000    0.000    0.000    0.000    0.000    0.000 
#
# Total GULP energy -792873.595518 kJ/mol
# GULP energy per Si atom -12388.649930 kJ/mol
# Density = 1.987629 g / cm^3
# Si number density = 19.921628 Si / 1000 Ang^3
#
#
#
# Elastic Constant Matrix: (Units=GPa)
#
#
# Indices 1 2 3 4 5 6 
#
# 1 78.9204 24.3798 42.4159 0.0000 0.0000 0.0000
# 2 24.3798 68.0532 29.1823 0.0000 0.0000 0.0000
# 3 42.4159 29.1823 92.1185 0.0000 0.0000 0.0000
# 4 0.0000 0.0000 0.0000 31.6545 0.0000 0.0000
# 5 0.0000 0.0000 0.0000 0.0000 24.6423 0.0000
# 6 0.0000 0.0000 0.0000 0.0000 0.0000 29.1009
#
#
#
# Elastic Compliance Matrix: (Units=1/GPa)
#
#
# Indices 1 2 3 4 5 6 
#
# 1 0.017436 -0.003244 -0.007000 0.000000 0.000000 0.000000
# 2 -0.003244 0.017608 -0.004084 0.000000 0.000000 0.000000
# 3 -0.007000 -0.004084 0.015373 0.000000 0.000000 0.000000
# 4 0.000000 0.000000 0.000000 0.031591 0.000000 0.000000
# 5 0.000000 0.000000 0.000000 0.000000 0.040581 0.000000
# 6 0.000000 0.000000 0.000000 0.000000 0.000000 0.034363
#
#
# Mechanical properties :
#
#
# Convention : Reuss Voigt Hill
#
# Bulk Modulus (GPa) = 45.95918 47.89423 46.92670
# Shear Modulus (GPa) = 25.92526 26.62048 26.27287
#
# Velocity S-wave (km/s) = 3.61135 3.65946 3.63548
# Velocity P-wave (km/s) = 6.36469 6.47680 6.42099
#
# Compressibility (1/GPa) = 0.02175844
#
# Stress axis : x y z
#
# Youngs Moduli (GPa) = 57.35382 56.79222 65.05002
#
# Poissons Ratio (x) = 0.18425 0.45538
# Poissons Ratio (y) = 0.18608 0.26568
# Poissons Ratio (z) = 0.40150 0.23195
#
# Static dielectric constant tensor:
#      x y z
#    x 3.719610 0.000000 0.000000 
#    y 0.000000 3.794140 0.000000 
#    z 0.000000 0.000000 3.683190 
# 
# 
# High freq. dielectric constant tensor:
#      x y z
#    x 1.780800 0.000000 0.000000 
#    y 0.000000 1.772830 0.000000 
#    z 0.000000 0.000000 1.764710 
# 
# From -- ./inp_files/24764.got.cif
#   From: 2010.03.12/outbox.cif.g09.slc.cpg/sg59_13_cif.got.tgz:24764.got - 2010.04.16 16:29:54.
