data_PCOD8245704
_publ_section_title
;
Structure prediction by ZEFSAII (Michael W. Deem and Ramdas Pophale) SiO2 
 PCOD8245704
Probable space group: P M M N
;
_chemical_formula_sum "Si O2"
_cell_formula_units_Z 56
_cell_length_a 19.660666
_cell_length_b 9.266101
_cell_length_c 15.995549
_cell_angle_alpha 90.000000
_cell_angle_beta 90.000000
_cell_angle_gamma 90.000000
_cell_volume 2914.032597
_symmetry_space_group_name_H-M "P M M N"
_symmetry_group_IT_number 59
_space_group.IT_coordinate_system_code '2'
_symmetry_cell_setting 'orthorhombic'
loop_
_space_group_symop_operation_xyz
x,y,z
1/2-x,1/2-y,z
1/2+x,-y,-z
-x,1/2+y,-z
-x,-y,-z
1/2+x,1/2+y,-z
1/2-x,y,z
x,1/2-y,z
loop_
_atom_site_type_symbol
_atom_site_label
_atom_site_fract_x
_atom_site_fract_y
_atom_site_fract_z
Si Si1 0.675323 0.579664 0.684419
Si Si2 0.916897 0.578023 0.830587
Si Si3 0.553624 0.083757 0.246240
Si Si4 0.328813 0.082626 0.503953
Si Si5 0.825874 0.921641 0.979759
Si Si6 0.548732 0.417331 0.436100
Si Si7 0.672533 0.919291 0.167411
O O1 0.750000 0.512140 0.698883
O O2 0.680102 0.750000 0.695859
O O3 0.624765 0.512109 0.752479
O O4 0.650066 0.545300 0.591109
O O5 0.912636 0.750000 0.828709
O O6 0.883235 0.517239 0.916141
O O7 0.995289 0.529982 0.818915
O O8 0.571489 0.250000 0.230594
O O9 0.524757 0.062510 0.340233
O O10 0.622166 0.994920 0.231967
O O11 0.250000 0.046957 0.520855
O O12 0.343640 0.250000 0.523869
O O13 0.375030 0.981371 0.561330
O O14 0.750000 0.974592 0.953161
O O15 0.826197 0.750000 0.978588
O O16 0.842650 0.975644 0.073266
O O17 0.500000 0.500000 0.500000
O O18 0.549104 0.250000 0.461565
O O19 0.750000 0.957125 0.192467
O O20 0.660064 0.750000 0.173431
#
# Coordination Sequence:
#
# PCOD8245704 Si02
#       7
#     8   8   8   8   8   8   8
#     4   8  13  23  43  71 101 132 164 200 244 294
#     4   9  15  25  44  71 103 133 163 201 245 295
#     4  10  22  36  51  75 103 132 167 209 256 304
#     4   9  18  33  53  77 104 134 172 218 264 311
#     4   8  14  26  47  75 103 131 164 202 244 291
#     4  11  23  38  55  75 103 137 174 217 263 314
#     4   9  19  36  55  75 101 132 168 210 252 297
#
# _framework density 19.217355999999999
#
# number of rings (size 3 to 8) (size 9 to 14) (size 15 to 20)
#    0.000    2.857    0.000    3.429    0.000    6.857 
#    0.000    2.857    0.000    0.000    0.000    0.000 
#    0.000    5.714    0.000    0.000    0.000    0.000 
#
# Total GULP energy -694096.902266 kJ/mol
# GULP energy per Si atom -12394.587540 kJ/mol
# Density = 1.917362 g / cm^3
# Si number density = 19.217356 Si / 1000 Ang^3
#
#
#
# Elastic Constant Matrix: (Units=GPa)
#
#
# Indices 1 2 3 4 5 6 
#
# 1 111.7793 44.0476 47.9152 0.0000 0.0000 0.0000
# 2 44.0476 49.2234 30.4511 0.0000 0.0000 0.0000
# 3 47.9152 30.4511 71.7759 0.0000 0.0000 0.0000
# 4 0.0000 0.0000 0.0000 18.1896 0.0000 0.0000
# 5 0.0000 0.0000 0.0000 0.0000 36.7745 0.0000
# 6 0.0000 0.0000 0.0000 0.0000 0.0000 24.9052
#
#
#
# Elastic Compliance Matrix: (Units=1/GPa)
#
#
# Indices 1 2 3 4 5 6 
#
# 1 0.015553 -0.010162 -0.006072 0.000000 0.000000 0.000000
# 2 -0.010162 0.034184 -0.007719 0.000000 0.000000 0.000000
# 3 -0.006072 -0.007719 0.021260 0.000000 0.000000 0.000000
# 4 0.000000 0.000000 0.000000 0.054976 0.000000 0.000000
# 5 0.000000 0.000000 0.000000 0.000000 0.027193 0.000000
# 6 0.000000 0.000000 0.000000 0.000000 0.000000 0.040152
#
#
# Mechanical properties :
#
#
# Convention : Reuss Voigt Hill
#
# Bulk Modulus (GPa) = 43.30372 53.06737 48.18555
# Shear Modulus (GPa) = 20.08670 23.33152 21.70911
#
# Velocity S-wave (km/s) = 3.23652 3.48815 3.36469
# Velocity P-wave (km/s) = 6.04560 6.62550 6.34218
#
# Compressibility (1/GPa) = 0.02309270
#
# Stress axis : x y z
#
# Youngs Moduli (GPa) = 64.29572 29.25353 47.03601
#
# Poissons Ratio (x) = 0.29726 0.28559
# Poissons Ratio (y) = 0.65335 0.36307
# Poissons Ratio (z) = 0.39038 0.22581
#
# Static dielectric constant tensor:
#      x y z
#    x 3.657280 0.000000 0.000000 
#    y 0.000000 2.969790 0.000000 
#    z 0.000000 0.000000 3.653890 
# 
# 
# High freq. dielectric constant tensor:
#      x y z
#    x 1.757380 0.000000 0.000000 
#    y 0.000000 1.688490 0.000000 
#    z 0.000000 0.000000 1.749690 
# 
# From -- ./inp_files/24188.got.cif
#   From: 2010.03.12/outbox.cif.g09.slc.cpg/sg59_13_cif.got.tgz:24188.got - 2010.04.16 16:29:54.
