data_PCOD8245385
_publ_section_title
;
Structure prediction by ZEFSAII (Michael W. Deem and Ramdas Pophale) SiO2 
 PCOD8245385
Probable space group: P M M N
;
_chemical_formula_sum "Si O2"
_cell_formula_units_Z 40
_cell_length_a 8.763715
_cell_length_b 18.761225
_cell_length_c 12.471841
_cell_angle_alpha 90.000000
_cell_angle_beta 90.000000
_cell_angle_gamma 90.000000
_cell_volume 2050.595515
_symmetry_space_group_name_H-M "P M M N"
_symmetry_group_IT_number 59
_space_group.IT_coordinate_system_code '2'
_symmetry_cell_setting 'orthorhombic'
loop_
_space_group_symop_operation_xyz
x,y,z
1/2-x,1/2-y,z
1/2+x,-y,-z
-x,1/2+y,-z
-x,-y,-z
1/2+x,1/2+y,-z
1/2-x,y,z
x,1/2-y,z
loop_
_atom_site_type_symbol
_atom_site_label
_atom_site_fract_x
_atom_site_fract_y
_atom_site_fract_z
Si Si1 0.930885 0.670556 0.531254
Si Si2 0.930122 0.908129 0.318455
Si Si3 0.070094 0.668688 0.116591
Si Si4 0.428913 0.057421 0.295980
Si Si5 0.928544 0.570555 0.950930
O O1 0.750000 0.674344 0.529018
O O2 0.000475 0.750000 0.542184
O O3 0.989548 0.635867 0.420843
O O4 0.984724 0.623732 0.632200
O O5 0.750000 0.901072 0.302713
O O6 0.013111 0.878758 0.214200
O O7 0.975400 0.989851 0.335448
O O8 0.250000 0.660999 0.108069
O O9 0.018327 0.750000 0.133656
O O10 0.997467 0.640387 0.006669
O O11 0.250000 0.041285 0.311786
O O12 0.467911 0.076393 0.173980
O O13 0.750000 0.567727 0.972460
O O14 0.000000 0.500000 0.000000
#
# Coordination Sequence:
#
# PCOD8245385 Si02
#       5
#     8   8   8   8   8
#     4   9  19  36  57  84 117 151 191 240 292 347
#     4  11  21  35  60  88 116 152 193 241 291 349
#     4  11  24  40  59  85 119 156 196 246 298 346
#     4  10  21  37  60  86 115 152 193 239 291 351
#     4  11  22  37  60  87 118 155 196 242 289 347
#
# _framework density 19.506526999999998
#
# number of rings (size 3 to 8) (size 9 to 14) (size 15 to 20)
#    0.000    1.600    2.000    3.000    0.000    4.000 
#    0.000    3.000    0.000    3.000    0.000    0.000 
#    0.000    0.000    0.000    0.000    0.000    0.000 
#
# Total GULP energy -496182.418429 kJ/mol
# GULP energy per Si atom -12404.560461 kJ/mol
# Density = 1.946213 g / cm^3
# Si number density = 19.506527 Si / 1000 Ang^3
#
#
#
# Elastic Constant Matrix: (Units=GPa)
#
#
# Indices 1 2 3 4 5 6 
#
# 1 52.6965 34.1938 30.8864 0.0000 0.0000 0.0000
# 2 34.1938 152.6135 74.4137 0.0000 0.0000 0.0000
# 3 30.8864 74.4137 125.2448 0.0000 0.0000 0.0000
# 4 0.0000 0.0000 0.0000 36.9469 0.0000 0.0000
# 5 0.0000 0.0000 0.0000 0.0000 22.3618 0.0000
# 6 0.0000 0.0000 0.0000 0.0000 0.0000 28.9439
#
#
#
# Elastic Compliance Matrix: (Units=1/GPa)
#
#
# Indices 1 2 3 4 5 6 
#
# 1 0.023384 -0.003418 -0.003736 0.000000 0.000000 0.000000
# 2 -0.003418 0.009724 -0.004935 0.000000 0.000000 0.000000
# 3 -0.003736 -0.004935 0.011838 0.000000 0.000000 0.000000
# 4 0.000000 0.000000 0.000000 0.027066 0.000000 0.000000
# 5 0.000000 0.000000 0.000000 0.000000 0.044719 0.000000
# 6 0.000000 0.000000 0.000000 0.000000 0.000000 0.034550
#
#
# Mechanical properties :
#
#
# Convention : Reuss Voigt Hill
#
# Bulk Modulus (GPa) = 48.14883 67.72696 57.93789
# Shear Modulus (GPa) = 27.41511 30.38792 28.90151
#
# Velocity S-wave (km/s) = 3.75298 3.95122 3.85337
# Velocity P-wave (km/s) = 6.59673 7.45733 7.04019
#
# Compressibility (1/GPa) = 0.02076894
#
# Stress axis : x y z
#
# Youngs Moduli (GPa) = 42.76428 102.83311 84.47501
#
# Poissons Ratio (x) = 0.35144 0.31561
# Poissons Ratio (y) = 0.14615 0.41688
# Poissons Ratio (z) = 0.15977 0.50748
#
# Static dielectric constant tensor:
#      x y z
#    x 3.431740 0.000000 0.000000 
#    y 0.000000 3.853450 0.000000 
#    z 0.000000 0.000000 3.791440 
# 
# 
# High freq. dielectric constant tensor:
#      x y z
#    x 1.746100 0.000000 0.000000 
#    y 0.000000 1.769640 0.000000 
#    z 0.000000 0.000000 1.773390 
# 
# From -- ./inp_files/13809.got.cif
#   From: 2010.03.12/outbox.cif.g09.slc.cpg/sg59_7_cif.got.tgz:13809.got - 2010.04.16 16:29:54.
