data_PCOD8245866
_publ_section_title
;
Structure prediction by ZEFSAII (Michael W. Deem and Ramdas Pophale) SiO2 
 PCOD8245866
Probable space group: P M M N
;
_chemical_formula_sum "Si O2"
_cell_formula_units_Z 38
_cell_length_a 11.101496
_cell_length_b 10.067571
_cell_length_c 18.484468
_cell_angle_alpha 90.000000
_cell_angle_beta 90.000000
_cell_angle_gamma 90.000000
_cell_volume 2065.918399
_symmetry_space_group_name_H-M "P M M N"
_symmetry_group_IT_number 59
_space_group.IT_coordinate_system_code '2'
_symmetry_cell_setting 'orthorhombic'
loop_
_space_group_symop_operation_xyz
x,y,z
1/2-x,1/2-y,z
1/2+x,-y,-z
-x,1/2+y,-z
-x,-y,-z
1/2+x,1/2+y,-z
1/2-x,y,z
x,1/2-y,z
loop_
_atom_site_type_symbol
_atom_site_label
_atom_site_fract_x
_atom_site_fract_y
_atom_site_fract_z
Si Si1 0.610558 0.250000 0.580498
Si Si2 0.392792 0.408885 0.035367
Si Si3 0.988075 0.750000 0.565835
Si Si4 0.000617 0.995220 0.335861
Si Si5 0.111109 0.106016 0.199992
Si Si6 0.250000 0.250000 0.524772
Si Si7 0.750000 0.895663 0.336574
O O1 0.750000 0.250000 0.599682
O O2 0.594560 0.250000 0.493590
O O3 0.547481 0.123658 0.615180
O O4 0.250000 0.442335 0.013893
O O5 0.414111 0.250000 0.021134
O O6 0.412621 0.445277 0.119234
O O7 0.500000 0.500000 0.000000
O O8 0.991009 0.624849 0.616790
O O9 0.863949 0.750000 0.524862
O O10 0.864240 0.976828 0.310870
O O11 0.069457 0.001197 0.259939
O O12 0.250000 0.127363 0.212487
O O13 0.047159 0.250000 0.211467
O O14 0.250000 0.118935 0.575558
O O15 0.750000 0.750000 0.299622
#
# Coordination Sequence:
#
# PCOD8245866 Si02
#       7
#     4   8   4   8   8   2   4
#     4  12  26  38  58  84 115 147 194 252 292 355
#     4   9  19  39  67  95 128 161 197 243 295 355
#     4  12  26  36  64  84 107 147 202 247 297 350
#     4  12  23  41  59  85 111 154 198 242 298 348
#     4   9  19  39  63  90 120 153 195 246 290 337
#     4  10  22  42  56  82 110 152 188 240 316 350
#     4  10  22  43  55  70 122 156 182 242 310 348
#
# _framework density 18.393757000000001
#
# number of rings (size 3 to 8) (size 9 to 14) (size 15 to 20)
#    0.316    1.263    4.211    2.526    4.421    0.421 
#    3.789    0.000    0.000    0.000    0.000    0.000 
#    0.000    0.000    0.000    0.000    0.000    0.000 
#
# Total GULP energy -470752.329971 kJ/mol
# GULP energy per Si atom -12388.219210 kJ/mol
# Density = 1.835189 g / cm^3
# Si number density = 18.393757 Si / 1000 Ang^3
#
#
#
# Elastic Constant Matrix: (Units=GPa)
#
#
# Indices 1 2 3 4 5 6 
#
# 1 91.7762 39.5498 46.9203 0.0000 0.0000 0.0000
# 2 39.5498 108.7327 48.9169 0.0000 0.0000 0.0000
# 3 46.9203 48.9169 105.1472 0.0000 0.0000 0.0000
# 4 0.0000 0.0000 0.0000 -12.9747 0.0000 0.0000
# 5 0.0000 0.0000 0.0000 0.0000 43.0186 0.0000
# 6 0.0000 0.0000 0.0000 0.0000 0.0000 24.1098
#
#
#
# Elastic Compliance Matrix: (Units=1/GPa)
#
#
# Indices 1 2 3 4 5 6 
#
# 1 0.014884 -0.003068 -0.005215 0.000000 0.000000 0.000000
# 2 -0.003068 0.012264 -0.004336 0.000000 0.000000 0.000000
# 3 -0.005215 -0.004336 0.013855 0.000000 0.000000 0.000000
# 4 0.000000 0.000000 0.000000 -0.077073 0.000000 0.000000
# 5 0.000000 0.000000 0.000000 0.000000 0.023246 0.000000
# 6 0.000000 0.000000 0.000000 0.000000 0.000000 0.041477
#
#
# Mechanical properties :
#
#
# Convention : Reuss Voigt Hill
#
# Bulk Modulus (GPa) = 63.43202 64.04780 63.73991
# Shear Modulus (GPa) = 84.53909 22.18202 53.36056
#
# Velocity S-wave (km/s) = 6.78679 3.47645 5.39195
# Velocity P-wave (km/s) = 9.79666 7.14215 8.57277
#
# Compressibility (1/GPa) = 0.01576491
#
# Stress axis : x y z
#
# Youngs Moduli (GPa) = 67.18595 81.54216 72.17762
#
# Poissons Ratio (x) = 0.25017 0.37637
# Poissons Ratio (y) = 0.20612 0.31298
# Poissons Ratio (z) = 0.35034 0.35359
#
# Static dielectric constant tensor:
#      x y z
#    x 3.582570 0.000000 0.000000 
#    y 0.000000 3.351620 0.000000 
#    z 0.000000 0.000000 3.943520 
# 
# 
# High freq. dielectric constant tensor:
#      x y z
#    x 1.721320 0.000000 0.000000 
#    y 0.000000 1.712180 0.000000 
#    z 0.000000 0.000000 1.704200 
# 
# From -- ./inp_files/26781.got.cif
#   From: 2010.03.12/outbox.cif.g09.slc.cpg/sg59_14_cif.got.tgz:26781.got - 2010.04.16 16:29:54.
