data_PCOD8245900
_publ_section_title
;
Structure prediction by ZEFSAII (Michael W. Deem and Ramdas Pophale) SiO2 
 PCOD8245900
Probable space group: P M M N
;
_chemical_formula_sum "Si O2"
_cell_formula_units_Z 40
_cell_length_a 18.614565
_cell_length_b 19.256386
_cell_length_c 5.145628
_cell_angle_alpha 90.000000
_cell_angle_beta 90.000000
_cell_angle_gamma 90.000000
_cell_volume 1844.446492
_symmetry_space_group_name_H-M "P M M N"
_symmetry_group_IT_number 59
_space_group.IT_coordinate_system_code '2'
_symmetry_cell_setting 'orthorhombic'
loop_
_space_group_symop_operation_xyz
x,y,z
1/2-x,1/2-y,z
1/2+x,-y,-z
-x,1/2+y,-z
-x,-y,-z
1/2+x,1/2+y,-z
1/2-x,y,z
x,1/2-y,z
loop_
_atom_site_type_symbol
_atom_site_label
_atom_site_fract_x
_atom_site_fract_y
_atom_site_fract_z
Si Si1 0.665473 0.170124 0.741744
Si Si2 0.455071 0.386894 0.316855
Si Si3 0.600576 0.827486 0.194811
Si Si4 0.670055 0.548923 0.424901
Si Si5 0.614798 0.407668 0.241195
O O1 0.750000 0.159931 0.774546
O O2 0.643134 0.250000 0.777570
O O3 0.642270 0.146344 0.455660
O O4 0.626079 0.124126 0.957320
O O5 0.458050 0.338889 0.575227
O O6 0.390670 0.444216 0.348259
O O7 0.530582 0.425241 0.277624
O O8 0.439260 0.336839 0.076723
O O9 0.633066 0.750000 0.208609
O O10 0.664117 0.884088 0.233157
O O11 0.750000 0.547332 0.546915
O O12 0.657627 0.479511 0.259957
#
# Coordination Sequence:
#
# PCOD8245900 Si02
#       5
#     8   8   8   8   8
#     4  11  25  43  65  98 136 174 217 266 328 398
#     4  10  24  41  67  95 131 165 223 271 325 387
#     4  10  23  42  65  93 132 172 220 273 326 385
#     4  10  25  44  67  97 133 177 223 270 330 391
#     4  12  24  42  71  98 133 172 218 275 327 390
#
# _framework density 21.686724999999999
#
# number of rings (size 3 to 8) (size 9 to 14) (size 15 to 20)
#    1.200    0.200    0.000    4.800    2.800    8.400 
#    0.000    0.000    0.000    0.000    0.000    0.000 
#    0.000    0.000    0.000    0.000    0.000    0.000 
#
# Total GULP energy -495865.902041 kJ/mol
# GULP energy per Si atom -12396.647551 kJ/mol
# Density = 2.163736 g / cm^3
# Si number density = 21.686725 Si / 1000 Ang^3
#
#
#
# Elastic Constant Matrix: (Units=GPa)
#
#
# Indices 1 2 3 4 5 6 
#
# 1 117.8402 41.9707 -0.3927 0.0000 0.0000 0.0000
# 2 41.9707 104.3407 1.9684 0.0000 0.0000 0.0000
# 3 -0.3927 1.9684 88.6974 0.0000 0.0000 0.0000
# 4 0.0000 0.0000 0.0000 19.8208 0.0000 0.0000
# 5 0.0000 0.0000 0.0000 0.0000 19.3031 0.0000
# 6 0.0000 0.0000 0.0000 0.0000 0.0000 23.8380
#
#
#
# Elastic Compliance Matrix: (Units=1/GPa)
#
#
# Indices 1 2 3 4 5 6 
#
# 1 0.009907 -0.003987 0.000132 0.000000 0.000000 0.000000
# 2 -0.003987 0.011193 -0.000266 0.000000 0.000000 0.000000
# 3 0.000132 -0.000266 0.011281 0.000000 0.000000 0.000000
# 4 0.000000 0.000000 0.000000 0.050452 0.000000 0.000000
# 5 0.000000 0.000000 0.000000 0.000000 0.051805 0.000000
# 6 0.000000 0.000000 0.000000 0.000000 0.000000 0.041950
#
#
# Mechanical properties :
#
#
# Convention : Reuss Voigt Hill
#
# Bulk Modulus (GPa) = 41.42822 44.21903 42.82363
# Shear Modulus (GPa) = 25.92344 30.41452 28.16898
#
# Velocity S-wave (km/s) = 3.46115 3.74899 3.60794
# Velocity P-wave (km/s) = 5.92598 6.25892 6.09472
#
# Compressibility (1/GPa) = 0.02413814
#
# Stress axis : x y z
#
# Youngs Moduli (GPa) = 100.94181 89.34204 88.64641
#
# Poissons Ratio (x) = 0.35625 -0.01173
# Poissons Ratio (y) = 0.40250 0.02359
# Poissons Ratio (z) = -0.01336 0.02377
#
# Static dielectric constant tensor:
#      x y z
#    x 3.817130 0.000000 0.000000 
#    y 0.000000 3.782000 0.000000 
#    z 0.000000 0.000000 3.806480 
# 
# 
# High freq. dielectric constant tensor:
#      x y z
#    x 1.844450 0.000000 0.000000 
#    y 0.000000 1.852560 0.000000 
#    z 0.000000 0.000000 1.852080 
# 
# From -- ./inp_files/3268.got.cif
#   From: 2010.03.12/outbox.cif.g09.slc.cpg/sg59_2_cif.got.tgz:3268.got - 2010.04.16 16:29:54.
