data_PCOD8245912
_publ_section_title
;
Structure prediction by ZEFSAII (Michael W. Deem and Ramdas Pophale) SiO2 
 PCOD8245912
Probable space group: P M M N
;
_chemical_formula_sum "Si O2"
_cell_formula_units_Z 32
_cell_length_a 14.307892
_cell_length_b 7.520356
_cell_length_c 14.298404
_cell_angle_alpha 90.000000
_cell_angle_beta 90.000000
_cell_angle_gamma 90.000000
_cell_volume 1538.514582
_symmetry_space_group_name_H-M "P M M N"
_symmetry_group_IT_number 59
_space_group.IT_coordinate_system_code '2'
_symmetry_cell_setting 'orthorhombic'
loop_
_space_group_symop_operation_xyz
x,y,z
1/2-x,1/2-y,z
1/2+x,-y,-z
-x,1/2+y,-z
-x,-y,-z
1/2+x,1/2+y,-z
1/2-x,y,z
x,1/2-y,z
loop_
_atom_site_type_symbol
_atom_site_label
_atom_site_fract_x
_atom_site_fract_y
_atom_site_fract_z
Si Si1 0.066210 0.454362 0.415802
Si Si2 0.250000 0.456558 0.520690
Si Si3 0.750000 0.250000 0.324436
Si Si4 0.750000 0.250000 0.022606
Si Si5 0.946706 0.448059 0.787736
Si Si6 0.250000 0.451849 0.129587
Si Si7 0.909738 0.250000 0.172683
O O1 0.058948 0.250000 0.385839
O O2 0.166453 0.507756 0.453196
O O3 0.040503 0.565020 0.324016
O O4 0.000000 0.500000 0.500000
O O5 0.250000 0.250000 0.551894
O O6 0.250000 0.571686 0.614550
O O7 0.844876 0.250000 0.264483
O O8 0.844258 0.250000 0.082515
O O9 0.750000 0.426623 0.961364
O O10 0.961829 0.250000 0.829302
O O11 0.841888 0.514256 0.808340
O O12 0.024889 0.575948 0.831921
O O13 0.250000 0.250000 0.094082
#
# Coordination Sequence:
#
# PCOD8245912 Si02
#       7
#     8   4   2   2   8   4   4
#     4  11  22  38  60  95 134 175 228 274 319 391
#     4  10  24  38  58  91 129 182 227 279 326 384
#     4  11  24  42  65  88 140 186 235 270 342 393
#     4  11  28  50  73 104 136 170 231 276 358 415
#     4  12  24  43  71 103 140 180 222 278 350 400
#     4  12  24  48  74 105 137 168 221 290 340 417
#     4  11  26  47  68 100 136 181 220 287 340 424
#
# _framework density 20.799284
#
# number of rings (size 3 to 8) (size 9 to 14) (size 15 to 20)
#    0.000    0.750    3.750    3.000    3.500    6.000 
#    0.000    2.500    0.000    0.000    0.000    0.000 
#    0.000    0.000    0.000    0.000    0.000    0.000 
#
# Total GULP energy -396887.195896 kJ/mol
# GULP energy per Si atom -12402.724872 kJ/mol
# Density = 2.075194 g / cm^3
# Si number density = 20.799284 Si / 1000 Ang^3
#
#
#
# Elastic Constant Matrix: (Units=GPa)
#
#
# Indices 1 2 3 4 5 6 
#
# 1 152.8603 52.8197 44.1398 0.0000 0.0000 0.0000
# 2 52.8197 147.3600 40.3592 0.0000 0.0000 0.0000
# 3 44.1398 40.3592 109.8568 0.0000 0.0000 0.0000
# 4 0.0000 0.0000 0.0000 29.1314 0.0000 0.0000
# 5 0.0000 0.0000 0.0000 0.0000 37.2278 0.0000
# 6 0.0000 0.0000 0.0000 0.0000 0.0000 32.0635
#
#
#
# Elastic Compliance Matrix: (Units=1/GPa)
#
#
# Indices 1 2 3 4 5 6 
#
# 1 0.007999 -0.002209 -0.002402 0.000000 0.000000 0.000000
# 2 -0.002209 0.008155 -0.002109 0.000000 0.000000 0.000000
# 3 -0.002402 -0.002109 0.010843 0.000000 0.000000 0.000000
# 4 0.000000 0.000000 0.000000 0.034327 0.000000 0.000000
# 5 0.000000 0.000000 0.000000 0.000000 0.026862 0.000000
# 6 0.000000 0.000000 0.000000 0.000000 0.000000 0.031188
#
#
# Mechanical properties :
#
#
# Convention : Reuss Voigt Hill
#
# Bulk Modulus (GPa) = 73.76270 76.07939 74.92105
# Shear Modulus (GPa) = 36.40780 37.86842 37.13811
#
# Velocity S-wave (km/s) = 4.18836 4.27155 4.23016
# Velocity P-wave (km/s) = 7.67664 7.80932 7.74327
#
# Compressibility (1/GPa) = 0.01355699
#
# Stress axis : x y z
#
# Youngs Moduli (GPa) = 125.01584 122.61742 92.22863
#
# Poissons Ratio (x) = 0.27089 0.22156
# Poissons Ratio (y) = 0.27619 0.19446
# Poissons Ratio (z) = 0.30033 0.25854
#
# Static dielectric constant tensor:
#      x y z
#    x 3.989730 0.000000 0.000000 
#    y 0.000000 3.347510 0.000000 
#    z 0.000000 0.000000 3.610150 
# 
# 
# High freq. dielectric constant tensor:
#      x y z
#    x 1.833160 0.000000 0.000000 
#    y 0.000000 1.827960 0.000000 
#    z 0.000000 0.000000 1.807410 
# 
# From -- ./inp_files/22106.got.cif
#   From: 2010.03.12/outbox.cif.g09.slc.cpg/sg59_12_cif.got.tgz:22106.got - 2010.04.16 16:29:54.
