data_PCOD8245938
_publ_section_title
;
Structure prediction by ZEFSAII (Michael W. Deem and Ramdas Pophale) SiO2 
 PCOD8245938
Probable space group: P M M N
;
_chemical_formula_sum "Si O2"
_cell_formula_units_Z 48
_cell_length_a 20.600848
_cell_length_b 8.960917
_cell_length_c 15.066614
_cell_angle_alpha 90.000000
_cell_angle_beta 90.000000
_cell_angle_gamma 90.000000
_cell_volume 2781.334446
_symmetry_space_group_name_H-M "P M M N"
_symmetry_group_IT_number 59
_space_group.IT_coordinate_system_code '2'
_symmetry_cell_setting 'orthorhombic'
loop_
_space_group_symop_operation_xyz
x,y,z
1/2-x,1/2-y,z
1/2+x,-y,-z
-x,1/2+y,-z
-x,-y,-z
1/2+x,1/2+y,-z
1/2-x,y,z
x,1/2-y,z
loop_
_atom_site_type_symbol
_atom_site_label
_atom_site_fract_x
_atom_site_fract_y
_atom_site_fract_z
Si Si1 0.820390 0.922887 0.870203
Si Si2 0.178463 0.421221 0.486503
Si Si3 0.650570 0.425552 0.690857
Si Si4 0.022188 0.420036 0.273995
Si Si5 0.555413 0.422310 0.441532
Si Si6 0.540785 0.577890 0.924847
O O1 0.750000 0.945711 0.919119
O O2 0.830706 0.750000 0.844737
O O3 0.883045 0.974505 0.927842
O O4 0.817068 0.017376 0.780776
O O5 0.250000 0.432261 0.531647
O O6 0.156629 0.250000 0.475584
O O7 0.185554 0.496288 0.390821
O O8 0.125509 0.504290 0.546294
O O9 0.660061 0.250000 0.683392
O O10 0.574903 0.467207 0.686690
O O11 0.048905 0.250000 0.278905
O O12 0.008688 0.460158 0.170968
O O13 0.959205 0.437948 0.336087
O O14 0.500000 0.500000 0.500000
O O15 0.558569 0.250000 0.470679
O O16 0.536125 0.750000 0.946924
O O17 0.500000 0.500000 0.000000
#
# Coordination Sequence:
#
# PCOD8245938 Si02
#       6
#     8   8   8   8   8   8
#     4   9  18  33  51  70  99 137 169 201 251 314
#     4  11  23  36  49  68 102 144 179 216 263 309
#     4  11  20  29  47  75 104 133 168 210 253 305
#     4   9  19  35  53  73 102 137 170 206 258 315
#     4  11  21  34  55  78 102 135 177 219 255 304
#     4   9  18  33  53  77 102 131 167 207 254 307
#
# _framework density 17.257902999999999
#
# number of rings (size 3 to 8) (size 9 to 14) (size 15 to 20)
#    0.000    2.000    1.667    4.000    0.000    7.000 
#    0.000    0.000    0.000    1.000    0.000    4.667 
#    0.000    0.000    0.000    0.000    0.000    0.000 
#
# Total GULP energy -594896.696397 kJ/mol
# GULP energy per Si atom -12393.681175 kJ/mol
# Density = 1.721862 g / cm^3
# Si number density = 17.257903 Si / 1000 Ang^3
#
#
#
# Elastic Constant Matrix: (Units=GPa)
#
#
# Indices 1 2 3 4 5 6 
#
# 1 139.0857 52.7107 66.9909 0.0000 0.0000 0.0000
# 2 52.7107 100.6540 36.4308 0.0000 0.0000 0.0000
# 3 66.9909 36.4308 85.2101 0.0000 0.0000 0.0000
# 4 0.0000 0.0000 0.0000 27.1820 0.0000 0.0000
# 5 0.0000 0.0000 0.0000 0.0000 20.5654 0.0000
# 6 0.0000 0.0000 0.0000 0.0000 0.0000 26.4241
#
#
#
# Elastic Compliance Matrix: (Units=1/GPa)
#
#
# Indices 1 2 3 4 5 6 
#
# 1 0.012561 -0.003554 -0.008356 0.000000 0.000000 0.000000
# 2 -0.003554 0.012759 -0.002661 0.000000 0.000000 0.000000
# 3 -0.008356 -0.002661 0.019443 0.000000 0.000000 0.000000
# 4 0.000000 0.000000 0.000000 0.036789 0.000000 0.000000
# 5 0.000000 0.000000 0.000000 0.000000 0.048625 0.000000
# 6 0.000000 0.000000 0.000000 0.000000 0.000000 0.037844
#
#
# Mechanical properties :
#
#
# Convention : Reuss Voigt Hill
#
# Bulk Modulus (GPa) = 64.01499 70.80162 67.40831
# Shear Modulus (GPa) = 24.70702 26.08880 25.39791
#
# Velocity S-wave (km/s) = 3.78780 3.89228 3.84039
# Velocity P-wave (km/s) = 7.50357 7.83036 7.66870
#
# Compressibility (1/GPa) = 0.01562134
#
# Stress axis : x y z
#
# Youngs Moduli (GPa) = 79.60910 78.37449 51.43235
#
# Poissons Ratio (x) = 0.27852 0.42978
# Poissons Ratio (y) = 0.28291 0.13687
# Poissons Ratio (z) = 0.66523 0.20857
#
# Static dielectric constant tensor:
#      x y z
#    x 3.384490 0.000000 0.000000 
#    y 0.000000 3.274770 0.000000 
#    z 0.000000 0.000000 3.042740 
# 
# 
# High freq. dielectric constant tensor:
#      x y z
#    x 1.668370 0.000000 0.000000 
#    y 0.000000 1.673260 0.000000 
#    z 0.000000 0.000000 1.631600 
# 
# From -- ./inp_files/20718.got.cif
#   From: 2010.03.12/outbox.cif.g09.slc.cpg/sg59_11_cif.got.tgz:20718.got - 2010.04.16 16:29:54.
