data_PCOD8245932
_publ_section_title
;
Structure prediction by ZEFSAII (Michael W. Deem and Ramdas Pophale) SiO2 
 PCOD8245932
Probable space group: P M M N
;
_chemical_formula_sum "Si O2"
_cell_formula_units_Z 64
_cell_length_a 9.370272
_cell_length_b 13.859324
_cell_length_c 31.475628
_cell_angle_alpha 90.000000
_cell_angle_beta 90.000000
_cell_angle_gamma 90.000000
_cell_volume 4087.602437
_symmetry_space_group_name_H-M "P M M N"
_symmetry_group_IT_number 59
_space_group.IT_coordinate_system_code '2'
_symmetry_cell_setting 'orthorhombic'
loop_
_space_group_symop_operation_xyz
x,y,z
1/2-x,1/2-y,z
1/2+x,-y,-z
-x,1/2+y,-z
-x,-y,-z
1/2+x,1/2+y,-z
1/2-x,y,z
x,1/2-y,z
loop_
_atom_site_type_symbol
_atom_site_label
_atom_site_fract_x
_atom_site_fract_y
_atom_site_fract_z
Si Si1 0.591106 0.636146 0.967783
Si Si2 0.582259 0.360496 0.355075
Si Si3 0.918880 0.456780 0.106095
Si Si4 0.081510 0.355347 0.939035
Si Si5 0.907594 0.864550 0.724364
Si Si6 0.916795 0.025561 0.437686
Si Si7 0.417604 0.138486 0.180946
Si Si8 0.583279 0.139275 0.522105
O O1 0.750000 0.591892 0.959128
O O2 0.604632 0.750000 0.966442
O O3 0.478564 0.605751 0.932454
O O4 0.530334 0.606658 0.014498
O O5 0.750000 0.367144 0.349385
O O6 0.534752 0.250000 0.363356
O O7 0.513241 0.403106 0.312049
O O8 0.529712 0.424999 0.394383
O O9 0.750000 0.440554 0.109151
O O10 0.960451 0.568425 0.097301
O O11 0.990830 0.427921 0.150114
O O12 0.250000 0.345177 0.942527
O O13 0.015144 0.250000 0.927749
O O14 0.750000 0.905846 0.714753
O O15 0.902923 0.750000 0.724101
O O16 0.957464 0.896535 0.771374
O O17 0.750000 0.001963 0.436270
O O18 0.952911 0.100541 0.475173
O O19 0.999389 0.924749 0.443441
O O20 0.250000 0.124435 0.172140
O O21 0.459785 0.250000 0.173818
O O22 0.750000 0.130279 0.531936
O O23 0.532091 0.250000 0.525294
#
# Coordination Sequence:
#
# PCOD8245932 Si02
#       8
#     8   8   8   8   8   8   8   8
#     4   9  17  30  46  60  80 114 144 162 193 246
#     4   9  16  26  42  64  89 115 140 170 212 255
#     4  11  20  27  42  67  87 105 135 176 211 236
#     4   8  16  31  46  59  79 109 142 171 202 243
#     4   8  15  28  44  61  82 110 142 171 200 242
#     4   9  17  28  42  62  87 115 147 180 215 257
#     4   9  18  32  46  60  85 119 143 159 194 253
#     4   9  17  29  43  59  84 118 152 184 216 250
#
# _framework density 15.657099000000001
#
# number of rings (size 3 to 8) (size 9 to 14) (size 15 to 20)
#    0.000    3.000    0.000    3.000    0.000    4.750 
#    0.000    1.875    0.000    5.250    0.000    0.875 
#    0.000    3.000    0.000    0.000    0.000    0.000 
#
# Total GULP energy -793290.832158 kJ/mol
# GULP energy per Si atom -12395.169252 kJ/mol
# Density = 1.562146 g / cm^3
# Si number density = 15.657099 Si / 1000 Ang^3
#
#
#
# Elastic Constant Matrix: (Units=GPa)
#
#
# Indices 1 2 3 4 5 6 
#
# 1 50.0898 36.1015 53.0156 0.0000 0.0000 0.0000
# 2 36.1015 77.0800 59.6685 0.0000 0.0000 0.0000
# 3 53.0156 59.6685 131.5887 0.0000 0.0000 0.0000
# 4 0.0000 0.0000 0.0000 24.1834 0.0000 0.0000
# 5 0.0000 0.0000 0.0000 0.0000 28.0703 0.0000
# 6 0.0000 0.0000 0.0000 0.0000 0.0000 19.8735
#
#
#
# Elastic Compliance Matrix: (Units=1/GPa)
#
#
# Indices 1 2 3 4 5 6 
#
# 1 0.038727 -0.009338 -0.011368 0.000000 0.000000 0.000000
# 2 -0.009338 0.022242 -0.006324 0.000000 0.000000 0.000000
# 3 -0.011368 -0.006324 0.015047 0.000000 0.000000 0.000000
# 4 0.000000 0.000000 0.000000 0.041351 0.000000 0.000000
# 5 0.000000 0.000000 0.000000 0.000000 0.035625 0.000000
# 6 0.000000 0.000000 0.000000 0.000000 0.000000 0.050318
#
#
# Mechanical properties :
#
#
# Convention : Reuss Voigt Hill
#
# Bulk Modulus (GPa) = 45.54476 61.81439 53.67958
# Shear Modulus (GPa) = 18.89022 21.75699 20.32361
#
# Velocity S-wave (km/s) = 3.47723 3.73177 3.60675
# Velocity P-wave (km/s) = 6.72856 7.62456 7.19053
#
# Compressibility (1/GPa) = 0.02195642
#
# Stress axis : x y z
#
# Youngs Moduli (GPa) = 25.82209 44.95974 66.45854
#
# Poissons Ratio (x) = 0.41982 0.75552
# Poissons Ratio (y) = 0.24112 0.42025
# Poissons Ratio (z) = 0.29355 0.28430
#
# Static dielectric constant tensor:
#      x y z
#    x 2.976010 0.000000 0.000000 
#    y 0.000000 2.968940 0.000000 
#    z 0.000000 0.000000 3.095680 
# 
# 
# High freq. dielectric constant tensor:
#      x y z
#    x 1.592570 0.000000 0.000000 
#    y 0.000000 1.576530 0.000000 
#    z 0.000000 0.000000 1.595150 
# 
# From -- ./inp_files/33223.got.cif
#   From: 2010.03.12/outbox.cif.g09.slc.cpg/sg59_17_cif.got.tgz:33223.got - 2010.04.16 16:29:54.
