data_PCOD8245203
_publ_section_title
;
Structure prediction by ZEFSAII (Michael W. Deem and Ramdas Pophale) SiO2 
 PCOD8245203
Probable space group: P M M N
;
_chemical_formula_sum "Si O2"
_cell_formula_units_Z 40
_cell_length_a 8.646720
_cell_length_b 25.300938
_cell_length_c 9.257498
_cell_angle_alpha 90.000000
_cell_angle_beta 90.000000
_cell_angle_gamma 90.000000
_cell_volume 2025.264010
_symmetry_space_group_name_H-M "P M M N"
_symmetry_group_IT_number 59
_space_group.IT_coordinate_system_code '2'
_symmetry_cell_setting 'orthorhombic'
loop_
_space_group_symop_operation_xyz
x,y,z
1/2-x,1/2-y,z
1/2+x,-y,-z
-x,1/2+y,-z
-x,-y,-z
1/2+x,1/2+y,-z
1/2-x,y,z
x,1/2-y,z
loop_
_atom_site_type_symbol
_atom_site_label
_atom_site_fract_x
_atom_site_fract_y
_atom_site_fract_z
Si Si1 0.566734 0.596221 0.341869
Si Si2 0.068332 0.097753 0.332596
Si Si3 0.070932 0.689056 0.836397
Si Si4 0.430507 0.310031 0.858204
Si Si5 0.432460 0.502331 0.841369
O O1 0.750000 0.594188 0.346606
O O2 0.502673 0.593283 0.504642
O O3 0.512468 0.651063 0.268566
O O4 0.500733 0.546670 0.251666
O O5 0.250000 0.086477 0.325021
O O6 0.032305 0.156197 0.275144
O O7 0.979132 0.056557 0.233394
O O8 0.250000 0.675302 0.814198
O O9 0.034628 0.750000 0.804183
O O10 0.025206 0.674700 0.999602
O O11 0.250000 0.318129 0.893192
O O12 0.465172 0.250000 0.808729
O O13 0.250000 0.498551 0.852969
O O14 0.500000 0.500000 0.000000
#
# Coordination Sequence:
#
# PCOD8245203 Si02
#       5
#     8   8   8   8   8
#     4   9  20  36  55  81 112 145 183 228 275 326
#     4  11  22  37  57  82 112 146 185 227 276 331
#     4  10  21  37  56  81 113 147 185 229 276 327
#     4   9  17  33  58  84 109 141 184 232 278 326
#     4  11  22  38  59  83 112 146 186 230 276 327
#
# _framework density 19.750509999999998
#
# number of rings (size 3 to 8) (size 9 to 14) (size 15 to 20)
#    0.000    2.000    0.000    3.600    0.000    3.600 
#    0.000    8.000    0.000    2.400    0.000    0.000 
#    0.000    0.000    0.000    0.000    0.000    0.000 
#
# Total GULP energy -496146.205959 kJ/mol
# GULP energy per Si atom -12403.655149 kJ/mol
# Density = 1.970556 g / cm^3
# Si number density = 19.750510 Si / 1000 Ang^3
#
#
#
# Elastic Constant Matrix: (Units=GPa)
#
#
# Indices 1 2 3 4 5 6 
#
# 1 43.6815 23.7202 29.7055 0.0000 0.0000 0.0000
# 2 23.7202 119.0800 81.8407 0.0000 0.0000 0.0000
# 3 29.7055 81.8407 167.4963 0.0000 0.0000 0.0000
# 4 0.0000 0.0000 0.0000 32.8086 0.0000 0.0000
# 5 0.0000 0.0000 0.0000 0.0000 25.4009 0.0000
# 6 0.0000 0.0000 0.0000 0.0000 0.0000 22.8913
#
#
#
# Elastic Compliance Matrix: (Units=1/GPa)
#
#
# Indices 1 2 3 4 5 6 
#
# 1 0.026780 -0.003117 -0.003226 0.000000 0.000000 0.000000
# 2 -0.003117 0.013006 -0.005802 0.000000 0.000000 0.000000
# 3 -0.003226 -0.005802 0.009378 0.000000 0.000000 0.000000
# 4 0.000000 0.000000 0.000000 0.030480 0.000000 0.000000
# 5 0.000000 0.000000 0.000000 0.000000 0.039369 0.000000
# 6 0.000000 0.000000 0.000000 0.000000 0.000000 0.043685
#
#
# Mechanical properties :
#
#
# Convention : Reuss Voigt Hill
#
# Bulk Modulus (GPa) = 40.20536 66.75453 53.47994
# Shear Modulus (GPa) = 25.60442 29.21960 27.41201
#
# Velocity S-wave (km/s) = 3.60445 3.85052 3.72951
# Velocity P-wave (km/s) = 6.14195 7.32399 6.75886
#
# Compressibility (1/GPa) = 0.02487231
#
# Stress axis : x y z
#
# Youngs Moduli (GPa) = 37.34173 76.88556 106.63787
#
# Poissons Ratio (x) = 0.23965 0.34406
# Poissons Ratio (y) = 0.11639 0.61874
# Poissons Ratio (z) = 0.12048 0.44611
#
# Static dielectric constant tensor:
#      x y z
#    x 3.407230 0.000000 0.000000 
#    y 0.000000 3.991380 0.000000 
#    z 0.000000 0.000000 3.755050 
# 
# 
# High freq. dielectric constant tensor:
#      x y z
#    x 1.753820 0.000000 0.000000 
#    y 0.000000 1.784540 0.000000 
#    z 0.000000 0.000000 1.774580 
# 
# From -- ./inp_files/5649.got.cif
#   From: 2010.03.12/outbox.cif.g09.slc.cpg/sg59_3_cif.got.tgz:5649.got - 2010.04.16 16:29:54.
