data_PCOD8245689
_publ_section_title
;
Structure prediction by ZEFSAII (Michael W. Deem and Ramdas Pophale) SiO2 
 PCOD8245689
Probable space group: P M M N
;
_chemical_formula_sum "Si O2"
_cell_formula_units_Z 40
_cell_length_a 8.802104
_cell_length_b 15.381835
_cell_length_c 14.513598
_cell_angle_alpha 90.000000
_cell_angle_beta 90.000000
_cell_angle_gamma 90.000000
_cell_volume 1965.032482
_symmetry_space_group_name_H-M "P M M N"
_symmetry_group_IT_number 59
_space_group.IT_coordinate_system_code '2'
_symmetry_cell_setting 'orthorhombic'
loop_
_space_group_symop_operation_xyz
x,y,z
1/2-x,1/2-y,z
1/2+x,-y,-z
-x,1/2+y,-z
-x,-y,-z
1/2+x,1/2+y,-z
1/2-x,y,z
x,1/2-y,z
loop_
_atom_site_type_symbol
_atom_site_label
_atom_site_fract_x
_atom_site_fract_y
_atom_site_fract_z
Si Si1 0.075116 0.898881 0.290928
Si Si2 0.922262 0.646415 0.108581
Si Si3 0.572297 0.750000 0.406350
Si Si4 0.929836 0.846264 0.908092
Si Si5 0.928579 0.250000 0.394882
Si Si6 0.573898 0.594195 0.714371
O O1 0.250000 0.871429 0.304150
O O2 0.034498 0.894344 0.183330
O O3 0.968679 0.835954 0.349363
O O4 0.047788 0.997596 0.325271
O O5 0.750000 0.613786 0.126612
O O6 0.927069 0.750000 0.114935
O O7 0.984518 0.616550 0.007395
O O8 0.750000 0.750000 0.425970
O O9 0.485002 0.750000 0.501390
O O10 0.750000 0.839720 0.915032
O O11 0.997655 0.750000 0.891152
O O12 0.981742 0.904665 0.821366
O O13 0.750000 0.250000 0.395705
O O14 0.982267 0.337456 0.345610
O O15 0.750000 0.621185 0.709528
#
# Coordination Sequence:
#
# PCOD8245689 Si02
#       6
#     8   8   4   8   4   8
#     4  11  23  38  61  94 126 156 199 254 301 350
#     4   9  17  31  55  86 120 165 208 244 292 349
#     4  12  26  46  69  86 113 160 201 242 306 370
#     4   8  14  29  57  86 117 161 209 243 280 349
#     4  12  26  44  67  94 121 148 191 254 308 354
#     4  10  21  40  65  91 123 164 202 240 298 363
#
# _framework density 20.355896999999999
#
# number of rings (size 3 to 8) (size 9 to 14) (size 15 to 20)
#    0.000    2.000    2.000    3.600    0.000    3.200 
#    0.000    1.000    0.000    0.000    0.000    0.000 
#    0.000    0.000    0.000    0.000    0.000    0.000 
#
# Total GULP energy -495901.681028 kJ/mol
# GULP energy per Si atom -12397.542026 kJ/mol
# Density = 2.030957 g / cm^3
# Si number density = 20.355897 Si / 1000 Ang^3
#
#
#
# Elastic Constant Matrix: (Units=GPa)
#
#
# Indices 1 2 3 4 5 6 
#
# 1 60.8105 41.4080 23.3892 0.0000 0.0000 0.0000
# 2 41.4080 98.2376 48.6491 0.0000 0.0000 0.0000
# 3 23.3892 48.6491 122.3202 0.0000 0.0000 0.0000
# 4 0.0000 0.0000 0.0000 2.9492 0.0000 0.0000
# 5 0.0000 0.0000 0.0000 0.0000 27.1791 0.0000
# 6 0.0000 0.0000 0.0000 0.0000 0.0000 18.6474
#
#
#
# Elastic Compliance Matrix: (Units=1/GPa)
#
#
# Indices 1 2 3 4 5 6 
#
# 1 0.023110 -0.009405 -0.000678 0.000000 0.000000 0.000000
# 2 -0.009405 0.016504 -0.004765 0.000000 0.000000 0.000000
# 3 -0.000678 -0.004765 0.010200 0.000000 0.000000 0.000000
# 4 0.000000 0.000000 0.000000 0.339072 0.000000 0.000000
# 5 0.000000 0.000000 0.000000 0.000000 0.036793 0.000000
# 6 0.000000 0.000000 0.000000 0.000000 0.000000 0.053627
#
#
# Mechanical properties :
#
#
# Convention : Reuss Voigt Hill
#
# Bulk Modulus (GPa) = 49.71164 56.47344 53.09254
# Shear Modulus (GPa) = 9.69540 20.94994 15.32267
#
# Velocity S-wave (km/s) = 2.18478 3.21157 2.74658
# Velocity P-wave (km/s) = 5.55326 6.44635 6.01640
#
# Compressibility (1/GPa) = 0.02011601
#
# Stress axis : x y z
#
# Youngs Moduli (GPa) = 43.27201 60.59268 98.03651
#
# Poissons Ratio (x) = 0.56987 0.06650
# Poissons Ratio (y) = 0.40697 0.46719
# Poissons Ratio (z) = 0.02935 0.28875
#
# Static dielectric constant tensor:
#      x y z
#    x 3.446740 0.000000 0.000000 
#    y 0.000000 3.588040 0.000000 
#    z 0.000000 0.000000 4.000440 
# 
# 
# High freq. dielectric constant tensor:
#      x y z
#    x 1.771410 0.000000 0.000000 
#    y 0.000000 1.791940 0.000000 
#    z 0.000000 0.000000 1.802680 
# 
# From -- ./inp_files/19958.got.cif
#   From: 2010.03.12/outbox.cif.g09.slc.cpg/sg59_10_cif.got.tgz:19958.got - 2010.04.16 16:29:54.
