data_PCOD8245292
_publ_section_title
;
Structure prediction by ZEFSAII (Michael W. Deem and Ramdas Pophale) SiO2 
 PCOD8245292
Probable space group: P M M N
;
_chemical_formula_sum "Si O2"
_cell_formula_units_Z 48
_cell_length_a 16.546040
_cell_length_b 9.319891
_cell_length_c 16.908340
_cell_angle_alpha 90.000000
_cell_angle_beta 90.000000
_cell_angle_gamma 90.000000
_cell_volume 2607.389278
_symmetry_space_group_name_H-M "P M M N"
_symmetry_group_IT_number 59
_space_group.IT_coordinate_system_code '2'
_symmetry_cell_setting 'orthorhombic'
loop_
_space_group_symop_operation_xyz
x,y,z
1/2-x,1/2-y,z
1/2+x,-y,-z
-x,1/2+y,-z
-x,-y,-z
1/2+x,1/2+y,-z
1/2-x,y,z
x,1/2-y,z
loop_
_atom_site_type_symbol
_atom_site_label
_atom_site_fract_x
_atom_site_fract_y
_atom_site_fract_z
Si Si1 0.750000 0.918809 0.331085
Si Si2 0.422007 0.417408 0.097381
Si Si3 0.922628 0.083117 0.593848
Si Si4 0.655079 0.416584 0.758514
Si Si5 0.750000 0.416799 0.168727
Si Si6 0.604516 0.582981 0.440909
Si Si7 0.104041 0.915471 0.943509
O O1 0.750000 0.750000 0.316624
O O2 0.829112 0.968974 0.378457
O O3 0.750000 0.993766 0.247628
O O4 0.400974 0.250000 0.097223
O O5 0.386028 0.488236 0.175001
O O6 0.517771 0.446016 0.096361
O O7 0.381429 0.488474 0.020690
O O8 0.907457 0.250000 0.578597
O O9 0.882455 0.033327 0.675415
O O10 0.017632 0.045661 0.596521
O O11 0.880052 0.999017 0.522732
O O12 0.750000 0.446256 0.757090
O O13 0.635743 0.250000 0.774951
O O14 0.750000 0.250000 0.190427
O O15 0.829053 0.459823 0.119674
O O16 0.613479 0.750000 0.459891
O O17 0.112621 0.750000 0.969482
#
# Coordination Sequence:
#
# PCOD8245292 Si02
#       7
#     4   8   8   8   4   8   8
#     4  10  22  36  54  83 114 141 174 221 278 327
#     4  10  21  37  58  84 111 142 183 226 272 325
#     4   9  19  36  57  79 104 141 185 222 263 320
#     4  10  22  37  55  80 111 146 184 226 273 323
#     4  10  22  38  58  83 110 143 184 223 264 321
#     4   9  19  36  55  79 110 141 174 220 275 323
#     4   9  20  39  59  81 111 146 181 222 273 325
#
# _framework density 18.409219
#
# number of rings (size 3 to 8) (size 9 to 14) (size 15 to 20)
#    0.000    2.500    0.000    0.500    4.667    3.000 
#    0.000    0.000    0.000    0.000    0.000    0.000 
#    0.000    0.000    0.000    0.000    0.000    0.000 
#
# Total GULP energy -595393.513883 kJ/mol
# GULP energy per Si atom -12404.031539 kJ/mol
# Density = 1.836732 g / cm^3
# Si number density = 18.409219 Si / 1000 Ang^3
#
#
#
# Elastic Constant Matrix: (Units=GPa)
#
#
# Indices 1 2 3 4 5 6 
#
# 1 101.9876 52.4294 90.3506 0.0000 0.0000 0.0000
# 2 52.4294 77.0004 87.2286 0.0000 0.0000 0.0000
# 3 90.3506 87.2286 187.5520 0.0000 0.0000 0.0000
# 4 0.0000 0.0000 0.0000 36.9275 0.0000 0.0000
# 5 0.0000 0.0000 0.0000 0.0000 31.9938 0.0000
# 6 0.0000 0.0000 0.0000 0.0000 0.0000 24.8855
#
#
#
# Elastic Compliance Matrix: (Units=1/GPa)
#
#
# Indices 1 2 3 4 5 6 
#
# 1 0.018022 -0.005149 -0.006287 0.000000 0.000000 0.000000
# 2 -0.005149 0.028920 -0.010970 0.000000 0.000000 0.000000
# 3 -0.006287 -0.010970 0.013463 0.000000 0.000000 0.000000
# 4 0.000000 0.000000 0.000000 0.027080 0.000000 0.000000
# 5 0.000000 0.000000 0.000000 0.000000 0.031256 0.000000
# 6 0.000000 0.000000 0.000000 0.000000 0.000000 0.040184
#
#
# Mechanical properties :
#
#
# Convention : Reuss Voigt Hill
#
# Bulk Modulus (GPa) = 64.13325 91.83969 77.98647
# Shear Modulus (GPa) = 23.93106 27.86346 25.89726
#
# Velocity S-wave (km/s) = 3.60939 3.89467 3.75474
# Velocity P-wave (km/s) = 7.23073 8.37978 7.82637
#
# Compressibility (1/GPa) = 0.01559254
#
# Stress axis : x y z
#
# Youngs Moduli (GPa) = 55.48890 34.57825 74.27969
#
# Poissons Ratio (x) = 0.17803 0.46700
# Poissons Ratio (y) = 0.28570 0.81485
# Poissons Ratio (z) = 0.34886 0.37933
#
# Static dielectric constant tensor:
#      x y z
#    x 3.551550 0.000000 0.000000 
#    y 0.000000 3.228610 0.000000 
#    z 0.000000 0.000000 3.383590 
# 
# 
# High freq. dielectric constant tensor:
#      x y z
#    x 1.723280 0.000000 0.000000 
#    y 0.000000 1.710310 0.000000 
#    z 0.000000 0.000000 1.718570 
# 
# From -- ./inp_files/23767.got.cif
#   From: 2010.03.12/outbox.cif.g09.slc.cpg/sg59_12_cif.got.tgz:23767.got - 2010.04.16 16:29:54.
