data_PCOD8245491
_publ_section_title
;
Structure prediction by ZEFSAII (Michael W. Deem and Ramdas Pophale) SiO2 
 PCOD8245491
Probable space group: P M M N
;
_chemical_formula_sum "Si O2"
_cell_formula_units_Z 32
_cell_length_a 7.779936
_cell_length_b 14.641405
_cell_length_c 13.866257
_cell_angle_alpha 90.000000
_cell_angle_beta 90.000000
_cell_angle_gamma 90.000000
_cell_volume 1579.494157
_symmetry_space_group_name_H-M "P M M N"
_symmetry_group_IT_number 59
_space_group.IT_coordinate_system_code '2'
_symmetry_cell_setting 'orthorhombic'
loop_
_space_group_symop_operation_xyz
x,y,z
1/2-x,1/2-y,z
1/2+x,-y,-z
-x,1/2+y,-z
-x,-y,-z
1/2+x,1/2+y,-z
1/2-x,y,z
x,1/2-y,z
loop_
_atom_site_type_symbol
_atom_site_label
_atom_site_fract_x
_atom_site_fract_y
_atom_site_fract_z
Si Si1 0.053907 0.008432 0.609429
Si Si2 0.250000 0.141754 0.105605
Si Si3 0.445013 0.644551 0.758448
Si Si4 0.750000 0.641343 0.109336
Si Si5 0.559143 0.354542 0.758958
O O1 0.250000 0.038870 0.616739
O O2 0.944662 0.087431 0.660896
O O3 0.021992 0.911208 0.660673
O O4 0.000000 0.000000 0.500000
O O5 0.250000 0.250000 0.098227
O O6 0.422059 0.108674 0.160650
O O7 0.250000 0.099269 0.998185
O O8 0.250000 0.630073 0.797043
O O9 0.479885 0.750000 0.733016
O O10 0.750000 0.750000 0.103612
O O11 0.579702 0.606294 0.164927
O O12 0.750000 0.362676 0.804726
O O13 0.516324 0.250000 0.732412
#
# Coordination Sequence:
#
# PCOD8245491 Si02
#       5
#     8   4   8   4   8
#     4  11  23  38  60  86 116 153 193 242 292 344
#     4   9  18  34  61  87 112 151 191 235 289 339
#     4   9  20  38  58  83 117 151 189 236 284 343
#     4   9  18  36  59  87 116 147 193 239 285 341
#     4  10  21  38  60  84 117 155 191 237 287 340
#
# _framework density 20.259651999999999
#
# number of rings (size 3 to 8) (size 9 to 14) (size 15 to 20)
#    0.000    2.250    1.250    0.750    3.500    2.000 
#    0.000    8.750    0.000    0.000    0.000    0.000 
#    0.000    0.000    0.000    0.000    0.000    0.000 
#
# Total GULP energy -396816.054516 kJ/mol
# GULP energy per Si atom -12400.501704 kJ/mol
# Density = 2.021354 g / cm^3
# Si number density = 20.259652 Si / 1000 Ang^3
#
#
#
# Elastic Constant Matrix: (Units=GPa)
#
#
# Indices 1 2 3 4 5 6 
#
# 1 148.5249 44.6799 81.8577 0.0000 0.0000 0.0000
# 2 44.6799 59.7265 44.7316 0.0000 0.0000 0.0000
# 3 81.8577 44.7316 171.3358 0.0000 0.0000 0.0000
# 4 0.0000 0.0000 0.0000 25.9808 0.0000 0.0000
# 5 0.0000 0.0000 0.0000 0.0000 31.8683 0.0000
# 6 0.0000 0.0000 0.0000 0.0000 0.0000 23.0770
#
#
#
# Elastic Compliance Matrix: (Units=1/GPa)
#
#
# Indices 1 2 3 4 5 6 
#
# 1 0.010193 -0.004945 -0.003579 0.000000 0.000000 0.000000
# 2 -0.004945 0.023211 -0.003698 0.000000 0.000000 0.000000
# 3 -0.003579 -0.003698 0.008512 0.000000 0.000000 0.000000
# 4 0.000000 0.000000 0.000000 0.038490 0.000000 0.000000
# 5 0.000000 0.000000 0.000000 0.000000 0.031379 0.000000
# 6 0.000000 0.000000 0.000000 0.000000 0.000000 0.043333
#
#
# Mechanical properties :
#
#
# Convention : Reuss Voigt Hill
#
# Bulk Modulus (GPa) = 57.22892 80.23617 68.73254
# Shear Modulus (GPa) = 26.97100 30.07309 28.52205
#
# Velocity S-wave (km/s) = 3.65261 3.85695 3.75617
# Velocity P-wave (km/s) = 6.78954 7.71522 7.26713
#
# Compressibility (1/GPa) = 0.01747368
#
# Stress axis : x y z
#
# Youngs Moduli (GPa) = 98.10892 43.08266 117.48646
#
# Poissons Ratio (x) = 0.21303 0.42046
# Poissons Ratio (y) = 0.48512 0.43441
# Poissons Ratio (z) = 0.35111 0.15930
#
# Static dielectric constant tensor:
#      x y z
#    x 4.003100 0.000000 0.000000 
#    y 0.000000 3.546240 0.000000 
#    z 0.000000 0.000000 4.030830 
# 
# 
# High freq. dielectric constant tensor:
#      x y z
#    x 1.810170 0.000000 0.000000 
#    y 0.000000 1.783060 0.000000 
#    z 0.000000 0.000000 1.773160 
# 
# From -- ./inp_files/13632.got.cif
#   From: 2010.03.12/outbox.cif.g09.slc.cpg/sg59_7_cif.got.tgz:13632.got - 2010.04.16 16:29:54.
