data_PCOD8245998
_publ_section_title
;
Structure prediction by ZEFSAII (Michael W. Deem and Ramdas Pophale) SiO2 
 PCOD8245998
Probable space group: P M M N
;
_chemical_formula_sum "Si O2"
_cell_formula_units_Z 48
_cell_length_a 17.501241
_cell_length_b 16.987884
_cell_length_c 8.966382
_cell_angle_alpha 90.000000
_cell_angle_beta 90.000000
_cell_angle_gamma 90.000000
_cell_volume 2665.786532
_symmetry_space_group_name_H-M "P M M N"
_symmetry_group_IT_number 59
_space_group.IT_coordinate_system_code '2'
_symmetry_cell_setting 'orthorhombic'
loop_
_space_group_symop_operation_xyz
x,y,z
1/2-x,1/2-y,z
1/2+x,-y,-z
-x,1/2+y,-z
-x,-y,-z
1/2+x,1/2+y,-z
1/2-x,y,z
x,1/2-y,z
loop_
_atom_site_type_symbol
_atom_site_label
_atom_site_fract_x
_atom_site_fract_y
_atom_site_fract_z
Si Si1 0.467509 0.404999 0.842004
Si Si2 0.339615 0.656993 0.654365
Si Si3 0.663970 0.662043 0.999221
Si Si4 0.163782 0.483807 0.188212
Si Si5 0.441745 0.940951 0.424218
Si Si6 0.589201 0.429129 0.073531
O O1 0.510579 0.383834 0.687950
O O2 0.446842 0.497923 0.835184
O O3 0.391084 0.353240 0.859002
O O4 0.520910 0.385615 0.984963
O O5 0.250000 0.635186 0.633554
O O6 0.351828 0.750000 0.636461
O O7 0.391659 0.612566 0.533468
O O8 0.367855 0.631113 0.817850
O O9 0.750000 0.645784 0.056186
O O10 0.654152 0.750000 0.938743
O O11 0.643264 0.604963 0.862162
O O12 0.250000 0.492151 0.241196
O O13 0.113408 0.503599 0.329431
O O14 0.150176 0.540724 0.047594
O O15 0.500000 0.000000 0.500000
#
# Coordination Sequence:
#
# PCOD8245998 Si02
#       6
#     8   8   8   8   8   8
#     4   9  18  33  56  81 108 139 185 229 274 330
#     4  11  24  39  56  83 117 152 190 237 291 339
#     4   9  18  32  53  83 113 139 177 231 282 327
#     4   9  18  34  57  80 105 145 187 225 274 329
#     4  11  21  37  55  80 114 148 190 230 270 333
#     4   9  17  34  57  81 104 136 183 238 275 326
#
# _framework density 18.005944
#
# number of rings (size 3 to 8) (size 9 to 14) (size 15 to 20)
#    0.000    2.333    1.667    2.000    0.000    2.000 
#    0.000    2.500    0.000    9.000    0.000    2.333 
#    0.000    0.000    0.000    0.000    0.000    0.000 
#
# Total GULP energy -595005.877032 kJ/mol
# GULP energy per Si atom -12395.955772 kJ/mol
# Density = 1.796496 g / cm^3
# Si number density = 18.005944 Si / 1000 Ang^3
#
#
#
# Elastic Constant Matrix: (Units=GPa)
#
#
# Indices 1 2 3 4 5 6 
#
# 1 128.9831 65.8870 71.3087 0.0000 0.0000 0.0000
# 2 65.8870 94.6235 55.9956 0.0000 0.0000 0.0000
# 3 71.3087 55.9956 108.2547 0.0000 0.0000 0.0000
# 4 0.0000 0.0000 0.0000 17.3501 0.0000 0.0000
# 5 0.0000 0.0000 0.0000 0.0000 32.1699 0.0000
# 6 0.0000 0.0000 0.0000 0.0000 0.0000 28.0885
#
#
#
# Elastic Compliance Matrix: (Units=1/GPa)
#
#
# Indices 1 2 3 4 5 6 
#
# 1 0.014451 -0.006383 -0.006217 0.000000 0.000000 0.000000
# 2 -0.006383 0.018049 -0.005132 0.000000 0.000000 0.000000
# 3 -0.006217 -0.005132 0.015987 0.000000 0.000000 0.000000
# 4 0.000000 0.000000 0.000000 0.057637 0.000000 0.000000
# 5 0.000000 0.000000 0.000000 0.000000 0.031085 0.000000
# 6 0.000000 0.000000 0.000000 0.000000 0.000000 0.035602
#
#
# Mechanical properties :
#
#
# Convention : Reuss Voigt Hill
#
# Bulk Modulus (GPa) = 76.78321 79.80486 78.29403
# Shear Modulus (GPa) = 23.51662 24.76638 24.14150
#
# Velocity S-wave (km/s) = 3.61785 3.71274 3.66560
# Velocity P-wave (km/s) = 7.75807 7.92445 7.84170
#
# Compressibility (1/GPa) = 0.01302368
#
# Stress axis : x y z
#
# Youngs Moduli (GPa) = 69.20089 55.40322 62.54987
#
# Poissons Ratio (x) = 0.35363 0.38889
# Poissons Ratio (y) = 0.44170 0.32099
# Poissons Ratio (z) = 0.43024 0.28431
#
# Static dielectric constant tensor:
#      x y z
#    x 3.667500 0.000000 0.000000 
#    y 0.000000 3.225600 0.000000 
#    z 0.000000 0.000000 3.257760 
# 
# 
# High freq. dielectric constant tensor:
#      x y z
#    x 1.721290 0.000000 0.000000 
#    y 0.000000 1.674980 0.000000 
#    z 0.000000 0.000000 1.683180 
# 
# From -- ./inp_files/9026.got.cif
#   From: 2010.03.12/outbox.cif.g09.slc.cpg/sg59_5_cif.got.tgz:9026.got - 2010.04.16 16:29:54.
