data_PCOD8245880
_publ_section_title
;
Structure prediction by ZEFSAII (Michael W. Deem and Ramdas Pophale) SiO2 
 PCOD8245880
Probable space group: P M M N
;
_chemical_formula_sum "Si O2"
_cell_formula_units_Z 48
_cell_length_a 8.563413
_cell_length_b 16.576928
_cell_length_c 16.255462
_cell_angle_alpha 90.000000
_cell_angle_beta 90.000000
_cell_angle_gamma 90.000000
_cell_volume 2307.545421
_symmetry_space_group_name_H-M "P M M N"
_symmetry_group_IT_number 59
_space_group.IT_coordinate_system_code '2'
_symmetry_cell_setting 'orthorhombic'
loop_
_space_group_symop_operation_xyz
x,y,z
1/2-x,1/2-y,z
1/2+x,-y,-z
-x,1/2+y,-z
-x,-y,-z
1/2+x,1/2+y,-z
1/2-x,y,z
x,1/2-y,z
loop_
_atom_site_type_symbol
_atom_site_label
_atom_site_fract_x
_atom_site_fract_y
_atom_site_fract_z
Si Si1 0.570003 0.045040 0.232528
Si Si2 0.429365 0.613080 0.297403
Si Si3 0.933221 0.078727 0.045732
Si Si4 0.566726 0.087666 0.515337
Si Si5 0.424383 0.157514 0.359700
Si Si6 0.072534 0.250000 0.804794
Si Si7 0.931613 0.250000 0.978930
O O1 0.750000 0.017361 0.237266
O O2 0.524417 0.073038 0.141448
O O3 0.542364 0.117621 0.295405
O O4 0.454645 0.974504 0.259494
O O5 0.250000 0.639012 0.284729
O O6 0.475146 0.615783 0.393023
O O7 0.543821 0.672274 0.250319
O O8 0.750000 0.077806 0.029143
O O9 0.003544 0.165533 0.014853
O O10 0.000000 0.000000 0.000000
O O11 0.750000 0.086412 0.500213
O O12 0.487193 0.149077 0.452335
O O13 0.500000 0.000000 0.500000
O O14 0.250000 0.119477 0.353735
O O15 0.418149 0.250000 0.335858
O O16 0.250000 0.250000 0.836587
O O17 0.957535 0.250000 0.881831
O O18 0.750000 0.250000 0.000171
#
# Coordination Sequence:
#
# PCOD8245880 Si02
#       7
#     8   8   8   8   8   4   4
#     4  11  23  40  66  96 126 163 211 261 314 375
#     4  11  24  42  64  92 127 168 211 255 314 379
#     4  10  23  41  65  95 127 164 210 260 318 383
#     4  11  23  40  64  90 122 162 210 258 310 372
#     4  11  25  42  61  90 128 168 213 260 313 371
#     4  12  26  42  64  95 128 161 210 265 312 369
#     4  10  22  44  68  91 126 169 208 257 320 387
#
# _framework density 20.801324000000001
#
# number of rings (size 3 to 8) (size 9 to 14) (size 15 to 20)
#    0.000    1.167    1.667    3.750    2.333    8.000 
#    0.000    0.000    0.000    0.000    0.000    0.000 
#    0.000    0.000    0.000    0.000    0.000    0.000 
#
# Total GULP energy -595334.548636 kJ/mol
# GULP energy per Si atom -12402.803097 kJ/mol
# Density = 2.075398 g / cm^3
# Si number density = 20.801324 Si / 1000 Ang^3
#
#
#
# Elastic Constant Matrix: (Units=GPa)
#
#
# Indices 1 2 3 4 5 6 
#
# 1 50.3427 21.4617 30.3281 0.0000 0.0000 0.0000
# 2 21.4617 126.2780 57.0116 0.0000 0.0000 0.0000
# 3 30.3281 57.0116 145.4062 0.0000 0.0000 0.0000
# 4 0.0000 0.0000 0.0000 100.0168 0.0000 0.0000
# 5 0.0000 0.0000 0.0000 0.0000 29.8247 0.0000
# 6 0.0000 0.0000 0.0000 0.0000 0.0000 -4.7942
#
#
#
# Elastic Compliance Matrix: (Units=1/GPa)
#
#
# Indices 1 2 3 4 5 6 
#
# 1 0.023183 -0.002135 -0.003998 0.000000 0.000000 0.000000
# 2 -0.002135 0.009819 -0.003405 0.000000 0.000000 0.000000
# 3 -0.003998 -0.003405 0.009046 0.000000 0.000000 0.000000
# 4 0.000000 0.000000 0.000000 0.009998 0.000000 0.000000
# 5 0.000000 0.000000 0.000000 0.000000 0.033529 0.000000
# 6 0.000000 0.000000 0.000000 0.000000 0.000000 -0.208584
#
#
# Mechanical properties :
#
#
# Convention : Reuss Voigt Hill
#
# Bulk Modulus (GPa) = 43.53077 59.95886 51.74481
# Shear Modulus (GPa) = -51.93397 39.22449 -6.35474
#
# Velocity S-wave (km/s) = -5.00209 4.34714 -1.74974
# Velocity P-wave (km/s) = 3.51977 7.35418 4.56592
#
# Compressibility (1/GPa) = 0.02297225
#
# Stress axis : x y z
#
# Youngs Moduli (GPa) = 43.13564 101.84374 110.54469
#
# Poissons Ratio (x) = 0.21743 0.44199
# Poissons Ratio (y) = 0.09209 0.37636
# Poissons Ratio (z) = 0.17247 0.34674
#
# Static dielectric constant tensor:
#      x y z
#    x 3.775550 0.000000 0.000000 
#    y 0.000000 3.919400 0.000000 
#    z 0.000000 0.000000 4.498720 
# 
# 
# High freq. dielectric constant tensor:
#      x y z
#    x 1.813230 0.000000 0.000000 
#    y 0.000000 1.823420 0.000000 
#    z 0.000000 0.000000 1.826890 
# 
# From -- ./inp_files/20578.got.cif
#   From: 2010.03.12/outbox.cif.g09.slc.cpg/sg59_11_cif.got.tgz:20578.got - 2010.04.16 16:29:54.
