data_PCOD8245973
_publ_section_title
;
Structure prediction by ZEFSAII (Michael W. Deem and Ramdas Pophale) SiO2 
 PCOD8245973
Probable space group: P M M N
;
_chemical_formula_sum "Si O2"
_cell_formula_units_Z 64
_cell_length_a 9.180589
_cell_length_b 19.726062
_cell_length_c 19.942447
_cell_angle_alpha 90.000000
_cell_angle_beta 90.000000
_cell_angle_gamma 90.000000
_cell_volume 3611.514688
_symmetry_space_group_name_H-M "P M M N"
_symmetry_group_IT_number 59
_space_group.IT_coordinate_system_code '2'
_symmetry_cell_setting 'orthorhombic'
loop_
_space_group_symop_operation_xyz
x,y,z
1/2-x,1/2-y,z
1/2+x,-y,-z
-x,1/2+y,-z
-x,-y,-z
1/2+x,1/2+y,-z
1/2-x,y,z
x,1/2-y,z
loop_
_atom_site_type_symbol
_atom_site_label
_atom_site_fract_x
_atom_site_fract_y
_atom_site_fract_z
Si Si1 0.423093 0.175149 0.106844
Si Si2 0.414137 0.887562 0.385795
Si Si3 0.918417 0.956345 0.650565
Si Si4 0.081378 0.934352 0.525713
Si Si5 0.076951 0.056020 0.199202
Si Si6 0.580627 0.671893 0.045337
Si Si7 0.422690 0.908056 0.158649
Si Si8 0.415346 0.171758 0.727476
O O1 0.250000 0.175346 0.110779
O O2 0.481743 0.250000 0.127184
O O3 0.489232 0.118809 0.156873
O O4 0.469239 0.158183 0.030841
O O5 0.250000 0.866627 0.366056
O O6 0.436034 0.878787 0.466307
O O7 0.526973 0.838751 0.348181
O O8 0.443141 0.964437 0.362710
O O9 0.750000 0.936401 0.643352
O O10 0.980017 0.939142 0.724428
O O11 0.008528 0.911667 0.596111
O O12 0.250000 0.951692 0.537713
O O13 0.000000 0.000000 0.500000
O O14 0.250000 0.058905 0.200309
O O15 0.027472 0.986228 0.164157
O O16 0.750000 0.654689 0.055990
O O17 0.551181 0.750000 0.065033
O O18 0.485934 0.622379 0.090635
O O19 0.250000 0.900505 0.158242
O O20 0.482317 0.869035 0.222782
O O21 0.250000 0.145261 0.732872
O O22 0.423215 0.250000 0.747032
#
# Coordination Sequence:
#
# PCOD8245973 Si02
#       8
#     8   8   8   8   8   8   8   8
#     4   8  15  30  53  76  97 127 164 201 248 302
#     4   9  17  31  48  68  95 128 165 203 245 293
#     4   9  16  29  47  70 100 130 159 198 246 288
#     4   9  17  28  45  70  97 125 161 200 239 287
#     4   9  17  30  48  72 103 132 162 205 248 291
#     4   9  18  33  51  72  99 129 166 210 247 287
#     4  11  21  33  49  71 100 133 166 203 248 298
#     4  11  23  35  48  69  98 132 170 212 253 295
#
# _framework density 17.721095999999999
#
# number of rings (size 3 to 8) (size 9 to 14) (size 15 to 20)
#    0.000    2.625    1.250    3.000    0.000    5.750 
#    0.000    0.000    0.000    2.250    0.000    1.750 
#    0.000    0.000    0.000    0.000    0.000    0.000 
#
# Total GULP energy -793330.906515 kJ/mol
# GULP energy per Si atom -12395.795414 kJ/mol
# Density = 1.768076 g / cm^3
# Si number density = 17.721096 Si / 1000 Ang^3
#
#
#
# Elastic Constant Matrix: (Units=GPa)
#
#
# Indices 1 2 3 4 5 6 
#
# 1 68.6421 37.4029 49.6073 0.0000 0.0000 0.0000
# 2 37.4029 86.7468 69.6295 0.0000 0.0000 0.0000
# 3 49.6073 69.6295 147.1494 0.0000 0.0000 0.0000
# 4 0.0000 0.0000 0.0000 16.1091 0.0000 0.0000
# 5 0.0000 0.0000 0.0000 0.0000 27.9008 0.0000
# 6 0.0000 0.0000 0.0000 0.0000 0.0000 17.5875
#
#
#
# Elastic Compliance Matrix: (Units=1/GPa)
#
#
# Indices 1 2 3 4 5 6 
#
# 1 0.020699 -0.005359 -0.004442 0.000000 0.000000 0.000000
# 2 -0.005359 0.019975 -0.007645 0.000000 0.000000 0.000000
# 3 -0.004442 -0.007645 0.011911 0.000000 0.000000 0.000000
# 4 0.000000 0.000000 0.000000 0.062077 0.000000 0.000000
# 5 0.000000 0.000000 0.000000 0.000000 0.035841 0.000000
# 6 0.000000 0.000000 0.000000 0.000000 0.000000 0.056858
#
#
# Mechanical properties :
#
#
# Convention : Reuss Voigt Hill
#
# Bulk Modulus (GPa) = 56.52345 68.42418 62.47382
# Shear Modulus (GPa) = 20.14891 22.04606 21.09749
#
# Velocity S-wave (km/s) = 3.37560 3.53095 3.45415
# Velocity P-wave (km/s) = 6.86719 7.43767 7.15812
#
# Compressibility (1/GPa) = 0.01769177
#
# Stress axis : x y z
#
# Youngs Moduli (GPa) = 48.31192 50.06174 83.95558
#
# Poissons Ratio (x) = 0.26829 0.37294
# Poissons Ratio (y) = 0.25891 0.64187
# Poissons Ratio (z) = 0.21461 0.38274
#
# Static dielectric constant tensor:
#      x y z
#    x 3.138770 0.000000 0.000000 
#    y 0.000000 3.216940 0.000000 
#    z 0.000000 0.000000 3.780610 
# 
# 
# High freq. dielectric constant tensor:
#      x y z
#    x 1.665040 0.000000 0.000000 
#    y 0.000000 1.653410 0.000000 
#    z 0.000000 0.000000 1.699240 
# 
# From -- ./inp_files/29769.got.cif
#   From: 2010.03.12/outbox.cif.g09.slc.cpg/sg59_15_cif.got.tgz:29769.got - 2010.04.16 16:29:54.
