data_PCOD8245639
_publ_section_title
;
Structure prediction by ZEFSAII (Michael W. Deem and Ramdas Pophale) SiO2 
 PCOD8245639
Probable space group: P M M N
;
_chemical_formula_sum "Si O2"
_cell_formula_units_Z 40
_cell_length_a 8.669695
_cell_length_b 20.554095
_cell_length_c 11.438483
_cell_angle_alpha 90.000000
_cell_angle_beta 90.000000
_cell_angle_gamma 90.000000
_cell_volume 2038.311758
_symmetry_space_group_name_H-M "P M M N"
_symmetry_group_IT_number 59
_space_group.IT_coordinate_system_code '2'
_symmetry_cell_setting 'orthorhombic'
loop_
_space_group_symop_operation_xyz
x,y,z
1/2-x,1/2-y,z
1/2+x,-y,-z
-x,1/2+y,-z
-x,-y,-z
1/2+x,1/2+y,-z
1/2-x,y,z
x,1/2-y,z
loop_
_atom_site_type_symbol
_atom_site_label
_atom_site_fract_x
_atom_site_fract_y
_atom_site_fract_z
Si Si1 0.432282 0.500538 0.870741
Si Si2 0.432734 0.128732 0.745482
Si Si3 0.567082 0.823473 0.501397
Si Si4 0.421918 0.750000 0.134104
Si Si5 0.067999 0.125112 0.251465
Si Si6 0.576227 0.250000 0.140877
O O1 0.250000 0.498252 0.882532
O O2 0.496267 0.438693 0.798235
O O3 0.480189 0.563626 0.799274
O O4 0.500000 0.500000 0.000000
O O5 0.250000 0.128645 0.744764
O O6 0.495966 0.139485 0.613610
O O7 0.487837 0.186483 0.827110
O O8 0.750000 0.818175 0.497737
O O9 0.498561 0.750000 0.506638
O O10 0.515351 0.864631 0.614248
O O11 0.250000 0.750000 0.188005
O O12 0.413210 0.750000 0.996578
O O13 0.250000 0.114385 0.239691
O O14 0.019861 0.187728 0.178972
O O15 0.750000 0.250000 0.194034
#
# Coordination Sequence:
#
# PCOD8245639 Si02
#       6
#     8   8   8   4   8   4
#     4  11  24  41  61  88 121 160 202 248 298 354
#     4  10  21  39  63  85 113 157 202 240 290 355
#     4   9  17  35  62  89 117 150 194 246 294 350
#     4  11  23  36  55  86 118 149 192 247 302 343
#     4  11  22  38  62  89 118 157 197 240 300 361
#     4  11  23  38  57  84 120 157 200 253 296 347
#
# _framework density 19.624084
#
# number of rings (size 3 to 8) (size 9 to 14) (size 15 to 20)
#    0.000    1.600    2.000    3.000    0.000    7.200 
#    0.000    3.000    0.000    0.000    0.000    0.000 
#    0.000    0.000    0.000    0.000    0.000    0.000 
#
# Total GULP energy -496053.059727 kJ/mol
# GULP energy per Si atom -12401.326493 kJ/mol
# Density = 1.957942 g / cm^3
# Si number density = 19.624084 Si / 1000 Ang^3
#
#
#
# Elastic Constant Matrix: (Units=GPa)
#
#
# Indices 1 2 3 4 5 6 
#
# 1 26.7596 17.6676 24.3126 0.0000 0.0000 0.0000
# 2 17.6676 171.7359 76.7261 0.0000 0.0000 0.0000
# 3 24.3126 76.7261 154.0401 0.0000 0.0000 0.0000
# 4 0.0000 0.0000 0.0000 53.7921 0.0000 0.0000
# 5 0.0000 0.0000 0.0000 0.0000 24.3525 0.0000
# 6 0.0000 0.0000 0.0000 0.0000 0.0000 30.8466
#
#
#
# Elastic Compliance Matrix: (Units=1/GPa)
#
#
# Indices 1 2 3 4 5 6 
#
# 1 0.044070 -0.001834 -0.006042 0.000000 0.000000 0.000000
# 2 -0.001834 0.007566 -0.003479 0.000000 0.000000 0.000000
# 3 -0.006042 -0.003479 0.009178 0.000000 0.000000 0.000000
# 4 0.000000 0.000000 0.000000 0.018590 0.000000 0.000000
# 5 0.000000 0.000000 0.000000 0.000000 0.041063 0.000000
# 6 0.000000 0.000000 0.000000 0.000000 0.000000 0.032418
#
#
# Mechanical properties :
#
#
# Convention : Reuss Voigt Hill
#
# Bulk Modulus (GPa) = 26.24415 65.54979 45.89697
# Shear Modulus (GPa) = 26.55354 37.38688 31.97021
#
# Velocity S-wave (km/s) = 3.68245 4.36954 4.04063
# Velocity P-wave (km/s) = 5.61098 7.67675 6.72367
#
# Compressibility (1/GPa) = 0.03810373
#
# Stress axis : x y z
#
# Youngs Moduli (GPa) = 22.69095 132.17175 108.95266
#
# Poissons Ratio (x) = 0.24246 0.65830
# Poissons Ratio (y) = 0.04163 0.37904
# Poissons Ratio (z) = 0.13710 0.45982
#
# Static dielectric constant tensor:
#      x y z
#    x 3.536520 0.000000 0.000000 
#    y 0.000000 3.647430 0.000000 
#    z 0.000000 0.000000 3.936560 
# 
# 
# High freq. dielectric constant tensor:
#      x y z
#    x 1.751530 0.000000 0.000000 
#    y 0.000000 1.772670 0.000000 
#    z 0.000000 0.000000 1.782330 
# 
# From -- ./inp_files/13891.got.cif
#   From: 2010.03.12/outbox.cif.g09.slc.cpg/sg59_7_cif.got.tgz:13891.got - 2010.04.16 16:29:54.
