data_PCOD8245770
_publ_section_title
;
Structure prediction by ZEFSAII (Michael W. Deem and Ramdas Pophale) SiO2 
 PCOD8245770
Probable space group: P M M N
;
_chemical_formula_sum "Si O2"
_cell_formula_units_Z 40
_cell_length_a 8.816301
_cell_length_b 14.248248
_cell_length_c 17.101588
_cell_angle_alpha 90.000000
_cell_angle_beta 90.000000
_cell_angle_gamma 90.000000
_cell_volume 2148.247496
_symmetry_space_group_name_H-M "P M M N"
_symmetry_group_IT_number 59
_space_group.IT_coordinate_system_code '2'
_symmetry_cell_setting 'orthorhombic'
loop_
_space_group_symop_operation_xyz
x,y,z
1/2-x,1/2-y,z
1/2+x,-y,-z
-x,1/2+y,-z
-x,-y,-z
1/2+x,1/2+y,-z
1/2-x,y,z
x,1/2-y,z
loop_
_atom_site_type_symbol
_atom_site_label
_atom_site_fract_x
_atom_site_fract_y
_atom_site_fract_z
Si Si1 0.427265 0.250000 0.140770
Si Si2 0.929278 0.144198 0.518938
Si Si3 0.075097 0.927693 0.788083
Si Si4 0.928315 0.491995 0.382134
Si Si5 0.574712 0.939443 0.067629
Si Si6 0.429710 0.750000 0.028803
O O1 0.250000 0.250000 0.121154
O O2 0.469062 0.159056 0.190647
O O3 0.520821 0.250000 0.061015
O O4 0.750000 0.145807 0.525573
O O5 0.994469 0.250000 0.517103
O O6 0.981812 0.091422 0.439871
O O7 0.994236 0.089916 0.594101
O O8 0.250000 0.894031 0.785247
O O9 0.019449 0.965841 0.704788
O O10 0.053326 0.010756 0.849701
O O11 0.750000 0.507207 0.386835
O O12 0.750000 0.924737 0.046177
O O13 0.492693 0.839941 0.074021
O O14 0.500000 0.000000 0.000000
O O15 0.250000 0.750000 0.031618
#
# Coordination Sequence:
#
# PCOD8245770 Si02
#       6
#     4   8   8   8   8   4
#     4  12  24  36  58  88 117 146 185 238 291 340
#     4   9  18  34  57  83 113 148 183 226 279 333
#     4  10  22  39  60  84 114 150 189 234 285 341
#     4   9  19  36  58  83 110 147 188 229 275 334
#     4  11  22  38  60  85 115 151 192 238 287 341
#     4  12  24  40  60  82 111 154 199 238 287 342
#
# _framework density 18.619828999999999
#
# number of rings (size 3 to 8) (size 9 to 14) (size 15 to 20)
#    0.000    1.800    2.000    2.400    1.400    2.000 
#    1.800    0.000    0.000    0.000    0.000    0.000 
#    0.000    0.000    0.000    0.000    0.000    0.000 
#
# Total GULP energy -496171.811555 kJ/mol
# GULP energy per Si atom -12404.295289 kJ/mol
# Density = 1.857745 g / cm^3
# Si number density = 18.619829 Si / 1000 Ang^3
#
#
#
# Elastic Constant Matrix: (Units=GPa)
#
#
# Indices 1 2 3 4 5 6 
#
# 1 90.9640 57.3198 39.4969 0.0000 0.0000 0.0000
# 2 57.3198 161.0002 55.4231 0.0000 0.0000 0.0000
# 3 39.4969 55.4231 116.4561 0.0000 0.0000 0.0000
# 4 0.0000 0.0000 0.0000 11.4130 0.0000 0.0000
# 5 0.0000 0.0000 0.0000 0.0000 27.4465 0.0000
# 6 0.0000 0.0000 0.0000 0.0000 0.0000 35.5308
#
#
#
# Elastic Compliance Matrix: (Units=1/GPa)
#
#
# Indices 1 2 3 4 5 6 
#
# 1 0.015027 -0.004300 -0.003050 0.000000 0.000000 0.000000
# 2 -0.004300 0.008659 -0.002662 0.000000 0.000000 0.000000
# 3 -0.003050 -0.002662 0.010888 0.000000 0.000000 0.000000
# 4 0.000000 0.000000 0.000000 0.087620 0.000000 0.000000
# 5 0.000000 0.000000 0.000000 0.000000 0.036435 0.000000
# 6 0.000000 0.000000 0.000000 0.000000 0.000000 0.028145
#
#
# Mechanical properties :
#
#
# Convention : Reuss Voigt Hill
#
# Bulk Modulus (GPa) = 68.73212 74.76664 71.74938
# Shear Modulus (GPa) = 23.62410 29.29008 26.45709
#
# Velocity S-wave (km/s) = 3.56583 3.97048 3.77358
# Velocity P-wave (km/s) = 7.34487 7.82695 7.58974
#
# Compressibility (1/GPa) = 0.01454924
#
# Stress axis : x y z
#
# Youngs Moduli (GPa) = 66.54504 115.49215 91.84036
#
# Poissons Ratio (x) = 0.49663 0.28013
# Poissons Ratio (y) = 0.28615 0.24451
# Poissons Ratio (z) = 0.20297 0.30748
#
# Static dielectric constant tensor:
#      x y z
#    x 3.413800 0.000000 0.000000 
#    y 0.000000 2.991010 0.000000 
#    z 0.000000 0.000000 3.468500 
# 
# 
# High freq. dielectric constant tensor:
#      x y z
#    x 1.721660 0.000000 0.000000 
#    y 0.000000 1.732410 0.000000 
#    z 0.000000 0.000000 1.720190 
# 
# From -- ./inp_files/19931.got.cif
#   From: 2010.03.12/outbox.cif.g09.slc.cpg/sg59_10_cif.got.tgz:19931.got - 2010.04.16 16:29:54.
