data_PCOD8245087
_publ_section_title
;
Structure prediction by ZEFSAII (Michael W. Deem and Ramdas Pophale) SiO2 
 PCOD8245087
Probable space group: P M M N
;
_chemical_formula_sum "Si O2"
_cell_formula_units_Z 64
_cell_length_a 24.112540
_cell_length_b 8.829743
_cell_length_c 15.192465
_cell_angle_alpha 90.000000
_cell_angle_beta 90.000000
_cell_angle_gamma 90.000000
_cell_volume 3234.590217
_symmetry_space_group_name_H-M "P M M N"
_symmetry_group_IT_number 59
_space_group.IT_coordinate_system_code '2'
_symmetry_cell_setting 'orthorhombic'
loop_
_space_group_symop_operation_xyz
x,y,z
1/2-x,1/2-y,z
1/2+x,-y,-z
-x,1/2+y,-z
-x,-y,-z
1/2+x,1/2+y,-z
1/2-x,y,z
x,1/2-y,z
loop_
_atom_site_type_symbol
_atom_site_label
_atom_site_fract_x
_atom_site_fract_y
_atom_site_fract_z
Si Si1 0.626277 0.579942 0.368382
Si Si2 0.004711 0.570710 0.224419
Si Si3 0.185803 0.915445 0.493441
Si Si4 0.618107 0.429750 0.855064
Si Si5 0.984574 0.072739 0.406542
Si Si6 0.811463 0.429949 0.695606
Si Si7 0.117463 0.077992 0.827961
Si Si8 0.813668 0.429353 0.021509
O O1 0.604378 0.750000 0.386471
O O2 0.677489 0.540146 0.431209
O O3 0.580187 0.457570 0.392866
O O4 0.645749 0.566087 0.267835
O O5 0.003324 0.750000 0.240424
O O6 0.053438 0.522402 0.156108
O O7 0.015504 0.497832 0.320867
O O8 0.946289 0.518849 0.180691
O O9 0.250000 0.896158 0.474873
O O10 0.161224 0.750000 0.519947
O O11 0.161196 0.971617 0.399350
O O12 0.622348 0.250000 0.857227
O O13 0.649967 0.498943 0.771350
O O14 0.648180 0.495430 0.942169
O O15 0.997436 0.250000 0.410090
O O16 0.000000 0.000000 0.500000
O O17 0.750000 0.499564 0.707692
O O18 0.808577 0.250000 0.704541
O O19 0.118223 0.250000 0.863414
O O20 0.155122 0.974951 0.889593
O O21 0.750000 0.492764 0.017717
O O22 0.810986 0.250000 0.016660
#
# Coordination Sequence:
#
# PCOD8245087 Si02
#       8
#     8   8   8   8   8   8   8   8
#     4  10  21  37  55  77 106 143 187 235 284 335
#     4   9  19  36  56  82 112 146 189 230 277 340
#     4   9  18  31  49  78 111 143 184 228 274 336
#     4   9  17  31  54  81 111 144 179 228 284 334
#     4  11  22  36  55  80 112 148 186 230 276 326
#     4   8  14  26  46  74 107 141 177 218 269 333
#     4   9  20  38  55  74 108 146 183 230 284 341
#     4  10  21  36  57  86 112 139 185 238 282 331
#
# _framework density 19.786123
#
# number of rings (size 3 to 8) (size 9 to 14) (size 15 to 20)
#    0.000    2.625    0.000    3.375    1.750    5.500 
#    0.000    3.125    0.000    0.750    0.000    1.750 
#    0.000    0.000    0.000    0.000    0.000    0.000 
#
# Total GULP energy -793037.524521 kJ/mol
# GULP energy per Si atom -12391.211321 kJ/mol
# Density = 1.974109 g / cm^3
# Si number density = 19.786123 Si / 1000 Ang^3
#
#
#
# Elastic Constant Matrix: (Units=GPa)
#
#
# Indices 1 2 3 4 5 6 
#
# 1 93.9625 22.1015 66.9905 0.0000 0.0000 0.0000
# 2 22.1015 47.9000 35.3560 0.0000 0.0000 0.0000
# 3 66.9905 35.3560 138.4450 0.0000 0.0000 0.0000
# 4 0.0000 0.0000 0.0000 24.0538 0.0000 0.0000
# 5 0.0000 0.0000 0.0000 0.0000 36.8646 0.0000
# 6 0.0000 0.0000 0.0000 0.0000 0.0000 22.2113
#
#
#
# Elastic Compliance Matrix: (Units=1/GPa)
#
#
# Indices 1 2 3 4 5 6 
#
# 1 0.016419 -0.002109 -0.007406 0.000000 0.000000 0.000000
# 2 -0.002109 0.025997 -0.005619 0.000000 0.000000 0.000000
# 3 -0.007406 -0.005619 0.012242 0.000000 0.000000 0.000000
# 4 0.000000 0.000000 0.000000 0.041574 0.000000 0.000000
# 5 0.000000 0.000000 0.000000 0.000000 0.027126 0.000000
# 6 0.000000 0.000000 0.000000 0.000000 0.000000 0.045022
#
#
# Mechanical properties :
#
#
# Convention : Reuss Voigt Hill
#
# Bulk Modulus (GPa) = 41.00053 58.80041 49.90047
# Shear Modulus (GPa) = 24.18063 27.01658 25.59861
#
# Velocity S-wave (km/s) = 3.49965 3.69918 3.60080
# Velocity P-wave (km/s) = 6.09072 6.93021 6.52398
#
# Compressibility (1/GPa) = 0.02438993
#
# Stress axis : x y z
#
# Youngs Moduli (GPa) = 60.90577 38.46569 81.68894
#
# Poissons Ratio (x) = 0.08113 0.60499
# Poissons Ratio (y) = 0.12847 0.45897
# Poissons Ratio (z) = 0.45107 0.21612
#
# Static dielectric constant tensor:
#      x y z
#    x 3.692390 0.000000 0.000000 
#    y 0.000000 3.256890 0.000000 
#    z 0.000000 0.000000 3.790350 
# 
# 
# High freq. dielectric constant tensor:
#      x y z
#    x 1.768170 0.000000 0.000000 
#    y 0.000000 1.732970 0.000000 
#    z 0.000000 0.000000 1.778390 
# 
# From -- ./inp_files/24720.got.cif
#   From: 2010.03.12/outbox.cif.g09.slc.cpg/sg59_13_cif.got.tgz:24720.got - 2010.04.16 16:29:54.
