data_PCOD8245720
_publ_section_title
;
Structure prediction by ZEFSAII (Michael W. Deem and Ramdas Pophale) SiO2 
 PCOD8245720
Probable space group: P M M N
;
_chemical_formula_sum "Si O2"
_cell_formula_units_Z 48
_cell_length_a 17.659398
_cell_length_b 15.469911
_cell_length_c 8.983444
_cell_angle_alpha 90.000000
_cell_angle_beta 90.000000
_cell_angle_gamma 90.000000
_cell_volume 2454.180916
_symmetry_space_group_name_H-M "P M M N"
_symmetry_group_IT_number 59
_space_group.IT_coordinate_system_code '2'
_symmetry_cell_setting 'orthorhombic'
loop_
_space_group_symop_operation_xyz
x,y,z
1/2-x,1/2-y,z
1/2+x,-y,-z
-x,1/2+y,-z
-x,-y,-z
1/2+x,1/2+y,-z
1/2-x,y,z
x,1/2-y,z
loop_
_atom_site_type_symbol
_atom_site_label
_atom_site_fract_x
_atom_site_fract_y
_atom_site_fract_z
Si Si1 0.836946 0.518001 0.858148
Si Si2 0.560191 0.397137 0.049785
Si Si3 0.100059 0.565494 0.413890
Si Si4 0.901446 0.847979 0.063497
Si Si5 0.161835 0.750000 0.320239
Si Si6 0.837493 0.250000 0.033551
Si Si7 0.939577 0.524520 0.301646
O O1 0.750000 0.492652 0.891887
O O2 0.853365 0.505386 0.683117
O O3 0.895671 0.452035 0.928617
O O4 0.853498 0.613348 0.924468
O O5 0.527878 0.457321 0.179806
O O6 0.490671 0.348516 0.972586
O O7 0.622204 0.330799 0.112183
O O8 0.128877 0.663551 0.396068
O O9 0.111411 0.529029 0.581303
O O10 0.010475 0.569505 0.380536
O O11 0.874231 0.750000 0.089922
O O12 0.888284 0.903974 0.214665
O O13 0.250000 0.750000 0.352031
O O14 0.145853 0.750000 0.143635
O O15 0.750000 0.250000 0.073823
#
# Coordination Sequence:
#
# PCOD8245720 Si02
#       7
#     8   8   8   8   4   4   8
#     4  11  21  37  60  85 118 156 199 247 297 355
#     4  11  19  37  59  90 119 153 200 246 298 356
#     4  11  21  38  57  89 123 159 196 240 296 365
#     4  11  21  39  64  89 115 155 208 257 297 347
#     4  11  22  37  59  89 123 159 192 234 301 374
#     4  11  20  31  59  93 122 155 196 248 300 360
#     4  10  22  37  59  85 123 156 200 246 295 355
#
# _framework density 19.55846
#
# number of rings (size 3 to 8) (size 9 to 14) (size 15 to 20)
#    0.000    1.167    5.833    2.000    1.167    1.000 
#    0.000   10.000    0.000    0.000    0.000    0.000 
#    0.000    0.000    0.000    0.000    0.000    0.000 
#
# Total GULP energy -595008.615851 kJ/mol
# GULP energy per Si atom -12396.012830 kJ/mol
# Density = 1.951394 g / cm^3
# Si number density = 19.558460 Si / 1000 Ang^3
#
#
#
# Elastic Constant Matrix: (Units=GPa)
#
#
# Indices 1 2 3 4 5 6 
#
# 1 73.4406 19.6277 19.4658 0.0000 0.0000 0.0000
# 2 19.6277 127.8191 25.4191 0.0000 0.0000 0.0000
# 3 19.4658 25.4191 50.6691 0.0000 0.0000 0.0000
# 4 0.0000 0.0000 0.0000 -1.7183 0.0000 0.0000
# 5 0.0000 0.0000 0.0000 0.0000 19.8781 0.0000
# 6 0.0000 0.0000 0.0000 0.0000 0.0000 -6.7351
#
#
#
# Elastic Compliance Matrix: (Units=1/GPa)
#
#
# Indices 1 2 3 4 5 6 
#
# 1 0.015357 -0.001316 -0.005239 0.000000 0.000000 0.000000
# 2 -0.001316 0.008803 -0.003911 0.000000 0.000000 0.000000
# 3 -0.005239 -0.003911 0.023711 0.000000 0.000000 0.000000
# 4 0.000000 0.000000 0.000000 -0.581965 0.000000 0.000000
# 5 0.000000 0.000000 0.000000 0.000000 0.050307 0.000000
# 6 0.000000 0.000000 0.000000 0.000000 0.000000 -0.148476
#
#
# Mechanical properties :
#
#
# Convention : Reuss Voigt Hill
#
# Bulk Modulus (GPa) = 37.12201 42.32823 39.72512
# Shear Modulus (GPa) = -8.30081 14.77936 3.23928
#
# Velocity S-wave (km/s) = -2.06236 2.75189 1.28833
# Velocity P-wave (km/s) = 3.65379 5.63792 4.75059
#
# Compressibility (1/GPa) = 0.02693819
#
# Stress axis : x y z
#
# Youngs Moduli (GPa) = 65.11705 113.59261 42.17517
#
# Poissons Ratio (x) = 0.14951 0.22097
# Poissons Ratio (y) = 0.08571 0.16494
# Poissons Ratio (z) = 0.34118 0.44423
#
# Static dielectric constant tensor:
#      x y z
#    x 3.438610 0.000000 0.000000 
#    y 0.000000 3.849110 0.000000 
#    z 0.000000 0.000000 3.687500 
# 
# 
# High freq. dielectric constant tensor:
#      x y z
#    x 1.751580 0.000000 0.000000 
#    y 0.000000 1.761840 0.000000 
#    z 0.000000 0.000000 1.745550 
# 
# From -- ./inp_files/10276.got.cif
#   From: 2010.03.12/outbox.cif.g09.slc.cpg/sg59_6_cif.got.tgz:10276.got - 2010.04.16 16:29:54.
