data_PCOD8245758
_publ_section_title
;
Structure prediction by ZEFSAII (Michael W. Deem and Ramdas Pophale) SiO2 
 PCOD8245758
Probable space group: P M M N
;
_chemical_formula_sum "Si O2"
_cell_formula_units_Z 56
_cell_length_a 8.845927
_cell_length_b 14.827552
_cell_length_c 21.916843
_cell_angle_alpha 90.000000
_cell_angle_beta 90.000000
_cell_angle_gamma 90.000000
_cell_volume 2874.688578
_symmetry_space_group_name_H-M "P M M N"
_symmetry_group_IT_number 59
_space_group.IT_coordinate_system_code '2'
_symmetry_cell_setting 'orthorhombic'
loop_
_space_group_symop_operation_xyz
x,y,z
1/2-x,1/2-y,z
1/2+x,-y,-z
-x,1/2+y,-z
-x,-y,-z
1/2+x,1/2+y,-z
1/2-x,y,z
x,1/2-y,z
loop_
_atom_site_type_symbol
_atom_site_label
_atom_site_fract_x
_atom_site_fract_y
_atom_site_fract_z
Si Si1 0.572587 0.494473 0.703187
Si Si2 0.071286 0.562127 0.165411
Si Si3 0.579145 0.351548 0.367824
Si Si4 0.921000 0.649846 0.377334
Si Si5 0.929565 0.250000 0.884557
Si Si6 0.070322 0.060969 0.052893
Si Si7 0.069834 0.750000 0.975185
Si Si8 0.423849 0.094688 0.489191
O O1 0.750000 0.508298 0.707085
O O2 0.504997 0.466564 0.768949
O O3 0.500871 0.588355 0.683067
O O4 0.537289 0.417811 0.653747
O O5 0.250000 0.571872 0.169028
O O6 0.003243 0.660148 0.147285
O O7 0.026228 0.486511 0.116420
O O8 0.750000 0.386030 0.376336
O O9 0.573219 0.250000 0.342948
O O10 0.499836 0.354266 0.433239
O O11 0.750000 0.618546 0.362360
O O12 0.951725 0.750000 0.351842
O O13 0.945084 0.653289 0.449988
O O14 0.750000 0.250000 0.880852
O O15 0.980387 0.250000 0.954602
O O16 0.250000 0.066646 0.043542
O O17 0.999322 0.160646 0.055534
O O18 0.000000 0.000000 0.000000
O O19 0.250000 0.750000 0.967008
O O20 0.250000 0.079612 0.472321
O O21 0.500000 0.000000 0.500000
#
# Coordination Sequence:
#
# PCOD8245758 Si02
#       8
#     8   8   8   8   4   8   4   8
#     4  11  23  39  62  88 114 153 203 247 291 352
#     4   9  20  37  59  87 120 160 199 243 297 353
#     4  11  24  42  63  85 115 156 201 250 305 358
#     4  10  22  39  58  83 120 157 186 231 298 356
#     4   9  16  33  61  89 121 155 190 233 288 355
#     4  11  21  38  62  90 124 158 200 252 302 356
#     4  11  21  37  63  93 123 161 200 245 308 363
#     4  11  21  36  61  89 118 152 193 242 298 355
#
# _framework density 19.480371999999999
#
# number of rings (size 3 to 8) (size 9 to 14) (size 15 to 20)
#    0.000    1.571    2.857    2.357    1.000    2.571 
#    1.286    2.857    0.000    0.000    0.000    0.000 
#    0.000    0.000    0.000    0.000    0.000    0.000 
#
# Total GULP energy -694503.208915 kJ/mol
# GULP energy per Si atom -12401.843016 kJ/mol
# Density = 1.943603 g / cm^3
# Si number density = 19.480372 Si / 1000 Ang^3
#
#
#
# Elastic Constant Matrix: (Units=GPa)
#
#
# Indices 1 2 3 4 5 6 
#
# 1 90.6448 46.7956 40.9201 0.0000 0.0000 0.0000
# 2 46.7956 153.4521 61.8456 0.0000 0.0000 0.0000
# 3 40.9201 61.8456 125.4657 0.0000 0.0000 0.0000
# 4 0.0000 0.0000 0.0000 21.1509 0.0000 0.0000
# 5 0.0000 0.0000 0.0000 0.0000 25.0472 0.0000
# 6 0.0000 0.0000 0.0000 0.0000 0.0000 27.4859
#
#
#
# Elastic Compliance Matrix: (Units=1/GPa)
#
#
# Indices 1 2 3 4 5 6 
#
# 1 0.013979 -0.003027 -0.003067 0.000000 0.000000 0.000000
# 2 -0.003027 0.008788 -0.003344 0.000000 0.000000 0.000000
# 3 -0.003067 -0.003344 0.010619 0.000000 0.000000 0.000000
# 4 0.000000 0.000000 0.000000 0.047279 0.000000 0.000000
# 5 0.000000 0.000000 0.000000 0.000000 0.039925 0.000000
# 6 0.000000 0.000000 0.000000 0.000000 0.000000 0.036382
#
#
# Mechanical properties :
#
#
# Convention : Reuss Voigt Hill
#
# Bulk Modulus (GPa) = 68.92247 74.29835 71.61041
# Shear Modulus (GPa) = 27.67228 29.40355 28.53792
#
# Velocity S-wave (km/s) = 3.77307 3.88931 3.83163
# Velocity P-wave (km/s) = 7.37826 7.64146 7.51101
#
# Compressibility (1/GPa) = 0.01450906
#
# Stress axis : x y z
#
# Youngs Moduli (GPa) = 71.53393 113.79592 94.16823
#
# Poissons Ratio (x) = 0.34444 0.28884
# Poissons Ratio (y) = 0.21652 0.31495
# Poissons Ratio (z) = 0.21942 0.38059
#
# Static dielectric constant tensor:
#      x y z
#    x 3.686000 0.000000 0.000000 
#    y 0.000000 1.892940 0.000000 
#    z 0.000000 0.000000 3.726150 
# 
# 
# High freq. dielectric constant tensor:
#      x y z
#    x 1.747620 0.000000 0.000000 
#    y 0.000000 1.773870 0.000000 
#    z 0.000000 0.000000 1.753380 
# 
# From -- ./inp_files/29233.got.cif
#   From: 2010.03.12/outbox.cif.g09.slc.cpg/sg59_15_cif.got.tgz:29233.got - 2010.04.16 16:29:54.
