data_PCOD8245550
_publ_section_title
;
Structure prediction by ZEFSAII (Michael W. Deem and Ramdas Pophale) SiO2 
 PCOD8245550
Probable space group: P M M N
;
_chemical_formula_sum "Si O2"
_cell_formula_units_Z 56
_cell_length_a 21.111277
_cell_length_b 14.063785
_cell_length_c 10.038216
_cell_angle_alpha 90.000000
_cell_angle_beta 90.000000
_cell_angle_gamma 90.000000
_cell_volume 2980.391109
_symmetry_space_group_name_H-M "P M M N"
_symmetry_group_IT_number 59
_space_group.IT_coordinate_system_code '2'
_symmetry_cell_setting 'orthorhombic'
loop_
_space_group_symop_operation_xyz
x,y,z
1/2-x,1/2-y,z
1/2+x,-y,-z
-x,1/2+y,-z
-x,-y,-z
1/2+x,1/2+y,-z
1/2-x,y,z
x,1/2-y,z
loop_
_atom_site_type_symbol
_atom_site_label
_atom_site_fract_x
_atom_site_fract_y
_atom_site_fract_z
Si Si1 0.325318 0.250000 0.596678
Si Si2 0.674245 0.545699 0.999180
Si Si3 0.597799 0.001533 0.738886
Si Si4 0.390696 0.509672 0.742172
Si Si5 0.177485 0.050888 0.501078
Si Si6 0.496081 0.639442 0.645532
Si Si7 0.005387 0.361792 0.667296
Si Si8 0.324180 0.250000 0.896059
O O1 0.250000 0.250000 0.604302
O O2 0.350233 0.341315 0.515137
O O3 0.353792 0.250000 0.746827
O O4 0.750000 0.530166 0.997124
O O5 0.640738 0.482930 0.113035
O O6 0.656009 0.656322 0.021957
O O7 0.643821 0.509045 0.863556
O O8 0.557255 0.099016 0.742868
O O9 0.641285 0.007714 0.609554
O O10 0.551521 0.911417 0.727848
O O11 0.331452 0.501260 0.641749
O O12 0.429632 0.604304 0.707039
O O13 0.434620 0.416180 0.728148
O O14 0.250000 0.054614 0.460429
O O15 0.501946 0.750000 0.671810
O O16 0.499965 0.613343 0.489357
O O17 0.012108 0.250000 0.693574
O O18 0.250000 0.250000 0.874930
#
# Coordination Sequence:
#
# PCOD8245550 Si02
#       8
#     4   8   8   8   8   8   8   4
#     4   9  18  29  49  83 111 147 195 227 266 337
#     4  11  24  38  57  85 126 160 186 234 290 351
#     4  11  22  39  57  87 119 155 191 236 298 345
#     4  11  20  37  60  87 114 155 196 233 287 346
#     4  11  20  32  56  84 114 149 194 239 282 344
#     4  10  21  38  61  89 118 149 192 253 296 328
#     4  10  21  38  63  89 113 148 197 252 293 332
#     4   9  18  33  49  77 117 155 183 217 278 345
#
# _framework density 18.789480000000001
#
# number of rings (size 3 to 8) (size 9 to 14) (size 15 to 20)
#    0.000    1.571    4.286    1.714    4.000    2.286 
#    0.000    4.286    0.000    5.143    0.000    0.000 
#    0.000    0.000    0.000    0.000    0.000    0.000 
#
# Total GULP energy -694295.290208 kJ/mol
# GULP energy per Si atom -12398.130182 kJ/mol
# Density = 1.874671 g / cm^3
# Si number density = 18.789480 Si / 1000 Ang^3
#
#
#
# Elastic Constant Matrix: (Units=GPa)
#
#
# Indices 1 2 3 4 5 6 
#
# 1 78.1825 21.1382 34.2248 0.0000 0.0000 0.0000
# 2 21.1382 67.4303 18.7198 0.0000 0.0000 0.0000
# 3 34.2248 18.7198 82.1440 0.0000 0.0000 0.0000
# 4 0.0000 0.0000 0.0000 19.0600 0.0000 0.0000
# 5 0.0000 0.0000 0.0000 0.0000 36.4202 0.0000
# 6 0.0000 0.0000 0.0000 0.0000 0.0000 24.7185
#
#
#
# Elastic Compliance Matrix: (Units=1/GPa)
#
#
# Indices 1 2 3 4 5 6 
#
# 1 0.016365 -0.003456 -0.006031 0.000000 0.000000 0.000000
# 2 -0.003456 0.016562 -0.002334 0.000000 0.000000 0.000000
# 3 -0.006031 -0.002334 0.015218 0.000000 0.000000 0.000000
# 4 0.000000 0.000000 0.000000 0.052466 0.000000 0.000000
# 5 0.000000 0.000000 0.000000 0.000000 0.027457 0.000000
# 6 0.000000 0.000000 0.000000 0.000000 0.000000 0.040455
#
#
# Mechanical properties :
#
#
# Convention : Reuss Voigt Hill
#
# Bulk Modulus (GPa) = 40.81150 41.76913 41.29031
# Shear Modulus (GPa) = 24.95842 26.28468 25.62155
#
# Velocity S-wave (km/s) = 3.64856 3.74425 3.69672
# Velocity P-wave (km/s) = 6.28625 6.40085 6.34381
#
# Compressibility (1/GPa) = 0.02450290
#
# Stress axis : x y z
#
# Youngs Moduli (GPa) = 61.10614 60.38085 65.70990
#
# Poissons Ratio (x) = 0.20867 0.39628
# Poissons Ratio (y) = 0.21117 0.15339
# Poissons Ratio (z) = 0.36852 0.14095
#
# Static dielectric constant tensor:
#      x y z
#    x 3.554990 0.000000 0.000000 
#    y 0.000000 3.381720 0.000000 
#    z 0.000000 0.000000 3.313380 
# 
# 
# High freq. dielectric constant tensor:
#      x y z
#    x 1.738870 0.000000 0.000000 
#    y 0.000000 1.708130 0.000000 
#    z 0.000000 0.000000 1.719390 
# 
# From -- ./inp_files/11464.got.cif
#   From: 2010.03.12/outbox.cif.g09.slc.cpg/sg59_6_cif.got.tgz:11464.got - 2010.04.16 16:29:54.
