data_PCOD8245287
_publ_section_title
;
Structure prediction by ZEFSAII (Michael W. Deem and Ramdas Pophale) SiO2 
 PCOD8245287
Probable space group: P M M N
;
_chemical_formula_sum "Si O2"
_cell_formula_units_Z 64
_cell_length_a 14.835771
_cell_length_b 9.050013
_cell_length_c 24.195964
_cell_angle_alpha 90.000000
_cell_angle_beta 90.000000
_cell_angle_gamma 90.000000
_cell_volume 3248.644985
_symmetry_space_group_name_H-M "P M M N"
_symmetry_group_IT_number 59
_space_group.IT_coordinate_system_code '2'
_symmetry_cell_setting 'orthorhombic'
loop_
_space_group_symop_operation_xyz
x,y,z
1/2-x,1/2-y,z
1/2+x,-y,-z
-x,1/2+y,-z
-x,-y,-z
1/2+x,1/2+y,-z
1/2-x,y,z
x,1/2-y,z
loop_
_atom_site_type_symbol
_atom_site_label
_atom_site_fract_x
_atom_site_fract_y
_atom_site_fract_z
Si Si1 0.648541 0.590488 0.904334
Si Si2 0.496694 0.425601 0.300951
Si Si3 0.850923 0.574069 0.785797
Si Si4 0.593463 0.077120 0.006935
Si Si5 0.144342 0.078510 0.501275
Si Si6 0.353692 0.423044 0.765593
Si Si7 0.984178 0.077754 0.582683
Si Si8 0.354339 0.089607 0.887133
O O1 0.750000 0.624922 0.887718
O O2 0.603020 0.750000 0.921008
O O3 0.608383 0.525844 0.846676
O O4 0.651209 0.477037 0.954990
O O5 0.497625 0.250000 0.303689
O O6 0.417255 0.487161 0.261248
O O7 0.592069 0.481852 0.278548
O O8 0.479789 0.488775 0.361046
O O9 0.750000 0.510299 0.775071
O O10 0.849317 0.750000 0.784126
O O11 0.586574 0.250000 0.004469
O O12 0.500000 0.000000 0.000000
O O13 0.632120 0.032931 0.066259
O O14 0.250000 0.034195 0.511532
O O15 0.138413 0.250000 0.483820
O O16 0.082936 0.050210 0.555589
O O17 0.099919 0.979776 0.453529
O O18 0.250000 0.469893 0.758931
O O19 0.366688 0.250000 0.753434
O O20 0.391563 0.461340 0.827405
O O21 0.968824 0.250000 0.593749
O O22 0.250000 0.115400 0.877712
O O23 0.396402 0.250000 0.904881
#
# Coordination Sequence:
#
# PCOD8245287 Si02
#       8
#     8   8   8   8   8   8   8   8
#     4   9  18  36  59  78 101 135 175 223 282 345
#     4  11  22  35  57  88 120 155 197 243 283 327
#     4   8  17  35  57  80 108 146 189 230 280 341
#     4  12  25  36  50  76 107 137 175 224 280 344
#     4   9  19  38  63  87 115 155 199 243 289 337
#     4   9  20  39  60  81 110 150 192 235 291 352
#     4  10  21  37  57  87 123 158 197 237 286 344
#     4   9  19  38  60  79 103 138 178 223 283 350
#
# _framework density 19.700521999999999
#
# number of rings (size 3 to 8) (size 9 to 14) (size 15 to 20)
#    0.000    2.375    0.000    3.750    1.750    4.500 
#    0.000    4.375    0.000    2.625    0.000    0.000 
#    0.000    0.000    0.000    0.000    0.000    0.000 
#
# Total GULP energy -793075.212619 kJ/mol
# GULP energy per Si atom -12391.800197 kJ/mol
# Density = 1.965568 g / cm^3
# Si number density = 19.700522 Si / 1000 Ang^3
#
#
#
# Elastic Constant Matrix: (Units=GPa)
#
#
# Indices 1 2 3 4 5 6 
#
# 1 71.0793 17.4053 10.0444 0.0000 0.0000 0.0000
# 2 17.4053 87.1652 35.5768 0.0000 0.0000 0.0000
# 3 10.0444 35.5768 88.5098 0.0000 0.0000 0.0000
# 4 0.0000 0.0000 0.0000 6.2698 0.0000 0.0000
# 5 0.0000 0.0000 0.0000 0.0000 26.8671 0.0000
# 6 0.0000 0.0000 0.0000 0.0000 0.0000 25.9981
#
#
#
# Elastic Compliance Matrix: (Units=1/GPa)
#
#
# Indices 1 2 3 4 5 6 
#
# 1 0.014818 -0.002718 -0.000589 0.000000 0.000000 0.000000
# 2 -0.002718 0.014223 -0.005408 0.000000 0.000000 0.000000
# 3 -0.000589 -0.005408 0.013539 0.000000 0.000000 0.000000
# 4 0.000000 0.000000 0.000000 0.159494 0.000000 0.000000
# 5 0.000000 0.000000 0.000000 0.000000 0.037220 0.000000
# 6 0.000000 0.000000 0.000000 0.000000 0.000000 0.038464
#
#
# Mechanical properties :
#
#
# Convention : Reuss Voigt Hill
#
# Bulk Modulus (GPa) = 39.76473 41.42305 40.59389
# Shear Modulus (GPa) = 16.47056 24.07552 20.27304
#
# Velocity S-wave (km/s) = 2.89458 3.49961 3.21138
# Velocity P-wave (km/s) = 5.60356 6.11569 5.86522
#
# Compressibility (1/GPa) = 0.02514791
#
# Stress axis : x y z
#
# Youngs Moduli (GPa) = 67.48694 70.30997 73.86112
#
# Poissons Ratio (x) = 0.19114 0.04349
# Poissons Ratio (y) = 0.18346 0.39947
# Poissons Ratio (z) = 0.03974 0.38026
#
# Static dielectric constant tensor:
#      x y z
#    x 3.658660 0.000000 0.000000 
#    y 0.000000 3.132490 0.000000 
#    z 0.000000 0.000000 3.429150 
# 
# 
# High freq. dielectric constant tensor:
#      x y z
#    x 1.765570 0.000000 0.000000 
#    y 0.000000 1.754030 0.000000 
#    z 0.000000 0.000000 1.772460 
# 
# From -- ./inp_files/32211.got.cif
#   From: 2010.03.12/outbox.cif.g09.slc.cpg/sg59_17_cif.got.tgz:32211.got - 2010.04.16 16:29:54.
