data_PCOD8245079
_publ_section_title
;
Structure prediction by ZEFSAII (Michael W. Deem and Ramdas Pophale) SiO2 
 PCOD8245079
Probable space group: P M M N
;
_chemical_formula_sum "Si O2"
_cell_formula_units_Z 40
_cell_length_a 8.975228
_cell_length_b 14.230580
_cell_length_c 17.020901
_cell_angle_alpha 90.000000
_cell_angle_beta 90.000000
_cell_angle_gamma 90.000000
_cell_volume 2173.955433
_symmetry_space_group_name_H-M "P M M N"
_symmetry_group_IT_number 59
_space_group.IT_coordinate_system_code '2'
_symmetry_cell_setting 'orthorhombic'
loop_
_space_group_symop_operation_xyz
x,y,z
1/2-x,1/2-y,z
1/2+x,-y,-z
-x,1/2+y,-z
-x,-y,-z
1/2+x,1/2+y,-z
1/2-x,y,z
x,1/2-y,z
loop_
_atom_site_type_symbol
_atom_site_label
_atom_site_fract_x
_atom_site_fract_y
_atom_site_fract_z
Si Si1 0.573049 0.250000 0.652465
Si Si2 0.075401 0.643299 0.997038
Si Si3 0.925033 0.518688 0.119719
Si Si4 0.421264 0.944684 0.278547
Si Si5 0.927750 0.250000 0.473434
Si Si6 0.577381 0.937554 0.565400
O O1 0.750000 0.250000 0.647946
O O2 0.515054 0.342153 0.697723
O O3 0.513708 0.250000 0.563221
O O4 0.250000 0.636523 0.013454
O O5 0.026317 0.750000 0.978452
O O6 0.994119 0.608333 0.075574
O O7 0.028337 0.578103 0.923642
O O8 0.750000 0.531918 0.121134
O O9 0.984511 0.512916 0.207737
O O10 0.250000 0.936326 0.252386
O O11 0.440127 0.014052 0.350942
O O12 0.750000 0.250000 0.468295
O O13 0.993117 0.160780 0.428470
O O14 0.750000 0.923916 0.543066
O O15 0.500000 0.000000 0.500000
#
# Coordination Sequence:
#
# PCOD8245079 Si02
#       6
#     4   8   8   8   4   8
#     4   9  18  35  57  81 108 147 190 225 275 344
#     4   9  19  38  61  80 107 149 185 218 273 340
#     4  10  21  36  56  86 116 139 181 234 277 327
#     4  10  21  38  58  81 115 153 187 227 282 343
#     4  11  21  39  61  83 112 153 198 241 291 346
#     4  11  22  38  60  85 115 152 196 242 289 344
#
# _framework density 18.399640999999999
#
# number of rings (size 3 to 8) (size 9 to 14) (size 15 to 20)
#    0.000    2.000    2.000    1.500    1.400    2.800 
#    1.800    0.000    0.000    0.000    0.000    0.000 
#    0.000    0.000    0.000    0.000    0.000    0.000 
#
# Total GULP energy -496130.703866 kJ/mol
# GULP energy per Si atom -12403.267597 kJ/mol
# Density = 1.835776 g / cm^3
# Si number density = 18.399641 Si / 1000 Ang^3
#
#
#
# Elastic Constant Matrix: (Units=GPa)
#
#
# Indices 1 2 3 4 5 6 
#
# 1 71.8370 51.6733 42.4501 0.0000 0.0000 0.0000
# 2 51.6733 148.9967 47.4788 0.0000 0.0000 0.0000
# 3 42.4501 47.4788 97.9829 0.0000 0.0000 0.0000
# 4 0.0000 0.0000 0.0000 20.0511 0.0000 0.0000
# 5 0.0000 0.0000 0.0000 0.0000 35.6584 0.0000
# 6 0.0000 0.0000 0.0000 0.0000 0.0000 31.3263
#
#
#
# Elastic Compliance Matrix: (Units=1/GPa)
#
#
# Indices 1 2 3 4 5 6 
#
# 1 0.021850 -0.005394 -0.006852 0.000000 0.000000 0.000000
# 2 -0.005394 0.009269 -0.002154 0.000000 0.000000 0.000000
# 3 -0.006852 -0.002154 0.014219 0.000000 0.000000 0.000000
# 4 0.000000 0.000000 0.000000 0.049873 0.000000 0.000000
# 5 0.000000 0.000000 0.000000 0.000000 0.028044 0.000000
# 6 0.000000 0.000000 0.000000 0.000000 0.000000 0.031922
#
#
# Mechanical properties :
#
#
# Convention : Reuss Voigt Hill
#
# Bulk Modulus (GPa) = 60.47670 66.89121 63.68396
# Shear Modulus (GPa) = 26.38678 29.22146 27.80412
#
# Velocity S-wave (km/s) = 3.79105 3.98949 3.89153
# Velocity P-wave (km/s) = 7.21821 7.59308 7.40802
#
# Compressibility (1/GPa) = 0.01653529
#
# Stress axis : x y z
#
# Youngs Moduli (GPa) = 45.76731 107.88917 70.33088
#
# Poissons Ratio (x) = 0.58196 0.48193
# Poissons Ratio (y) = 0.24687 0.15152
# Poissons Ratio (z) = 0.31361 0.23243
#
# Static dielectric constant tensor:
#      x y z
#    x 3.365440 0.000000 0.000000 
#    y 0.000000 3.137190 0.000000 
#    z 0.000000 0.000000 3.363120 
# 
# 
# High freq. dielectric constant tensor:
#      x y z
#    x 1.709450 0.000000 0.000000 
#    y 0.000000 1.723130 0.000000 
#    z 0.000000 0.000000 1.710830 
# 
# From -- ./inp_files/19935.got.cif
#   From: 2010.03.12/outbox.cif.g09.slc.cpg/sg59_10_cif.got.tgz:19935.got - 2010.04.16 16:29:54.
