data_PCOD8245078
_publ_section_title
;
Structure prediction by ZEFSAII (Michael W. Deem and Ramdas Pophale) SiO2 
 PCOD8245078
Probable space group: P M M N
;
_chemical_formula_sum "Si O2"
_cell_formula_units_Z 48
_cell_length_a 7.624657
_cell_length_b 8.978190
_cell_length_c 34.336257
_cell_angle_alpha 90.000000
_cell_angle_beta 90.000000
_cell_angle_gamma 90.000000
_cell_volume 2350.509735
_symmetry_space_group_name_H-M "P M M N"
_symmetry_group_IT_number 59
_space_group.IT_coordinate_system_code '2'
_symmetry_cell_setting 'orthorhombic'
loop_
_space_group_symop_operation_xyz
x,y,z
1/2-x,1/2-y,z
1/2+x,-y,-z
-x,1/2+y,-z
-x,-y,-z
1/2+x,1/2+y,-z
1/2-x,y,z
x,1/2-y,z
loop_
_atom_site_type_symbol
_atom_site_label
_atom_site_fract_x
_atom_site_fract_y
_atom_site_fract_z
Si Si1 0.049037 0.412290 0.884581
Si Si2 0.454914 0.415275 0.539130
Si Si3 0.049143 0.577205 0.809251
Si Si4 0.044502 0.925535 0.617079
Si Si5 0.545341 0.916245 0.960737
Si Si6 0.250000 0.423525 0.250946
Si Si7 0.750000 0.426966 0.667470
O O1 0.250000 0.390281 0.874433
O O2 0.958228 0.250000 0.889586
O O3 0.968208 0.496739 0.847412
O O4 0.038534 0.502700 0.924263
O O5 0.500000 0.500000 0.500000
O O6 0.250000 0.397171 0.542717
O O7 0.541934 0.250000 0.539233
O O8 0.522370 0.511095 0.575651
O O9 0.250000 0.530637 0.799194
O O10 0.039004 0.750000 0.819346
O O11 0.925611 0.537596 0.773016
O O12 0.250000 0.960652 0.624842
O O13 0.009255 0.750000 0.617571
O O14 0.927604 0.004315 0.649685
O O15 0.750000 0.912011 0.954019
O O16 0.467437 0.750000 0.963482
O O17 0.500000 0.000000 0.000000
O O18 0.250000 0.250000 0.263648
O O19 0.250000 0.532353 0.287395
O O20 0.750000 0.250000 0.661583
#
# Coordination Sequence:
#
# PCOD8245078 Si02
#       7
#     8   8   8   8   8   4   4
#     4  10  21  37  58  85 116 150 189 234 288 349
#     4  10  21  36  56  85 121 161 205 254 309 368
#     4   9  19  37  61  88 120 157 196 245 302 354
#     4  10  22  42  66  90 121 163 213 264 314 372
#     4  11  24  39  56  80 111 148 192 239 287 341
#     4  10  22  40  62  90 122 156 206 256 298 368
#     4  12  26  42  64  94 128 168 208 256 320 384
#
# _framework density 20.421102000000001
#
# number of rings (size 3 to 8) (size 9 to 14) (size 15 to 20)
#    0.000    1.833    0.000    3.250    2.333    7.667 
#    0.000    1.667    0.000    0.000    0.000    0.000 
#    0.000    0.000    0.000    0.000    0.000    0.000 
#
# Total GULP energy -595160.215842 kJ/mol
# GULP energy per Si atom -12399.171163 kJ/mol
# Density = 2.037462 g / cm^3
# Si number density = 20.421102 Si / 1000 Ang^3
#
#
#
# Elastic Constant Matrix: (Units=GPa)
#
#
# Indices 1 2 3 4 5 6 
#
# 1 74.7200 42.4124 44.7240 0.0000 0.0000 0.0000
# 2 42.4124 165.7632 84.0673 0.0000 0.0000 0.0000
# 3 44.7240 84.0673 160.1079 0.0000 0.0000 0.0000
# 4 0.0000 0.0000 0.0000 44.1592 0.0000 0.0000
# 5 0.0000 0.0000 0.0000 0.0000 32.6157 0.0000
# 6 0.0000 0.0000 0.0000 0.0000 0.0000 22.2918
#
#
#
# Elastic Compliance Matrix: (Units=1/GPa)
#
#
# Indices 1 2 3 4 5 6 
#
# 1 0.016869 -0.002625 -0.003334 0.000000 0.000000 0.000000
# 2 -0.002625 0.008631 -0.003798 0.000000 0.000000 0.000000
# 3 -0.003334 -0.003798 0.009171 0.000000 0.000000 0.000000
# 4 0.000000 0.000000 0.000000 0.022645 0.000000 0.000000
# 5 0.000000 0.000000 0.000000 0.000000 0.030660 0.000000
# 6 0.000000 0.000000 0.000000 0.000000 0.000000 0.044860
#
#
# Mechanical properties :
#
#
# Convention : Reuss Voigt Hill
#
# Bulk Modulus (GPa) = 65.97923 82.55539 74.26731
# Shear Modulus (GPa) = 31.76561 35.10583 33.43572
#
# Velocity S-wave (km/s) = 3.94830 4.15070 4.05076
# Velocity P-wave (km/s) = 7.29143 7.96777 7.63709
#
# Compressibility (1/GPa) = 0.01515629
#
# Stress axis : x y z
#
# Youngs Moduli (GPa) = 59.28077 115.86397 109.03508
#
# Poissons Ratio (x) = 0.30420 0.36347
# Poissons Ratio (y) = 0.15564 0.41415
# Poissons Ratio (z) = 0.19761 0.44009
#
# Static dielectric constant tensor:
#      x y z
#    x 3.256100 0.000000 0.000000 
#    y 0.000000 3.813640 0.000000 
#    z 0.000000 0.000000 3.550770 
# 
# 
# High freq. dielectric constant tensor:
#      x y z
#    x 1.799360 0.000000 0.000000 
#    y 0.000000 1.810100 0.000000 
#    z 0.000000 0.000000 1.798300 
# 
# From -- ./inp_files/33035.got.cif
#   From: 2010.03.12/outbox.cif.g09.slc.cpg/sg59_17_cif.got.tgz:33035.got - 2010.04.16 16:29:54.
