data_PCOD8245561
_publ_section_title
;
Structure prediction by ZEFSAII (Michael W. Deem and Ramdas Pophale) SiO2 
 PCOD8245561
Probable space group: P M M N
;
_chemical_formula_sum "Si O2"
_cell_formula_units_Z 40
_cell_length_a 8.740919
_cell_length_b 14.201948
_cell_length_c 16.999292
_cell_angle_alpha 90.000000
_cell_angle_beta 90.000000
_cell_angle_gamma 90.000000
_cell_volume 2110.259421
_symmetry_space_group_name_H-M "P M M N"
_symmetry_group_IT_number 59
_space_group.IT_coordinate_system_code '2'
_symmetry_cell_setting 'orthorhombic'
loop_
_space_group_symop_operation_xyz
x,y,z
1/2-x,1/2-y,z
1/2+x,-y,-z
-x,1/2+y,-z
-x,-y,-z
1/2+x,1/2+y,-z
1/2-x,y,z
x,1/2-y,z
loop_
_atom_site_type_symbol
_atom_site_label
_atom_site_fract_x
_atom_site_fract_y
_atom_site_fract_z
Si Si1 0.929324 0.441050 0.286170
Si Si2 0.927249 0.641492 0.019096
Si Si3 0.426594 0.008618 0.124477
Si Si4 0.923023 0.250000 0.510637
Si Si5 0.572856 0.049739 0.574434
Si Si6 0.070748 0.250000 0.344242
O O1 0.750000 0.430372 0.297115
O O2 0.967782 0.475919 0.199431
O O3 0.989489 0.518721 0.346667
O O4 0.004654 0.340857 0.301763
O O5 0.750000 0.630595 0.042285
O O6 0.977599 0.750000 0.014401
O O7 0.028773 0.590465 0.084925
O O8 0.958815 0.594697 0.934651
O O9 0.250000 0.004746 0.150114
O O10 0.750000 0.250000 0.476834
O O11 0.951782 0.338986 0.566201
O O12 0.035569 0.250000 0.436762
O O13 0.750000 0.021256 0.579350
O O14 0.500000 0.000000 0.500000
O O15 0.250000 0.250000 0.331935
#
# Coordination Sequence:
#
# PCOD8245561 Si02
#       6
#     8   8   8   4   8   4
#     4  12  25  41  60  88 124 160 199 249 300 355
#     4   9  19  38  63  89 119 156 195 240 296 358
#     4  10  21  38  61  90 121 156 198 245 296 353
#     4  10  22  40  62  86 117 154 201 250 302 358
#     4  11  22  39  62  88 119 159 201 248 299 355
#     4  12  24  38  62  90 119 154 199 250 302 358
#
# _framework density 18.955016000000001
#
# number of rings (size 3 to 8) (size 9 to 14) (size 15 to 20)
#    0.000    1.400    2.000    3.900    1.400    2.000 
#    1.800    0.000    0.000    0.000    0.000    0.000 
#    0.000    0.000    0.000    0.000    0.000    0.000 
#
# Total GULP energy -496234.488343 kJ/mol
# GULP energy per Si atom -12405.862209 kJ/mol
# Density = 1.891187 g / cm^3
# Si number density = 18.955016 Si / 1000 Ang^3
#
#
#
# Elastic Constant Matrix: (Units=GPa)
#
#
# Indices 1 2 3 4 5 6 
#
# 1 133.8889 55.4595 54.6713 0.0000 0.0000 0.0000
# 2 55.4595 150.8287 57.9374 0.0000 0.0000 0.0000
# 3 54.6713 57.9374 111.9819 0.0000 0.0000 0.0000
# 4 0.0000 0.0000 0.0000 21.2693 0.0000 0.0000
# 5 0.0000 0.0000 0.0000 0.0000 35.2739 0.0000
# 6 0.0000 0.0000 0.0000 0.0000 0.0000 28.3094
#
#
#
# Elastic Compliance Matrix: (Units=1/GPa)
#
#
# Indices 1 2 3 4 5 6 
#
# 1 0.009892 -0.002224 -0.003679 0.000000 0.000000 0.000000
# 2 -0.002224 0.008775 -0.003454 0.000000 0.000000 0.000000
# 3 -0.003679 -0.003454 0.012513 0.000000 0.000000 0.000000
# 4 0.000000 0.000000 0.000000 0.047016 0.000000 0.000000
# 5 0.000000 0.000000 0.000000 0.000000 0.028350 0.000000
# 6 0.000000 0.000000 0.000000 0.000000 0.000000 0.035324
#
#
# Mechanical properties :
#
#
# Convention : Reuss Voigt Hill
#
# Bulk Modulus (GPa) = 80.21769 81.42621 80.82195
# Shear Modulus (GPa) = 30.35102 32.21261 31.28182
#
# Velocity S-wave (km/s) = 4.00586 4.12688 4.06682
# Velocity P-wave (km/s) = 7.98798 8.10919 8.04881
#
# Compressibility (1/GPa) = 0.01246608
#
# Stress axis : x y z
#
# Youngs Moduli (GPa) = 101.08764 113.96462 79.91645
#
# Poissons Ratio (x) = 0.25349 0.29400
# Poissons Ratio (y) = 0.22485 0.27602
# Poissons Ratio (z) = 0.37188 0.39362
#
# Static dielectric constant tensor:
#      x y z
#    x 3.647790 0.000000 0.000000 
#    y 0.000000 4.210260 0.000000 
#    z 0.000000 0.000000 3.376560 
# 
# 
# High freq. dielectric constant tensor:
#      x y z
#    x 1.749140 0.000000 0.000000 
#    y 0.000000 1.746920 0.000000 
#    z 0.000000 0.000000 1.733780 
# 
# From -- ./inp_files/19917.got.cif
#   From: 2010.03.12/outbox.cif.g09.slc.cpg/sg59_10_cif.got.tgz:19917.got - 2010.04.16 16:29:54.
