data_PCOD8245453
_publ_section_title
;
Structure prediction by ZEFSAII (Michael W. Deem and Ramdas Pophale) SiO2 
 PCOD8245453
Probable space group: P M M N
;
_chemical_formula_sum "Si O2"
_cell_formula_units_Z 56
_cell_length_a 14.314617
_cell_length_b 8.466515
_cell_length_c 23.597089
_cell_angle_alpha 90.000000
_cell_angle_beta 90.000000
_cell_angle_gamma 90.000000
_cell_volume 2859.847303
_symmetry_space_group_name_H-M "P M M N"
_symmetry_group_IT_number 59
_space_group.IT_coordinate_system_code '2'
_symmetry_cell_setting 'orthorhombic'
loop_
_space_group_symop_operation_xyz
x,y,z
1/2-x,1/2-y,z
1/2+x,-y,-z
-x,1/2+y,-z
-x,-y,-z
1/2+x,1/2+y,-z
1/2-x,y,z
x,1/2-y,z
loop_
_atom_site_type_symbol
_atom_site_label
_atom_site_fract_x
_atom_site_fract_y
_atom_site_fract_z
Si Si1 0.505066 0.564949 0.437316
Si Si2 0.856870 0.063852 0.347960
Si Si3 0.141184 0.567392 0.059816
Si Si4 0.359304 0.431810 0.939750
Si Si5 0.500192 0.567623 0.854540
Si Si6 0.642872 0.934742 0.644800
Si Si7 0.506655 0.432994 0.732147
O O1 0.500000 0.500000 0.500000
O O2 0.523069 0.750000 0.438023
O O3 0.592046 0.482600 0.406117
O O4 0.407987 0.528117 0.405657
O O5 0.750000 0.004991 0.350160
O O6 0.862652 0.250000 0.339639
O O7 0.907619 0.982907 0.294674
O O8 0.250000 0.536001 0.067775
O O9 0.114490 0.750000 0.066607
O O10 0.090641 0.466019 0.107565
O O11 0.107633 0.509931 0.998329
O O12 0.250000 0.451659 0.930705
O O13 0.390638 0.250000 0.940205
O O14 0.407087 0.522343 0.888250
O O15 0.497006 0.750000 0.837319
O O16 0.505364 0.462860 0.798634
O O17 0.750000 0.991084 0.648361
O O18 0.635786 0.750000 0.631787
O O19 0.592039 0.970789 0.704225
O O20 0.523756 0.250000 0.719728
#
# Coordination Sequence:
#
# PCOD8245453 Si02
#       7
#     8   8   8   8   8   8   8
#     4  11  22  37  59  87 121 155 191 236 279 327
#     4  10  21  39  62  86 115 151 189 231 281 335
#     4  10  21  38  59  83 112 145 183 228 279 337
#     4  10  21  38  59  83 112 145 183 228 279 337
#     4  12  24  38  58  82 112 148 187 232 281 334
#     4  10  21  39  62  86 115 151 189 231 281 335
#     4  11  23  39  59  83 113 147 188 236 280 331
#
# _framework density 19.581465999999999
#
# number of rings (size 3 to 8) (size 9 to 14) (size 15 to 20)
#    0.000    1.429    0.000    7.714    0.000    5.714 
#    0.000    0.000    0.000    0.000    0.000    0.000 
#    0.000    0.000    0.000    0.000    0.000    0.000 
#
# Total GULP energy -694708.202899 kJ/mol
# GULP energy per Si atom -12405.503623 kJ/mol
# Density = 1.953690 g / cm^3
# Si number density = 19.581466 Si / 1000 Ang^3
#
#
#
# Elastic Constant Matrix: (Units=GPa)
#
#
# Indices 1 2 3 4 5 6 
#
# 1 127.6977 16.3019 44.4601 0.0000 0.0000 0.0000
# 2 16.3019 72.1666 4.1144 0.0000 0.0000 0.0000
# 3 44.4601 4.1144 126.8672 0.0000 0.0000 0.0000
# 4 0.0000 0.0000 0.0000 37.4850 0.0000 0.0000
# 5 0.0000 0.0000 0.0000 0.0000 21.4781 0.0000
# 6 0.0000 0.0000 0.0000 0.0000 0.0000 -106.2428
#
#
#
# Elastic Compliance Matrix: (Units=1/GPa)
#
#
# Indices 1 2 3 4 5 6 
#
# 1 0.009170 -0.001892 -0.003152 0.000000 0.000000 0.000000
# 2 -0.001892 0.014273 0.000200 0.000000 0.000000 0.000000
# 3 -0.003152 0.000200 0.008980 0.000000 0.000000 0.000000
# 4 0.000000 0.000000 0.000000 0.026677 0.000000 0.000000
# 5 0.000000 0.000000 0.000000 0.000000 0.046559 0.000000
# 6 0.000000 0.000000 0.000000 0.000000 0.000000 -0.009412
#
#
# Mechanical properties :
#
#
# Convention : Reuss Voigt Hill
#
# Bulk Modulus (GPa) = 43.98423 50.72047 47.35235
# Shear Modulus (GPa) = 44.04764 8.00106 26.02435
#
# Velocity S-wave (km/s) = 4.74799 2.02359 3.64954
# Velocity P-wave (km/s) = 7.25043 5.60521 6.48025
#
# Compressibility (1/GPa) = 0.02273542
#
# Stress axis : x y z
#
# Youngs Moduli (GPa) = 109.05132 70.06367 111.35286
#
# Poissons Ratio (x) = 0.13254 0.35101
# Poissons Ratio (y) = 0.20629 -0.02228
# Poissons Ratio (z) = 0.34376 -0.01402
#
# Static dielectric constant tensor:
#      x y z
#    x 3.665300 0.000000 0.000000 
#    y 0.000000 3.902650 0.000000 
#    z 0.000000 0.000000 3.526410 
# 
# 
# High freq. dielectric constant tensor:
#      x y z
#    x 1.770310 0.000000 0.000000 
#    y 0.000000 1.779870 0.000000 
#    z 0.000000 0.000000 1.763160 
# 
# From -- ./inp_files/30309.got.cif
#   From: 2010.03.12/outbox.cif.g09.slc.cpg/sg59_16_cif.got.tgz:30309.got - 2010.04.16 16:29:54.
