data_PCOD8245329
_publ_section_title
;
Structure prediction by ZEFSAII (Michael W. Deem and Ramdas Pophale) SiO2 
 PCOD8245329
Probable space group: P M M N
;
_chemical_formula_sum "Si O2"
_cell_formula_units_Z 56
_cell_length_a 14.605446
_cell_length_b 21.947209
_cell_length_c 8.678564
_cell_angle_alpha 90.000000
_cell_angle_beta 90.000000
_cell_angle_gamma 90.000000
_cell_volume 2781.903067
_symmetry_space_group_name_H-M "P M M N"
_symmetry_group_IT_number 59
_space_group.IT_coordinate_system_code '2'
_symmetry_cell_setting 'orthorhombic'
loop_
_space_group_symop_operation_xyz
x,y,z
1/2-x,1/2-y,z
1/2+x,-y,-z
-x,1/2+y,-z
-x,-y,-z
1/2+x,1/2+y,-z
1/2-x,y,z
x,1/2-y,z
loop_
_atom_site_type_symbol
_atom_site_label
_atom_site_fract_x
_atom_site_fract_y
_atom_site_fract_z
Si Si1 0.083595 0.979481 0.389489
Si Si2 0.646899 0.250000 0.301364
Si Si3 0.539650 0.360541 0.158498
Si Si4 0.538200 0.137913 0.802737
Si Si5 0.647468 0.590214 0.816717
Si Si6 0.149071 0.408263 0.831893
Si Si7 0.349161 0.536957 0.697917
Si Si8 0.645872 0.250000 0.663896
O O1 0.063529 0.928032 0.263333
O O2 0.154521 0.951624 0.513574
O O3 0.127999 0.035796 0.300372
O O4 0.000000 0.000000 0.500000
O O5 0.750000 0.250000 0.232540
O O6 0.592652 0.308961 0.248739
O O7 0.652063 0.250000 0.482697
O O8 0.430527 0.356929 0.196871
O O9 0.571193 0.426374 0.218056
O O10 0.566103 0.355746 0.980328
O O11 0.426981 0.143211 0.792466
O O12 0.589474 0.190810 0.713003
O O13 0.750000 0.616428 0.783158
O O14 0.641108 0.566994 0.992932
O O15 0.250000 0.379974 0.801627
O O16 0.130693 0.465808 0.723328
O O17 0.250000 0.556001 0.765760
O O18 0.750000 0.250000 0.732375
#
# Coordination Sequence:
#
# PCOD8245329 Si02
#       8
#     8   4   8   8   8   8   8   4
#     4  12  21  35  58  89 127 163 196 248 302 364
#     4  11  25  45  66  87 116 158 204 254 306 361
#     4  11  22  39  62  87 116 159 206 253 301 358
#     4  11  23  40  62  87 121 159 202 250 301 354
#     4  10  21  37  58  87 121 158 199 246 301 358
#     4   9  19  37  60  87 119 156 198 245 298 360
#     4  11  21  34  55  86 121 158 197 244 302 361
#     4  11  27  45  64  87 120 160 202 248 302 361
#
# _framework density 20.130103999999999
#
# number of rings (size 3 to 8) (size 9 to 14) (size 15 to 20)
#    0.000    1.286    2.857    3.000    0.000    6.286 
#    0.000    0.714    0.000    4.286    0.000    0.000 
#    0.000    0.000    0.000    0.000    0.000    0.000 
#
# Total GULP energy -694035.424294 kJ/mol
# GULP energy per Si atom -12393.489720 kJ/mol
# Density = 2.008429 g / cm^3
# Si number density = 20.130104 Si / 1000 Ang^3
#
#
#
# Elastic Constant Matrix: (Units=GPa)
#
#
# Indices 1 2 3 4 5 6 
#
# 1 168.9207 62.1730 43.3469 0.0000 0.0000 0.0000
# 2 62.1730 65.9418 23.0823 0.0000 0.0000 0.0000
# 3 43.3469 23.0823 81.1084 0.0000 0.0000 0.0000
# 4 0.0000 0.0000 0.0000 37.7648 0.0000 0.0000
# 5 0.0000 0.0000 0.0000 0.0000 29.5656 0.0000
# 6 0.0000 0.0000 0.0000 0.0000 0.0000 -30.0302
#
#
#
# Elastic Compliance Matrix: (Units=1/GPa)
#
#
# Indices 1 2 3 4 5 6 
#
# 1 0.009623 -0.008077 -0.002844 0.000000 0.000000 0.000000
# 2 -0.008077 0.023623 -0.002406 0.000000 0.000000 0.000000
# 3 -0.002844 -0.002406 0.014534 0.000000 0.000000 0.000000
# 4 0.000000 0.000000 0.000000 0.026480 0.000000 0.000000
# 5 0.000000 0.000000 0.000000 0.000000 0.033823 0.000000
# 6 0.000000 0.000000 0.000000 0.000000 0.000000 -0.033300
#
#
# Mechanical properties :
#
#
# Convention : Reuss Voigt Hill
#
# Bulk Modulus (GPa) = 47.33769 63.68613 55.51191
# Shear Modulus (GPa) = 46.09236 19.95128 33.02182
#
# Velocity S-wave (km/s) = 4.79030 3.15162 4.05460
# Velocity P-wave (km/s) = 7.35954 6.70444 7.03961
#
# Compressibility (1/GPa) = 0.02112482
#
# Stress axis : x y z
#
# Youngs Moduli (GPa) = 103.92180 42.33233 68.80508
#
# Poissons Ratio (x) = 0.34192 0.19568
# Poissons Ratio (y) = 0.83939 0.16554
# Poissons Ratio (z) = 0.29555 0.10185
#
# Static dielectric constant tensor:
#      x y z
#    x 4.222510 0.000000 0.000000 
#    y 0.000000 3.498480 0.000000 
#    z 0.000000 0.000000 3.931790 
# 
# 
# High freq. dielectric constant tensor:
#      x y z
#    x 1.811440 0.000000 0.000000 
#    y 0.000000 1.746050 0.000000 
#    z 0.000000 0.000000 1.799600 
# 
# From -- ./inp_files/9419.got.cif
#   From: 2010.03.12/outbox.cif.g09.slc.cpg/sg59_5_cif.got.tgz:9419.got - 2010.04.16 16:29:54.
