data_PCOD8245050
_publ_section_title
;
Structure prediction by ZEFSAII (Michael W. Deem and Ramdas Pophale) SiO2 
 PCOD8245050
Probable space group: P M M N
;
_chemical_formula_sum "Si O2"
_cell_formula_units_Z 56
_cell_length_a 22.475377
_cell_length_b 8.779938
_cell_length_c 14.460248
_cell_angle_alpha 90.000000
_cell_angle_beta 90.000000
_cell_angle_gamma 90.000000
_cell_volume 2853.475682
_symmetry_space_group_name_H-M "P M M N"
_symmetry_group_IT_number 59
_space_group.IT_coordinate_system_code '2'
_symmetry_cell_setting 'orthorhombic'
loop_
_space_group_symop_operation_xyz
x,y,z
1/2-x,1/2-y,z
1/2+x,-y,-z
-x,1/2+y,-z
-x,-y,-z
1/2+x,1/2+y,-z
1/2-x,y,z
x,1/2-y,z
loop_
_atom_site_type_symbol
_atom_site_label
_atom_site_fract_x
_atom_site_fract_y
_atom_site_fract_z
Si Si1 0.250000 0.567819 0.822474
Si Si2 0.405664 0.926173 0.346615
Si Si3 0.020540 0.425380 0.091931
Si Si4 0.135850 0.573731 0.145523
Si Si5 0.974922 0.069139 0.285667
Si Si6 0.183809 0.924948 0.504388
Si Si7 0.250000 0.929054 0.034322
Si Si8 0.652591 0.570350 0.309085
O O1 0.250000 0.750000 0.816779
O O2 0.250000 0.507181 0.929043
O O3 0.189977 0.506767 0.773788
O O4 0.422586 0.750000 0.357588
O O5 0.364824 0.951506 0.255853
O O6 0.365304 0.983731 0.431584
O O7 0.467787 0.018286 0.346021
O O8 0.008218 0.250000 0.083476
O O9 0.089227 0.460835 0.100659
O O10 0.985160 0.488386 0.180827
O O11 0.000000 0.500000 0.000000
O O12 0.121717 0.750000 0.121947
O O13 0.195288 0.516262 0.096566
O O14 0.968831 0.250000 0.294205
O O15 0.914540 0.990776 0.317865
O O16 0.250000 0.937256 0.460411
O O17 0.170436 0.750000 0.532561
O O18 0.183332 0.030666 0.594310
O O19 0.250000 0.750000 0.025236
O O20 0.652735 0.750000 0.292464
#
# Coordination Sequence:
#
# PCOD8245050 Si02
#       8
#     4   8   8   8   8   8   4   8
#     4  11  23  41  60  83 120 160 199 241 290 355
#     4   9  19  36  61  92 123 152 193 242 290 345
#     4  10  21  36  56  82 112 150 195 239 289 343
#     4   9  18  35  57  86 120 151 189 235 279 339
#     4  10  22  40  61  84 116 157 196 240 299 356
#     4  10  21  38  62  90 120 159 197 236 292 354
#     4   9  20  35  58  87 116 154 193 229 282 343
#     4  12  25  41  62  88 117 152 199 252 298 345
#
# _framework density 19.625188999999999
#
# number of rings (size 3 to 8) (size 9 to 14) (size 15 to 20)
#    0.000    2.000    0.714    2.357    3.000    2.857 
#    0.000    1.071    0.000    0.000    0.000    0.000 
#    0.000    0.000    0.000    0.000    0.000    0.000 
#
# Total GULP energy -694253.019459 kJ/mol
# GULP energy per Si atom -12397.375347 kJ/mol
# Density = 1.958052 g / cm^3
# Si number density = 19.625189 Si / 1000 Ang^3
#
#
#
# Elastic Constant Matrix: (Units=GPa)
#
#
# Indices 1 2 3 4 5 6 
#
# 1 120.1911 34.4689 51.3855 0.0000 0.0000 0.0000
# 2 34.4689 63.0020 21.6684 0.0000 0.0000 0.0000
# 3 51.3855 21.6684 83.2304 0.0000 0.0000 0.0000
# 4 0.0000 0.0000 0.0000 22.8059 0.0000 0.0000
# 5 0.0000 0.0000 0.0000 0.0000 24.0769 0.0000
# 6 0.0000 0.0000 0.0000 0.0000 0.0000 32.3274
#
#
#
# Elastic Compliance Matrix: (Units=1/GPa)
#
#
# Indices 1 2 3 4 5 6 
#
# 1 0.012390 -0.004556 -0.006463 0.000000 0.000000 0.000000
# 2 -0.004556 0.019109 -0.002162 0.000000 0.000000 0.000000
# 3 -0.006463 -0.002162 0.016568 0.000000 0.000000 0.000000
# 4 0.000000 0.000000 0.000000 0.043848 0.000000 0.000000
# 5 0.000000 0.000000 0.000000 0.000000 0.041534 0.000000
# 6 0.000000 0.000000 0.000000 0.000000 0.000000 0.030933
#
#
# Mechanical properties :
#
#
# Convention : Reuss Voigt Hill
#
# Bulk Modulus (GPa) = 46.07387 53.49657 49.78522
# Shear Modulus (GPa) = 25.25521 26.43543 25.84532
#
# Velocity S-wave (km/s) = 3.59120 3.67415 3.63291
# Velocity P-wave (km/s) = 6.38150 6.73183 6.55900
#
# Compressibility (1/GPa) = 0.02170428
#
# Stress axis : x y z
#
# Youngs Moduli (GPa) = 80.71134 52.33256 60.35690
#
# Poissons Ratio (x) = 0.23841 0.39011
# Poissons Ratio (y) = 0.36769 0.13050
# Poissons Ratio (z) = 0.52166 0.11315
#
# Static dielectric constant tensor:
#      x y z
#    x 3.481930 0.000000 0.000000 
#    y 0.000000 3.506010 0.000000 
#    z 0.000000 0.000000 3.161350 
# 
# 
# High freq. dielectric constant tensor:
#      x y z
#    x 1.774420 0.000000 0.000000 
#    y 0.000000 1.753280 0.000000 
#    z 0.000000 0.000000 1.767820 
# 
# From -- ./inp_files/24355.got.cif
#   From: 2010.03.12/outbox.cif.g09.slc.cpg/sg59_13_cif.got.tgz:24355.got - 2010.04.16 16:29:54.
