data_PCOD8245655
_publ_section_title
;
Structure prediction by ZEFSAII (Michael W. Deem and Ramdas Pophale) SiO2 
 PCOD8245655
Probable space group: P M M N
;
_chemical_formula_sum "Si O2"
_cell_formula_units_Z 64
_cell_length_a 14.681685
_cell_length_b 17.448232
_cell_length_c 12.120960
_cell_angle_alpha 90.000000
_cell_angle_beta 90.000000
_cell_angle_gamma 90.000000
_cell_volume 3105.019609
_symmetry_space_group_name_H-M "P M M N"
_symmetry_group_IT_number 59
_space_group.IT_coordinate_system_code '2'
_symmetry_cell_setting 'orthorhombic'
loop_
_space_group_symop_operation_xyz
x,y,z
1/2-x,1/2-y,z
1/2+x,-y,-z
-x,1/2+y,-z
-x,-y,-z
1/2+x,1/2+y,-z
1/2-x,y,z
x,1/2-y,z
loop_
_atom_site_type_symbol
_atom_site_label
_atom_site_fract_x
_atom_site_fract_y
_atom_site_fract_z
Si Si1 0.151073 0.160951 0.921947
Si Si2 0.474205 0.912540 0.016189
Si Si3 0.114697 0.335972 0.680692
Si Si4 0.582458 0.163361 0.761509
Si Si5 0.147154 0.077153 0.458389
Si Si6 0.649378 0.401170 0.552089
Si Si7 0.356066 0.659557 0.828840
Si Si8 0.521989 0.338036 0.375515
O O1 0.250000 0.143637 0.975899
O O2 0.130603 0.250000 0.910019
O O3 0.150783 0.128528 0.796589
O O4 0.071584 0.129076 0.999631
O O5 0.431454 0.892455 0.134678
O O6 0.398413 0.886241 0.930309
O O7 0.500000 0.000000 0.000000
O O8 0.153432 0.250000 0.659518
O O9 0.145773 0.390706 0.582453
O O10 0.006620 0.333042 0.686119
O O11 0.610334 0.250000 0.799473
O O12 0.656000 0.125236 0.680190
O O13 0.250000 0.086826 0.410906
O O14 0.075003 0.118860 0.378446
O O15 0.117947 0.988744 0.459697
O O16 0.750000 0.390175 0.500987
O O17 0.577806 0.348737 0.487758
O O18 0.250000 0.636756 0.814436
O O19 0.365720 0.750000 0.849387
O O20 0.413683 0.632256 0.723037
O O21 0.497228 0.250000 0.359778
#
# Coordination Sequence:
#
# PCOD8245655 Si02
#       8
#     8   8   8   8   8   8   8   8
#     4   9  18  35  60  89 122 160 206 256 305 371
#     4  11  24  39  64  94 126 161 199 258 327 376
#     4   9  17  32  57  90 124 161 203 249 305 372
#     4  10  21  39  63  90 120 159 206 259 312 371
#     4  11  23  36  56  89 131 172 205 252 316 382
#     4  11  24  39  60  92 128 167 209 262 325 376
#     4  10  23  44  67  90 120 165 220 265 306 370
#     4  11  23  40  64  90 124 169 215 263 310 374
#
# _framework density 20.611785000000001
#
# number of rings (size 3 to 8) (size 9 to 14) (size 15 to 20)
#    0.000    1.750    1.250    3.750    1.750    5.000 
#    0.000    0.625    0.000    0.750    0.000    0.000 
#    0.000    0.000    0.000    0.000    0.000    0.000 
#
# Total GULP energy -793390.007575 kJ/mol
# GULP energy per Si atom -12396.718868 kJ/mol
# Density = 2.056487 g / cm^3
# Si number density = 20.611785 Si / 1000 Ang^3
#
#
#
# Elastic Constant Matrix: (Units=GPa)
#
#
# Indices 1 2 3 4 5 6 
#
# 1 124.8231 26.1228 37.7604 0.0000 0.0000 0.0000
# 2 26.1228 79.3273 36.1501 0.0000 0.0000 0.0000
# 3 37.7604 36.1501 90.4656 0.0000 0.0000 0.0000
# 4 0.0000 0.0000 0.0000 26.3684 0.0000 0.0000
# 5 0.0000 0.0000 0.0000 0.0000 25.3977 0.0000
# 6 0.0000 0.0000 0.0000 0.0000 0.0000 24.6686
#
#
#
# Elastic Compliance Matrix: (Units=1/GPa)
#
#
# Indices 1 2 3 4 5 6 
#
# 1 0.009330 -0.001587 -0.003260 0.000000 0.000000 0.000000
# 2 -0.001587 0.015682 -0.005604 0.000000 0.000000 0.000000
# 3 -0.003260 -0.005604 0.014654 0.000000 0.000000 0.000000
# 4 0.000000 0.000000 0.000000 0.037924 0.000000 0.000000
# 5 0.000000 0.000000 0.000000 0.000000 0.039374 0.000000
# 6 0.000000 0.000000 0.000000 0.000000 0.000000 0.040537
#
#
# Mechanical properties :
#
#
# Convention : Reuss Voigt Hill
#
# Bulk Modulus (GPa) = 53.29393 54.96474 54.12934
# Shear Modulus (GPa) = 27.07698 28.25912 27.66805
#
# Velocity S-wave (km/s) = 3.62838 3.70674 3.66777
# Velocity P-wave (km/s) = 6.59286 6.71152 6.65245
#
# Compressibility (1/GPa) = 0.01876386
#
# Stress axis : x y z
#
# Youngs Moduli (GPa) = 107.18552 63.76545 68.23941
#
# Poissons Ratio (x) = 0.10117 0.22247
# Poissons Ratio (y) = 0.17006 0.38245
# Poissons Ratio (z) = 0.34944 0.35737
#
# Static dielectric constant tensor:
#      x y z
#    x 3.929710 0.000000 0.000000 
#    y 0.000000 3.654820 0.000000 
#    z 0.000000 0.000000 3.625050 
# 
# 
# High freq. dielectric constant tensor:
#      x y z
#    x 1.819590 0.000000 0.000000 
#    y 0.000000 1.799390 0.000000 
#    z 0.000000 0.000000 1.787590 
# 
# From -- ./inp_files/17224.got.cif
#   From: 2010.03.12/outbox.cif.g09.slc.cpg/sg59_9_cif.got.tgz:17224.got - 2010.04.16 16:29:54.
