data_PCOD8245694
_publ_section_title
;
Structure prediction by ZEFSAII (Michael W. Deem and Ramdas Pophale) SiO2 
 PCOD8245694
Probable space group: P M M N
;
_chemical_formula_sum "Si O2"
_cell_formula_units_Z 32
_cell_length_a 29.460114
_cell_length_b 5.147212
_cell_length_c 10.697882
_cell_angle_alpha 90.000000
_cell_angle_beta 90.000000
_cell_angle_gamma 90.000000
_cell_volume 1622.199572
_symmetry_space_group_name_H-M "P M M N"
_symmetry_group_IT_number 59
_space_group.IT_coordinate_system_code '2'
_symmetry_cell_setting 'orthorhombic'
loop_
_space_group_symop_operation_xyz
x,y,z
1/2-x,1/2-y,z
1/2+x,-y,-z
-x,1/2+y,-z
-x,-y,-z
1/2+x,1/2+y,-z
1/2-x,y,z
x,1/2-y,z
loop_
_atom_site_type_symbol
_atom_site_label
_atom_site_fract_x
_atom_site_fract_y
_atom_site_fract_z
Si Si1 0.196780 0.750000 0.009020
Si Si2 0.966779 0.250000 0.005017
Si Si3 0.491589 0.250000 0.581825
Si Si4 0.124301 0.250000 0.361063
Si Si5 0.301683 0.250000 0.169895
Si Si6 0.882216 0.250000 0.190071
Si Si7 0.389509 0.250000 0.647958
Si Si8 0.925873 0.250000 0.743705
O O1 0.250000 0.750000 0.965438
O O2 0.161834 0.750000 0.896703
O O3 0.184862 0.500673 0.090993
O O4 0.932409 0.250000 0.124519
O O5 0.929498 0.250000 0.893547
O O6 0.000000 0.500000 0.000000
O O7 0.500000 0.500000 0.500000
O O8 0.442691 0.250000 0.637961
O O9 0.522271 0.250000 0.703093
O O10 0.173852 0.250000 0.302400
O O11 0.131752 0.250000 0.509378
O O12 0.097727 0.499311 0.312820
O O13 0.250000 0.250000 0.207889
O O14 0.874787 0.497849 0.276862
#
# Coordination Sequence:
#
# PCOD8245694 Si02
#       8
#     4   4   4   4   4   4   4   4
#     4  10  22  43  69  95 119 157 208 257 311 374
#     4  12  25  41  59  88 124 159 202 256 308 365
#     4  12  21  39  57  84 118 160 207 246 292 346
#     4  12  23  40  60  92 119 157 204 246 303 358
#     4  10  21  40  67  94 121 150 195 259 312 362
#     4  12  24  42  62  89 126 167 202 253 315 363
#     4  12  25  40  60  89 127 166 204 249 295 372
#     4  12  23  39  63  87 117 158 209 256 296 354
#
# _framework density 19.726300999999999
#
# number of rings (size 3 to 8) (size 9 to 14) (size 15 to 20)
#    0.000    0.500    2.500    7.500    0.000    0.000 
#    0.000    1.250    0.000    0.000    0.000    0.000 
#    0.000    0.000    0.000    0.000    0.000    0.000 
#
# Total GULP energy -396771.577667 kJ/mol
# GULP energy per Si atom -12399.111802 kJ/mol
# Density = 1.968140 g / cm^3
# Si number density = 19.726301 Si / 1000 Ang^3
#
#
#
# Elastic Constant Matrix: (Units=GPa)
#
#
# Indices 1 2 3 4 5 6 
#
# 1 112.1372 51.3347 76.1792 0.0000 0.0000 0.0000
# 2 51.3347 192.1778 78.1440 0.0000 0.0000 0.0000
# 3 76.1792 78.1440 161.4949 0.0000 0.0000 0.0000
# 4 0.0000 0.0000 0.0000 128.9331 0.0000 0.0000
# 5 0.0000 0.0000 0.0000 0.0000 45.9848 0.0000
# 6 0.0000 0.0000 0.0000 0.0000 0.0000 36.8471
#
#
#
# Elastic Compliance Matrix: (Units=1/GPa)
#
#
# Indices 1 2 3 4 5 6 
#
# 1 0.013361 -0.001253 -0.005696 0.000000 0.000000 0.000000
# 2 -0.001253 0.006596 -0.002601 0.000000 0.000000 0.000000
# 3 -0.005696 -0.002601 0.010138 0.000000 0.000000 0.000000
# 4 0.000000 0.000000 0.000000 0.007756 0.000000 0.000000
# 5 0.000000 0.000000 0.000000 0.000000 0.021746 0.000000
# 6 0.000000 0.000000 0.000000 0.000000 0.000000 0.027139
#
#
# Mechanical properties :
#
#
# Convention : Reuss Voigt Hill
#
# Bulk Modulus (GPa) = 90.95205 97.45841 94.20523
# Shear Modulus (GPa) = 45.66229 59.69645 52.67937
#
# Velocity S-wave (km/s) = 4.81645 5.50709 5.17331
# Velocity P-wave (km/s) = 8.78282 9.48420 9.14024
#
# Compressibility (1/GPa) = 0.01099480
#
# Stress axis : x y z
#
# Youngs Moduli (GPa) = 74.84554 151.61659 98.64337
#
# Poissons Ratio (x) = 0.18993 0.56190
# Poissons Ratio (y) = 0.09376 0.25653
# Poissons Ratio (z) = 0.42634 0.39429
#
# Static dielectric constant tensor:
#      x y z
#    x 3.635370 0.000000 0.000000 
#    y 0.000000 4.037570 0.000000 
#    z 0.000000 0.000000 3.676670 
# 
# 
# High freq. dielectric constant tensor:
#      x y z
#    x 1.770360 0.000000 0.000000 
#    y 0.000000 1.796460 0.000000 
#    z 0.000000 0.000000 1.776100 
# 
# From -- ./inp_files/12753.got.cif
#   From: 2010.03.12/outbox.cif.g09.slc.cpg/sg59_7_cif.got.tgz:12753.got - 2010.04.16 16:29:54.
