data_PCOD8245348
_publ_section_title
;
Structure prediction by ZEFSAII (Michael W. Deem and Ramdas Pophale) SiO2 
 PCOD8245348
Probable space group: P M M N
;
_chemical_formula_sum "Si O2"
_cell_formula_units_Z 64
_cell_length_a 24.597016
_cell_length_b 8.880004
_cell_length_c 14.689289
_cell_angle_alpha 90.000000
_cell_angle_beta 90.000000
_cell_angle_gamma 90.000000
_cell_volume 3208.458013
_symmetry_space_group_name_H-M "P M M N"
_symmetry_group_IT_number 59
_space_group.IT_coordinate_system_code '2'
_symmetry_cell_setting 'orthorhombic'
loop_
_space_group_symop_operation_xyz
x,y,z
1/2-x,1/2-y,z
1/2+x,-y,-z
-x,1/2+y,-z
-x,-y,-z
1/2+x,1/2+y,-z
1/2-x,y,z
x,1/2-y,z
loop_
_atom_site_type_symbol
_atom_site_label
_atom_site_fract_x
_atom_site_fract_y
_atom_site_fract_z
Si Si1 0.189832 0.577297 0.329343
Si Si2 0.486858 0.580193 0.723743
Si Si3 0.545661 0.919788 0.443748
Si Si4 0.334733 0.419503 0.513009
Si Si5 0.812350 0.576402 0.285272
Si Si6 0.058596 0.428690 0.020328
Si Si7 0.089995 0.571414 0.209126
Si Si8 0.107830 0.920551 0.856019
O O1 0.250000 0.554705 0.286205
O O2 0.175435 0.750000 0.345128
O O3 0.191272 0.506186 0.429340
O O4 0.144956 0.512729 0.259202
O O5 0.504602 0.750000 0.697526
O O6 0.446029 0.511201 0.649382
O O7 0.539479 0.473741 0.727220
O O8 0.453438 0.579564 0.816909
O O9 0.528164 0.750000 0.421435
O O10 0.600681 0.925079 0.500928
O O11 0.500000 0.000000 0.500000
O O12 0.312215 0.250000 0.509381
O O13 0.318687 0.488607 0.611763
O O14 0.750000 0.561969 0.254077
O O15 0.832312 0.750000 0.284720
O O16 0.848194 0.484246 0.214055
O O17 0.052008 0.250000 0.020739
O O18 0.083371 0.482669 0.115433
O O19 0.103774 0.477811 0.946095
O O20 0.000000 0.500000 0.000000
O O21 0.090537 0.750000 0.191237
O O22 0.124964 0.750000 0.880977
#
# Coordination Sequence:
#
# PCOD8245348 Si02
#       8
#     8   8   8   8   8   8   8   8
#     4  10  23  42  62  87 120 159 204 252 299 350
#     4  11  22  36  57  86 122 158 197 245 301 363
#     4  11  22  35  53  80 119 161 203 248 303 363
#     4  10  21  37  59  86 118 159 205 250 297 354
#     4  10  21  39  62  88 121 162 208 256 305 359
#     4  12  24  40  65  94 125 158 197 247 303 368
#     4  11  23  40  64  91 122 161 202 248 307 365
#     4  11  23  39  61  90 124 160 198 246 301 362
#
# _framework density 19.947277
#
# number of rings (size 3 to 8) (size 9 to 14) (size 15 to 20)
#    0.000    1.250    2.500    3.750    0.000    6.500 
#    0.000    0.625    0.000    2.250    0.000    0.000 
#    0.000    0.000    0.000    0.000    0.000    0.000 
#
# Total GULP energy -793629.217485 kJ/mol
# GULP energy per Si atom -12400.456523 kJ/mol
# Density = 1.990188 g / cm^3
# Si number density = 19.947277 Si / 1000 Ang^3
#
#
#
# Elastic Constant Matrix: (Units=GPa)
#
#
# Indices 1 2 3 4 5 6 
#
# 1 103.9601 40.7071 41.3460 0.0000 0.0000 0.0000
# 2 40.7071 114.0710 47.9256 0.0000 0.0000 0.0000
# 3 41.3460 47.9256 109.0979 0.0000 0.0000 0.0000
# 4 0.0000 0.0000 0.0000 37.3909 0.0000 0.0000
# 5 0.0000 0.0000 0.0000 0.0000 21.8058 0.0000
# 6 0.0000 0.0000 0.0000 0.0000 0.0000 23.3995
#
#
#
# Elastic Compliance Matrix: (Units=1/GPa)
#
#
# Indices 1 2 3 4 5 6 
#
# 1 0.012073 -0.002926 -0.003290 0.000000 0.000000 0.000000
# 2 -0.002926 0.011460 -0.003925 0.000000 0.000000 0.000000
# 3 -0.003290 -0.003925 0.012137 0.000000 0.000000 0.000000
# 4 0.000000 0.000000 0.000000 0.026744 0.000000 0.000000
# 5 0.000000 0.000000 0.000000 0.000000 0.045859 0.000000
# 6 0.000000 0.000000 0.000000 0.000000 0.000000 0.042736
#
#
# Mechanical properties :
#
#
# Convention : Reuss Voigt Hill
#
# Bulk Modulus (GPa) = 64.98808 65.23182 65.10995
# Shear Modulus (GPa) = 28.34106 29.66260 29.00183
#
# Velocity S-wave (km/s) = 3.77344 3.86041 3.81717
# Velocity P-wave (km/s) = 7.18580 7.25558 7.22078
#
# Compressibility (1/GPa) = 0.01538744
#
# Stress axis : x y z
#
# Youngs Moduli (GPa) = 82.82681 87.26134 82.39071
#
# Poissons Ratio (x) = 0.25534 0.27108
# Poissons Ratio (y) = 0.24236 0.32340
# Poissons Ratio (z) = 0.27251 0.34252
#
# Static dielectric constant tensor:
#      x y z
#    x 3.671800 0.000000 0.000000 
#    y 0.000000 3.669480 0.000000 
#    z 0.000000 0.000000 3.781510 
# 
# 
# High freq. dielectric constant tensor:
#      x y z
#    x 1.776920 0.000000 0.000000 
#    y 0.000000 1.780300 0.000000 
#    z 0.000000 0.000000 1.777200 
# 
# From -- ./inp_files/24704.got.cif
#   From: 2010.03.12/outbox.cif.g09.slc.cpg/sg59_13_cif.got.tgz:24704.got - 2010.04.16 16:29:54.
