data_PCOD8245710
_publ_section_title
;
Structure prediction by ZEFSAII (Michael W. Deem and Ramdas Pophale) SiO2 
 PCOD8245710
Probable space group: P M M N
;
_chemical_formula_sum "Si O2"
_cell_formula_units_Z 64
_cell_length_a 13.571248
_cell_length_b 10.706234
_cell_length_c 21.057352
_cell_angle_alpha 90.000000
_cell_angle_beta 90.000000
_cell_angle_gamma 90.000000
_cell_volume 3059.569163
_symmetry_space_group_name_H-M "P M M N"
_symmetry_group_IT_number 59
_space_group.IT_coordinate_system_code '2'
_symmetry_cell_setting 'orthorhombic'
loop_
_space_group_symop_operation_xyz
x,y,z
1/2-x,1/2-y,z
1/2+x,-y,-z
-x,1/2+y,-z
-x,-y,-z
1/2+x,1/2+y,-z
1/2-x,y,z
x,1/2-y,z
loop_
_atom_site_type_symbol
_atom_site_label
_atom_site_fract_x
_atom_site_fract_y
_atom_site_fract_z
Si Si1 0.132446 0.889510 0.085504
Si Si2 0.133199 0.388419 0.854197
Si Si3 0.863322 0.387356 0.234284
Si Si4 0.003031 0.481083 0.331489
Si Si5 0.139131 0.894345 0.227692
Si Si6 0.857736 0.895159 0.420477
Si Si7 0.132961 0.110633 0.996234
Si Si8 0.357646 0.104690 0.441003
O O1 0.250000 0.895150 0.088926
O O2 0.100837 0.750000 0.061453
O O3 0.091839 0.912349 0.157096
O O4 0.089880 0.998430 0.039687
O O5 0.250000 0.396889 0.859854
O O6 0.103415 0.250000 0.827154
O O7 0.094975 0.501213 0.810218
O O8 0.087947 0.404178 0.925098
O O9 0.750000 0.413692 0.252404
O O10 0.872932 0.250000 0.201474
O O11 0.929387 0.383694 0.297681
O O12 0.074844 0.536771 0.279341
O O13 0.064135 0.416781 0.386407
O O14 0.935746 0.584165 0.364856
O O15 0.250000 0.949995 0.229292
O O16 0.142295 0.750000 0.245549
O O17 0.750000 0.951799 0.402343
O O18 0.846404 0.750000 0.427851
O O19 0.890626 0.950461 0.489810
O O20 0.250000 0.097275 0.993023
O O21 0.105822 0.250000 0.022621
O O22 0.250000 0.047194 0.422745
O O23 0.345173 0.250000 0.448886
#
# Coordination Sequence:
#
# PCOD8245710 Si02
#       8
#     8   8   8   8   8   8   8   8
#     4   8  14  26  44  67  98 137 176 213 261 323
#     4   8  15  29  49  73 102 137 179 225 271 322
#     4  10  22  37  51  74 112 149 179 221 276 327
#     4  12  20  32  55  80 102 138 185 220 258 316
#     4   9  19  34  50  74 110 145 179 224 274 322
#     4   9  19  35  54  79 108 135 170 219 269 315
#     4   8  13  23  43  72 101 129 169 224 276 316
#     4   9  19  36  55  76 105 137 170 215 268 318
#
# _framework density 20.917978000000002
#
# number of rings (size 3 to 8) (size 9 to 14) (size 15 to 20)
#    0.000    2.875    0.000    4.125    0.000    1.500 
#    0.000    5.000    0.000    3.750    0.000   10.500 
#    0.000    0.000    0.000    0.000    0.000    1.250 
#
# Total GULP energy -792946.134060 kJ/mol
# GULP energy per Si atom -12389.783345 kJ/mol
# Density = 2.087037 g / cm^3
# Si number density = 20.917978 Si / 1000 Ang^3
#
#
#
# Elastic Constant Matrix: (Units=GPa)
#
#
# Indices 1 2 3 4 5 6 
#
# 1 52.3351 30.9804 38.6151 0.0000 0.0000 0.0000
# 2 30.9804 120.0136 65.1593 0.0000 0.0000 0.0000
# 3 38.6151 65.1593 111.1548 0.0000 0.0000 0.0000
# 4 0.0000 0.0000 0.0000 29.9169 0.0000 0.0000
# 5 0.0000 0.0000 0.0000 0.0000 18.8999 0.0000
# 6 0.0000 0.0000 0.0000 0.0000 0.0000 7.5005
#
#
#
# Elastic Compliance Matrix: (Units=1/GPa)
#
#
# Indices 1 2 3 4 5 6 
#
# 1 0.026268 -0.002679 -0.007555 0.000000 0.000000 0.000000
# 2 -0.002679 0.012496 -0.006394 0.000000 0.000000 0.000000
# 3 -0.007555 -0.006394 0.015369 0.000000 0.000000 0.000000
# 4 0.000000 0.000000 0.000000 0.033426 0.000000 0.000000
# 5 0.000000 0.000000 0.000000 0.000000 0.052910 0.000000
# 6 0.000000 0.000000 0.000000 0.000000 0.000000 0.133325
#
#
# Mechanical properties :
#
#
# Convention : Reuss Voigt Hill
#
# Bulk Modulus (GPa) = 47.90103 61.44589 54.67346
# Shear Modulus (GPa) = 15.92309 21.18003 18.55156
#
# Velocity S-wave (km/s) = 2.76201 3.18548 2.98127
# Velocity P-wave (km/s) = 5.75506 6.55501 6.16802
#
# Compressibility (1/GPa) = 0.02087638
#
# Stress axis : x y z
#
# Youngs Moduli (GPa) = 38.06927 80.02813 65.06422
#
# Poissons Ratio (x) = 0.21439 0.49156
# Poissons Ratio (y) = 0.10199 0.41604
# Poissons Ratio (z) = 0.28761 0.51172
#
# Static dielectric constant tensor:
#      x y z
#    x 3.941340 0.000000 0.000000 
#    y 0.000000 3.653170 0.000000 
#    z 0.000000 0.000000 3.928610 
# 
# 
# High freq. dielectric constant tensor:
#      x y z
#    x 1.831550 0.000000 0.000000 
#    y 0.000000 1.796430 0.000000 
#    z 0.000000 0.000000 1.814090 
# 
# From -- ./inp_files/27672.got.cif
#   From: 2010.03.12/outbox.cif.g09.slc.cpg/sg59_14_cif.got.tgz:27672.got - 2010.04.16 16:29:54.
