data_PCOD8245906
_publ_section_title
;
Structure prediction by ZEFSAII (Michael W. Deem and Ramdas Pophale) SiO2 
 PCOD8245906
Probable space group: P M M N
;
_chemical_formula_sum "Si O2"
_cell_formula_units_Z 64
_cell_length_a 16.749257
_cell_length_b 22.177399
_cell_length_c 8.192600
_cell_angle_alpha 90.000000
_cell_angle_beta 90.000000
_cell_angle_gamma 90.000000
_cell_volume 3043.181868
_symmetry_space_group_name_H-M "P M M N"
_symmetry_group_IT_number 59
_space_group.IT_coordinate_system_code '2'
_symmetry_cell_setting 'orthorhombic'
loop_
_space_group_symop_operation_xyz
x,y,z
1/2-x,1/2-y,z
1/2+x,-y,-z
-x,1/2+y,-z
-x,-y,-z
1/2+x,1/2+y,-z
1/2-x,y,z
x,1/2-y,z
loop_
_atom_site_type_symbol
_atom_site_label
_atom_site_fract_x
_atom_site_fract_y
_atom_site_fract_z
Si Si1 0.156312 0.883166 0.300417
Si Si2 0.157460 0.015294 0.910342
Si Si3 0.593861 0.115991 0.036446
Si Si4 0.840809 0.575110 0.404645
Si Si5 0.574403 0.897533 0.871219
Si Si6 0.067165 0.497234 0.365468
Si Si7 0.156142 0.818435 0.639861
Si Si8 0.155626 0.318416 0.388284
O O1 0.250000 0.900768 0.306774
O O2 0.095584 0.939169 0.297374
O O3 0.133457 0.843479 0.459195
O O4 0.137071 0.852610 0.122239
O O5 0.250000 0.999042 0.887615
O O6 0.115228 0.042443 0.746521
O O7 0.114166 0.954896 0.966224
O O8 0.147475 0.070302 0.036325
O O9 0.498436 0.125899 0.016033
O O10 0.619058 0.144135 0.210876
O O11 0.750000 0.579771 0.351660
O O12 0.852174 0.533039 0.562006
O O13 0.871373 0.642352 0.452954
O O14 0.608985 0.841300 0.770883
O O15 0.532878 0.951137 0.767474
O O16 0.000000 0.500000 0.500000
O O17 0.250000 0.821357 0.662755
O O18 0.124419 0.750000 0.648337
O O19 0.250000 0.325598 0.357511
O O20 0.130841 0.250000 0.423147
#
# Coordination Sequence:
#
# PCOD8245906 Si02
#       8
#     8   8   8   8   8   8   8   8
#     4  11  23  39  63  92 121 162 210 255 308 378
#     4  11  21  36  58  89 125 160 201 248 309 373
#     4  12  24  39  63  93 130 166 205 254 318 378
#     4   9  19  33  55  83 114 152 199 251 300 358
#     4  11  23  36  56  88 127 157 194 253 310 370
#     4  11  21  34  57  85 121 159 196 245 312 367
#     4  10  23  44  66  89 120 160 211 262 308 367
#     4   9  19  39  62  82 110 157 211 254 302 368
#
# _framework density 21.030618
#
# number of rings (size 3 to 8) (size 9 to 14) (size 15 to 20)
#    0.000    1.500    1.250    4.500    1.750    4.000 
#    0.000    1.875    0.000    2.250    0.000    0.000 
#    0.000    0.000    0.000    0.000    0.000    0.000 
#
# Total GULP energy -792965.207764 kJ/mol
# GULP energy per Si atom -12390.081371 kJ/mol
# Density = 2.098275 g / cm^3
# Si number density = 21.030618 Si / 1000 Ang^3
#
#
#
# Elastic Constant Matrix: (Units=GPa)
#
#
# Indices 1 2 3 4 5 6 
#
# 1 52.4504 14.7771 18.6660 0.0000 0.0000 0.0000
# 2 14.7771 91.6203 34.6734 0.0000 0.0000 0.0000
# 3 18.6660 34.6734 120.3522 0.0000 0.0000 0.0000
# 4 0.0000 0.0000 0.0000 26.9683 0.0000 0.0000
# 5 0.0000 0.0000 0.0000 0.0000 30.8286 0.0000
# 6 0.0000 0.0000 0.0000 0.0000 0.0000 13.0537
#
#
#
# Elastic Compliance Matrix: (Units=1/GPa)
#
#
# Indices 1 2 3 4 5 6 
#
# 1 0.020630 -0.002375 -0.002515 0.000000 0.000000 0.000000
# 2 -0.002375 0.012524 -0.003240 0.000000 0.000000 0.000000
# 3 -0.002515 -0.003240 0.009632 0.000000 0.000000 0.000000
# 4 0.000000 0.000000 0.000000 0.037081 0.000000 0.000000
# 5 0.000000 0.000000 0.000000 0.000000 0.032437 0.000000
# 6 0.000000 0.000000 0.000000 0.000000 0.000000 0.076607
#
#
# Mechanical properties :
#
#
# Convention : Reuss Voigt Hill
#
# Bulk Modulus (GPa) = 37.69967 44.51735 41.10851
# Shear Modulus (GPa) = 23.36301 27.25720 25.31011
#
# Velocity S-wave (km/s) = 3.33664 3.60401 3.47290
# Velocity P-wave (km/s) = 5.72793 6.20744 5.97250
#
# Compressibility (1/GPa) = 0.02652543
#
# Stress axis : x y z
#
# Youngs Moduli (GPa) = 48.47307 79.84802 103.81633
#
# Poissons Ratio (x) = 0.18968 0.26112
# Poissons Ratio (y) = 0.11515 0.33633
# Poissons Ratio (z) = 0.12192 0.25868
#
# Static dielectric constant tensor:
#      x y z
#    x 3.631380 0.000000 0.000000 
#    y 0.000000 3.769330 0.000000 
#    z 0.000000 0.000000 4.161040 
# 
# 
# High freq. dielectric constant tensor:
#      x y z
#    x 1.821890 0.000000 0.000000 
#    y 0.000000 1.803780 0.000000 
#    z 0.000000 0.000000 1.835660 
# 
# From -- ./inp_files/10725.got.cif
#   From: 2010.03.12/outbox.cif.g09.slc.cpg/sg59_6_cif.got.tgz:10725.got - 2010.04.16 16:29:54.
