data_PCOD8245619
_publ_section_title
;
Structure prediction by ZEFSAII (Michael W. Deem and Ramdas Pophale) SiO2 
 PCOD8245619
Probable space group: P M M N
;
_chemical_formula_sum "Si O2"
_cell_formula_units_Z 64
_cell_length_a 23.573339
_cell_length_b 8.743337
_cell_length_c 15.413019
_cell_angle_alpha 90.000000
_cell_angle_beta 90.000000
_cell_angle_gamma 90.000000
_cell_volume 3176.771907
_symmetry_space_group_name_H-M "P M M N"
_symmetry_group_IT_number 59
_space_group.IT_coordinate_system_code '2'
_symmetry_cell_setting 'orthorhombic'
loop_
_space_group_symop_operation_xyz
x,y,z
1/2-x,1/2-y,z
1/2+x,-y,-z
-x,1/2+y,-z
-x,-y,-z
1/2+x,1/2+y,-z
1/2-x,y,z
x,1/2-y,z
loop_
_atom_site_type_symbol
_atom_site_label
_atom_site_fract_x
_atom_site_fract_y
_atom_site_fract_z
Si Si1 0.497437 0.570571 0.905751
Si Si2 0.614846 0.931631 0.335831
Si Si3 0.380215 0.073168 0.333661
Si Si4 0.495881 0.927478 0.594246
Si Si5 0.109328 0.570229 0.157027
Si Si6 0.813684 0.931986 0.499712
Si Si7 0.872659 0.429913 0.156066
Si Si8 0.684037 0.572209 0.993191
O O1 0.506043 0.750000 0.913360
O O2 0.547081 0.503390 0.846614
O O3 0.437730 0.527810 0.863183
O O4 0.500000 0.500000 0.000000
O O5 0.615663 0.750000 0.327843
O O6 0.651719 0.991718 0.416850
O O7 0.550799 0.988276 0.347977
O O8 0.642572 0.004966 0.250465
O O9 0.365954 0.250000 0.316400
O O10 0.445761 0.049738 0.355500
O O11 0.342968 0.006774 0.412727
O O12 0.362947 0.978944 0.248174
O O13 0.480274 0.750000 0.584592
O O14 0.500000 0.000000 0.500000
O O15 0.103128 0.750000 0.150636
O O16 0.148290 0.516534 0.078372
O O17 0.750000 0.996370 0.494879
O O18 0.814742 0.750000 0.500240
O O19 0.861828 0.250000 0.152776
O O20 0.831341 0.510278 0.087903
O O21 0.750000 0.542596 0.975391
O O22 0.668503 0.750000 0.987949
#
# Coordination Sequence:
#
# PCOD8245619 Si02
#       8
#     8   8   8   8   8   8   8   8
#     4  11  22  38  63  92 125 162 202 248 305 370
#     4  11  22  38  61  92 124 161 205 250 305 368
#     4  10  21  39  61  88 120 158 205 252 301 365
#     4  11  21  36  60  90 124 160 202 251 309 369
#     4  12  25  40  62  94 128 163 200 250 313 371
#     4   9  19  38  62  86 115 155 205 255 298 348
#     4  11  24  41  63  94 127 163 202 252 313 366
#     4  11  25  45  68  91 118 161 213 259 304 363
#
# _framework density 20.146236999999999
#
# number of rings (size 3 to 8) (size 9 to 14) (size 15 to 20)
#    0.000    1.250    2.500    3.750    0.000    7.500 
#    0.000    2.500    0.000    2.625    0.000    0.000 
#    0.000    0.000    0.000    0.000    0.000    0.000 
#
# Total GULP energy -793965.093313 kJ/mol
# GULP energy per Si atom -12405.704583 kJ/mol
# Density = 2.010038 g / cm^3
# Si number density = 20.146237 Si / 1000 Ang^3
#
#
#
# Elastic Constant Matrix: (Units=GPa)
#
#
# Indices 1 2 3 4 5 6 
#
# 1 82.6925 25.8327 20.0590 0.0000 0.0000 0.0000
# 2 25.8327 71.6914 22.7093 0.0000 0.0000 0.0000
# 3 20.0590 22.7093 127.8455 0.0000 0.0000 0.0000
# 4 0.0000 0.0000 0.0000 36.3464 0.0000 0.0000
# 5 0.0000 0.0000 0.0000 0.0000 12.7253 0.0000
# 6 0.0000 0.0000 0.0000 0.0000 0.0000 25.5666
#
#
#
# Elastic Compliance Matrix: (Units=1/GPa)
#
#
# Indices 1 2 3 4 5 6 
#
# 1 0.013848 -0.004558 -0.001363 0.000000 0.000000 0.000000
# 2 -0.004558 0.016281 -0.002177 0.000000 0.000000 0.000000
# 3 -0.001363 -0.002177 0.008422 0.000000 0.000000 0.000000
# 4 0.000000 0.000000 0.000000 0.027513 0.000000 0.000000
# 5 0.000000 0.000000 0.000000 0.000000 0.078584 0.000000
# 6 0.000000 0.000000 0.000000 0.000000 0.000000 0.039114
#
#
# Mechanical properties :
#
#
# Convention : Reuss Voigt Hill
#
# Bulk Modulus (GPa) = 44.73272 46.60350 45.66811
# Shear Modulus (GPa) = 24.10706 29.16953 26.63829
#
# Velocity S-wave (km/s) = 3.46295 3.80924 3.64022
# Velocity P-wave (km/s) = 6.18398 6.52150 6.35498
#
# Compressibility (1/GPa) = 0.02235500
#
# Stress axis : x y z
#
# Youngs Moduli (GPa) = 72.21513 61.42285 118.73005
#
# Poissons Ratio (x) = 0.27996 0.16184
# Poissons Ratio (y) = 0.32915 0.25845
# Poissons Ratio (z) = 0.09843 0.13370
#
# Static dielectric constant tensor:
#      x y z
#    x 3.885510 0.000000 0.000000 
#    y 0.000000 3.610920 0.000000 
#    z 0.000000 0.000000 3.801060 
# 
# 
# High freq. dielectric constant tensor:
#      x y z
#    x 1.783970 0.000000 0.000000 
#    y 0.000000 1.782360 0.000000 
#    z 0.000000 0.000000 1.805140 
# 
# From -- ./inp_files/24671.got.cif
#   From: 2010.03.12/outbox.cif.g09.slc.cpg/sg59_13_cif.got.tgz:24671.got - 2010.04.16 16:29:54.
