data_PCOD8245796
_publ_section_title
;
Structure prediction by ZEFSAII (Michael W. Deem and Ramdas Pophale) SiO2 
 PCOD8245796
Probable space group: P M M N
;
_chemical_formula_sum "Si O2"
_cell_formula_units_Z 48
_cell_length_a 8.838500
_cell_length_b 20.239695
_cell_length_c 14.308680
_cell_angle_alpha 90.000000
_cell_angle_beta 90.000000
_cell_angle_gamma 90.000000
_cell_volume 2559.658935
_symmetry_space_group_name_H-M "P M M N"
_symmetry_group_IT_number 59
_space_group.IT_coordinate_system_code '2'
_symmetry_cell_setting 'orthorhombic'
loop_
_space_group_symop_operation_xyz
x,y,z
1/2-x,1/2-y,z
1/2+x,-y,-z
-x,1/2+y,-z
-x,-y,-z
1/2+x,1/2+y,-z
1/2-x,y,z
x,1/2-y,z
loop_
_atom_site_type_symbol
_atom_site_label
_atom_site_fract_x
_atom_site_fract_y
_atom_site_fract_z
Si Si1 0.427984 0.124377 0.246252
Si Si2 0.923616 0.174650 0.063686
Si Si3 0.577428 0.175256 0.428066
Si Si4 0.924440 0.982100 0.253996
Si Si5 0.573287 0.442818 0.561387
Si Si6 0.075630 0.437594 0.951481
O O1 0.250000 0.119766 0.234899
O O2 0.494331 0.167499 0.162572
O O3 0.466973 0.159795 0.342884
O O4 0.494664 0.051596 0.242400
O O5 0.750000 0.153106 0.076451
O O6 0.938007 0.250000 0.029845
O O7 0.998438 0.129647 0.984649
O O8 0.750000 0.164483 0.394117
O O9 0.550360 0.250000 0.462407
O O10 0.540219 0.127783 0.514692
O O11 0.750000 0.995412 0.278269
O O12 0.943738 0.940385 0.159756
O O13 0.999622 0.940184 0.336574
O O14 0.500000 0.500000 0.500000
O O15 0.750000 0.457956 0.570724
O O16 0.250000 0.437041 0.981514
O O17 0.000000 0.500000 0.000000
#
# Coordination Sequence:
#
# PCOD8245796 Si02
#       6
#     8   8   8   8   8   8
#     4  12  23  35  59  91 122 156 195 245 301 359
#     4  11  24  41  61  87 123 163 200 245 303 361
#     4  10  22  40  60  84 119 160 197 239 295 354
#     4  11  23  39  60  88 121 155 196 246 299 354
#     4  11  22  37  61  88 118 156 199 245 292 350
#     4  11  23  39  63  89 119 158 201 249 298 355
#
# _framework density 18.752496000000001
#
# number of rings (size 3 to 8) (size 9 to 14) (size 15 to 20)
#    0.000    1.000    3.333    4.000    0.000    6.333 
#    0.000    0.833    0.000    3.000    0.000    0.000 
#    0.000    0.000    0.000    0.000    0.000    0.000 
#
# Total GULP energy -595494.374682 kJ/mol
# GULP energy per Si atom -12406.132806 kJ/mol
# Density = 1.870981 g / cm^3
# Si number density = 18.752496 Si / 1000 Ang^3
#
#
#
# Elastic Constant Matrix: (Units=GPa)
#
#
# Indices 1 2 3 4 5 6 
#
# 1 158.4376 70.1594 72.5020 0.0000 0.0000 0.0000
# 2 70.1594 124.2998 53.5851 0.0000 0.0000 0.0000
# 3 72.5020 53.5851 111.6008 0.0000 0.0000 0.0000
# 4 0.0000 0.0000 0.0000 -25.9695 0.0000 0.0000
# 5 0.0000 0.0000 0.0000 0.0000 35.9861 0.0000
# 6 0.0000 0.0000 0.0000 0.0000 0.0000 27.6805
#
#
#
# Elastic Compliance Matrix: (Units=1/GPa)
#
#
# Indices 1 2 3 4 5 6 
#
# 1 0.010136 -0.003635 -0.004840 0.000000 0.000000 0.000000
# 2 -0.003635 0.011448 -0.003136 0.000000 0.000000 0.000000
# 3 -0.004840 -0.003136 0.013610 0.000000 0.000000 0.000000
# 4 0.000000 0.000000 0.000000 -0.038507 0.000000 0.000000
# 5 0.000000 0.000000 0.000000 0.000000 0.027789 0.000000
# 6 0.000000 0.000000 0.000000 0.000000 0.000000 0.036126
#
#
# Mechanical properties :
#
#
# Convention : Reuss Voigt Hill
#
# Bulk Modulus (GPa) = 83.51082 87.42571 85.46826
# Shear Modulus (GPa) = 56.93867 20.74554 38.84210
#
# Velocity S-wave (km/s) = 5.51626 3.32969 4.55609
# Velocity P-wave (km/s) = 9.23050 7.84248 8.56465
#
# Compressibility (1/GPa) = 0.01197450
#
# Stress axis : x y z
#
# Youngs Moduli (GPa) = 98.66059 87.34862 73.47474
#
# Poissons Ratio (x) = 0.31749 0.35558
# Poissons Ratio (y) = 0.35860 0.23039
# Poissons Ratio (z) = 0.47747 0.27389
#
# Static dielectric constant tensor:
#      x y z
#    x 3.687650 0.000000 0.000000 
#    y 0.000000 3.376140 0.000000 
#    z 0.000000 0.000000 3.583860 
# 
# 
# High freq. dielectric constant tensor:
#      x y z
#    x 1.746300 0.000000 0.000000 
#    y 0.000000 1.726850 0.000000 
#    z 0.000000 0.000000 1.728850 
# 
# From -- ./inp_files/20462.got.cif
#   From: 2010.03.12/outbox.cif.g09.slc.cpg/sg59_11_cif.got.tgz:20462.got - 2010.04.16 16:29:54.
