data_PCOD8245775
_publ_section_title
;
Structure prediction by ZEFSAII (Michael W. Deem and Ramdas Pophale) SiO2 
 PCOD8245775
Probable space group: P M M N
;
_chemical_formula_sum "Si O2"
_cell_formula_units_Z 56
_cell_length_a 14.756360
_cell_length_b 8.872905
_cell_length_c 21.700895
_cell_angle_alpha 90.000000
_cell_angle_beta 90.000000
_cell_angle_gamma 90.000000
_cell_volume 2841.336819
_symmetry_space_group_name_H-M "P M M N"
_symmetry_group_IT_number 59
_space_group.IT_coordinate_system_code '2'
_symmetry_cell_setting 'orthorhombic'
loop_
_space_group_symop_operation_xyz
x,y,z
1/2-x,1/2-y,z
1/2+x,-y,-z
-x,1/2+y,-z
-x,-y,-z
1/2+x,1/2+y,-z
1/2-x,y,z
x,1/2-y,z
loop_
_atom_site_type_symbol
_atom_site_label
_atom_site_fract_x
_atom_site_fract_y
_atom_site_fract_z
Si Si1 0.850316 0.920129 0.621572
Si Si2 0.551014 0.426500 0.057368
Si Si3 0.594164 0.577288 0.487305
Si Si4 0.065418 0.928721 0.160642
Si Si5 0.993144 0.425076 0.703347
Si Si6 0.851832 0.420353 0.364781
Si Si7 0.750000 0.077298 0.014580
Si Si8 0.750000 0.571677 0.885330
O O1 0.750000 0.950109 0.648058
O O2 0.882285 0.750000 0.637204
O O3 0.845239 0.942463 0.548109
O O4 0.918446 0.036981 0.652118
O O5 0.527587 0.250000 0.058490
O O6 0.514544 0.504893 0.118764
O O7 0.659494 0.453505 0.054448
O O8 0.500000 0.500000 0.000000
O O9 0.500000 0.500000 0.500000
O O10 0.576948 0.750000 0.470520
O O11 0.644274 0.504007 0.429814
O O12 0.071523 0.750000 0.150727
O O13 0.041974 0.975224 0.230085
O O14 0.161662 0.001352 0.145630
O O15 0.013464 0.250000 0.701179
O O16 0.086217 0.508444 0.688053
O O17 0.750000 0.428628 0.339295
O O18 0.883936 0.250000 0.376145
O O19 0.750000 0.250000 0.990316
O O20 0.750000 0.964468 0.957471
O O21 0.750000 0.750000 0.875562
#
# Coordination Sequence:
#
# PCOD8245775 Si02
#       8
#     8   8   8   8   8   8   4   4
#     4  10  22  39  60  88 122 158 198 249 306 366
#     4  11  22  39  65  95 127 166 208 255 309 364
#     4  11  21  36  61  91 123 160 201 252 312 370
#     4  11  25  44  63  90 130 169 207 259 312 368
#     4  11  25  43  64  88 120 165 208 254 310 367
#     4  11  24  42  65  91 120 160 208 261 316 374
#     4  10  22  40  64  94 132 166 201 258 315 364
#     4  12  24  38  66 100 126 166 211 248 301 374
#
# _framework density 19.709031
#
# number of rings (size 3 to 8) (size 9 to 14) (size 15 to 20)
#    0.000    1.143    2.857    3.214    1.000    5.429 
#    1.286    0.000    0.000    0.000    0.000    0.000 
#    0.000    0.000    0.000    0.000    0.000    0.000 
#
# Total GULP energy -694607.586300 kJ/mol
# GULP energy per Si atom -12403.706898 kJ/mol
# Density = 1.966417 g / cm^3
# Si number density = 19.709031 Si / 1000 Ang^3
#
#
#
# Elastic Constant Matrix: (Units=GPa)
#
#
# Indices 1 2 3 4 5 6 
#
# 1 143.4980 58.4778 54.8275 0.0000 0.0000 0.0000
# 2 58.4778 124.3683 60.6143 0.0000 0.0000 0.0000
# 3 54.8275 60.6143 108.5010 0.0000 0.0000 0.0000
# 4 0.0000 0.0000 0.0000 33.3719 0.0000 0.0000
# 5 0.0000 0.0000 0.0000 0.0000 10.3358 0.0000
# 6 0.0000 0.0000 0.0000 0.0000 0.0000 29.0686
#
#
#
# Elastic Compliance Matrix: (Units=1/GPa)
#
#
# Indices 1 2 3 4 5 6 
#
# 1 0.009326 -0.002870 -0.003110 0.000000 0.000000 0.000000
# 2 -0.002870 0.011932 -0.005216 0.000000 0.000000 0.000000
# 3 -0.003110 -0.005216 0.013702 0.000000 0.000000 0.000000
# 4 0.000000 0.000000 0.000000 0.029965 0.000000 0.000000
# 5 0.000000 0.000000 0.000000 0.000000 0.096751 0.000000
# 6 0.000000 0.000000 0.000000 0.000000 0.000000 0.034401
#
#
# Mechanical properties :
#
#
# Convention : Reuss Voigt Hill
#
# Bulk Modulus (GPa) = 79.55512 80.46739 80.01125
# Shear Modulus (GPa) = 22.45599 28.05178 25.25388
#
# Velocity S-wave (km/s) = 3.37913 3.77675 3.58346
# Velocity P-wave (km/s) = 7.46171 7.74176 7.60302
#
# Compressibility (1/GPa) = 0.01256990
#
# Stress axis : x y z
#
# Youngs Moduli (GPa) = 107.22391 83.80850 72.98406
#
# Poissons Ratio (x) = 0.24050 0.22695
# Poissons Ratio (y) = 0.30770 0.38067
# Poissons Ratio (z) = 0.33342 0.43712
#
# Static dielectric constant tensor:
#      x y z
#    x 4.445600 0.000000 0.000000 
#    y 0.000000 3.810180 0.000000 
#    z 0.000000 0.000000 3.701450 
# 
# 
# High freq. dielectric constant tensor:
#      x y z
#    x 1.782660 0.000000 0.000000 
#    y 0.000000 1.781040 0.000000 
#    z 0.000000 0.000000 1.760010 
# 
# From -- ./inp_files/30479.got.cif
#   From: 2010.03.12/outbox.cif.g09.slc.cpg/sg59_16_cif.got.tgz:30479.got - 2010.04.16 16:29:54.
