data_PCOD8246453
_publ_section_title
;
Structure prediction by ZEFSAII (Michael W. Deem and Ramdas Pophale) SiO2 
 PCOD8246453
Probable space group: P B C N
;
_chemical_formula_sum "Si O2"
_cell_formula_units_Z 56
_cell_length_a 10.389306
_cell_length_b 14.551079
_cell_length_c 17.206150
_cell_angle_alpha 90.000000
_cell_angle_beta 90.000000
_cell_angle_gamma 90.000000
_cell_volume 2601.150263
_symmetry_space_group_name_H-M "P B C N"
_symmetry_group_IT_number 60
_symmetry_cell_setting 'orthorhombic'
loop_
_space_group_symop_operation_xyz
x,y,z
1/2-x,1/2-y,1/2+z
1/2+x,1/2-y,-z
-x,y,1/2-z
-x,-y,-z
1/2+x,1/2+y,1/2-z
1/2-x,1/2+y,z
x,-y,1/2+z
loop_
_atom_site_type_symbol
_atom_site_label
_atom_site_fract_x
_atom_site_fract_y
_atom_site_fract_z
Si Si1 0.297261 0.600264 0.456501
Si Si2 0.964749 0.259172 0.052356
Si Si3 0.365608 0.346628 0.268857
Si Si4 0.201979 0.578958 0.902424
Si Si5 0.441877 0.190767 0.386461
Si Si6 0.460430 0.986883 0.662433
Si Si7 0.296444 0.854231 0.122354
O O1 0.426125 0.653395 0.426901
O O2 0.297873 0.487908 0.453279
O O3 0.183740 0.629107 0.398996
O O4 0.280702 0.640403 0.542674
O O5 0.833433 0.322537 0.058117
O O6 0.074422 0.292205 0.113001
O O7 0.017182 0.258614 0.964838
O O8 0.500000 0.400437 0.250000
O O9 0.269760 0.408772 0.319103
O O10 0.411536 0.259201 0.317451
O O11 0.294590 0.312998 0.189822
O O12 0.064744 0.530785 0.895440
O O13 0.554827 0.120741 0.358529
O O14 0.500000 0.003148 0.750000
O O15 0.328696 0.040774 0.646191
#
# Coordination Sequence:
#
# PCOD8246453 Si02
#       7
#     8   8   8   8   8   8   8
#     4  10  20  39  63  92 122 164 212 257 313 381
#     4  10  20  40  66  90 126 167 217 264 309 392
#     4  12  23  40  60  92 134 168 200 272 333 376
#     4  10  21  38  63  89 125 165 209 260 316 377
#     4  10  21  36  61  92 123 163 209 260 318 373
#     4  10  18  35  61  91 117 155 214 265 304 377
#     4  10  22  38  65  95 123 164 218 264 326 379
#
# _framework density 21.528936999999999
#
# number of rings (size 3 to 8) (size 9 to 14) (size 15 to 20)
#    0.000    1.714    2.857    2.143    0.000    3.429 
#    0.000    5.714    3.143    0.000    0.000    0.000 
#    0.000    0.000    0.000    0.000    0.000    0.000 
#
# Total GULP energy -693970.100035 kJ/mol
# GULP energy per Si atom -12392.323215 kJ/mol
# Density = 2.147994 g / cm^3
# Si number density = 21.528937 Si / 1000 Ang^3
#
#
#
# Elastic Constant Matrix: (Units=GPa)
#
#
# Indices 1 2 3 4 5 6 
#
# 1 80.4508 27.4936 32.0156 0.0000 0.0000 0.0000
# 2 27.4936 72.3920 23.0020 0.0000 0.0000 0.0000
# 3 32.0156 23.0020 93.9933 0.0000 0.0000 0.0000
# 4 0.0000 0.0000 0.0000 25.6014 0.0000 0.0000
# 5 0.0000 0.0000 0.0000 0.0000 28.9015 0.0000
# 6 0.0000 0.0000 0.0000 0.0000 0.0000 19.9327
#
#
#
# Elastic Compliance Matrix: (Units=1/GPa)
#
#
# Indices 1 2 3 4 5 6 
#
# 1 0.015685 -0.004618 -0.004212 0.000000 0.000000 0.000000
# 2 -0.004618 0.016338 -0.002425 0.000000 0.000000 0.000000
# 3 -0.004212 -0.002425 0.012667 0.000000 0.000000 0.000000
# 4 0.000000 0.000000 0.000000 0.039060 0.000000 0.000000
# 5 0.000000 0.000000 0.000000 0.000000 0.034600 0.000000
# 6 0.000000 0.000000 0.000000 0.000000 0.000000 0.050169
#
#
# Mechanical properties :
#
#
# Convention : Reuss Voigt Hill
#
# Bulk Modulus (GPa) = 45.08867 45.76206 45.42537
# Shear Modulus (GPa) = 25.19855 25.84209 25.52032
#
# Velocity S-wave (km/s) = 3.42490 3.46835 3.44669
# Velocity P-wave (km/s) = 6.05216 6.11077 6.08154
#
# Compressibility (1/GPa) = 0.02217852
#
# Stress axis : x y z
#
# Youngs Moduli (GPa) = 63.75714 61.20590 78.94354
#
# Poissons Ratio (x) = 0.28267 0.33252
# Poissons Ratio (y) = 0.29446 0.19145
# Poissons Ratio (z) = 0.26856 0.14844
#
# Static dielectric constant tensor:
#      x y z
#    x 3.932600 0.000000 0.000000 
#    y 0.000000 4.029570 0.000000 
#    z 0.000000 0.000000 3.803490 
# 
# 
# High freq. dielectric constant tensor:
#      x y z
#    x 1.830560 0.000000 0.000000 
#    y 0.000000 1.835740 0.000000 
#    z 0.000000 0.000000 1.844420 
# 
# From -- ./inp_files/16170.got.cif
#   From: 2010.03.12/outbox.cif.g09.slc.cpg/sg60_9_cif.got.tgz:16170.got - 2010.04.10 18:46:24.
