data_PCOD8246700
_publ_section_title
;
Structure prediction by ZEFSAII (Michael W. Deem and Ramdas Pophale) SiO2 
 PCOD8246700
Probable space group: P B C N
;
_chemical_formula_sum "Si O2"
_cell_formula_units_Z 48
_cell_length_a 29.708015
_cell_length_b 9.586025
_cell_length_c 8.685516
_cell_angle_alpha 90.000000
_cell_angle_beta 90.000000
_cell_angle_gamma 90.000000
_cell_volume 2473.476659
_symmetry_space_group_name_H-M "P B C N"
_symmetry_group_IT_number 60
_symmetry_cell_setting 'orthorhombic'
loop_
_space_group_symop_operation_xyz
x,y,z
1/2-x,1/2-y,1/2+z
1/2+x,1/2-y,-z
-x,y,1/2-z
-x,-y,-z
1/2+x,1/2+y,1/2-z
1/2-x,1/2+y,z
x,-y,1/2+z
loop_
_atom_site_type_symbol
_atom_site_label
_atom_site_fract_x
_atom_site_fract_y
_atom_site_fract_z
Si Si1 0.468276 0.065103 0.372931
Si Si2 0.090461 0.603773 0.641687
Si Si3 0.158386 0.166532 0.168632
Si Si4 0.825320 0.878979 0.180255
Si Si5 0.218614 0.378782 0.318663
Si Si6 0.830181 0.391257 0.862520
O O1 0.500000 0.152110 0.250000
O O2 0.431939 0.149224 0.476212
O O3 0.500000 0.000000 0.500000
O O4 0.444622 0.944407 0.271392
O O5 0.115945 0.736419 0.713362
O O6 0.124953 0.478487 0.600588
O O7 0.203996 0.249696 0.210848
O O8 0.154439 0.022927 0.258732
O O9 0.156214 0.140271 0.988899
O O10 0.771790 0.882541 0.177905
O O11 0.844101 0.754701 0.285851
O O12 0.197729 0.356192 0.485690
O O13 0.201991 0.526186 0.253944
#
# Coordination Sequence:
#
# PCOD8246700 Si02
#       6
#     8   8   8   8   8   8
#     4   9  18  33  60  90 109 130 163 216 274 333
#     4  10  19  37  55  85 115 133 175 225 277 339
#     4  11  24  35  53  78 112 154 190 239 285 318
#     4  12  22  36  51  77 110 156 205 234 274 328
#     4  11  21  36  52  76 108 150 203 251 278 310
#     4  11  22  35  57  78 109 153 188 239 288 318
#
# _framework density 19.405885000000001
#
# number of rings (size 3 to 8) (size 9 to 14) (size 15 to 20)
#    0.000    1.333    0.000    9.000    0.000    0.000 
#    0.000    0.000    0.000    0.000    0.000   73.500 
#    0.000    0.000    0.000    0.000    0.000    0.000 
#
# Total GULP energy -595043.383900 kJ/mol
# GULP energy per Si atom -12396.737165 kJ/mol
# Density = 1.936172 g / cm^3
# Si number density = 19.405885 Si / 1000 Ang^3
#
#
#
# Elastic Constant Matrix: (Units=GPa)
#
#
# Indices 1 2 3 4 5 6 
#
# 1 75.4749 20.0715 24.1733 0.0000 0.0000 0.0000
# 2 20.0715 117.7098 32.3979 0.0000 0.0000 0.0000
# 3 24.1733 32.3979 115.1705 0.0000 0.0000 0.0000
# 4 0.0000 0.0000 0.0000 13.6844 0.0000 0.0000
# 5 0.0000 0.0000 0.0000 0.0000 39.2915 0.0000
# 6 0.0000 0.0000 0.0000 0.0000 0.0000 10.1511
#
#
#
# Elastic Compliance Matrix: (Units=1/GPa)
#
#
# Indices 1 2 3 4 5 6 
#
# 1 0.014539 -0.001777 -0.002552 0.000000 0.000000 0.000000
# 2 -0.001777 0.009426 -0.002279 0.000000 0.000000 0.000000
# 3 -0.002552 -0.002279 0.009859 0.000000 0.000000 0.000000
# 4 0.000000 0.000000 0.000000 0.073076 0.000000 0.000000
# 5 0.000000 0.000000 0.000000 0.000000 0.025451 0.000000
# 6 0.000000 0.000000 0.000000 0.000000 0.000000 0.098511
#
#
# Mechanical properties :
#
#
# Convention : Reuss Voigt Hill
#
# Bulk Modulus (GPa) = 48.52055 51.29341 49.90698
# Shear Modulus (GPa) = 19.92457 28.07290 23.99874
#
# Velocity S-wave (km/s) = 3.20774 3.80757 3.52045
# Velocity P-wave (km/s) = 6.22710 6.76900 6.50369
#
# Compressibility (1/GPa) = 0.02060983
#
# Stress axis : x y z
#
# Youngs Moduli (GPa) = 68.77920 106.09433 101.42668
#
# Poissons Ratio (x) = 0.18851 0.25882
# Poissons Ratio (y) = 0.12221 0.23110
# Poissons Ratio (z) = 0.17551 0.24174
#
# Static dielectric constant tensor:
#      x y z
#    x 3.866250 0.000000 0.000000 
#    y 0.000000 3.425680 0.000000 
#    z 0.000000 0.000000 3.986690 
# 
# 
# High freq. dielectric constant tensor:
#      x y z
#    x 1.752800 0.000000 0.000000 
#    y 0.000000 1.727740 0.000000 
#    z 0.000000 0.000000 1.782410 
# 
# From -- ./inp_files/8378.got.cif
#   From: 2010.03.12/outbox.cif.g09.slc.cpg/sg60_5_cif.got.tgz:8378.got - 2010.04.10 18:46:24.
