data_PCOD8246920
_publ_section_title
;
Structure prediction by ZEFSAII (Michael W. Deem and Ramdas Pophale) SiO2 
 PCOD8246920
Probable space group: P B C N
;
_chemical_formula_sum "Si O2"
_cell_formula_units_Z 48
_cell_length_a 6.132637
_cell_length_b 28.698022
_cell_length_c 12.622026
_cell_angle_alpha 90.000000
_cell_angle_beta 90.000000
_cell_angle_gamma 90.000000
_cell_volume 2221.407805
_symmetry_space_group_name_H-M "P B C N"
_symmetry_group_IT_number 60
_symmetry_cell_setting 'orthorhombic'
loop_
_space_group_symop_operation_xyz
x,y,z
1/2-x,1/2-y,1/2+z
1/2+x,1/2-y,-z
-x,y,1/2-z
-x,-y,-z
1/2+x,1/2+y,1/2-z
1/2-x,1/2+y,z
x,-y,1/2+z
loop_
_atom_site_type_symbol
_atom_site_label
_atom_site_fract_x
_atom_site_fract_y
_atom_site_fract_z
Si Si1 0.886425 0.039394 0.859276
Si Si2 0.437260 0.896277 0.048699
Si Si3 0.941029 0.851983 0.584500
Si Si4 0.823580 0.307075 0.037107
Si Si5 0.679274 0.559980 0.436240
Si Si6 0.854583 0.277676 0.648513
O O1 0.661855 0.069191 0.862744
O O2 0.000000 0.052163 0.750000
O O3 0.823457 0.984867 0.861267
O O4 0.047545 0.051345 0.955354
O O5 0.593027 0.855028 0.093385
O O6 0.234369 0.872014 0.995135
O O7 0.571441 0.927702 0.964610
O O8 0.812217 0.820892 0.671996
O O9 0.097119 0.816843 0.521581
O O10 0.076825 0.896206 0.629720
O O11 0.784957 0.268972 0.128046
O O12 0.000315 0.288500 0.953809
O O13 0.000000 0.269196 0.750000
#
# Coordination Sequence:
#
# PCOD8246920 Si02
#       6
#     8   8   8   8   8   8
#     4  10  20  36  59  89 121 156 206 256 315 379
#     4   9  19  37  63  81 120 167 199 253 320 370
#     4   9  19  39  59  85 122 159 198 259 315 363
#     4  10  20  40  63  85 127 157 205 269 306 370
#     4   9  19  38  60  83 120 161 199 259 316 370
#     4  11  22  38  64  90 118 169 212 254 320 379
#
# _framework density 21.607918000000002
#
# number of rings (size 3 to 8) (size 9 to 14) (size 15 to 20)
#    0.000    2.333    1.667    0.500    0.000    1.333 
#    9.000    9.167    3.667    0.000    0.000    0.000 
#    0.000    0.000    0.000    0.000    0.000    0.000 
#
# Total GULP energy -594928.183681 kJ/mol
# GULP energy per Si atom -12394.337160 kJ/mol
# Density = 2.155874 g / cm^3
# Si number density = 21.607918 Si / 1000 Ang^3
#
#
#
# Elastic Constant Matrix: (Units=GPa)
#
#
# Indices 1 2 3 4 5 6 
#
# 1 105.8996 53.2257 21.9271 0.0000 0.0000 0.0000
# 2 53.2257 149.5903 38.9476 0.0000 0.0000 0.0000
# 3 21.9271 38.9476 58.2190 0.0000 0.0000 0.0000
# 4 0.0000 0.0000 0.0000 7.3610 0.0000 0.0000
# 5 0.0000 0.0000 0.0000 0.0000 27.9152 0.0000
# 6 0.0000 0.0000 0.0000 0.0000 0.0000 36.3403
#
#
#
# Elastic Compliance Matrix: (Units=1/GPa)
#
#
# Indices 1 2 3 4 5 6 
#
# 1 0.011681 -0.003646 -0.001960 0.000000 0.000000 0.000000
# 2 -0.003646 0.009233 -0.004803 0.000000 0.000000 0.000000
# 3 -0.001960 -0.004803 0.021128 0.000000 0.000000 0.000000
# 4 0.000000 0.000000 0.000000 0.135851 0.000000 0.000000
# 5 0.000000 0.000000 0.000000 0.000000 0.035823 0.000000
# 6 0.000000 0.000000 0.000000 0.000000 0.000000 0.027518
#
#
# Mechanical properties :
#
#
# Convention : Reuss Voigt Hill
#
# Bulk Modulus (GPa) = 47.11917 60.21216 53.66566
# Shear Modulus (GPa) = 18.57857 27.63054 23.10455
#
# Velocity S-wave (km/s) = 2.93542 3.57980 3.27351
# Velocity P-wave (km/s) = 5.77431 6.70917 6.25922
#
# Compressibility (1/GPa) = 0.02122279
#
# Stress axis : x y z
#
# Youngs Moduli (GPa) = 85.60708 108.30957 47.32979
#
# Poissons Ratio (x) = 0.39488 0.09279
# Poissons Ratio (y) = 0.31211 0.22735
# Poissons Ratio (z) = 0.16783 0.52026
#
# Static dielectric constant tensor:
#      x y z
#    x 4.283400 0.000000 0.000000 
#    y 0.000000 4.566390 0.000000 
#    z 0.000000 0.000000 3.213700 
# 
# 
# High freq. dielectric constant tensor:
#      x y z
#    x 1.868590 0.000000 0.000000 
#    y 0.000000 1.876930 0.000000 
#    z 0.000000 0.000000 1.788430 
# 
# From -- ./inp_files/13925.got.cif
#   From: 2010.03.12/outbox.cif.g09.slc.cpg/sg60_7_cif.got.tgz:13925.got - 2010.04.10 18:46:24.
