data_PCOD8246408
_publ_section_title
;
Structure prediction by ZEFSAII (Michael W. Deem and Ramdas Pophale) SiO2 
 PCOD8246408
Probable space group: P B C N
;
_chemical_formula_sum "Si O2"
_cell_formula_units_Z 44
_cell_length_a 6.122655
_cell_length_b 19.023271
_cell_length_c 20.591186
_cell_angle_alpha 90.000000
_cell_angle_beta 90.000000
_cell_angle_gamma 90.000000
_cell_volume 2398.315669
_symmetry_space_group_name_H-M "P B C N"
_symmetry_group_IT_number 60
_symmetry_cell_setting 'orthorhombic'
loop_
_space_group_symop_operation_xyz
x,y,z
1/2-x,1/2-y,1/2+z
1/2+x,1/2-y,-z
-x,y,1/2-z
-x,-y,-z
1/2+x,1/2+y,1/2-z
1/2-x,1/2+y,z
x,-y,1/2+z
loop_
_atom_site_type_symbol
_atom_site_label
_atom_site_fract_x
_atom_site_fract_y
_atom_site_fract_z
Si Si1 0.257470 0.146965 0.868052
Si Si2 0.500000 0.662656 0.750000
Si Si3 0.001293 0.420649 0.477742
Si Si4 0.266374 0.320199 0.562542
Si Si5 0.878598 0.751098 0.812940
Si Si6 0.607942 0.328414 0.465408
O O1 0.148790 0.117532 0.800660
O O2 0.340427 0.084567 0.914752
O O3 0.454766 0.200614 0.852354
O O4 0.064802 0.185247 0.907530
O O5 0.663601 0.709814 0.791925
O O6 0.766385 0.394517 0.452549
O O7 0.000000 0.500000 0.500000
O O8 0.074120 0.372549 0.539409
O O9 0.295052 0.314318 0.640476
O O10 0.492717 0.348412 0.533067
O O11 0.241296 0.243633 0.529657
O O12 0.000000 0.783377 0.750000
#
# Coordination Sequence:
#
# PCOD8246408 Si02
#       6
#     8   4   8   8   8   8
#     4  10  19  33  55  85 118 146 196 242 298 351
#     4  10  18  32  56  88 118 146 196 256 286 348
#     4  11  24  36  54  89 121 154 192 246 307 365
#     4  11  19  33  57  85 114 149 191 243 290 357
#     4  10  20  32  54  92 112 147 196 251 295 344
#     4  11  19  34  59  85 114 143 192 241 300 351
#
# _framework density 18.346209999999999
#
# number of rings (size 3 to 8) (size 9 to 14) (size 15 to 20)
#    0.000    1.455    5.455    1.091    0.000    2.909 
#    0.000    0.000    0.000    0.000   61.455    0.000 
#    0.000    0.000    0.000    0.000    0.000    0.000 
#
# Total GULP energy -545143.152573 kJ/mol
# GULP energy per Si atom -12389.617104 kJ/mol
# Density = 1.830445 g / cm^3
# Si number density = 18.346210 Si / 1000 Ang^3
#
#
#
# Elastic Constant Matrix: (Units=GPa)
#
#
# Indices 1 2 3 4 5 6 
#
# 1 105.7187 35.4038 51.7112 0.0000 0.0000 0.0000
# 2 35.4038 83.4624 38.5833 0.0000 0.0000 0.0000
# 3 51.7112 38.5833 146.1640 0.0000 0.0000 0.0000
# 4 0.0000 0.0000 0.0000 17.6166 0.0000 0.0000
# 5 0.0000 0.0000 0.0000 0.0000 45.4464 0.0000
# 6 0.0000 0.0000 0.0000 0.0000 0.0000 17.0421
#
#
#
# Elastic Compliance Matrix: (Units=1/GPa)
#
#
# Indices 1 2 3 4 5 6 
#
# 1 0.012351 -0.003667 -0.003402 0.000000 0.000000 0.000000
# 2 -0.003667 0.014735 -0.002593 0.000000 0.000000 0.000000
# 3 -0.003402 -0.002593 0.008729 0.000000 0.000000 0.000000
# 4 0.000000 0.000000 0.000000 0.056765 0.000000 0.000000
# 5 0.000000 0.000000 0.000000 0.000000 0.022004 0.000000
# 6 0.000000 0.000000 0.000000 0.000000 0.000000 0.058678
#
#
# Mechanical properties :
#
#
# Convention : Reuss Voigt Hill
#
# Bulk Modulus (GPa) = 60.62812 65.19352 62.91082
# Shear Modulus (GPa) = 25.24205 29.99746 27.61976
#
# Velocity S-wave (km/s) = 3.71330 4.04800 3.88425
# Velocity P-wave (km/s) = 7.17657 7.58028 7.38119
#
# Compressibility (1/GPa) = 0.01649400
#
# Stress axis : x y z
#
# Youngs Moduli (GPa) = 80.96608 67.86462 114.55436
#
# Poissons Ratio (x) = 0.24883 0.38968
# Poissons Ratio (y) = 0.29686 0.29698
# Poissons Ratio (z) = 0.27542 0.17594
#
# Static dielectric constant tensor:
#      x y z
#    x 3.765630 0.000000 0.000000 
#    y 0.000000 2.754600 0.000000 
#    z 0.000000 0.000000 3.739610 
# 
# 
# High freq. dielectric constant tensor:
#      x y z
#    x 1.741620 0.000000 0.000000 
#    y 0.000000 1.634430 0.000000 
#    z 0.000000 0.000000 1.726100 
# 
# From -- ./inp_files/18671.got.cif
#   From: 2010.03.12/outbox.cif.g09.slc.cpg/sg60_10_cif.got.tgz:18671.got - 2010.04.10 18:46:24.
