data_PCOD8246657
_publ_section_title
;
Structure prediction by ZEFSAII (Michael W. Deem and Ramdas Pophale) SiO2 
 PCOD8246657
Probable space group: P B C N
;
_chemical_formula_sum "Si O2"
_cell_formula_units_Z 48
_cell_length_a 8.741840
_cell_length_b 20.218252
_cell_length_c 13.353130
_cell_angle_alpha 90.000000
_cell_angle_beta 90.000000
_cell_angle_gamma 90.000000
_cell_volume 2360.095277
_symmetry_space_group_name_H-M "P B C N"
_symmetry_group_IT_number 60
_symmetry_cell_setting 'orthorhombic'
loop_
_space_group_symop_operation_xyz
x,y,z
1/2-x,1/2-y,1/2+z
1/2+x,1/2-y,-z
-x,y,1/2-z
-x,-y,-z
1/2+x,1/2+y,1/2-z
1/2-x,1/2+y,z
x,-y,1/2+z
loop_
_atom_site_type_symbol
_atom_site_label
_atom_site_fract_x
_atom_site_fract_y
_atom_site_fract_z
Si Si1 0.148932 0.173608 0.188570
Si Si2 0.526378 0.698867 0.998886
Si Si3 0.386983 0.939766 0.887479
Si Si4 0.620535 0.551256 0.961263
Si Si5 0.177683 0.711475 0.375765
Si Si6 0.208382 0.465160 0.671375
O O1 0.255390 0.219691 0.261636
O O2 0.224398 0.106893 0.149769
O O3 0.000000 0.151037 0.250000
O O4 0.096985 0.211042 0.087826
O O5 0.689367 0.723438 0.041524
O O6 0.546765 0.623530 0.962149
O O7 0.463060 0.739278 0.902516
O O8 0.394890 0.860783 0.878011
O O9 0.557253 0.968749 0.899602
O O10 0.322801 0.973386 0.787686
O O11 0.274401 0.957645 0.975603
O O12 0.675461 0.525520 0.852658
O O13 0.500000 0.500000 0.000000
#
# Coordination Sequence:
#
# PCOD8246657 Si02
#       6
#     8   8   8   8   8   8
#     4   9  18  35  59  84 111 154 200 245 296 355
#     4  10  20  36  57  88 114 154 194 253 300 357
#     4   9  21  37  57  88 113 160 202 242 300 365
#     4  11  21  34  60  90 119 153 199 254 312 361
#     4   9  20  35  59  83 118 151 201 241 297 360
#     4  10  19  35  62  84 116 154 200 251 295 372
#
# _framework density 20.338162000000001
#
# number of rings (size 3 to 8) (size 9 to 14) (size 15 to 20)
#    0.000    2.333    1.667    1.500    2.333    0.000 
#    0.000    0.000   14.667    0.000    0.000    0.000 
#    0.000    0.000    0.000    0.000    0.000    0.000 
#
# Total GULP energy -594643.252400 kJ/mol
# GULP energy per Si atom -12388.401092 kJ/mol
# Density = 2.029187 g / cm^3
# Si number density = 20.338162 Si / 1000 Ang^3
#
#
#
# Elastic Constant Matrix: (Units=GPa)
#
#
# Indices 1 2 3 4 5 6 
#
# 1 59.5162 45.9195 38.3353 0.0000 0.0000 0.0000
# 2 45.9195 88.3504 51.6308 0.0000 0.0000 0.0000
# 3 38.3353 51.6308 75.1677 0.0000 0.0000 0.0000
# 4 0.0000 0.0000 0.0000 31.1946 0.0000 0.0000
# 5 0.0000 0.0000 0.0000 0.0000 33.4624 0.0000
# 6 0.0000 0.0000 0.0000 0.0000 0.0000 38.3176
#
#
#
# Elastic Compliance Matrix: (Units=1/GPa)
#
#
# Indices 1 2 3 4 5 6 
#
# 1 0.030571 -0.011323 -0.007814 0.000000 0.000000 0.000000
# 2 -0.011323 0.023102 -0.010094 0.000000 0.000000 0.000000
# 3 -0.007814 -0.010094 0.024222 0.000000 0.000000 0.000000
# 4 0.000000 0.000000 0.000000 0.032057 0.000000 0.000000
# 5 0.000000 0.000000 0.000000 0.000000 0.029884 0.000000
# 6 0.000000 0.000000 0.000000 0.000000 0.000000 0.026098
#
#
# Mechanical properties :
#
#
# Convention : Reuss Voigt Hill
#
# Bulk Modulus (GPa) = 51.45527 54.97839 53.21683
# Shear Modulus (GPa) = 21.65693 26.40481 24.03087
#
# Velocity S-wave (km/s) = 3.26673 3.60709 3.44112
# Velocity P-wave (km/s) = 6.29154 6.66625 6.48161
#
# Compressibility (1/GPa) = 0.01943435
#
# Stress axis : x y z
#
# Youngs Moduli (GPa) = 32.71040 43.28599 41.28527
#
# Poissons Ratio (x) = 0.49012 0.32260
# Poissons Ratio (y) = 0.37038 0.41672
# Poissons Ratio (z) = 0.25559 0.43691
#
# Static dielectric constant tensor:
#      x y z
#    x 4.108110 0.000000 0.000000 
#    y 0.000000 3.454380 0.000000 
#    z 0.000000 0.000000 3.644690 
# 
# 
# High freq. dielectric constant tensor:
#      x y z
#    x 1.816990 0.000000 0.000000 
#    y 0.000000 1.761310 0.000000 
#    z 0.000000 0.000000 1.788430 
# 
# From -- ./inp_files/14971.got.cif
#   From: 2010.03.12/outbox.cif.g09.slc.cpg/sg60_8_cif.got.tgz:14971.got - 2010.04.10 18:46:24.
