data_PCOD8246181
_publ_section_title
;
Structure prediction by ZEFSAII (Michael W. Deem and Ramdas Pophale) SiO2 
 PCOD8246181
Probable space group: P M M N
;
_chemical_formula_sum "Si O2"
_cell_formula_units_Z 64
_cell_length_a 19.644491
_cell_length_b 9.285663
_cell_length_c 20.678897
_cell_angle_alpha 90.000000
_cell_angle_beta 90.000000
_cell_angle_gamma 90.000000
_cell_volume 3772.081508
_symmetry_space_group_name_H-M "P M M N"
_symmetry_group_IT_number 59
_space_group.IT_coordinate_system_code '2'
_symmetry_cell_setting 'orthorhombic'
loop_
_space_group_symop_operation_xyz
x,y,z
1/2-x,1/2-y,z
1/2+x,-y,-z
-x,1/2+y,-z
-x,-y,-z
1/2+x,1/2+y,-z
1/2-x,y,z
x,1/2-y,z
loop_
_atom_site_type_symbol
_atom_site_label
_atom_site_fract_x
_atom_site_fract_y
_atom_site_fract_z
Si Si1 0.920838 0.919613 0.819245
Si Si2 0.421048 0.586960 0.825320
Si Si3 0.580574 0.409777 0.556874
Si Si4 0.070428 0.580911 0.302802
Si Si5 0.582046 0.587551 0.437239
Si Si6 0.069756 0.583515 0.682257
Si Si7 0.674401 0.579084 0.933797
Si Si8 0.172791 0.419705 0.922154
O O1 0.910275 0.750000 0.806424
O O2 0.879865 0.976836 0.881595
O O3 0.999820 0.957438 0.830104
O O4 0.890489 0.008757 0.757837
O O5 0.412147 0.750000 0.849333
O O6 0.392623 0.571498 0.751638
O O7 0.378163 0.485829 0.871003
O O8 0.601102 0.250000 0.533802
O O9 0.610783 0.440173 0.628937
O O10 0.610273 0.521108 0.504443
O O11 0.499196 0.420478 0.562222
O O12 0.056398 0.750000 0.290506
O O13 0.001218 0.494204 0.308493
O O14 0.609096 0.750000 0.431357
O O15 0.610408 0.496166 0.375841
O O16 0.057998 0.750000 0.663089
O O17 0.750000 0.521559 0.916108
O O18 0.675579 0.750000 0.934050
O O19 0.653642 0.525552 0.005599
O O20 0.250000 0.466264 0.905796
O O21 0.164977 0.250000 0.917684
#
# Coordination Sequence:
#
# PCOD8246181 Si02
#       8
#     8   8   8   8   8   8   8   8
#     4   9  17  29  45  65  89 116 146 180 218 262
#     4   9  18  29  42  64  91 117 144 177 220 265
#     4   8  14  22  31  46  72 107 142 174 210 254
#     4   9  16  25  37  55  80 110 144 179 216 257
#     4   9  15  21  32  51  74 104 143 180 213 253
#     4   9  16  26  38  53  79 112 143 176 215 259
#     4   8  15  30  50  68  87 114 147 180 215 258
#     4   9  18  32  49  67  86 112 147 183 217 256
#
# _framework density 16.966760000000001
#
# number of rings (size 3 to 8) (size 9 to 14) (size 15 to 20)
#    0.000    3.250    0.000    3.375    0.000    6.750 
#    0.000    0.625    0.000    1.125    0.000    0.000 
#    0.000    1.000    0.000    7.500    0.000    7.875 
#
# Total GULP energy -792953.474836 kJ/mol
# GULP energy per Si atom -12389.898044 kJ/mol
# Density = 1.692814 g / cm^3
# Si number density = 16.966760 Si / 1000 Ang^3
#
#
#
# Elastic Constant Matrix: (Units=GPa)
#
#
# Indices 1 2 3 4 5 6 
#
# 1 36.8127 23.6847 45.6423 0.0000 0.0000 0.0000
# 2 23.6847 87.7470 67.1777 0.0000 0.0000 0.0000
# 3 45.6423 67.1777 153.7584 0.0000 0.0000 0.0000
# 4 0.0000 0.0000 0.0000 31.3263 0.0000 0.0000
# 5 0.0000 0.0000 0.0000 0.0000 -0.3106 0.0000
# 6 0.0000 0.0000 0.0000 0.0000 0.0000 12.0395
#
#
#
# Elastic Compliance Matrix: (Units=1/GPa)
#
#
# Indices 1 2 3 4 5 6 
#
# 1 0.043433 -0.002784 -0.011676 0.000000 0.000000 0.000000
# 2 -0.002784 0.017303 -0.006733 0.000000 0.000000 0.000000
# 3 -0.011676 -0.006733 0.012912 0.000000 0.000000 0.000000
# 4 0.000000 0.000000 0.000000 0.031922 0.000000 0.000000
# 5 0.000000 0.000000 0.000000 0.000000 -3.219213 0.000000
# 6 0.000000 0.000000 0.000000 0.000000 0.000000 0.083060
#
#
# Mechanical properties :
#
#
# Convention : Reuss Voigt Hill
#
# Bulk Modulus (GPa) = 31.99009 61.25859 46.62434
# Shear Modulus (GPa) = -1.67911 18.06526 8.19308
#
# Velocity S-wave (km/s) = -0.99589 3.26658 2.19986
# Velocity P-wave (km/s) = 4.19203 7.10006 5.83026
#
# Compressibility (1/GPa) = 0.03125968
#
# Stress axis : x y z
#
# Youngs Moduli (GPa) = 23.02405 57.79442 77.45022
#
# Poissons Ratio (x) = 0.16091 0.90434
# Poissons Ratio (y) = 0.06410 0.52148
# Poissons Ratio (z) = 0.26884 0.38914
#
# Static dielectric constant tensor:
#      x y z
#    x 2.658090 0.000000 0.000000 
#    y 0.000000 3.178580 0.000000 
#    z 0.000000 0.000000 3.910110 
# 
# 
# High freq. dielectric constant tensor:
#      x y z
#    x 1.580490 0.000000 0.000000 
#    y 0.000000 1.650210 0.000000 
#    z 0.000000 0.000000 1.677200 
# 
# From -- ./inp_files/28438.got.cif
#   From: 2010.03.12/outbox.cif.g09.slc.cpg/sg59_15_cif.got.tgz:28438.got - 2010.04.16 16:29:54.
