data_PCOD8246618
_publ_section_title
;
Structure prediction by ZEFSAII (Michael W. Deem and Ramdas Pophale) SiO2 
 PCOD8246618
Probable space group: P B C N
;
_chemical_formula_sum "Si O2"
_cell_formula_units_Z 48
_cell_length_a 27.900754
_cell_length_b 17.075883
_cell_length_c 5.041429
_cell_angle_alpha 90.000000
_cell_angle_beta 90.000000
_cell_angle_gamma 90.000000
_cell_volume 2401.888074
_symmetry_space_group_name_H-M "P B C N"
_symmetry_group_IT_number 60
_symmetry_cell_setting 'orthorhombic'
loop_
_space_group_symop_operation_xyz
x,y,z
1/2-x,1/2-y,1/2+z
1/2+x,1/2-y,-z
-x,y,1/2-z
-x,-y,-z
1/2+x,1/2+y,1/2-z
1/2-x,1/2+y,z
x,-y,1/2+z
loop_
_atom_site_type_symbol
_atom_site_label
_atom_site_fract_x
_atom_site_fract_y
_atom_site_fract_z
Si Si1 0.458389 0.181822 0.048838
Si Si2 0.342139 0.338558 0.621791
Si Si3 0.500000 0.677330 0.250000
Si Si4 0.257042 0.798588 0.728424
Si Si5 0.357221 0.234523 0.123496
Si Si6 0.500000 0.944399 0.250000
Si Si7 0.925943 0.051209 0.346976
O O1 0.500000 0.152070 0.250000
O O2 0.405698 0.185566 0.179078
O O3 0.471690 0.269228 0.958264
O O4 0.456417 0.117929 0.806950
O O5 0.285616 0.360510 0.665910
O O6 0.351265 0.305070 0.329801
O O7 0.371309 0.418977 0.644733
O O8 0.359027 0.272596 0.831756
O O9 0.461281 0.623886 0.098255
O O10 0.245410 0.723752 0.538395
O O11 0.311483 0.824999 0.655310
O O12 0.500000 0.000000 0.500000
O O13 0.936282 0.984082 0.559081
#
# Coordination Sequence:
#
# PCOD8246618 Si02
#       7
#     8   8   4   8   8   4   8
#     4  11  23  37  66  90 117 154 190 246 298 337
#     4  10  19  36  55  79 115 146 195 249 291 346
#     4  11  24  38  54  85 118 156 212 255 278 330
#     4   8  16  30  54  81 107 138 174 240 302 341
#     4  10  19  34  58  88 113 139 188 248 301 334
#     4  11  24  44  60  85 118 150 182 217 284 380
#     4  12  25  38  53  77 116 171 206 243 293 340
#
# _framework density 19.984278
#
# number of rings (size 3 to 8) (size 9 to 14) (size 15 to 20)
#    0.000    1.667    2.500    2.500    4.667    0.000 
#    0.000    0.000    0.000    2.000    0.000    0.000 
#    0.000    0.000    0.000    0.000    0.000    0.000 
#
# Total GULP energy -594704.209692 kJ/mol
# GULP energy per Si atom -12389.671035 kJ/mol
# Density = 1.993879 g / cm^3
# Si number density = 19.984278 Si / 1000 Ang^3
#
#
#
# Elastic Constant Matrix: (Units=GPa)
#
#
# Indices 1 2 3 4 5 6 
#
# 1 163.1228 45.7247 28.9253 0.0000 0.0000 0.0000
# 2 45.7247 86.9007 22.0072 0.0000 0.0000 0.0000
# 3 28.9253 22.0072 83.7982 0.0000 0.0000 0.0000
# 4 0.0000 0.0000 0.0000 26.0911 0.0000 0.0000
# 5 0.0000 0.0000 0.0000 0.0000 27.7364 0.0000
# 6 0.0000 0.0000 0.0000 0.0000 0.0000 20.1665
#
#
#
# Elastic Compliance Matrix: (Units=1/GPa)
#
#
# Indices 1 2 3 4 5 6 
#
# 1 0.007395 -0.003476 -0.001640 0.000000 0.000000 0.000000
# 2 -0.003476 0.013961 -0.002467 0.000000 0.000000 0.000000
# 3 -0.001640 -0.002467 0.013147 0.000000 0.000000 0.000000
# 4 0.000000 0.000000 0.000000 0.038327 0.000000 0.000000
# 5 0.000000 0.000000 0.000000 0.000000 0.036054 0.000000
# 6 0.000000 0.000000 0.000000 0.000000 0.000000 0.049587
#
#
# Mechanical properties :
#
#
# Convention : Reuss Voigt Hill
#
# Bulk Modulus (GPa) = 51.70964 58.57068 55.14016
# Shear Modulus (GPa) = 27.76492 30.60976 29.18734
#
# Velocity S-wave (km/s) = 3.73143 3.91793 3.82581
# Velocity P-wave (km/s) = 6.67054 7.05967 6.86786
#
# Compressibility (1/GPa) = 0.01933876
#
# Stress axis : x y z
#
# Youngs Moduli (GPa) = 135.21745 71.62800 76.06142
#
# Poissons Ratio (x) = 0.24898 0.12473
# Poissons Ratio (y) = 0.47002 0.18761
# Poissons Ratio (z) = 0.22174 0.17668
#
# Static dielectric constant tensor:
#      x y z
#    x 4.053510 0.000000 0.000000 
#    y 0.000000 3.343050 0.000000 
#    z 0.000000 0.000000 3.519920 
# 
# 
# High freq. dielectric constant tensor:
#      x y z
#    x 1.790560 0.000000 0.000000 
#    y 0.000000 1.726200 0.000000 
#    z 0.000000 0.000000 1.796200 
# 
# From -- ./inp_files/2564.got.cif
#   From: 2010.03.12/outbox.cif.g09.slc.cpg/sg60_2_cif.got.tgz:2564.got - 2010.04.10 18:46:24.
