data_PCOD8246947
_publ_section_title
;
Structure prediction by ZEFSAII (Michael W. Deem and Ramdas Pophale) SiO2 
 PCOD8246947
Probable space group: P B C N
;
_chemical_formula_sum "Si O2"
_cell_formula_units_Z 52
_cell_length_a 15.420970
_cell_length_b 20.440488
_cell_length_c 7.832871
_cell_angle_alpha 90.000000
_cell_angle_beta 90.000000
_cell_angle_gamma 90.000000
_cell_volume 2469.016126
_symmetry_space_group_name_H-M "P B C N"
_symmetry_group_IT_number 60
_symmetry_cell_setting 'orthorhombic'
loop_
_space_group_symop_operation_xyz
x,y,z
1/2-x,1/2-y,1/2+z
1/2+x,1/2-y,-z
-x,y,1/2-z
-x,-y,-z
1/2+x,1/2+y,1/2-z
1/2-x,1/2+y,z
x,-y,1/2+z
loop_
_atom_site_type_symbol
_atom_site_label
_atom_site_fract_x
_atom_site_fract_y
_atom_site_fract_z
Si Si1 0.815789 0.662420 0.154683
Si Si2 0.024294 0.100495 0.432896
Si Si3 0.159882 0.085576 0.964432
Si Si4 0.245652 0.286694 0.487875
Si Si5 0.056736 0.748774 0.906820
Si Si6 0.500000 0.813484 0.750000
Si Si7 0.306957 0.449644 0.853456
O O1 0.767866 0.694627 0.316186
O O2 0.804455 0.720496 0.015010
O O3 0.774806 0.594312 0.086474
O O4 0.915065 0.643819 0.203264
O O5 0.055846 0.173708 0.400628
O O6 0.112194 0.062085 0.486146
O O7 0.000000 0.069732 0.250000
O O8 0.944948 0.090689 0.566306
O O9 0.174742 0.074706 0.163842
O O10 0.201825 0.153498 0.899886
O O11 0.208392 0.027687 0.859862
O O12 0.154579 0.277417 0.390121
O O13 0.000000 0.719511 0.750000
O O14 0.016384 0.731359 0.087782
#
# Coordination Sequence:
#
# PCOD8246947 Si02
#       7
#     8   8   8   8   8   4   8
#     4  10  21  37  59  84 117 151 196 249 301 348
#     4   9  17  33  57  81 113 158 184 232 300 355
#     4  10  21  35  55  83 118 150 197 237 289 366
#     4  10  21  36  59  86 114 153 198 246 294 363
#     4  10  20  37  60  86 121 153 193 250 306 351
#     4  10  22  36  56  90 116 148 204 250 290 356
#     4  10  20  37  54  80 117 155 189 238 299 355
#
# _framework density 21.061021
#
# number of rings (size 3 to 8) (size 9 to 14) (size 15 to 20)
#    0.000    2.154    1.538    1.385    4.308    1.231 
#    2.769    0.000    3.385    2.769    0.000    0.000 
#    0.000    0.000    0.000    0.000    0.000    0.000 
#
# Total GULP energy -644323.700455 kJ/mol
# GULP energy per Si atom -12390.840393 kJ/mol
# Density = 2.101309 g / cm^3
# Si number density = 21.061021 Si / 1000 Ang^3
#
#
#
# Elastic Constant Matrix: (Units=GPa)
#
#
# Indices 1 2 3 4 5 6 
#
# 1 133.8594 63.2706 28.8707 0.0000 0.0000 0.0000
# 2 63.2706 120.0890 8.4902 0.0000 0.0000 0.0000
# 3 28.8707 8.4902 37.6628 0.0000 0.0000 0.0000
# 4 0.0000 0.0000 0.0000 21.7985 0.0000 0.0000
# 5 0.0000 0.0000 0.0000 0.0000 23.4941 0.0000
# 6 0.0000 0.0000 0.0000 0.0000 0.0000 22.9725
#
#
#
# Elastic Compliance Matrix: (Units=1/GPa)
#
#
# Indices 1 2 3 4 5 6 
#
# 1 0.011839 -0.005687 -0.007794 0.000000 0.000000 0.000000
# 2 -0.005687 0.011193 0.001836 0.000000 0.000000 0.000000
# 3 -0.007794 0.001836 0.032112 0.000000 0.000000 0.000000
# 4 0.000000 0.000000 0.000000 0.045875 0.000000 0.000000
# 5 0.000000 0.000000 0.000000 0.000000 0.042564 0.000000
# 6 0.000000 0.000000 0.000000 0.000000 0.000000 0.043530
#
#
# Mechanical properties :
#
#
# Convention : Reuss Voigt Hill
#
# Bulk Modulus (GPa) = 31.39150 54.76380 43.07765
# Shear Modulus (GPa) = 22.62227 26.38499 24.50363
#
# Velocity S-wave (km/s) = 3.28095 3.54331 3.41465
# Velocity P-wave (km/s) = 5.41204 6.54209 6.00372
#
# Compressibility (1/GPa) = 0.03185576
#
# Stress axis : x y z
#
# Youngs Moduli (GPa) = 84.46398 89.33761 31.14120
#
# Poissons Ratio (x) = 0.50804 0.24270
# Poissons Ratio (y) = 0.48032 -0.05717
# Poissons Ratio (z) = 0.65828 -0.16402
#
# Static dielectric constant tensor:
#      x y z
#    x 4.304750 0.000000 0.000000 
#    y 0.000000 3.784670 0.000000 
#    z 0.000000 0.000000 3.602040 
# 
# 
# High freq. dielectric constant tensor:
#      x y z
#    x 1.828150 0.000000 0.000000 
#    y 0.000000 1.806290 0.000000 
#    z 0.000000 0.000000 1.807760 
# 
# From -- ./inp_files/6109.got.cif
#   From: 2010.03.12/outbox.cif.g09.slc.cpg/sg60_4_cif.got.tgz:6109.got - 2010.04.10 18:46:24.
