data_PCOD8246427
_publ_section_title
;
Structure prediction by ZEFSAII (Michael W. Deem and Ramdas Pophale) SiO2 
 PCOD8246427
Probable space group: P B C N
;
_chemical_formula_sum "Si O2"
_cell_formula_units_Z 56
_cell_length_a 18.252900
_cell_length_b 18.560374
_cell_length_c 8.762964
_cell_angle_alpha 90.000000
_cell_angle_beta 90.000000
_cell_angle_gamma 90.000000
_cell_volume 2968.722645
_symmetry_space_group_name_H-M "P B C N"
_symmetry_group_IT_number 60
_symmetry_cell_setting 'orthorhombic'
loop_
_space_group_symop_operation_xyz
x,y,z
1/2-x,1/2-y,1/2+z
1/2+x,1/2-y,-z
-x,y,1/2-z
-x,-y,-z
1/2+x,1/2+y,1/2-z
1/2-x,1/2+y,z
x,-y,1/2+z
loop_
_atom_site_type_symbol
_atom_site_label
_atom_site_fract_x
_atom_site_fract_y
_atom_site_fract_z
Si Si1 0.782128 0.344014 0.417697
Si Si2 0.924385 0.035563 0.315720
Si Si3 0.066322 0.816748 0.528221
Si Si4 0.086995 0.237520 0.548284
Si Si5 0.181616 0.236837 0.818099
Si Si6 0.080837 0.312771 0.248576
Si Si7 0.848462 0.082426 0.018862
O O1 0.745771 0.300461 0.277277
O O2 0.785932 0.297723 0.572640
O O3 0.862917 0.362634 0.349162
O O4 0.737892 0.416354 0.468176
O O5 0.950316 0.102474 0.419102
O O6 0.000000 0.003845 0.250000
O O7 0.890799 0.972227 0.412598
O O8 0.863440 0.060220 0.193049
O O9 0.138364 0.821187 0.422517
O O10 0.079164 0.767088 0.675372
O O11 0.998515 0.782273 0.435355
O O12 0.120474 0.270306 0.703707
O O13 0.104000 0.299011 0.423043
O O14 0.129140 0.164273 0.509222
O O15 0.000000 0.349033 0.250000
#
# Coordination Sequence:
#
# PCOD8246427 Si02
#       7
#     8   8   8   8   8   8   8
#     4  10  21  36  49  78 107 141 188 235 278 339
#     4  12  23  38  52  75 111 160 195 230 255 313
#     4  10  19  33  54  77 113 147 183 224 271 323
#     4  10  18  34  51  81 105 142 186 225 273 334
#     4  10  21  30  53  74 108 144 183 225 288 327
#     4   9  17  35  59  79 105 138 172 230 294 337
#     4  11  24  34  51  73 111 151 197 225 267 314
#
# _framework density 18.863330999999999
#
# number of rings (size 3 to 8) (size 9 to 14) (size 15 to 20)
#    0.000    1.714    2.857    3.000    6.000    0.000 
#    0.000    0.000    0.000    0.000    0.000    1.000 
#    0.000    0.000    0.000    0.000    0.000    0.000 
#
# Total GULP energy -694013.142381 kJ/mol
# GULP energy per Si atom -12393.091828 kJ/mol
# Density = 1.882040 g / cm^3
# Si number density = 18.863331 Si / 1000 Ang^3
#
#
#
# Elastic Constant Matrix: (Units=GPa)
#
#
# Indices 1 2 3 4 5 6 
#
# 1 108.3412 16.5787 36.8486 0.0000 0.0000 0.0000
# 2 16.5787 16.3674 5.0378 0.0000 0.0000 0.0000
# 3 36.8486 5.0378 90.8297 0.0000 0.0000 0.0000
# 4 0.0000 0.0000 0.0000 12.0790 0.0000 0.0000
# 5 0.0000 0.0000 0.0000 0.0000 46.3261 0.0000
# 6 0.0000 0.0000 0.0000 0.0000 0.0000 27.0691
#
#
#
# Elastic Compliance Matrix: (Units=1/GPa)
#
#
# Indices 1 2 3 4 5 6 
#
# 1 0.012459 -0.011257 -0.004430 0.000000 0.000000 0.000000
# 2 -0.011257 0.072328 0.000555 0.000000 0.000000 0.000000
# 3 -0.004430 0.000555 0.012776 0.000000 0.000000 0.000000
# 4 0.000000 0.000000 0.000000 0.082788 0.000000 0.000000
# 5 0.000000 0.000000 0.000000 0.000000 0.021586 0.000000
# 6 0.000000 0.000000 0.000000 0.000000 0.000000 0.036943
#
#
# Mechanical properties :
#
#
# Convention : Reuss Voigt Hill
#
# Bulk Modulus (GPa) = 14.85882 36.94093 25.89988
# Shear Modulus (GPa) = 17.14807 27.56639 22.35723
#
# Velocity S-wave (km/s) = 3.01835 3.82694 3.44644
# Velocity P-wave (km/s) = 4.47677 6.25726 5.44034
#
# Compressibility (1/GPa) = 0.06730008
#
# Stress axis : x y z
#
# Youngs Moduli (GPa) = 80.26040 13.82585 78.27085
#
# Poissons Ratio (x) = 0.15563 0.34676
# Poissons Ratio (y) = 0.90347 -0.04345
# Poissons Ratio (z) = 0.35558 -0.00767
#
# Static dielectric constant tensor:
#      x y z
#    x 4.136500 0.000000 0.000000 
#    y 0.000000 2.933300 0.000000 
#    z 0.000000 0.000000 3.822750 
# 
# 
# High freq. dielectric constant tensor:
#      x y z
#    x 1.746100 0.000000 0.000000 
#    y 0.000000 1.658670 0.000000 
#    z 0.000000 0.000000 1.754630 
# 
# From -- ./inp_files/7618.got.cif
#   From: 2010.03.12/outbox.cif.g09.slc.cpg/sg60_4_cif.got.tgz:7618.got - 2010.04.10 18:46:24.
