data_PCOD8246473
_publ_section_title
;
Structure prediction by ZEFSAII (Michael W. Deem and Ramdas Pophale) SiO2 
 PCOD8246473
Probable space group: P B C N
;
_chemical_formula_sum "Si O2"
_cell_formula_units_Z 44
_cell_length_a 17.429223
_cell_length_b 7.873512
_cell_length_c 15.958669
_cell_angle_alpha 90.000000
_cell_angle_beta 90.000000
_cell_angle_gamma 90.000000
_cell_volume 2189.995323
_symmetry_space_group_name_H-M "P B C N"
_symmetry_group_IT_number 60
_symmetry_cell_setting 'orthorhombic'
loop_
_space_group_symop_operation_xyz
x,y,z
1/2-x,1/2-y,1/2+z
1/2+x,1/2-y,-z
-x,y,1/2-z
-x,-y,-z
1/2+x,1/2+y,1/2-z
1/2-x,1/2+y,z
x,-y,1/2+z
loop_
_atom_site_type_symbol
_atom_site_label
_atom_site_fract_x
_atom_site_fract_y
_atom_site_fract_z
Si Si1 0.335426 0.521116 0.012869
Si Si2 0.607859 0.826442 0.379596
Si Si3 0.000000 0.805861 0.750000
Si Si4 0.648522 0.472298 0.677217
Si Si5 0.750562 0.735185 0.767091
Si Si6 0.179020 0.357736 0.574255
O O1 0.386392 0.656741 0.063893
O O2 0.348172 0.331418 0.049547
O O3 0.246521 0.575747 0.013314
O O4 0.364335 0.525987 0.917848
O O5 0.530224 0.814006 0.325336
O O6 0.681429 0.850003 0.319966
O O7 0.609299 0.003559 0.433057
O O8 0.932678 0.925323 0.716948
O O9 0.682501 0.617753 0.735666
O O10 0.710821 0.320819 0.685044
O O11 0.710001 0.865435 0.830518
#
# Coordination Sequence:
#
# PCOD8246473 Si02
#       6
#     8   8   4   8   8   8
#     4  11  21  34  62  92 122 154 206 261 310 354
#     4  10  21  40  61  87 124 165 201 256 308 361
#     4  10  24  42  60  86 128 166 202 254 320 368
#     4  11  22  38  62  94 123 159 210 257 305 372
#     4  10  18  36  63  86 117 161 210 250 291 368
#     4  11  18  36  60  93 117 159 202 260 303 355
#
# _framework density 20.091366000000001
#
# number of rings (size 3 to 8) (size 9 to 14) (size 15 to 20)
#    0.000    1.455    5.455    3.273    0.000    0.727 
#    0.000    4.545    0.000    0.000    0.000    0.000 
#    0.000    0.000    0.000    0.000    0.000    0.000 
#
# Total GULP energy -545230.887257 kJ/mol
# GULP energy per Si atom -12391.611074 kJ/mol
# Density = 2.004564 g / cm^3
# Si number density = 20.091366 Si / 1000 Ang^3
#
#
#
# Elastic Constant Matrix: (Units=GPa)
#
#
# Indices 1 2 3 4 5 6 
#
# 1 87.3229 36.6624 29.8354 0.0000 0.0000 0.0000
# 2 36.6624 103.0810 7.7168 0.0000 0.0000 0.0000
# 3 29.8354 7.7168 76.5283 0.0000 0.0000 0.0000
# 4 0.0000 0.0000 0.0000 14.6374 0.0000 0.0000
# 5 0.0000 0.0000 0.0000 0.0000 22.1307 0.0000
# 6 0.0000 0.0000 0.0000 0.0000 0.0000 26.0140
#
#
#
# Elastic Compliance Matrix: (Units=1/GPa)
#
#
# Indices 1 2 3 4 5 6 
#
# 1 0.015475 -0.005091 -0.005520 0.000000 0.000000 0.000000
# 2 -0.005091 0.011450 0.000830 0.000000 0.000000 0.000000
# 3 -0.005520 0.000830 0.015135 0.000000 0.000000 0.000000
# 4 0.000000 0.000000 0.000000 0.068318 0.000000 0.000000
# 5 0.000000 0.000000 0.000000 0.000000 0.045186 0.000000
# 6 0.000000 0.000000 0.000000 0.000000 0.000000 0.038441
#
#
# Mechanical properties :
#
#
# Convention : Reuss Voigt Hill
#
# Bulk Modulus (GPa) = 44.44607 46.15126 45.29866
# Shear Modulus (GPa) = 22.61774 25.40426 24.01100
#
# Velocity S-wave (km/s) = 3.35885 3.55975 3.46076
# Velocity P-wave (km/s) = 6.10021 6.31794 6.21002
#
# Compressibility (1/GPa) = 0.02249918
#
# Stress axis : x y z
#
# Youngs Moduli (GPa) = 64.62035 87.33957 66.07077
#
# Poissons Ratio (x) = 0.44462 0.36470
# Poissons Ratio (y) = 0.32896 -0.05485
# Poissons Ratio (z) = 0.35669 -0.07250
#
# Static dielectric constant tensor:
#      x y z
#    x 3.387320 0.000000 0.000000 
#    y 0.000000 3.958690 0.000000 
#    z 0.000000 0.000000 4.333720 
# 
# 
# High freq. dielectric constant tensor:
#      x y z
#    x 1.750260 0.000000 0.000000 
#    y 0.000000 1.796640 0.000000 
#    z 0.000000 0.000000 1.779920 
# 
# From -- ./inp_files/17252.got.cif
#   From: 2010.03.12/outbox.cif.g09.slc.cpg/sg60_9_cif.got.tgz:17252.got - 2010.04.10 18:46:24.
