data_PCOD8246184
_publ_section_title
;
Structure prediction by ZEFSAII (Michael W. Deem and Ramdas Pophale) SiO2 
 PCOD8246184
Probable space group: P M M N
;
_chemical_formula_sum "Si O2"
_cell_formula_units_Z 48
_cell_length_a 14.292786
_cell_length_b 9.326084
_cell_length_c 21.359331
_cell_angle_alpha 90.000000
_cell_angle_beta 90.000000
_cell_angle_gamma 90.000000
_cell_volume 2847.107465
_symmetry_space_group_name_H-M "P M M N"
_symmetry_group_IT_number 59
_space_group.IT_coordinate_system_code '2'
_symmetry_cell_setting 'orthorhombic'
loop_
_space_group_symop_operation_xyz
x,y,z
1/2-x,1/2-y,z
1/2+x,-y,-z
-x,1/2+y,-z
-x,-y,-z
1/2+x,1/2+y,-z
1/2-x,y,z
x,1/2-y,z
loop_
_atom_site_type_symbol
_atom_site_label
_atom_site_fract_x
_atom_site_fract_y
_atom_site_fract_z
Si Si1 0.500269 0.420682 0.734416
Si Si2 0.488134 0.081690 0.593939
Si Si3 0.853683 0.579786 0.166663
Si Si4 0.999960 0.581328 0.064721
Si Si5 0.642650 0.416887 0.494635
Si Si6 0.146300 0.579738 0.166771
O O1 0.502168 0.250000 0.733332
O O2 0.500288 0.480599 0.663917
O O3 0.408051 0.475118 0.771405
O O4 0.591754 0.477263 0.771637
O O5 0.466749 0.250000 0.594111
O O6 0.583738 0.046226 0.556982
O O7 0.398908 0.004790 0.563399
O O8 0.750000 0.511429 0.165636
O O9 0.848343 0.750000 0.169112
O O10 0.908579 0.533753 0.104019
O O11 0.999483 0.750000 0.051667
O O12 0.091706 0.534887 0.103850
O O13 0.000000 0.500000 0.000000
O O14 0.750000 0.462494 0.506259
O O15 0.634619 0.250000 0.478063
O O16 0.250000 0.511635 0.165536
O O17 0.151444 0.750000 0.170029
#
# Coordination Sequence:
#
# PCOD8246184 Si02
#       6
#     8   8   8   8   8   8
#     4   8  14  24  40  63  85 105 135 174 212 246
#     4   9  17  29  46  68  89 110 144 186 218 249
#     4   8  14  25  40  59  84 109 132 164 206 246
#     4   9  17  28  42  61  83 108 138 168 201 243
#     4   9  18  31  44  61  90 123 147 171 212 263
#     4   8  14  25  41  62  87 110 133 168 213 254
#
# _framework density 16.859214999999999
#
# number of rings (size 3 to 8) (size 9 to 14) (size 15 to 20)
#    0.000    3.500    0.000    2.000    0.000    2.333 
#    0.000    5.000    0.000    4.000    0.000    0.000 
#    0.000    0.000    0.000    0.000    0.000    0.000 
#
# Total GULP energy -594915.754901 kJ/mol
# GULP energy per Si atom -12394.078227 kJ/mol
# Density = 1.682084 g / cm^3
# Si number density = 16.859215 Si / 1000 Ang^3
#
#
#
# Elastic Constant Matrix: (Units=GPa)
#
#
# Indices 1 2 3 4 5 6 
#
# 1 171.9348 24.0805 86.1149 0.0000 0.0000 0.0000
# 2 24.0805 18.8160 31.5140 0.0000 0.0000 0.0000
# 3 86.1149 31.5140 174.6017 0.0000 0.0000 0.0000
# 4 0.0000 0.0000 0.0000 23.2779 0.0000 0.0000
# 5 0.0000 0.0000 0.0000 0.0000 14.5821 0.0000
# 6 0.0000 0.0000 0.0000 0.0000 0.0000 14.1086
#
#
#
# Elastic Compliance Matrix: (Units=1/GPa)
#
#
# Indices 1 2 3 4 5 6 
#
# 1 0.008070 -0.005248 -0.003033 0.000000 0.000000 0.000000
# 2 -0.005248 0.079587 -0.011776 0.000000 0.000000 0.000000
# 3 -0.003033 -0.011776 0.009349 0.000000 0.000000 0.000000
# 4 0.000000 0.000000 0.000000 0.042959 0.000000 0.000000
# 5 0.000000 0.000000 0.000000 0.000000 0.068577 0.000000
# 6 0.000000 0.000000 0.000000 0.000000 0.000000 0.070879
#
#
# Mechanical properties :
#
#
# Convention : Reuss Voigt Hill
#
# Bulk Modulus (GPa) = 17.57764 72.08570 44.83167
# Shear Modulus (GPa) = 14.77107 25.30324 20.03716
#
# Velocity S-wave (km/s) = 2.96318 3.87829 3.45120
# Velocity P-wave (km/s) = 4.70702 7.93127 6.52155
#
# Compressibility (1/GPa) = 0.05689047
#
# Stress axis : x y z
#
# Youngs Moduli (GPa) = 123.91005 12.56494 106.96630
#
# Poissons Ratio (x) = 0.06595 0.32444
# Poissons Ratio (y) = 0.65033 1.25964
# Poissons Ratio (z) = 0.37583 0.14797
#
# Static dielectric constant tensor:
#      x y z
#    x 3.640330 0.000000 0.000000 
#    y 0.000000 2.646990 0.000000 
#    z 0.000000 0.000000 3.296970 
# 
# 
# High freq. dielectric constant tensor:
#      x y z
#    x 1.658490 0.000000 0.000000 
#    y 0.000000 1.592050 0.000000 
#    z 0.000000 0.000000 1.655080 
# 
# From -- ./inp_files/26957.got.cif
#   From: 2010.03.12/outbox.cif.g09.slc.cpg/sg59_14_cif.got.tgz:26957.got - 2010.04.16 16:29:54.
