data_PCOD8246002
_publ_section_title
;
Structure prediction by ZEFSAII (Michael W. Deem and Ramdas Pophale) SiO2 
 PCOD8246002
Probable space group: P M M N
;
_chemical_formula_sum "Si O2"
_cell_formula_units_Z 48
_cell_length_a 8.362922
_cell_length_b 28.307272
_cell_length_c 10.306436
_cell_angle_alpha 90.000000
_cell_angle_beta 90.000000
_cell_angle_gamma 90.000000
_cell_volume 2439.858134
_symmetry_space_group_name_H-M "P M M N"
_symmetry_group_IT_number 59
_space_group.IT_coordinate_system_code '2'
_symmetry_cell_setting 'orthorhombic'
loop_
_space_group_symop_operation_xyz
x,y,z
1/2-x,1/2-y,z
1/2+x,-y,-z
-x,1/2+y,-z
-x,-y,-z
1/2+x,1/2+y,-z
1/2-x,y,z
x,1/2-y,z
loop_
_atom_site_type_symbol
_atom_site_label
_atom_site_fract_x
_atom_site_fract_y
_atom_site_fract_z
Si Si1 0.064119 0.050629 0.728985
Si Si2 0.065746 0.802515 0.380761
Si Si3 0.935424 0.948398 0.751255
Si Si4 0.934001 0.396097 0.485678
Si Si5 0.440228 0.100995 0.989531
Si Si6 0.436315 0.198671 0.897237
O O1 0.250000 0.062127 0.707049
O O2 0.000802 0.070878 0.865938
O O3 0.962404 0.073754 0.614898
O O4 0.038944 0.994710 0.726084
O O5 0.250000 0.807941 0.338781
O O6 0.031513 0.750000 0.437138
O O7 0.021567 0.841184 0.489238
O O8 0.959975 0.812311 0.254359
O O9 0.750000 0.961862 0.768231
O O10 0.953886 0.913297 0.630362
O O11 0.005067 0.923010 0.879787
O O12 0.750000 0.401928 0.444529
O O13 0.250000 0.102448 0.991312
O O14 0.508580 0.154883 0.979665
O O15 0.250000 0.201770 0.924974
O O16 0.515056 0.250000 0.933416
#
# Coordination Sequence:
#
# PCOD8246002 Si02
#       6
#     8   8   8   8   8   8
#     4  11  21  37  59  81 106 138 183 229 270 318
#     4   9  18  33  54  80 108 137 173 219 265 312
#     4  11  23  38  54  76 111 148 182 221 268 320
#     4  11  22  37  56  81 110 143 181 220 268 320
#     4   9  19  35  55  81 110 140 176 219 267 316
#     4   9  16  30  55  83 108 135 171 216 266 318
#
# _framework density 19.673276000000001
#
# number of rings (size 3 to 8) (size 9 to 14) (size 15 to 20)
#    0.000    2.000    1.667    2.500    0.000    0.667 
#    0.000    5.000    0.000    1.000    0.000    0.000 
#    0.000    0.000    0.000    0.000    0.000    0.000 
#
# Total GULP energy -595160.333364 kJ/mol
# GULP energy per Si atom -12399.173612 kJ/mol
# Density = 1.962850 g / cm^3
# Si number density = 19.673276 Si / 1000 Ang^3
#
#
#
# Elastic Constant Matrix: (Units=GPa)
#
#
# Indices 1 2 3 4 5 6 
#
# 1 25.2621 9.1875 2.6196 0.0000 0.0000 0.0000
# 2 9.1875 145.0414 48.6309 0.0000 0.0000 0.0000
# 3 2.6196 48.6309 105.9477 0.0000 0.0000 0.0000
# 4 0.0000 0.0000 0.0000 13.3337 0.0000 0.0000
# 5 0.0000 0.0000 0.0000 0.0000 12.6781 0.0000
# 6 0.0000 0.0000 0.0000 0.0000 0.0000 12.6033
#
#
#
# Elastic Compliance Matrix: (Units=1/GPa)
#
#
# Indices 1 2 3 4 5 6 
#
# 1 0.040522 -0.002637 0.000208 0.000000 0.000000 0.000000
# 2 -0.002637 0.008320 -0.003754 0.000000 0.000000 0.000000
# 3 0.000208 -0.003754 0.011157 0.000000 0.000000 0.000000
# 4 0.000000 0.000000 0.000000 0.074998 0.000000 0.000000
# 5 0.000000 0.000000 0.000000 0.000000 0.078876 0.000000
# 6 0.000000 0.000000 0.000000 0.000000 0.000000 0.079344
#
#
# Mechanical properties :
#
#
# Convention : Reuss Voigt Hill
#
# Bulk Modulus (GPa) = 20.99315 44.12524 32.55919
# Shear Modulus (GPa) = 15.55404 22.11058 18.83231
#
# Velocity S-wave (km/s) = 2.81484 3.35608 3.09731
# Velocity P-wave (km/s) = 4.61070 6.12335 5.42005
#
# Compressibility (1/GPa) = 0.04763459
#
# Stress axis : x y z
#
# Youngs Moduli (GPa) = 24.67778 120.18890 89.63368
#
# Poissons Ratio (x) = 0.31690 -0.01867
# Poissons Ratio (y) = 0.06507 0.33647
# Poissons Ratio (z) = -0.00514 0.45117
#
# Static dielectric constant tensor:
#      x y z
#    x 3.300710 0.000000 0.000000 
#    y 0.000000 4.088750 0.000000 
#    z 0.000000 0.000000 3.471980 
# 
# 
# High freq. dielectric constant tensor:
#      x y z
#    x 1.747320 0.000000 0.000000 
#    y 0.000000 1.788330 0.000000 
#    z 0.000000 0.000000 1.743400 
# 
# From -- ./inp_files/6191.got.cif
#   From: 2010.03.12/outbox.cif.g09.slc.cpg/sg59_4_cif.got.tgz:6191.got - 2010.04.16 16:29:54.
