data_PCOD8246673
_publ_section_title
;
Structure prediction by ZEFSAII (Michael W. Deem and Ramdas Pophale) SiO2 
 PCOD8246673
Probable space group: P B C N
;
_chemical_formula_sum "Si O2"
_cell_formula_units_Z 56
_cell_length_a 15.553869
_cell_length_b 31.946178
_cell_length_c 5.181891
_cell_angle_alpha 90.000000
_cell_angle_beta 90.000000
_cell_angle_gamma 90.000000
_cell_volume 2574.812551
_symmetry_space_group_name_H-M "P B C N"
_symmetry_group_IT_number 60
_symmetry_cell_setting 'orthorhombic'
loop_
_space_group_symop_operation_xyz
x,y,z
1/2-x,1/2-y,1/2+z
1/2+x,1/2-y,-z
-x,y,1/2-z
-x,-y,-z
1/2+x,1/2+y,1/2-z
1/2-x,1/2+y,z
x,-y,1/2+z
loop_
_atom_site_type_symbol
_atom_site_label
_atom_site_fract_x
_atom_site_fract_y
_atom_site_fract_z
Si Si1 0.470040 0.743623 0.000045
Si Si2 0.252551 0.589802 0.338504
Si Si3 0.213910 0.233451 0.845171
Si Si4 0.264427 0.857698 0.361902
Si Si5 0.543215 0.163720 0.503799
Si Si6 0.901216 0.472285 0.743423
Si Si7 0.098125 0.974037 0.754450
O O1 0.500000 0.717405 0.250000
O O2 0.524309 0.786741 0.004341
O O3 0.500000 0.717285 0.750000
O O4 0.369243 0.751841 0.991927
O O5 0.235642 0.613549 0.607758
O O6 0.164107 0.566438 0.261966
O O7 0.335078 0.560274 0.355566
O O8 0.279409 0.620145 0.104834
O O9 0.215588 0.254907 0.562915
O O10 0.210713 0.183928 0.797104
O O11 0.356938 0.844667 0.470827
O O12 0.500000 0.141573 0.750000
O O13 0.500000 0.143180 0.250000
O O14 0.882046 0.501160 0.498415
O O15 0.000000 0.456012 0.750000
O O16 0.000000 0.956919 0.750000
O O17 0.114042 0.988673 0.460725
#
# Coordination Sequence:
#
# PCOD8246673 Si02
#       7
#     8   8   8   8   8   8   8
#     4  10  20  36  60  85 107 145 204 263 312 366
#     4  12  24  41  62  96 137 169 204 262 331 388
#     4  12  23  42  65  87 118 163 220 276 326 386
#     4  12  26  39  60  93 129 166 206 264 337 394
#     4  10  19  36  56  81 113 153 203 257 307 364
#     4  10  21  39  63  91 127 173 217 251 294 370
#     4  10  21  41  72 101 125 165 216 260 307 375
#
# _framework density 21.749158000000001
#
# number of rings (size 3 to 8) (size 9 to 14) (size 15 to 20)
#    0.000    1.143    0.000    8.571    0.000    1.714 
#    0.000    2.143    0.000    0.000    0.000    0.000 
#    0.000    0.000    0.000    0.000    0.000    0.000 
#
# Total GULP energy -693983.407182 kJ/mol
# GULP energy per Si atom -12392.560843 kJ/mol
# Density = 2.169966 g / cm^3
# Si number density = 21.749158 Si / 1000 Ang^3
#
#
#
# Elastic Constant Matrix: (Units=GPa)
#
#
# Indices 1 2 3 4 5 6 
#
# 1 105.0266 45.7073 27.1565 0.0000 0.0000 0.0000
# 2 45.7073 88.3082 34.7322 0.0000 0.0000 0.0000
# 3 27.1565 34.7322 181.1514 0.0000 0.0000 0.0000
# 4 0.0000 0.0000 0.0000 25.8439 0.0000 0.0000
# 5 0.0000 0.0000 0.0000 0.0000 33.4245 0.0000
# 6 0.0000 0.0000 0.0000 0.0000 0.0000 15.2598
#
#
#
# Elastic Compliance Matrix: (Units=1/GPa)
#
#
# Indices 1 2 3 4 5 6 
#
# 1 0.012366 -0.006134 -0.000678 0.000000 0.000000 0.000000
# 2 -0.006134 0.015290 -0.002012 0.000000 0.000000 0.000000
# 3 -0.000678 -0.002012 0.006008 0.000000 0.000000 0.000000
# 4 0.000000 0.000000 0.000000 0.038694 0.000000 0.000000
# 5 0.000000 0.000000 0.000000 0.000000 0.029918 0.000000
# 6 0.000000 0.000000 0.000000 0.000000 0.000000 0.065532
#
#
# Mechanical properties :
#
#
# Convention : Reuss Voigt Hill
#
# Bulk Modulus (GPa) = 62.43604 65.51979 63.97792
# Shear Modulus (GPa) = 26.20627 32.69833 29.45230
#
# Velocity S-wave (km/s) = 3.47498 3.88161 3.68391
# Velocity P-wave (km/s) = 6.69853 7.09083 6.89747
#
# Compressibility (1/GPa) = 0.01601639
#
# Stress axis : x y z
#
# Youngs Moduli (GPa) = 80.86598 65.40130 166.45541
#
# Poissons Ratio (x) = 0.40117 0.11281
# Poissons Ratio (y) = 0.49603 0.33492
# Poissons Ratio (z) = 0.05481 0.13159
#
# Static dielectric constant tensor:
#      x y z
#    x 3.878970 0.000000 0.000000 
#    y 0.000000 3.627480 0.000000 
#    z 0.000000 0.000000 2.625280 
# 
# 
# High freq. dielectric constant tensor:
#      x y z
#    x 1.857760 0.000000 0.000000 
#    y 0.000000 1.818200 0.000000 
#    z 0.000000 0.000000 1.892390 
# 
# From -- ./inp_files/1477.got.cif
#   From: 2010.03.12/outbox.cif.g09.slc.cpg/sg60_1_cif.got.tgz:1477.got - 2010.04.10 18:46:24.
