data_PCOD8246704
_publ_section_title
;
Structure prediction by ZEFSAII (Michael W. Deem and Ramdas Pophale) SiO2 
 PCOD8246704
Probable space group: P B C N
;
_chemical_formula_sum "Si O2"
_cell_formula_units_Z 60
_cell_length_a 15.811140
_cell_length_b 8.223976
_cell_length_c 23.369966
_cell_angle_alpha 90.000000
_cell_angle_beta 90.000000
_cell_angle_gamma 90.000000
_cell_volume 3038.806866
_symmetry_space_group_name_H-M "P B C N"
_symmetry_group_IT_number 60
_symmetry_cell_setting 'orthorhombic'
loop_
_space_group_symop_operation_xyz
x,y,z
1/2-x,1/2-y,1/2+z
1/2+x,1/2-y,-z
-x,y,1/2-z
-x,-y,-z
1/2+x,1/2+y,1/2-z
1/2-x,1/2+y,z
x,-y,1/2+z
loop_
_atom_site_type_symbol
_atom_site_label
_atom_site_fract_x
_atom_site_fract_y
_atom_site_fract_z
Si Si1 0.640188 0.519693 0.463982
Si Si2 0.786115 0.315852 0.415414
Si Si3 0.000000 0.824411 0.250000
Si Si4 0.143735 0.998399 0.906650
Si Si5 0.473278 0.375022 0.132318
Si Si6 0.211040 0.317087 0.350007
Si Si7 0.653156 0.104148 0.350841
Si Si8 0.346195 0.881498 0.781904
O O1 0.725302 0.420851 0.454706
O O2 0.658106 0.710924 0.459108
O O3 0.612114 0.478596 0.528094
O O4 0.570943 0.484009 0.415455
O O5 0.734614 0.204821 0.371316
O O6 0.850089 0.429061 0.380371
O O7 0.955807 0.931746 0.300654
O O8 0.935471 0.711562 0.213713
O O9 0.150696 0.818483 0.878881
O O10 0.232262 0.094627 0.899125
O O11 0.073581 0.110973 0.876434
O O12 0.434040 0.193169 0.130512
O O13 0.152628 0.452809 0.319290
O O14 0.270564 0.235271 0.302377
O O15 0.666707 0.074924 0.284116
#
# Coordination Sequence:
#
# PCOD8246704 Si02
#       8
#     8   8   4   8   8   8   8   8
#     4  10  20  36  61  81 120 153 193 242 287 343
#     4   9  18  35  54  90 108 146 199 231 291 340
#     4  10  20  40  60  80 122 152 192 234 302 348
#     4  11  21  40  56  85 114 153 198 239 287 347
#     4  10  21  38  57  81 115 156 186 240 294 341
#     4  10  22  36  61  84 112 149 202 236 291 347
#     4   9  18  33  59  80 117 146 185 240 285 344
#     4  10  19  37  58  83 114 152 186 242 288 350
#
# _framework density 19.744592000000001
#
# number of rings (size 3 to 8) (size 9 to 14) (size 15 to 20)
#    0.000    2.133    1.333    2.000    0.000    1.067 
#    7.200    0.667    0.000    0.000    0.000    0.000 
#    0.000    0.000    0.000    0.000    0.000    0.000 
#
# Total GULP energy -743539.926203 kJ/mol
# GULP energy per Si atom -12392.332103 kJ/mol
# Density = 1.969965 g / cm^3
# Si number density = 19.744592 Si / 1000 Ang^3
#
#
#
# Elastic Constant Matrix: (Units=GPa)
#
#
# Indices 1 2 3 4 5 6 
#
# 1 72.6926 30.4571 41.0510 0.0000 0.0000 0.0000
# 2 30.4571 92.0787 54.9578 0.0000 0.0000 0.0000
# 3 41.0510 54.9578 134.5538 0.0000 0.0000 0.0000
# 4 0.0000 0.0000 0.0000 29.4947 0.0000 0.0000
# 5 0.0000 0.0000 0.0000 0.0000 31.0617 0.0000
# 6 0.0000 0.0000 0.0000 0.0000 0.0000 15.5932
#
#
#
# Elastic Compliance Matrix: (Units=1/GPa)
#
#
# Indices 1 2 3 4 5 6 
#
# 1 0.017398 -0.003421 -0.003911 0.000000 0.000000 0.000000
# 2 -0.003421 0.015034 -0.005097 0.000000 0.000000 0.000000
# 3 -0.003911 -0.005097 0.010707 0.000000 0.000000 0.000000
# 4 0.000000 0.000000 0.000000 0.033904 0.000000 0.000000
# 5 0.000000 0.000000 0.000000 0.000000 0.032194 0.000000
# 6 0.000000 0.000000 0.000000 0.000000 0.000000 0.064131
#
#
# Mechanical properties :
#
#
# Convention : Reuss Voigt Hill
#
# Bulk Modulus (GPa) = 54.69787 61.36188 58.02988
# Shear Modulus (GPa) = 24.47152 26.75385 25.61268
#
# Velocity S-wave (km/s) = 3.52434 3.68502 3.60557
# Velocity P-wave (km/s) = 6.65764 7.01791 6.84015
#
# Compressibility (1/GPa) = 0.01828225
#
# Stress axis : x y z
#
# Youngs Moduli (GPa) = 57.47677 66.51660 93.39726
#
# Poissons Ratio (x) = 0.22753 0.36527
# Poissons Ratio (y) = 0.19661 0.47604
# Poissons Ratio (z) = 0.22479 0.33903
#
# Static dielectric constant tensor:
#      x y z
#    x 3.483750 0.000000 0.000000 
#    y 0.000000 3.623810 0.000000 
#    z 0.000000 0.000000 3.708800 
# 
# 
# High freq. dielectric constant tensor:
#      x y z
#    x 1.755540 0.000000 0.000000 
#    y 0.000000 1.759910 0.000000 
#    z 0.000000 0.000000 1.783000 
# 
# From -- ./inp_files/24405.got.cif
#   From: 2010.03.12/outbox.cif.g09.slc.cpg/sg60_13_cif.got.tgz:24405.got - 2010.04.10 18:46:24.
