data_PCOD8246503
_publ_section_title
;
Structure prediction by ZEFSAII (Michael W. Deem and Ramdas Pophale) SiO2 
 PCOD8246503
Probable space group: P B C N
;
_chemical_formula_sum "Si O2"
_cell_formula_units_Z 56
_cell_length_a 8.649905
_cell_length_b 19.194636
_cell_length_c 15.708311
_cell_angle_alpha 90.000000
_cell_angle_beta 90.000000
_cell_angle_gamma 90.000000
_cell_volume 2608.078803
_symmetry_space_group_name_H-M "P B C N"
_symmetry_group_IT_number 60
_symmetry_cell_setting 'orthorhombic'
loop_
_space_group_symop_operation_xyz
x,y,z
1/2-x,1/2-y,1/2+z
1/2+x,1/2-y,-z
-x,y,1/2-z
-x,-y,-z
1/2+x,1/2+y,1/2-z
1/2-x,1/2+y,z
x,-y,1/2+z
loop_
_atom_site_type_symbol
_atom_site_label
_atom_site_fract_x
_atom_site_fract_y
_atom_site_fract_z
Si Si1 0.173690 0.498021 0.219179
Si Si2 0.754752 0.108752 0.649697
Si Si3 0.675006 0.636668 0.243751
Si Si4 0.419595 0.105495 0.588748
Si Si5 0.235731 0.675257 0.444273
Si Si6 0.245520 0.713019 0.700595
Si Si7 0.009192 0.195759 0.927490
O O1 0.282285 0.456965 0.287478
O O2 0.223488 0.577566 0.209900
O O3 0.177508 0.459381 0.127809
O O4 0.000000 0.490283 0.250000
O O5 0.603534 0.095729 0.592020
O O6 0.741049 0.179345 0.705938
O O7 0.899950 0.122115 0.586864
O O8 0.500000 0.611288 0.250000
O O9 0.732135 0.644589 0.147785
O O10 0.694173 0.707233 0.295754
O O11 0.362559 0.115114 0.492178
O O12 0.379525 0.175180 0.641393
O O13 0.397720 0.690096 0.491414
O O14 0.135664 0.745059 0.443214
O O15 0.415058 0.710933 0.658925
#
# Coordination Sequence:
#
# PCOD8246503 Si02
#       7
#     8   8   8   8   8   8   8
#     4   9  22  42  67  90 124 172 220 258 320 397
#     4  10  18  39  67  94 118 169 216 260 315 390
#     4  12  26  41  62  94 136 167 214 268 325 380
#     4   9  20  43  67  89 124 165 217 265 318 390
#     4  11  25  39  62  97 132 167 212 272 330 383
#     4  10  21  36  64  93 121 167 210 266 313 382
#     4  11  23  37  61  94 129 162 214 269 328 377
#
# _framework density 21.471744000000001
#
# number of rings (size 3 to 8) (size 9 to 14) (size 15 to 20)
#    0.000    1.714    1.429    3.429    6.000    3.429 
#    0.000    5.714    0.000    0.000    0.000    0.000 
#    0.000    0.000    0.000    0.000    0.000    0.000 
#
# Total GULP energy -694450.583917 kJ/mol
# GULP energy per Si atom -12400.903284 kJ/mol
# Density = 2.142287 g / cm^3
# Si number density = 21.471744 Si / 1000 Ang^3
#
#
#
# Elastic Constant Matrix: (Units=GPa)
#
#
# Indices 1 2 3 4 5 6 
#
# 1 80.9510 5.3979 24.8678 0.0000 0.0000 0.0000
# 2 5.3979 102.8278 16.9846 0.0000 0.0000 0.0000
# 3 24.8678 16.9846 65.0217 0.0000 0.0000 0.0000
# 4 0.0000 0.0000 0.0000 15.2387 0.0000 0.0000
# 5 0.0000 0.0000 0.0000 0.0000 35.3511 0.0000
# 6 0.0000 0.0000 0.0000 0.0000 0.0000 26.5012
#
#
#
# Elastic Compliance Matrix: (Units=1/GPa)
#
#
# Indices 1 2 3 4 5 6 
#
# 1 0.014000 0.000156 -0.005395 0.000000 0.000000 0.000000
# 2 0.000156 0.010165 -0.002715 0.000000 0.000000 0.000000
# 3 -0.005395 -0.002715 0.018152 0.000000 0.000000 0.000000
# 4 0.000000 0.000000 0.000000 0.065622 0.000000 0.000000
# 5 0.000000 0.000000 0.000000 0.000000 0.028288 0.000000
# 6 0.000000 0.000000 0.000000 0.000000 0.000000 0.037734
#
#
# Mechanical properties :
#
#
# Convention : Reuss Voigt Hill
#
# Bulk Modulus (GPa) = 37.86530 38.14456 38.00493
# Shear Modulus (GPa) = 25.16699 28.85488 27.01094
#
# Velocity S-wave (km/s) = 3.42731 3.66984 3.55064
# Velocity P-wave (km/s) = 5.77366 5.98001 5.87774
#
# Compressibility (1/GPa) = 0.02640940
#
# Stress axis : x y z
#
# Youngs Moduli (GPa) = 71.42792 98.37429 55.08994
#
# Poissons Ratio (x) = -0.01537 0.29722
# Poissons Ratio (y) = -0.01116 0.14957
# Poissons Ratio (z) = 0.38537 0.26709
#
# Static dielectric constant tensor:
#      x y z
#    x 3.967110 0.000000 0.000000 
#    y 0.000000 3.729490 0.000000 
#    z 0.000000 0.000000 3.995120 
# 
# 
# High freq. dielectric constant tensor:
#      x y z
#    x 1.850420 0.000000 0.000000 
#    y 0.000000 1.829080 0.000000 
#    z 0.000000 0.000000 1.832810 
# 
# From -- ./inp_files/15286.got.cif
#   From: 2010.03.12/outbox.cif.g09.slc.cpg/sg60_8_cif.got.tgz:15286.got - 2010.04.10 18:46:24.
