data_PCOD8246436
_publ_section_title
;
Structure prediction by ZEFSAII (Michael W. Deem and Ramdas Pophale) SiO2 
 PCOD8246436
Probable space group: P B C N
;
_chemical_formula_sum "Si O2"
_cell_formula_units_Z 52
_cell_length_a 17.666316
_cell_length_b 13.967515
_cell_length_c 11.812719
_cell_angle_alpha 90.000000
_cell_angle_beta 90.000000
_cell_angle_gamma 90.000000
_cell_volume 2914.841969
_symmetry_space_group_name_H-M "P B C N"
_symmetry_group_IT_number 60
_symmetry_cell_setting 'orthorhombic'
loop_
_space_group_symop_operation_xyz
x,y,z
1/2-x,1/2-y,1/2+z
1/2+x,1/2-y,-z
-x,y,1/2-z
-x,-y,-z
1/2+x,1/2+y,1/2-z
1/2-x,1/2+y,z
x,-y,1/2+z
loop_
_atom_site_type_symbol
_atom_site_label
_atom_site_fract_x
_atom_site_fract_y
_atom_site_fract_z
Si Si1 0.164616 0.228309 0.032349
Si Si2 0.115296 0.049602 0.421759
Si Si3 0.770691 0.117379 0.888287
Si Si4 0.000000 0.769597 0.250000
Si Si5 0.719808 0.419734 0.785151
Si Si6 0.025605 0.862375 0.477605
Si Si7 0.834641 0.732233 0.217151
O O1 0.192340 0.331485 0.076267
O O2 0.198310 0.141169 0.104636
O O3 0.072607 0.224837 0.035040
O O4 0.188216 0.216968 0.900622
O O5 0.179750 0.088043 0.504420
O O6 0.146378 0.063353 0.294536
O O7 0.038168 0.110177 0.432577
O O8 0.090782 0.942096 0.453401
O O9 0.817566 0.192519 0.814935
O O10 0.748229 0.023098 0.819255
O O11 0.986118 0.836989 0.358941
O O12 0.075551 0.706711 0.272737
O O13 0.788246 0.366153 0.722853
#
# Coordination Sequence:
#
# PCOD8246436 Si02
#       7
#     8   8   8   4   8   8   8
#     4  10  21  37  55  83 114 150 188 231 282 334
#     4  11  21  35  56  88 119 149 181 232 292 337
#     4  11  21  37  56  84 113 148 191 226 283 336
#     4  10  18  34  56  82 110 148 190 226 282 334
#     4  11  22  36  58  83 115 151 189 234 275 344
#     4  10  21  34  56  86 120 148 180 233 287 343
#     4  10  21  36  59  80 110 149 190 233 281 334
#
# _framework density 17.839732000000001
#
# number of rings (size 3 to 8) (size 9 to 14) (size 15 to 20)
#    0.000    1.538    4.615    1.846    0.000    0.615 
#    0.000    0.000    0.000    7.385    0.000    0.000 
#    0.000    0.000    0.000    0.000    0.000    0.000 
#
# Total GULP energy -644440.952864 kJ/mol
# GULP energy per Si atom -12393.095247 kJ/mol
# Density = 1.779913 g / cm^3
# Si number density = 17.839732 Si / 1000 Ang^3
#
#
#
# Elastic Constant Matrix: (Units=GPa)
#
#
# Indices 1 2 3 4 5 6 
#
# 1 113.5612 60.9824 52.7085 0.0000 0.0000 0.0000
# 2 60.9824 85.3272 30.7573 0.0000 0.0000 0.0000
# 3 52.7085 30.7573 82.5602 0.0000 0.0000 0.0000
# 4 0.0000 0.0000 0.0000 27.7339 0.0000 0.0000
# 5 0.0000 0.0000 0.0000 0.0000 31.7802 0.0000
# 6 0.0000 0.0000 0.0000 0.0000 0.0000 31.9716
#
#
#
# Elastic Compliance Matrix: (Units=1/GPa)
#
#
# Indices 1 2 3 4 5 6 
#
# 1 0.017615 -0.009860 -0.007573 0.000000 0.000000 0.000000
# 2 -0.009860 0.019056 -0.000805 0.000000 0.000000 0.000000
# 3 -0.007573 -0.000805 0.017247 0.000000 0.000000 0.000000
# 4 0.000000 0.000000 0.000000 0.036057 0.000000 0.000000
# 5 0.000000 0.000000 0.000000 0.000000 0.031466 0.000000
# 6 0.000000 0.000000 0.000000 0.000000 0.000000 0.031278
#
#
# Mechanical properties :
#
#
# Convention : Reuss Voigt Hill
#
# Bulk Modulus (GPa) = 57.32627 63.37166 60.34897
# Shear Modulus (GPa) = 25.63987 27.43050 26.53518
#
# Velocity S-wave (km/s) = 3.79520 3.92549 3.86089
# Velocity P-wave (km/s) = 7.16997 7.49305 7.33329
#
# Compressibility (1/GPa) = 0.01744401
#
# Stress axis : x y z
#
# Youngs Moduli (GPa) = 56.76824 52.47606 57.98156
#
# Poissons Ratio (x) = 0.51740 0.43909
# Poissons Ratio (y) = 0.55972 0.04665
# Poissons Ratio (z) = 0.42990 0.04222
#
# Static dielectric constant tensor:
#      x y z
#    x 3.371440 0.000000 0.000000 
#    y 0.000000 3.299660 0.000000 
#    z 0.000000 0.000000 3.422540 
# 
# 
# High freq. dielectric constant tensor:
#      x y z
#    x 1.686500 0.000000 0.000000 
#    y 0.000000 1.669530 0.000000 
#    z 0.000000 0.000000 1.703550 
# 
# From -- ./inp_files/12486.got.cif
#   From: 2010.03.12/outbox.cif.g09.slc.cpg/sg60_7_cif.got.tgz:12486.got - 2010.04.10 18:46:24.
