data_PCOD8246232
_publ_section_title
;
Structure prediction by ZEFSAII (Michael W. Deem and Ramdas Pophale) SiO2 
 PCOD8246232
Probable space group: P M M N
;
_chemical_formula_sum "Si O2"
_cell_formula_units_Z 56
_cell_length_a 9.440861
_cell_length_b 13.597409
_cell_length_c 28.869505
_cell_angle_alpha 90.000000
_cell_angle_beta 90.000000
_cell_angle_gamma 90.000000
_cell_volume 3706.014395
_symmetry_space_group_name_H-M "P M M N"
_symmetry_group_IT_number 59
_space_group.IT_coordinate_system_code '2'
_symmetry_cell_setting 'orthorhombic'
loop_
_space_group_symop_operation_xyz
x,y,z
1/2-x,1/2-y,z
1/2+x,-y,-z
-x,1/2+y,-z
-x,-y,-z
1/2+x,1/2+y,-z
1/2-x,y,z
x,1/2-y,z
loop_
_atom_site_type_symbol
_atom_site_label
_atom_site_fract_x
_atom_site_fract_y
_atom_site_fract_z
Si Si1 0.914768 0.473514 0.931787
Si Si2 0.589660 0.866933 0.248985
Si Si3 0.914137 0.364393 0.838658
Si Si4 0.414913 0.948401 0.433954
Si Si5 0.915236 0.137845 0.024513
Si Si6 0.087135 0.359520 0.485645
Si Si7 0.913837 0.364669 0.663322
O O1 0.750000 0.499897 0.931962
O O2 0.961157 0.423442 0.884027
O O3 0.000819 0.574410 0.937583
O O4 0.952757 0.398124 0.972863
O O5 0.750000 0.907661 0.248924
O O6 0.587303 0.750000 0.248913
O O7 0.507904 0.905539 0.203620
O O8 0.508516 0.905112 0.294530
O O9 0.750000 0.381687 0.826391
O O10 0.943691 0.250000 0.848184
O O11 0.250000 0.925113 0.440272
O O12 0.496542 0.876255 0.468367
O O13 0.461659 0.926359 0.381571
O O14 0.452276 0.062019 0.445643
O O15 0.750000 0.126186 0.034837
O O16 0.965047 0.250000 0.029076
O O17 0.250000 0.371951 0.500221
O O18 0.056505 0.250000 0.466316
O O19 0.750000 0.382933 0.675916
O O20 0.941772 0.250000 0.653428
#
# Coordination Sequence:
#
# PCOD8246232 Si02
#       7
#     8   8   8   8   8   8   8
#     4   9  17  28  43  63  84 109 142 174 203 239
#     4   9  17  27  39  58  83 107 131 163 204 247
#     4   9  16  27  43  61  83 111 139 167 202 244
#     4   9  17  28  42  60  81 108 141 170 198 238
#     4   9  17  29  43  60  85 114 141 170 205 244
#     4   9  17  28  41  59  84 110 135 167 205 240
#     4   9  16  26  40  57  78 105 135 165 198 239
#
# _framework density 15.110573
#
# number of rings (size 3 to 8) (size 9 to 14) (size 15 to 20)
#    0.000    3.000    0.000    1.286    0.000    5.714 
#    0.000    1.429    0.000    2.571    0.000    1.000 
#    0.000    5.714    0.000    0.000    0.000    0.000 
#
# Total GULP energy -694369.349734 kJ/mol
# GULP energy per Si atom -12399.452674 kJ/mol
# Density = 1.507618 g / cm^3
# Si number density = 15.110573 Si / 1000 Ang^3
#
#
#
# Elastic Constant Matrix: (Units=GPa)
#
#
# Indices 1 2 3 4 5 6 
#
# 1 64.2447 38.4737 61.5181 0.0000 0.0000 0.0000
# 2 38.4737 84.8481 53.3710 0.0000 0.0000 0.0000
# 3 61.5181 53.3710 133.4847 0.0000 0.0000 0.0000
# 4 0.0000 0.0000 0.0000 21.7277 0.0000 0.0000
# 5 0.0000 0.0000 0.0000 0.0000 26.6169 0.0000
# 6 0.0000 0.0000 0.0000 0.0000 0.0000 19.8574
#
#
#
# Elastic Compliance Matrix: (Units=1/GPa)
#
#
# Indices 1 2 3 4 5 6 
#
# 1 0.030431 -0.006649 -0.011366 0.000000 0.000000 0.000000
# 2 -0.006649 0.017199 -0.003812 0.000000 0.000000 0.000000
# 3 -0.011366 -0.003812 0.014254 0.000000 0.000000 0.000000
# 4 0.000000 0.000000 0.000000 0.046024 0.000000 0.000000
# 5 0.000000 0.000000 0.000000 0.000000 0.037570 0.000000
# 6 0.000000 0.000000 0.000000 0.000000 0.000000 0.050359
#
#
# Mechanical properties :
#
#
# Convention : Reuss Voigt Hill
#
# Bulk Modulus (GPa) = 54.85812 65.47811 60.16812
# Shear Modulus (GPa) = 20.36095 22.25472 21.30783
#
# Velocity S-wave (km/s) = 3.67476 3.84186 3.75924
# Velocity P-wave (km/s) = 7.37485 7.94396 7.66469
#
# Compressibility (1/GPa) = 0.01822884
#
# Stress axis : x y z
#
# Youngs Moduli (GPa) = 32.86116 58.14380 70.15666
#
# Poissons Ratio (x) = 0.38662 0.79740
# Poissons Ratio (y) = 0.21851 0.26745
# Poissons Ratio (z) = 0.37350 0.22165
#
# Static dielectric constant tensor:
#      x y z
#    x 2.963960 0.000000 0.000000 
#    y 0.000000 2.796430 0.000000 
#    z 0.000000 0.000000 2.920740 
# 
# 
# High freq. dielectric constant tensor:
#      x y z
#    x 1.581870 0.000000 0.000000 
#    y 0.000000 1.549810 0.000000 
#    z 0.000000 0.000000 1.572510 
# 
# From -- ./inp_files/33177.got.cif
#   From: 2010.03.12/outbox.cif.g09.slc.cpg/sg59_17_cif.got.tgz:33177.got - 2010.04.16 16:29:54.
