data_PCOD8246758
_publ_section_title
;
Structure prediction by ZEFSAII (Michael W. Deem and Ramdas Pophale) SiO2 
 PCOD8246758
Probable space group: P B C N
;
_chemical_formula_sum "Si O2"
_cell_formula_units_Z 40
_cell_length_a 10.315513
_cell_length_b 8.880449
_cell_length_c 21.247129
_cell_angle_alpha 90.000000
_cell_angle_beta 90.000000
_cell_angle_gamma 90.000000
_cell_volume 1946.372724
_symmetry_space_group_name_H-M "P B C N"
_symmetry_group_IT_number 60
_symmetry_cell_setting 'orthorhombic'
loop_
_space_group_symop_operation_xyz
x,y,z
1/2-x,1/2-y,1/2+z
1/2+x,1/2-y,-z
-x,y,1/2-z
-x,-y,-z
1/2+x,1/2+y,1/2-z
1/2-x,1/2+y,z
x,-y,1/2+z
loop_
_atom_site_type_symbol
_atom_site_label
_atom_site_fract_x
_atom_site_fract_y
_atom_site_fract_z
Si Si1 0.785293 0.182933 0.402965
Si Si2 0.101821 0.916856 0.165901
Si Si3 0.419362 0.960665 0.060389
Si Si4 0.836868 0.180929 0.696279
Si Si5 0.419098 0.982458 0.312232
O O1 0.689074 0.298549 0.370484
O O2 0.882896 0.283973 0.444687
O O3 0.868918 0.089168 0.352412
O O4 0.707411 0.065476 0.445830
O O5 0.137705 0.900276 0.238147
O O6 0.950924 0.880788 0.150543
O O7 0.488119 0.993635 0.127286
O O8 0.500000 0.000000 0.000000
O O9 0.849068 0.360039 0.702023
O O10 0.693089 0.139308 0.672332
O O11 0.500000 0.934369 0.250000
#
# Coordination Sequence:
#
# PCOD8246758 Si02
#       5
#     8   8   8   8   8
#     4  10  21  43  66  89 130 176 213 259 338 389
#     4  10  19  39  64  95 131 172 209 264 332 391
#     4  11  25  45  68  94 132 173 221 269 327 393
#     4  11  22  36  62  97 132 161 221 270 316 387
#     4  12  24  42  63  96 131 170 214 274 326 386
#
# _framework density 20.55105
#
# number of rings (size 3 to 8) (size 9 to 14) (size 15 to 20)
#    0.000    1.200    4.000    3.600    2.800    1.600 
#    0.000    2.000    0.000    0.000    0.000    0.000 
#    0.000    0.000    0.000    0.000    0.000    0.000 
#
# Total GULP energy -495921.502617 kJ/mol
# GULP energy per Si atom -12398.037565 kJ/mol
# Density = 2.050428 g / cm^3
# Si number density = 20.551050 Si / 1000 Ang^3
#
#
#
# Elastic Constant Matrix: (Units=GPa)
#
#
# Indices 1 2 3 4 5 6 
#
# 1 91.4331 26.9442 10.8167 0.0000 0.0000 0.0000
# 2 26.9442 104.9331 4.5421 0.0000 0.0000 0.0000
# 3 10.8167 4.5421 70.1523 0.0000 0.0000 0.0000
# 4 0.0000 0.0000 0.0000 16.6776 0.0000 0.0000
# 5 0.0000 0.0000 0.0000 0.0000 30.3072 0.0000
# 6 0.0000 0.0000 0.0000 0.0000 0.0000 45.7006
#
#
#
# Elastic Compliance Matrix: (Units=1/GPa)
#
#
# Indices 1 2 3 4 5 6 
#
# 1 0.012022 -0.003015 -0.001658 0.000000 0.000000 0.000000
# 2 -0.003015 0.010313 -0.000203 0.000000 0.000000 0.000000
# 3 -0.001658 -0.000203 0.014524 0.000000 0.000000 0.000000
# 4 0.000000 0.000000 0.000000 0.059961 0.000000 0.000000
# 5 0.000000 0.000000 0.000000 0.000000 0.032995 0.000000
# 6 0.000000 0.000000 0.000000 0.000000 0.000000 0.021882
#
#
# Mechanical properties :
#
#
# Convention : Reuss Voigt Hill
#
# Bulk Modulus (GPa) = 36.89293 39.01383 37.95338
# Shear Modulus (GPa) = 29.32835 33.48477 31.40656
#
# Velocity S-wave (km/s) = 3.78179 4.04090 3.91349
# Velocity P-wave (km/s) = 6.08770 6.38724 6.23927
#
# Compressibility (1/GPa) = 0.02710546
#
# Stress axis : x y z
#
# Youngs Moduli (GPa) = 83.18331 96.96637 68.85374
#
# Poissons Ratio (x) = 0.29236 0.11419
# Poissons Ratio (y) = 0.25080 0.01397
# Poissons Ratio (z) = 0.13795 0.01967
#
# Static dielectric constant tensor:
#      x y z
#    x 4.365100 0.000000 0.000000 
#    y 0.000000 4.133070 0.000000 
#    z 0.000000 0.000000 3.432730 
# 
# 
# High freq. dielectric constant tensor:
#      x y z
#    x 1.818670 0.000000 0.000000 
#    y 0.000000 1.820320 0.000000 
#    z 0.000000 0.000000 1.764450 
# 
# From -- ./inp_files/19822.got.cif
#   From: 2010.03.12/outbox.cif.g09.slc.cpg/sg60_10_cif.got.tgz:19822.got - 2010.04.10 18:46:24.
