data_PCOD8246098
_publ_section_title
;
Structure prediction by ZEFSAII (Michael W. Deem and Ramdas Pophale) SiO2 
 PCOD8246098
Probable space group: P M M N
;
_chemical_formula_sum "Si O2"
_cell_formula_units_Z 48
_cell_length_a 16.734478
_cell_length_b 8.524001
_cell_length_c 16.762375
_cell_angle_alpha 90.000000
_cell_angle_beta 90.000000
_cell_angle_gamma 90.000000
_cell_volume 2391.064074
_symmetry_space_group_name_H-M "P M M N"
_symmetry_group_IT_number 59
_space_group.IT_coordinate_system_code '2'
_symmetry_cell_setting 'orthorhombic'
loop_
_space_group_symop_operation_xyz
x,y,z
1/2-x,1/2-y,z
1/2+x,-y,-z
-x,1/2+y,-z
-x,-y,-z
1/2+x,1/2+y,-z
1/2-x,y,z
x,1/2-y,z
loop_
_atom_site_type_symbol
_atom_site_label
_atom_site_fract_x
_atom_site_fract_y
_atom_site_fract_z
Si Si1 0.750000 0.936621 0.700541
Si Si2 0.658467 0.564945 0.969237
Si Si3 0.660654 0.064558 0.131588
Si Si4 0.750000 0.936865 0.519834
Si Si5 0.557525 0.063338 0.275292
Si Si6 0.920226 0.062863 0.455090
Si Si7 0.603344 0.562733 0.800681
O O1 0.750000 0.750000 0.702093
O O2 0.750000 0.996481 0.610389
O O3 0.825842 0.004913 0.746729
O O4 0.750000 0.507777 0.960224
O O5 0.654037 0.750000 0.974221
O O6 0.610372 0.502240 0.891899
O O7 0.618767 0.495146 0.049970
O O8 0.750000 0.998964 0.131701
O O9 0.655789 0.250000 0.131953
O O10 0.622502 0.998201 0.212765
O O11 0.750000 0.750000 0.511371
O O12 0.833616 0.001058 0.483990
O O13 0.556513 0.250000 0.276722
O O14 0.573579 0.001526 0.364101
O O15 0.475013 0.995818 0.241355
O O16 0.920865 0.250000 0.461414
O O17 0.000000 0.000000 0.500000
O O18 0.604870 0.750000 0.801098
#
# Coordination Sequence:
#
# PCOD8246098 Si02
#       7
#     4   8   8   4   8   8   8
#     4   9  16  29  53  80 105 134 178 227 275 337
#     4   9  16  28  48  75 104 133 169 219 276 324
#     4   9  18  32  50  70  99 140 184 223 263 322
#     4  11  23  39  63  92 119 156 202 247 301 363
#     4   9  19  33  53  78 104 141 189 231 271 331
#     4  11  23  41  64  90 122 157 198 251 306 361
#     4   9  15  27  49  78 104 133 176 226 271 325
#
# _framework density 20.074745
#
# number of rings (size 3 to 8) (size 9 to 14) (size 15 to 20)
#    0.000    2.500    0.833    1.750    1.167    3.333 
#    0.000    1.667    0.000    6.000    0.000    0.000 
#    0.000    0.000    0.000    0.000    0.000    0.000 
#
# Total GULP energy -594770.545620 kJ/mol
# GULP energy per Si atom -12391.053034 kJ/mol
# Density = 2.002905 g / cm^3
# Si number density = 20.074745 Si / 1000 Ang^3
#
#
#
# Elastic Constant Matrix: (Units=GPa)
#
#
# Indices 1 2 3 4 5 6 
#
# 1 142.8546 25.3211 99.1180 0.0000 0.0000 0.0000
# 2 25.3211 31.9674 27.4614 0.0000 0.0000 0.0000
# 3 99.1180 27.4614 232.6702 0.0000 0.0000 0.0000
# 4 0.0000 0.0000 0.0000 28.4109 0.0000 0.0000
# 5 0.0000 0.0000 0.0000 0.0000 39.0343 0.0000
# 6 0.0000 0.0000 0.0000 0.0000 0.0000 20.2649
#
#
#
# Elastic Compliance Matrix: (Units=1/GPa)
#
#
# Indices 1 2 3 4 5 6 
#
# 1 0.010619 -0.005036 -0.003929 0.000000 0.000000 0.000000
# 2 -0.005036 0.037200 -0.002245 0.000000 0.000000 0.000000
# 3 -0.003929 -0.002245 0.006237 0.000000 0.000000 0.000000
# 4 0.000000 0.000000 0.000000 0.035198 0.000000 0.000000
# 5 0.000000 0.000000 0.000000 0.000000 0.025619 0.000000
# 6 0.000000 0.000000 0.000000 0.000000 0.000000 0.049346
#
#
# Mechanical properties :
#
#
# Convention : Reuss Voigt Hill
#
# Bulk Modulus (GPa) = 31.61104 79.03259 55.32182
# Shear Modulus (GPa) = 25.35705 34.58146 29.96925
#
# Velocity S-wave (km/s) = 3.55791 4.15497 3.86798
# Velocity P-wave (km/s) = 5.71482 7.90398 6.89682
#
# Compressibility (1/GPa) = 0.03163452
#
# Stress axis : x y z
#
# Youngs Moduli (GPa) = 94.17007 26.88207 160.33686
#
# Poissons Ratio (x) = 0.13537 0.63003
# Poissons Ratio (y) = 0.47422 0.36001
# Poissons Ratio (z) = 0.37003 0.06036
#
# Static dielectric constant tensor:
#      x y z
#    x 3.855300 0.000000 0.000000 
#    y 0.000000 3.306680 0.000000 
#    z 0.000000 0.000000 4.114180 
# 
# 
# High freq. dielectric constant tensor:
#      x y z
#    x 1.785930 0.000000 0.000000 
#    y 0.000000 1.735400 0.000000 
#    z 0.000000 0.000000 1.807450 
# 
# From -- ./inp_files/27487.got.cif
#   From: 2010.03.12/outbox.cif.g09.slc.cpg/sg59_14_cif.got.tgz:27487.got - 2010.04.16 16:29:54.
