data_PCOD8246902
_publ_section_title
;
Structure prediction by ZEFSAII (Michael W. Deem and Ramdas Pophale) SiO2 
 PCOD8246902
Probable space group: P B C N
;
_chemical_formula_sum "Si O2"
_cell_formula_units_Z 52
_cell_length_a 12.455550
_cell_length_b 25.482743
_cell_length_c 8.940721
_cell_angle_alpha 90.000000
_cell_angle_beta 90.000000
_cell_angle_gamma 90.000000
_cell_volume 2837.798968
_symmetry_space_group_name_H-M "P B C N"
_symmetry_group_IT_number 60
_symmetry_cell_setting 'orthorhombic'
loop_
_space_group_symop_operation_xyz
x,y,z
1/2-x,1/2-y,1/2+z
1/2+x,1/2-y,-z
-x,y,1/2-z
-x,-y,-z
1/2+x,1/2+y,1/2-z
1/2-x,1/2+y,z
x,-y,1/2+z
loop_
_atom_site_type_symbol
_atom_site_label
_atom_site_fract_x
_atom_site_fract_y
_atom_site_fract_z
Si Si1 0.331088 0.256000 0.211398
Si Si2 0.318467 0.332337 0.619177
Si Si3 0.386199 0.557446 0.175163
Si Si4 0.476949 0.745393 0.997320
Si Si5 0.000000 0.670145 0.750000
Si Si6 0.382310 0.546479 0.820035
Si Si7 0.270638 0.858807 0.306843
O O1 0.242510 0.210504 0.216929
O O2 0.401511 0.258623 0.060498
O O3 0.400055 0.244483 0.357457
O O4 0.270423 0.311038 0.206482
O O5 0.327490 0.387350 0.707546
O O6 0.436365 0.309011 0.574802
O O7 0.244457 0.343459 0.477799
O O8 0.500000 0.562720 0.250000
O O9 0.330914 0.508105 0.259002
O O10 0.394336 0.546061 0.998577
O O11 0.470930 0.793740 0.109251
O O12 0.897808 0.632461 0.719876
O O13 0.500000 0.557242 0.750000
O O14 0.298716 0.590246 0.764746
#
# Coordination Sequence:
#
# PCOD8246902 Si02
#       7
#     8   8   8   8   4   8   8
#     4  10  20  38  53  84 114 155 188 219 299 328
#     4  10  20  36  56  86 115 148 186 230 281 343
#     4  10  21  37  58  85 112 146 181 239 293 335
#     4  10  22  34  55  79 121 148 185 236 268 351
#     4  12  20  38  52  84 114 152 192 224 278 328
#     4  10  21  40  57  83 113 143 189 235 291 337
#     4  10  22  34  58  80 116 153 185 235 278 342
#
# _framework density 18.324061
#
# number of rings (size 3 to 8) (size 9 to 14) (size 15 to 20)
#    0.000    1.846    3.077    1.846    7.538    0.000 
#    5.538    0.000    0.000    5.538    0.000    0.000 
#    0.000    0.000    0.000    0.000    0.000    0.000 
#
# Total GULP energy -644514.209023 kJ/mol
# GULP energy per Si atom -12394.504020 kJ/mol
# Density = 1.828235 g / cm^3
# Si number density = 18.324061 Si / 1000 Ang^3
#
#
#
# Elastic Constant Matrix: (Units=GPa)
#
#
# Indices 1 2 3 4 5 6 
#
# 1 98.3425 71.1951 27.8133 0.0000 0.0000 0.0000
# 2 71.1951 164.6970 40.6178 0.0000 0.0000 0.0000
# 3 27.8133 40.6178 55.9748 0.0000 0.0000 0.0000
# 4 0.0000 0.0000 0.0000 21.6960 0.0000 0.0000
# 5 0.0000 0.0000 0.0000 0.0000 14.2316 0.0000
# 6 0.0000 0.0000 0.0000 0.0000 0.0000 32.1685
#
#
#
# Elastic Compliance Matrix: (Units=1/GPa)
#
#
# Indices 1 2 3 4 5 6 
#
# 1 0.015319 -0.005779 -0.003418 0.000000 0.000000 0.000000
# 2 -0.005779 0.009575 -0.004077 0.000000 0.000000 0.000000
# 3 -0.003418 -0.004077 0.022522 0.000000 0.000000 0.000000
# 4 0.000000 0.000000 0.000000 0.046091 0.000000 0.000000
# 5 0.000000 0.000000 0.000000 0.000000 0.070266 0.000000
# 6 0.000000 0.000000 0.000000 0.000000 0.000000 0.031086
#
#
# Mechanical properties :
#
#
# Convention : Reuss Voigt Hill
#
# Bulk Modulus (GPa) = 47.92002 66.47407 57.19705
# Shear Modulus (GPa) = 21.89481 25.57844 23.73662
#
# Velocity S-wave (km/s) = 3.46043 3.74022 3.60304
# Velocity P-wave (km/s) = 6.49418 7.41674 6.97074
#
# Compressibility (1/GPa) = 0.02086810
#
# Stress axis : x y z
#
# Youngs Moduli (GPa) = 65.27801 104.43484 44.40114
#
# Poissons Ratio (x) = 0.60354 0.15178
# Poissons Ratio (y) = 0.37725 0.18101
# Poissons Ratio (z) = 0.22314 0.42575
#
# Static dielectric constant tensor:
#      x y z
#    x 3.472600 0.000000 0.000000 
#    y 0.000000 3.955050 0.000000 
#    z 0.000000 0.000000 3.436830 
# 
# 
# High freq. dielectric constant tensor:
#      x y z
#    x 1.700240 0.000000 0.000000 
#    y 0.000000 1.703890 0.000000 
#    z 0.000000 0.000000 1.715620 
# 
# From -- ./inp_files/5211.got.cif
#   From: 2010.03.12/outbox.cif.g09.slc.cpg/sg60_3_cif.got.tgz:5211.got - 2010.04.10 18:46:24.
