data_PCOD8246246
_publ_section_title
;
Structure prediction by ZEFSAII (Michael W. Deem and Ramdas Pophale) SiO2 
 PCOD8246246
Probable space group: P M M N
;
_chemical_formula_sum "Si O2"
_cell_formula_units_Z 40
_cell_length_a 9.300812
_cell_length_b 14.546601
_cell_length_c 16.771263
_cell_angle_alpha 90.000000
_cell_angle_beta 90.000000
_cell_angle_gamma 90.000000
_cell_volume 2269.071401
_symmetry_space_group_name_H-M "P M M N"
_symmetry_group_IT_number 59
_space_group.IT_coordinate_system_code '2'
_symmetry_cell_setting 'orthorhombic'
loop_
_space_group_symop_operation_xyz
x,y,z
1/2-x,1/2-y,z
1/2+x,-y,-z
-x,1/2+y,-z
-x,-y,-z
1/2+x,1/2+y,-z
1/2-x,y,z
x,1/2-y,z
loop_
_atom_site_type_symbol
_atom_site_label
_atom_site_fract_x
_atom_site_fract_y
_atom_site_fract_z
Si Si1 0.417540 0.854868 0.421221
Si Si2 0.417781 0.356274 0.992668
Si Si3 0.580439 0.998087 0.704024
Si Si4 0.919010 0.009773 0.881824
Si Si5 0.081644 0.144816 0.422982
O O1 0.250000 0.869447 0.439038
O O2 0.457092 0.750000 0.403269
O O3 0.502178 0.891636 0.498205
O O4 0.466417 0.910339 0.343082
O O5 0.250000 0.362104 0.971961
O O6 0.465379 0.250000 0.005114
O O7 0.453169 0.414577 0.072320
O O8 0.504665 0.401769 0.920271
O O9 0.750000 0.991795 0.712666
O O10 0.524703 0.910593 0.653824
O O11 0.515663 0.998464 0.792934
O O12 0.750000 0.030848 0.881712
O O13 0.250000 0.128601 0.436906
O O14 0.042927 0.250000 0.406228
#
# Coordination Sequence:
#
# PCOD8246246 Si02
#       5
#     8   8   8   8   8
#     4   9  17  29  44  62  87 119 152 184 219 260
#     4   9  18  33  51  70  95 124 150 184 234 282
#     4   9  17  29  46  68  91 115 147 187 225 260
#     4   9  18  32  50  72  94 119 156 193 225 273
#     4   9  17  29  45  65  89 117 150 186 222 262
#
# _framework density 17.628356
#
# number of rings (size 3 to 8) (size 9 to 14) (size 15 to 20)
#    0.000    3.000    0.000    0.600    0.000    2.000 
#    0.000    8.000    0.000    2.400    0.000    2.800 
#    0.000    0.000    0.000    0.000    0.000    0.000 
#
# Total GULP energy -495892.841963 kJ/mol
# GULP energy per Si atom -12397.321049 kJ/mol
# Density = 1.758823 g / cm^3
# Si number density = 17.628356 Si / 1000 Ang^3
#
#
#
# Elastic Constant Matrix: (Units=GPa)
#
#
# Indices 1 2 3 4 5 6 
#
# 1 29.6839 31.2376 39.1941 0.0000 0.0000 0.0000
# 2 31.2376 129.4925 80.8026 0.0000 0.0000 0.0000
# 3 39.1941 80.8026 180.5098 0.0000 0.0000 0.0000
# 4 0.0000 0.0000 0.0000 -23.9734 0.0000 0.0000
# 5 0.0000 0.0000 0.0000 0.0000 25.0500 0.0000
# 6 0.0000 0.0000 0.0000 0.0000 0.0000 20.5565
#
#
#
# Elastic Compliance Matrix: (Units=1/GPa)
#
#
# Indices 1 2 3 4 5 6 
#
# 1 0.052180 -0.007656 -0.007903 0.000000 0.000000 0.000000
# 2 -0.007656 0.011839 -0.003637 0.000000 0.000000 0.000000
# 3 -0.007903 -0.003637 0.008884 0.000000 0.000000 0.000000
# 4 0.000000 0.000000 0.000000 -0.041713 0.000000 0.000000
# 5 0.000000 0.000000 0.000000 0.000000 0.039920 0.000000
# 6 0.000000 0.000000 0.000000 0.000000 0.000000 0.048646
#
#
# Mechanical properties :
#
#
# Convention : Reuss Voigt Hill
#
# Bulk Modulus (GPa) = 28.97660 71.35055 50.16357
# Shear Modulus (GPa) = 29.47219 16.89008 23.18114
#
# Velocity S-wave (km/s) = 4.09328 3.09871 3.63022
# Velocity P-wave (km/s) = 6.23001 7.30516 6.78891
#
# Compressibility (1/GPa) = 0.03451061
#
# Stress axis : x y z
#
# Youngs Moduli (GPa) = 19.16456 84.46729 112.56364
#
# Poissons Ratio (x) = 0.64670 0.88955
# Poissons Ratio (y) = 0.14673 0.40941
# Poissons Ratio (z) = 0.15145 0.30722
#
# Static dielectric constant tensor:
#      x y z
#    x 3.036640 0.000000 0.000000 
#    y 0.000000 3.399990 0.000000 
#    z 0.000000 0.000000 3.532560 
# 
# 
# High freq. dielectric constant tensor:
#      x y z
#    x 1.652720 0.000000 0.000000 
#    y 0.000000 1.691210 0.000000 
#    z 0.000000 0.000000 1.681730 
# 
# From -- ./inp_files/19850.got.cif
#   From: 2010.03.12/outbox.cif.g09.slc.cpg/sg59_10_cif.got.tgz:19850.got - 2010.04.16 16:29:54.
