data_PCOD8246508
_publ_section_title
;
Structure prediction by ZEFSAII (Michael W. Deem and Ramdas Pophale) SiO2 
 PCOD8246508
Probable space group: P B C N
;
_chemical_formula_sum "Si O2"
_cell_formula_units_Z 36
_cell_length_a 7.720890
_cell_length_b 15.175136
_cell_length_c 14.714639
_cell_angle_alpha 90.000000
_cell_angle_beta 90.000000
_cell_angle_gamma 90.000000
_cell_volume 1724.048857
_symmetry_space_group_name_H-M "P B C N"
_symmetry_group_IT_number 60
_symmetry_cell_setting 'orthorhombic'
loop_
_space_group_symop_operation_xyz
x,y,z
1/2-x,1/2-y,1/2+z
1/2+x,1/2-y,-z
-x,y,1/2-z
-x,-y,-z
1/2+x,1/2+y,1/2-z
1/2-x,1/2+y,z
x,-y,1/2+z
loop_
_atom_site_type_symbol
_atom_site_label
_atom_site_fract_x
_atom_site_fract_y
_atom_site_fract_z
Si Si1 0.191465 0.686954 0.045797
Si Si2 0.791852 0.334833 0.584192
Si Si3 0.190186 0.131828 0.229278
Si Si4 0.148999 0.472879 0.432670
Si Si5 0.500000 0.999935 0.750000
O O1 0.314879 0.686938 0.134593
O O2 0.996681 0.673376 0.077310
O O3 0.200369 0.780579 0.995291
O O4 0.252425 0.609880 0.975328
O O5 0.738485 0.303701 0.685822
O O6 0.734327 0.438724 0.579200
O O7 0.336266 0.057535 0.216432
O O8 0.000000 0.091460 0.250000
O O9 0.064548 0.442614 0.335888
O O10 0.000000 0.500000 0.500000
#
# Coordination Sequence:
#
# PCOD8246508 Si02
#       5
#     8   8   8   8   4
#     4  11  20  40  62  88 127 162 213 252 316 378
#     4  10  21  38  58  93 118 163 204 254 309 367
#     4  11  20  37  63  89 121 165 201 257 313 364
#     4   9  18  37  65  83 120 169 194 249 319 359
#     4  10  18  40  62  86 126 152 208 252 316 364
#
# _framework density 20.881079
#
# number of rings (size 3 to 8) (size 9 to 14) (size 15 to 20)
#    0.000    1.778    6.667    1.333    0.000    0.000 
#   10.000   10.000    0.000    0.000    0.000    0.000 
#    0.000    0.000    0.000    0.000    0.000    0.000 
#
# Total GULP energy -446034.123094 kJ/mol
# GULP energy per Si atom -12389.836753 kJ/mol
# Density = 2.083355 g / cm^3
# Si number density = 20.881079 Si / 1000 Ang^3
#
#
#
# Elastic Constant Matrix: (Units=GPa)
#
#
# Indices 1 2 3 4 5 6 
#
# 1 79.8248 25.3816 29.2130 0.0000 0.0000 0.0000
# 2 25.3816 77.5864 54.9710 0.0000 0.0000 0.0000
# 3 29.2130 54.9710 191.6462 0.0000 0.0000 0.0000
# 4 0.0000 0.0000 0.0000 30.7714 0.0000 0.0000
# 5 0.0000 0.0000 0.0000 0.0000 24.3696 0.0000
# 6 0.0000 0.0000 0.0000 0.0000 0.0000 15.4414
#
#
#
# Elastic Compliance Matrix: (Units=1/GPa)
#
#
# Indices 1 2 3 4 5 6 
#
# 1 0.014145 -0.003890 -0.001040 0.000000 0.000000 0.000000
# 2 -0.003890 0.017246 -0.004354 0.000000 0.000000 0.000000
# 3 -0.001040 -0.004354 0.006625 0.000000 0.000000 0.000000
# 4 0.000000 0.000000 0.000000 0.032498 0.000000 0.000000
# 5 0.000000 0.000000 0.000000 0.000000 0.041035 0.000000
# 6 0.000000 0.000000 0.000000 0.000000 0.000000 0.064761
#
#
# Mechanical properties :
#
#
# Convention : Reuss Voigt Hill
#
# Bulk Modulus (GPa) = 51.41966 63.13206 57.27586
# Shear Modulus (GPa) = 24.83094 30.08262 27.45678
#
# Velocity S-wave (km/s) = 3.45216 3.79973 3.63011
# Velocity P-wave (km/s) = 6.36933 7.03920 6.71262
#
# Compressibility (1/GPa) = 0.01944781
#
# Stress axis : x y z
#
# Youngs Moduli (GPa) = 70.69567 57.98341 150.93533
#
# Poissons Ratio (x) = 0.22558 0.15701
# Poissons Ratio (y) = 0.27503 0.65715
# Poissons Ratio (z) = 0.07354 0.25245
#
# Static dielectric constant tensor:
#      x y z
#    x 3.671960 0.000000 0.000000 
#    y 0.000000 4.225620 0.000000 
#    z 0.000000 0.000000 4.528190 
# 
# 
# High freq. dielectric constant tensor:
#      x y z
#    x 1.799060 0.000000 0.000000 
#    y 0.000000 1.772490 0.000000 
#    z 0.000000 0.000000 1.850330 
# 
# From -- ./inp_files/14588.got.cif
#   From: 2010.03.12/outbox.cif.g09.slc.cpg/sg60_8_cif.got.tgz:14588.got - 2010.04.10 18:46:24.
