data_PCOD8246864
_publ_section_title
;
Structure prediction by ZEFSAII (Michael W. Deem and Ramdas Pophale) SiO2 
 PCOD8246864
Probable space group: P B C N
;
_chemical_formula_sum "Si O2"
_cell_formula_units_Z 64
_cell_length_a 20.040080
_cell_length_b 11.321367
_cell_length_c 13.562635
_cell_angle_alpha 90.000000
_cell_angle_beta 90.000000
_cell_angle_gamma 90.000000
_cell_volume 3077.105553
_symmetry_space_group_name_H-M "P B C N"
_symmetry_group_IT_number 60
_symmetry_cell_setting 'orthorhombic'
loop_
_space_group_symop_operation_xyz
x,y,z
1/2-x,1/2-y,1/2+z
1/2+x,1/2-y,-z
-x,y,1/2-z
-x,-y,-z
1/2+x,1/2+y,1/2-z
1/2-x,1/2+y,z
x,-y,1/2+z
loop_
_atom_site_type_symbol
_atom_site_label
_atom_site_fract_x
_atom_site_fract_y
_atom_site_fract_z
Si Si1 0.766163 0.806582 0.640645
Si Si2 0.545676 0.570651 0.576023
Si Si3 0.951954 0.693407 0.165642
Si Si4 0.148631 0.838243 0.571872
Si Si5 0.298445 0.145439 0.034673
Si Si6 0.873838 0.041986 0.237207
Si Si7 0.829949 0.207522 0.786419
Si Si8 0.355075 0.095218 0.477490
O O1 0.792336 0.700901 0.572860
O O2 0.825995 0.894851 0.660184
O O3 0.741442 0.746054 0.741703
O O4 0.708357 0.883881 0.591704
O O5 0.500000 0.500000 0.500000
O O6 0.511388 0.695032 0.610696
O O7 0.615652 0.601834 0.523997
O O8 0.560485 0.494096 0.674730
O O9 0.886604 0.745340 0.215203
O O10 0.924829 0.597267 0.086042
O O11 0.000000 0.637226 0.250000
O O12 0.224887 0.884013 0.576967
O O13 0.108172 0.872085 0.671327
O O14 0.143963 0.696544 0.561069
O O15 0.336175 0.239089 0.104532
O O16 0.345683 0.030189 0.030837
O O17 0.836127 0.933077 0.289803
#
# Coordination Sequence:
#
# PCOD8246864 Si02
#       8
#     8   8   8   8   8   8   8   8
#     4  10  20  35  56  90 121 157 194 246 299 355
#     4  10  23  37  60  88 120 158 200 259 307 354
#     4   9  20  40  60  81 114 159 204 249 299 358
#     4  10  22  36  57  89 125 161 190 253 313 352
#     4  11  21  36  62  88 124 165 195 240 306 372
#     4  11  22  36  58  91 127 147 204 253 293 374
#     4  10  22  36  56  91 114 158 198 234 314 360
#     4   9  20  39  55  87 125 154 205 246 292 363
#
# _framework density 20.798766000000001
#
# number of rings (size 3 to 8) (size 9 to 14) (size 15 to 20)
#    0.000    2.000    1.250    3.750    8.750    0.000 
#    4.500    0.625    0.000    0.000    0.000    0.000 
#    0.000    0.000    0.000    0.000    0.000    0.000 
#
# Total GULP energy -793462.033091 kJ/mol
# GULP energy per Si atom -12397.844267 kJ/mol
# Density = 2.075143 g / cm^3
# Si number density = 20.798766 Si / 1000 Ang^3
#
#
#
# Elastic Constant Matrix: (Units=GPa)
#
#
# Indices 1 2 3 4 5 6 
#
# 1 43.5270 33.8846 26.0201 0.0000 0.0000 0.0000
# 2 33.8846 104.0625 53.8134 0.0000 0.0000 0.0000
# 3 26.0201 53.8134 114.1948 0.0000 0.0000 0.0000
# 4 0.0000 0.0000 0.0000 36.2306 0.0000 0.0000
# 5 0.0000 0.0000 0.0000 0.0000 28.8623 0.0000
# 6 0.0000 0.0000 0.0000 0.0000 0.0000 15.2433
#
#
#
# Elastic Compliance Matrix: (Units=1/GPa)
#
#
# Indices 1 2 3 4 5 6 
#
# 1 0.031588 -0.008678 -0.003108 0.000000 0.000000 0.000000
# 2 -0.008678 0.015090 -0.005134 0.000000 0.000000 0.000000
# 3 -0.003108 -0.005134 0.011884 0.000000 0.000000 0.000000
# 4 0.000000 0.000000 0.000000 0.027601 0.000000 0.000000
# 5 0.000000 0.000000 0.000000 0.000000 0.034647 0.000000
# 6 0.000000 0.000000 0.000000 0.000000 0.000000 0.065603
#
#
# Mechanical properties :
#
#
# Convention : Reuss Voigt Hill
#
# Bulk Modulus (GPa) = 40.44897 54.35783 47.40340
# Shear Modulus (GPa) = 21.88237 25.93833 23.91035
#
# Velocity S-wave (km/s) = 3.24713 3.53527 3.39426
# Velocity P-wave (km/s) = 5.79210 6.54646 6.18080
#
# Compressibility (1/GPa) = 0.02472251
#
# Stress axis : x y z
#
# Youngs Moduli (GPa) = 31.65751 66.26795 84.14434
#
# Poissons Ratio (x) = 0.57510 0.26151
# Poissons Ratio (y) = 0.27474 0.43197
# Poissons Ratio (z) = 0.09839 0.34020
#
# Static dielectric constant tensor:
#      x y z
#    x 3.533610 0.000000 0.000000 
#    y 0.000000 3.703330 0.000000 
#    z 0.000000 0.000000 3.943850 
# 
# 
# High freq. dielectric constant tensor:
#      x y z
#    x 1.787340 0.000000 0.000000 
#    y 0.000000 1.798660 0.000000 
#    z 0.000000 0.000000 1.826090 
# 
# From -- ./inp_files/17473.got.cif
#   From: 2010.03.12/outbox.cif.g09.slc.cpg/sg60_9_cif.got.tgz:17473.got - 2010.04.10 18:46:24.
