data_PCOD8246710
_publ_section_title
;
Structure prediction by ZEFSAII (Michael W. Deem and Ramdas Pophale) SiO2 
 PCOD8246710
Probable space group: P B C N
;
_chemical_formula_sum "Si O2"
_cell_formula_units_Z 40
_cell_length_a 6.667202
_cell_length_b 21.613512
_cell_length_c 13.955179
_cell_angle_alpha 90.000000
_cell_angle_beta 90.000000
_cell_angle_gamma 90.000000
_cell_volume 2010.964326
_symmetry_space_group_name_H-M "P B C N"
_symmetry_group_IT_number 60
_symmetry_cell_setting 'orthorhombic'
loop_
_space_group_symop_operation_xyz
x,y,z
1/2-x,1/2-y,1/2+z
1/2+x,1/2-y,-z
-x,y,1/2-z
-x,-y,-z
1/2+x,1/2+y,1/2-z
1/2-x,1/2+y,z
x,-y,1/2+z
loop_
_atom_site_type_symbol
_atom_site_label
_atom_site_fract_x
_atom_site_fract_y
_atom_site_fract_z
Si Si1 0.307196 0.542904 0.007124
Si Si2 0.052729 0.756812 0.856646
Si Si3 0.111609 0.351620 0.845376
Si Si4 0.030328 0.489479 0.853987
Si Si5 0.734554 0.820281 0.983198
O O1 0.161490 0.536022 0.916154
O O2 0.500000 0.500000 0.000000
O O3 0.189316 0.522074 0.101964
O O4 0.361841 0.615790 0.010284
O O5 0.171205 0.821056 0.847567
O O6 0.000000 0.731829 0.750000
O O7 0.854262 0.770513 0.919148
O O8 0.193153 0.706820 0.910725
O O9 0.000000 0.328885 0.750000
O O10 0.149771 0.424968 0.843776
O O11 0.981941 0.333045 0.937425
O O12 0.000000 0.520174 0.750000
#
# Coordination Sequence:
#
# PCOD8246710 Si02
#       5
#     8   8   8   8   8
#     4  10  21  39  60  87 118 158 200 245 304 359
#     4  12  23  37  62  90 119 164 204 246 308 366
#     4  10  19  37  60  89 116 152 205 250 295 357
#     4   9  20  37  61  85 117 152 196 252 298 351
#     4  11  23  38  60  88 125 157 199 256 298 360
#
# _framework density 19.890955000000002
#
# number of rings (size 3 to 8) (size 9 to 14) (size 15 to 20)
#    0.000    1.600    4.000    1.200    0.000    1.600 
#    0.000    0.000    8.800    0.000    0.000    0.000 
#    0.000    0.000    0.000    0.000    0.000    0.000 
#
# Total GULP energy -496089.400195 kJ/mol
# GULP energy per Si atom -12402.235005 kJ/mol
# Density = 1.984568 g / cm^3
# Si number density = 19.890955 Si / 1000 Ang^3
#
#
#
# Elastic Constant Matrix: (Units=GPa)
#
#
# Indices 1 2 3 4 5 6 
#
# 1 54.1103 20.1778 29.3639 0.0000 0.0000 0.0000
# 2 20.1778 64.3482 37.2491 0.0000 0.0000 0.0000
# 3 29.3639 37.2491 151.4335 0.0000 0.0000 0.0000
# 4 0.0000 0.0000 0.0000 24.2149 0.0000 0.0000
# 5 0.0000 0.0000 0.0000 0.0000 27.3709 0.0000
# 6 0.0000 0.0000 0.0000 0.0000 0.0000 36.5922
#
#
#
# Elastic Compliance Matrix: (Units=1/GPa)
#
#
# Indices 1 2 3 4 5 6 
#
# 1 0.022038 -0.005174 -0.003001 0.000000 0.000000 0.000000
# 2 -0.005174 0.019335 -0.003753 0.000000 0.000000 0.000000
# 3 -0.003001 -0.003753 0.008109 0.000000 0.000000 0.000000
# 4 0.000000 0.000000 0.000000 0.041297 0.000000 0.000000
# 5 0.000000 0.000000 0.000000 0.000000 0.036535 0.000000
# 6 0.000000 0.000000 0.000000 0.000000 0.000000 0.027328
#
#
# Mechanical properties :
#
#
# Convention : Reuss Voigt Hill
#
# Bulk Modulus (GPa) = 39.02020 49.27483 44.14752
# Shear Modulus (GPa) = 26.73235 29.84235 28.28735
#
# Velocity S-wave (km/s) = 3.66996 3.87757 3.77519
# Velocity P-wave (km/s) = 6.13334 6.69878 6.42228
#
# Compressibility (1/GPa) = 0.02562775
#
# Stress axis : x y z
#
# Youngs Moduli (GPa) = 45.37523 51.71937 123.32685
#
# Poissons Ratio (x) = 0.26757 0.37008
# Poissons Ratio (y) = 0.23475 0.46282
# Poissons Ratio (z) = 0.13616 0.19409
#
# Static dielectric constant tensor:
#      x y z
#    x 3.454540 0.000000 0.000000 
#    y 0.000000 3.515180 0.000000 
#    z 0.000000 0.000000 3.823640 
# 
# 
# High freq. dielectric constant tensor:
#      x y z
#    x 1.766870 0.000000 0.000000 
#    y 0.000000 1.761510 0.000000 
#    z 0.000000 0.000000 1.785080 
# 
# From -- ./inp_files/13806.got.cif
#   From: 2010.03.12/outbox.cif.g09.slc.cpg/sg60_7_cif.got.tgz:13806.got - 2010.04.10 18:46:24.
