data_PCOD8246257
_publ_section_title
;
Structure prediction by ZEFSAII (Michael W. Deem and Ramdas Pophale) SiO2 
 PCOD8246257
Probable space group: P M M N
;
_chemical_formula_sum "Si O2"
_cell_formula_units_Z 56
_cell_length_a 9.000000
_cell_length_b 15.000000
_cell_length_c 21.000000
_cell_angle_alpha 90.000000
_cell_angle_beta 90.000000
_cell_angle_gamma 90.000000
_cell_volume 2835.000000
_symmetry_space_group_name_H-M "P M M N"
_symmetry_group_IT_number 59
_space_group.IT_coordinate_system_code '2'
_symmetry_cell_setting 'orthorhombic'
loop_
_space_group_symop_operation_xyz
x,y,z
1/2-x,1/2-y,z
1/2+x,-y,-z
-x,1/2+y,-z
-x,-y,-z
1/2+x,1/2+y,-z
1/2-x,y,z
x,1/2-y,z
loop_
_atom_site_type_symbol
_atom_site_label
_atom_site_fract_x
_atom_site_fract_y
_atom_site_fract_z
Si Si1 0.073255 0.646261 0.170595
Si Si2 0.073364 0.484712 0.727283
Si Si3 0.576498 0.477722 0.594139
Si Si4 0.078972 0.917903 0.033491
Si Si5 0.579862 0.855110 0.787042
Si Si6 0.091030 0.651264 0.904727
Si Si7 0.577296 0.855470 0.507844
O O1 0.250000 0.634533 0.175391
O O2 0.029608 0.750000 0.179959
O O3 0.013025 0.614034 0.100999
O O4 0.994950 0.586514 0.223707
O O5 0.250000 0.479351 0.730684
O O6 0.018040 0.460944 0.657212
O O7 0.020796 0.586211 0.740339
O O8 0.750000 0.462899 0.608071
O O9 0.523579 0.398928 0.546965
O O10 0.549925 0.579461 0.568828
O O11 0.250000 0.941518 0.043956
O O12 0.053075 0.842508 0.979659
O O13 0.000000 0.000000 0.000000
O O14 0.750000 0.881143 0.776058
O O15 0.554569 0.750000 0.773918
O O16 0.537726 0.888096 0.859238
O O17 0.250000 0.599841 0.894808
O O18 0.112597 0.750000 0.878920
O O19 0.750000 0.860777 0.487803
O O20 0.534673 0.750000 0.520910
#
# Coordination Sequence:
#
# PCOD8246257 Si02
#       7
#     8   8   8   8   8   8   8
#     4  10  22  41  62  83 112 154 204 253 299 352
#     4  12  25  40  59  84 118 158 199 245 295 347
#     4  10  21  38  61  90 122 157 197 237 281 337
#     4  10  20  33  52  78 106 139 181 233 294 354
#     4  10  21  37  57  82 113 150 194 244 298 358
#     4   9  17  31  51  74 101 133 172 222 282 345
#     4   9  19  38  64  93 124 155 188 231 282 334
#
# _framework density 19.753086
#
# number of rings (size 3 to 8) (size 9 to 14) (size 15 to 20)
#    0.000    2.000    0.000    3.429    0.000    8.286 
#    0.000    1.429    0.000    2.571    0.000    0.000 
#    0.000    0.000    0.000    0.000    0.000    0.000 
#
# Total GULP energy -693785.582942 kJ/mol
# GULP energy per Si atom -12389.028267 kJ/mol
# Density = 1.970813 g / cm^3
# Si number density = 19.753086 Si / 1000 Ang^3
#
#
#
# Elastic Constant Matrix: (Units=GPa)
#
#
# Indices 1 2 3 4 5 6 
#
# 1 95.0416 47.5322 47.4163 0.0000 0.0000 0.0000
# 2 47.5322 124.8282 40.3733 0.0000 0.0000 0.0000
# 3 47.4163 40.3733 112.2042 0.0000 0.0000 0.0000
# 4 0.0000 0.0000 0.0000 27.4116 0.0000 0.0000
# 5 0.0000 0.0000 0.0000 0.0000 31.2856 0.0000
# 6 0.0000 0.0000 0.0000 0.0000 0.0000 32.4164
#
#
#
# Elastic Compliance Matrix: (Units=1/GPa)
#
#
# Indices 1 2 3 4 5 6 
#
# 1 0.015018 -0.004149 -0.004854 0.000000 0.000000 0.000000
# 2 -0.004149 0.010212 -0.001921 0.000000 0.000000 0.000000
# 3 -0.004854 -0.001921 0.011655 0.000000 0.000000 0.000000
# 4 0.000000 0.000000 0.000000 0.036481 0.000000 0.000000
# 5 0.000000 0.000000 0.000000 0.000000 0.031964 0.000000
# 6 0.000000 0.000000 0.000000 0.000000 0.000000 0.030849
#
#
# Mechanical properties :
#
#
# Convention : Reuss Voigt Hill
#
# Bulk Modulus (GPa) = 66.50037 66.96863 66.73450
# Shear Modulus (GPa) = 30.66768 31.33955 31.00361
#
# Velocity S-wave (km/s) = 3.94452 3.98749 3.96606
# Velocity P-wave (km/s) = 7.38136 7.42809 7.40477
#
# Compressibility (1/GPa) = 0.01503751
#
# Stress axis : x y z
#
# Youngs Moduli (GPa) = 66.58632 97.92200 85.80188
#
# Poissons Ratio (x) = 0.40626 0.41645
# Poissons Ratio (y) = 0.27625 0.16485
# Poissons Ratio (z) = 0.32319 0.18814
#
# Static dielectric constant tensor:
#      x y z
#    x 3.746320 0.000000 0.000000 
#    y 0.000000 3.134280 0.000000 
#    z 0.000000 0.000000 3.884410 
# 
# 
# High freq. dielectric constant tensor:
#      x y z
#    x 1.770850 0.000000 0.000000 
#    y 0.000000 1.780200 0.000000 
#    z 0.000000 0.000000 1.772480 
# 
# From -- ./inp_files/29006.got.cif
#   From: 2010.03.12/outbox.ucp.g09.slc.cvg/sg59_15_cif.got.tgz:29006.got - 2010.05.04 19:30:51.
