data_PCOD8246723
_publ_section_title
;
Structure prediction by ZEFSAII (Michael W. Deem and Ramdas Pophale) SiO2 
 PCOD8246723
Probable space group: P B C N
;
_chemical_formula_sum "Si O2"
_cell_formula_units_Z 48
_cell_length_a 15.983422
_cell_length_b 16.804144
_cell_length_c 9.271624
_cell_angle_alpha 90.000000
_cell_angle_beta 90.000000
_cell_angle_gamma 90.000000
_cell_volume 2490.244396
_symmetry_space_group_name_H-M "P B C N"
_symmetry_group_IT_number 60
_symmetry_cell_setting 'orthorhombic'
loop_
_space_group_symop_operation_xyz
x,y,z
1/2-x,1/2-y,1/2+z
1/2+x,1/2-y,-z
-x,y,1/2-z
-x,-y,-z
1/2+x,1/2+y,1/2-z
1/2-x,1/2+y,z
x,-y,1/2+z
loop_
_atom_site_type_symbol
_atom_site_label
_atom_site_fract_x
_atom_site_fract_y
_atom_site_fract_z
Si Si1 0.941995 0.657590 0.622105
Si Si2 0.962980 0.571552 0.091558
Si Si3 0.950668 0.058492 0.896498
Si Si4 0.810940 0.473770 0.049068
Si Si5 0.298108 0.535876 0.218618
Si Si6 0.580528 0.339293 0.657035
O O1 0.861750 0.601573 0.607559
O O2 0.907697 0.744868 0.657639
O O3 0.000000 0.624908 0.750000
O O4 0.002318 0.653454 0.479998
O O5 0.863170 0.556937 0.074491
O O6 0.000000 0.567586 0.250000
O O7 0.000000 0.500000 0.000000
O O8 0.000000 0.080091 0.750000
O O9 0.863656 0.018225 0.862673
O O10 0.931929 0.137258 0.989741
O O11 0.000000 0.000000 0.000000
O O12 0.727513 0.485257 0.141584
O O13 0.783069 0.454026 0.885113
O O14 0.338374 0.619941 0.268882
O O15 0.500000 0.366210 0.750000
#
# Coordination Sequence:
#
# PCOD8246723 Si02
#       6
#     8   8   8   8   8   8
#     4  10  22  42  61  86 124 162 202 249 302 357
#     4  10  19  37  65  90 120 160 208 244 289 366
#     4  12  20  38  63  82 111 155 211 243 284 361
#     4  11  21  36  62  93 117 156 197 246 305 361
#     4  12  21  36  61  88 120 153 197 251 299 359
#     4  11  23  41  61  85 119 161 203 254 303 354
#
# _framework density 19.275217000000001
#
# number of rings (size 3 to 8) (size 9 to 14) (size 15 to 20)
#    0.000    1.000    5.000    5.000    0.000    0.667 
#    3.000    1.667    0.000    0.000    0.000    0.000 
#    0.000    0.000    0.000    0.000    0.000    0.000 
#
# Total GULP energy -594915.452395 kJ/mol
# GULP energy per Si atom -12394.071925 kJ/mol
# Density = 1.923135 g / cm^3
# Si number density = 19.275217 Si / 1000 Ang^3
#
#
#
# Elastic Constant Matrix: (Units=GPa)
#
#
# Indices 1 2 3 4 5 6 
#
# 1 97.6933 42.4855 46.0304 0.0000 0.0000 0.0000
# 2 42.4855 81.7058 40.3369 0.0000 0.0000 0.0000
# 3 46.0304 40.3369 139.9153 0.0000 0.0000 0.0000
# 4 0.0000 0.0000 0.0000 29.4678 0.0000 0.0000
# 5 0.0000 0.0000 0.0000 0.0000 49.1743 0.0000
# 6 0.0000 0.0000 0.0000 0.0000 0.0000 26.3172
#
#
#
# Elastic Compliance Matrix: (Units=1/GPa)
#
#
# Indices 1 2 3 4 5 6 
#
# 1 0.014211 -0.005924 -0.002967 0.000000 0.000000 0.000000
# 2 -0.005924 0.016740 -0.002877 0.000000 0.000000 0.000000
# 3 -0.002967 -0.002877 0.008953 0.000000 0.000000 0.000000
# 4 0.000000 0.000000 0.000000 0.033935 0.000000 0.000000
# 5 0.000000 0.000000 0.000000 0.000000 0.020336 0.000000
# 6 0.000000 0.000000 0.000000 0.000000 0.000000 0.037998
#
#
# Mechanical properties :
#
#
# Convention : Reuss Voigt Hill
#
# Bulk Modulus (GPa) = 61.10144 64.11334 62.60739
# Shear Modulus (GPa) = 31.02412 33.68930 32.35671
#
# Velocity S-wave (km/s) = 4.01625 4.18521 4.10160
# Velocity P-wave (km/s) = 7.29900 7.52920 7.41499
#
# Compressibility (1/GPa) = 0.01636623
#
# Stress axis : x y z
#
# Youngs Moduli (GPa) = 70.37001 59.73732 111.69759
#
# Poissons Ratio (x) = 0.35391 0.33142
# Poissons Ratio (y) = 0.41690 0.32135
# Poissons Ratio (z) = 0.20880 0.17186
#
# Static dielectric constant tensor:
#      x y z
#    x 3.864640 0.000000 0.000000 
#    y 0.000000 3.464520 0.000000 
#    z 0.000000 0.000000 3.633250 
# 
# 
# High freq. dielectric constant tensor:
#      x y z
#    x 1.757460 0.000000 0.000000 
#    y 0.000000 1.718890 0.000000 
#    z 0.000000 0.000000 1.773800 
# 
# From -- ./inp_files/5893.got.cif
#   From: 2010.03.12/outbox.cif.g09.slc.cpg/sg60_3_cif.got.tgz:5893.got - 2010.04.10 18:46:24.
