data_PCOD8246096
_publ_section_title
;
Structure prediction by ZEFSAII (Michael W. Deem and Ramdas Pophale) SiO2 
 PCOD8246096
Probable space group: P M M N
;
_chemical_formula_sum "Si O2"
_cell_formula_units_Z 40
_cell_length_a 22.707591
_cell_length_b 8.736777
_cell_length_c 9.864625
_cell_angle_alpha 90.000000
_cell_angle_beta 90.000000
_cell_angle_gamma 90.000000
_cell_volume 1957.054385
_symmetry_space_group_name_H-M "P M M N"
_symmetry_group_IT_number 59
_space_group.IT_coordinate_system_code '2'
_symmetry_cell_setting 'orthorhombic'
loop_
_space_group_symop_operation_xyz
x,y,z
1/2-x,1/2-y,z
1/2+x,-y,-z
-x,1/2+y,-z
-x,-y,-z
1/2+x,1/2+y,-z
1/2-x,y,z
x,1/2-y,z
loop_
_atom_site_type_symbol
_atom_site_label
_atom_site_fract_x
_atom_site_fract_y
_atom_site_fract_z
Si Si1 0.250000 0.070670 0.654010
Si Si2 0.135861 0.425217 0.224664
Si Si3 0.133815 0.572378 0.719520
Si Si4 0.062904 0.074806 0.487532
Si Si5 0.935769 0.070914 0.012848
Si Si6 0.250000 0.569162 0.354774
O O1 0.250000 0.250000 0.630826
O O2 0.306086 0.020477 0.742766
O O3 0.250000 0.996102 0.505879
O O4 0.154152 0.250000 0.199340
O O5 0.083332 0.435601 0.332956
O O6 0.192831 0.516346 0.272900
O O7 0.111325 0.496712 0.087282
O O8 0.149683 0.750000 0.713414
O O9 0.108189 0.521029 0.576227
O O10 0.086943 0.536202 0.836201
O O11 0.060882 0.250000 0.538068
O O12 0.000000 0.000000 0.500000
O O13 0.939975 0.250000 0.982403
O O14 0.000000 0.000000 0.000000
O O15 0.250000 0.750000 0.364623
#
# Coordination Sequence:
#
# PCOD8246096 Si02
#       6
#     4   8   8   8   8   4
#     4  12  24  41  66  97 130 166 212 266 324 385
#     4  11  24  42  65  94 129 170 216 266 321 382
#     4  11  24  42  65  93 127 169 215 265 321 383
#     4  11  23  38  61  92 126 164 214 268 320 384
#     4  11  25  44  66  95 132 173 219 267 324 387
#     4  12  24  41  68  97 130 170 212 266 324 381
#
# _framework density 20.438880000000001
#
# number of rings (size 3 to 8) (size 9 to 14) (size 15 to 20)
#    0.000    0.800    2.000    5.400    0.000   11.200 
#    0.000    1.000    0.000    0.000    0.000    0.000 
#    0.000    0.000    0.000    0.000    0.000    0.000 
#
# Total GULP energy -496264.733871 kJ/mol
# GULP energy per Si atom -12406.618347 kJ/mol
# Density = 2.039236 g / cm^3
# Si number density = 20.438880 Si / 1000 Ang^3
#
#
#
# Elastic Constant Matrix: (Units=GPa)
#
#
# Indices 1 2 3 4 5 6 
#
# 1 122.2254 55.5251 6.7412 0.0000 0.0000 0.0000
# 2 55.5251 154.5913 45.0330 0.0000 0.0000 0.0000
# 3 6.7412 45.0330 61.4504 0.0000 0.0000 0.0000
# 4 0.0000 0.0000 0.0000 35.8747 0.0000 0.0000
# 5 0.0000 0.0000 0.0000 0.0000 36.5436 0.0000
# 6 0.0000 0.0000 0.0000 0.0000 0.0000 44.2306
#
#
#
# Elastic Compliance Matrix: (Units=1/GPa)
#
#
# Indices 1 2 3 4 5 6 
#
# 1 0.009956 -0.004142 0.001943 0.000000 0.000000 0.000000
# 2 -0.004142 0.009948 -0.006836 0.000000 0.000000 0.000000
# 3 0.001943 -0.006836 0.021069 0.000000 0.000000 0.000000
# 4 0.000000 0.000000 0.000000 0.027875 0.000000 0.000000
# 5 0.000000 0.000000 0.000000 0.000000 0.027365 0.000000
# 6 0.000000 0.000000 0.000000 0.000000 0.000000 0.022609
#
#
# Mechanical properties :
#
#
# Convention : Reuss Voigt Hill
#
# Bulk Modulus (GPa) = 43.65967 61.42952 52.54459
# Shear Modulus (GPa) = 34.59612 38.72764 36.66188
#
# Velocity S-wave (km/s) = 4.11866 4.35765 4.23984
# Velocity P-wave (km/s) = 6.63516 7.44576 7.05211
#
# Compressibility (1/GPa) = 0.02290443
#
# Stress axis : x y z
#
# Youngs Moduli (GPa) = 100.44095 100.52662 47.46200
#
# Poissons Ratio (x) = 0.41639 -0.09223
# Poissons Ratio (y) = 0.41603 0.32443
# Poissons Ratio (z) = -0.19518 0.68716
#
# Static dielectric constant tensor:
#      x y z
#    x 3.158110 0.000000 0.000000 
#    y 0.000000 3.804760 0.000000 
#    z 0.000000 0.000000 3.739170 
# 
# 
# High freq. dielectric constant tensor:
#      x y z
#    x 1.817260 0.000000 0.000000 
#    y 0.000000 1.818350 0.000000 
#    z 0.000000 0.000000 1.797620 
# 
# From -- ./inp_files/12430.got.cif
#   From: 2010.03.12/outbox.cif.g09.slc.cpg/sg59_7_cif.got.tgz:12430.got - 2010.04.16 16:29:54.
