data_PCOD8246666
_publ_section_title
;
Structure prediction by ZEFSAII (Michael W. Deem and Ramdas Pophale) SiO2 
 PCOD8246666
Probable space group: P B C N
;
_chemical_formula_sum "Si O2"
_cell_formula_units_Z 48
_cell_length_a 25.464330
_cell_length_b 5.561329
_cell_length_c 14.109290
_cell_angle_alpha 90.000000
_cell_angle_beta 90.000000
_cell_angle_gamma 90.000000
_cell_volume 1998.094396
_symmetry_space_group_name_H-M "P B C N"
_symmetry_group_IT_number 60
_symmetry_cell_setting 'orthorhombic'
loop_
_space_group_symop_operation_xyz
x,y,z
1/2-x,1/2-y,1/2+z
1/2+x,1/2-y,-z
-x,y,1/2-z
-x,-y,-z
1/2+x,1/2+y,1/2-z
1/2-x,1/2+y,z
x,-y,1/2+z
loop_
_atom_site_type_symbol
_atom_site_label
_atom_site_fract_x
_atom_site_fract_y
_atom_site_fract_z
Si Si1 0.384346 0.996338 0.718388
Si Si2 0.272221 0.863184 0.221834
Si Si3 0.267196 0.445561 0.011696
Si Si4 0.621030 0.347269 0.439822
Si Si5 0.538897 0.738033 0.421760
Si Si6 0.433740 0.050493 0.912980
O O1 0.363268 0.760875 0.662997
O O2 0.334794 0.169895 0.736076
O O3 0.428041 0.105482 0.650808
O O4 0.410399 0.933440 0.818345
O O5 0.247540 0.618120 0.268036
O O6 0.261419 0.880966 0.110069
O O7 0.241777 0.681751 0.958903
O O8 0.329103 0.505432 0.027219
O O9 0.565013 0.477130 0.425824
O O10 0.613362 0.153400 0.523058
O O11 0.477929 0.744628 0.388397
O O12 0.539176 0.835218 0.529523
#
# Coordination Sequence:
#
# PCOD8246666 Si02
#       6
#     8   8   8   8   8   8
#     4  11  22  39  68  94 129 174 223 276 343 404
#     4  10  19  36  63  94 131 171 219 273 333 405
#     4  10  19  35  64  97 130 176 226 272 333 407
#     4  11  22  39  69  94 130 184 219 275 347 408
#     4  10  22  43  66  90 133 171 221 285 343 403
#     4  10  24  42  61  99 132 168 227 286 335 408
#
# _framework density 24.02289
#
# number of rings (size 3 to 8) (size 9 to 14) (size 15 to 20)
#    0.000    1.667    3.333    3.000    2.333    1.333 
#    0.000    6.667    0.000    0.000    0.000    0.000 
#    0.000    0.000    0.000    0.000    0.000    0.000 
#
# Total GULP energy -594770.447836 kJ/mol
# GULP energy per Si atom -12391.050997 kJ/mol
# Density = 2.396821 g / cm^3
# Si number density = 24.022890 Si / 1000 Ang^3
#
#
#
# Elastic Constant Matrix: (Units=GPa)
#
#
# Indices 1 2 3 4 5 6 
#
# 1 114.3732 8.2523 26.3807 0.0000 0.0000 0.0000
# 2 8.2523 120.4819 18.5595 0.0000 0.0000 0.0000
# 3 26.3807 18.5595 82.5394 0.0000 0.0000 0.0000
# 4 0.0000 0.0000 0.0000 54.4508 0.0000 0.0000
# 5 0.0000 0.0000 0.0000 0.0000 18.4089 0.0000
# 6 0.0000 0.0000 0.0000 0.0000 0.0000 27.0359
#
#
#
# Elastic Compliance Matrix: (Units=1/GPa)
#
#
# Indices 1 2 3 4 5 6 
#
# 1 0.009443 -0.000188 -0.002976 0.000000 0.000000 0.000000
# 2 -0.000188 0.008602 -0.001874 0.000000 0.000000 0.000000
# 3 -0.002976 -0.001874 0.013488 0.000000 0.000000 0.000000
# 4 0.000000 0.000000 0.000000 0.018365 0.000000 0.000000
# 5 0.000000 0.000000 0.000000 0.000000 0.054322 0.000000
# 6 0.000000 0.000000 0.000000 0.000000 0.000000 0.036988
#
#
# Mechanical properties :
#
#
# Convention : Reuss Voigt Hill
#
# Bulk Modulus (GPa) = 46.60597 47.08662 46.84630
# Shear Modulus (GPa) = 31.55852 37.59259 34.57555
#
# Velocity S-wave (km/s) = 3.62841 3.96013 3.79789
# Velocity P-wave (km/s) = 6.08248 6.36816 6.22696
#
# Compressibility (1/GPa) = 0.02145648
#
# Stress axis : x y z
#
# Youngs Moduli (GPa) = 105.89533 116.25789 74.14052
#
# Poissons Ratio (x) = 0.02190 0.22063
# Poissons Ratio (y) = 0.01995 0.13893
# Poissons Ratio (z) = 0.31513 0.21786
#
# Static dielectric constant tensor:
#      x y z
#    x 4.458880 0.000000 0.000000 
#    y 0.000000 4.736580 0.000000 
#    z 0.000000 0.000000 3.940190 
# 
# 
# High freq. dielectric constant tensor:
#      x y z
#    x 1.967540 0.000000 0.000000 
#    y 0.000000 1.940600 0.000000 
#    z 0.000000 0.000000 1.922550 
# 
# From -- ./inp_files/18040.got.cif
#   From: 2010.03.12/outbox.cif.g09.slc.cpg/sg60_10_cif.got.tgz:18040.got - 2010.04.10 18:46:24.
