data_PCOD8246094
_publ_section_title
;
Structure prediction by ZEFSAII (Michael W. Deem and Ramdas Pophale) SiO2 
 PCOD8246094
Probable space group: P M M N
;
_chemical_formula_sum "Si O2"
_cell_formula_units_Z 40
_cell_length_a 8.963458
_cell_length_b 7.713880
_cell_length_c 29.403144
_cell_angle_alpha 90.000000
_cell_angle_beta 90.000000
_cell_angle_gamma 90.000000
_cell_volume 2033.022744
_symmetry_space_group_name_H-M "P M M N"
_symmetry_group_IT_number 59
_space_group.IT_coordinate_system_code '2'
_symmetry_cell_setting 'orthorhombic'
loop_
_space_group_symop_operation_xyz
x,y,z
1/2-x,1/2-y,z
1/2+x,-y,-z
-x,1/2+y,-z
-x,-y,-z
1/2+x,1/2+y,-z
1/2-x,y,z
x,1/2-y,z
loop_
_atom_site_type_symbol
_atom_site_label
_atom_site_fract_x
_atom_site_fract_y
_atom_site_fract_z
Si Si1 0.911145 0.547278 0.955675
Si Si2 0.571451 0.943877 0.857235
Si Si3 0.927694 0.250000 0.691092
Si Si4 0.427312 0.750000 0.205342
Si Si5 0.922475 0.054302 0.363850
Si Si6 0.578504 0.452794 0.546648
O O1 0.750000 0.456093 0.960413
O O2 0.889482 0.750000 0.952957
O O3 0.986236 0.492589 0.907349
O O4 0.000000 0.500000 0.000000
O O5 0.750000 0.942818 0.858598
O O6 0.512668 0.750000 0.845289
O O7 0.510177 0.077845 0.819628
O O8 0.750000 0.250000 0.686231
O O9 0.983196 0.250000 0.743031
O O10 0.989379 0.424037 0.668562
O O11 0.250000 0.750000 0.203494
O O12 0.750000 0.997573 0.366640
O O13 0.937879 0.250000 0.344554
O O14 0.992216 0.053271 0.413962
O O15 0.500000 0.500000 0.500000
O O16 0.750000 0.514255 0.544944
O O17 0.567618 0.250000 0.556913
#
# Coordination Sequence:
#
# PCOD8246094 Si02
#       6
#     8   8   4   4   8   8
#     4   9  18  30  46  72 104 138 179 223 271 330
#     4   8  15  29  47  71 105 140 178 227 276 332
#     4  11  23  39  61  93 123 149 191 253 314 361
#     4   9  18  31  53  81 107 141 185 229 290 351
#     4  11  24  42  64  88 119 162 206 245 292 354
#     4  11  23  38  59  90 126 163 204 247 295 349
#
# _framework density 19.675136999999999
#
# number of rings (size 3 to 8) (size 9 to 14) (size 15 to 20)
#    0.000    2.200    1.000    3.300    1.400    6.400 
#    0.000    2.000    0.000    2.400    0.000    0.000 
#    0.000    0.000    0.000    0.000    0.000    0.000 
#
# Total GULP energy -495821.903893 kJ/mol
# GULP energy per Si atom -12395.547597 kJ/mol
# Density = 1.963036 g / cm^3
# Si number density = 19.675137 Si / 1000 Ang^3
#
#
#
# Elastic Constant Matrix: (Units=GPa)
#
#
# Indices 1 2 3 4 5 6 
#
# 1 90.5156 36.6594 50.9424 0.0000 0.0000 0.0000
# 2 36.6594 107.2491 68.6004 0.0000 0.0000 0.0000
# 3 50.9424 68.6004 178.5474 0.0000 0.0000 0.0000
# 4 0.0000 0.0000 0.0000 33.1965 0.0000 0.0000
# 5 0.0000 0.0000 0.0000 0.0000 25.8274 0.0000
# 6 0.0000 0.0000 0.0000 0.0000 0.0000 24.1900
#
#
#
# Elastic Compliance Matrix: (Units=1/GPa)
#
#
# Indices 1 2 3 4 5 6 
#
# 1 0.013818 -0.002919 -0.002821 0.000000 0.000000 0.000000
# 2 -0.002919 0.012979 -0.004154 0.000000 0.000000 0.000000
# 3 -0.002821 -0.004154 0.008002 0.000000 0.000000 0.000000
# 4 0.000000 0.000000 0.000000 0.030124 0.000000 0.000000
# 5 0.000000 0.000000 0.000000 0.000000 0.038719 0.000000
# 6 0.000000 0.000000 0.000000 0.000000 0.000000 0.041339
#
#
# Mechanical properties :
#
#
# Convention : Reuss Voigt Hill
#
# Bulk Modulus (GPa) = 66.61846 76.52406 71.57126
# Shear Modulus (GPa) = 29.45159 31.31676 30.38417
#
# Velocity S-wave (km/s) = 3.87317 3.99393 3.93401
# Velocity P-wave (km/s) = 7.34402 7.76188 7.55584
#
# Compressibility (1/GPa) = 0.01501085
#
# Stress axis : x y z
#
# Youngs Moduli (GPa) = 72.37169 77.04944 124.97523
#
# Poissons Ratio (x) = 0.22488 0.35255
# Poissons Ratio (y) = 0.21123 0.51913
# Poissons Ratio (z) = 0.20416 0.32005
#
# Static dielectric constant tensor:
#      x y z
#    x 3.303330 0.000000 0.000000 
#    y 0.000000 4.019670 0.000000 
#    z 0.000000 0.000000 3.492740 
# 
# 
# High freq. dielectric constant tensor:
#      x y z
#    x 1.735070 0.000000 0.000000 
#    y 0.000000 1.776480 0.000000 
#    z 0.000000 0.000000 1.772060 
# 
# From -- ./inp_files/32447.got.cif
#   From: 2010.03.12/outbox.cif.g09.slc.cpg/sg59_17_cif.got.tgz:32447.got - 2010.04.16 16:29:54.
