data_PCOD8246633
_publ_section_title
;
Structure prediction by ZEFSAII (Michael W. Deem and Ramdas Pophale) SiO2 
 PCOD8246633
Probable space group: P B C N
;
_chemical_formula_sum "Si O2"
_cell_formula_units_Z 40
_cell_length_a 4.881832
_cell_length_b 20.138592
_cell_length_c 19.649422
_cell_angle_alpha 90.000000
_cell_angle_beta 90.000000
_cell_angle_gamma 90.000000
_cell_volume 1931.798004
_symmetry_space_group_name_H-M "P B C N"
_symmetry_group_IT_number 60
_symmetry_cell_setting 'orthorhombic'
loop_
_space_group_symop_operation_xyz
x,y,z
1/2-x,1/2-y,1/2+z
1/2+x,1/2-y,-z
-x,y,1/2-z
-x,-y,-z
1/2+x,1/2+y,1/2-z
1/2-x,1/2+y,z
x,-y,1/2+z
loop_
_atom_site_type_symbol
_atom_site_label
_atom_site_fract_x
_atom_site_fract_y
_atom_site_fract_z
Si Si1 0.506088 0.099868 0.672230
Si Si2 0.855956 0.729711 0.042801
Si Si3 0.508528 0.685632 0.829979
Si Si4 0.226313 0.001470 0.080774
Si Si5 0.257533 0.921536 0.952505
O O1 0.500000 0.082617 0.750000
O O2 0.815009 0.121684 0.653789
O O3 0.315517 0.162754 0.653015
O O4 0.396854 0.031971 0.640781
O O5 0.927705 0.755840 0.118553
O O6 0.731191 0.656972 0.054155
O O7 0.624747 0.773448 0.004938
O O8 0.500000 0.708342 0.750000
O O9 0.426304 0.058288 0.051884
O O10 0.945237 0.040338 0.101478
O O11 0.149218 0.944044 0.026724
#
# Coordination Sequence:
#
# PCOD8246633 Si02
#       5
#     8   8   8   8   8
#     4  10  20  36  60  84 108 147 193 235 282 337
#     4  12  23  37  59  87 116 150 197 239 282 343
#     4  10  21  37  58  84 115 150 190 239 291 340
#     4  10  19  35  53  77 112 141 183 234 282 337
#     4  10  21  33  53  80 109 148 181 228 291 334
#
# _framework density 20.706097
#
# number of rings (size 3 to 8) (size 9 to 14) (size 15 to 20)
#    0.000    1.600    0.000    6.000    0.000    3.200 
#    0.000    1.000    0.000    2.400    0.000    0.000 
#    0.000    0.000    0.000    0.000    0.000    0.000 
#
# Total GULP energy -495784.952249 kJ/mol
# GULP energy per Si atom -12394.623806 kJ/mol
# Density = 2.065897 g / cm^3
# Si number density = 20.706097 Si / 1000 Ang^3
#
#
#
# Elastic Constant Matrix: (Units=GPa)
#
#
# Indices 1 2 3 4 5 6 
#
# 1 94.3895 16.0503 34.2125 0.0000 0.0000 0.0000
# 2 16.0503 107.9758 49.4274 0.0000 0.0000 0.0000
# 3 34.2125 49.4274 88.8917 0.0000 0.0000 0.0000
# 4 0.0000 0.0000 0.0000 -7.6039 0.0000 0.0000
# 5 0.0000 0.0000 0.0000 0.0000 30.5417 0.0000
# 6 0.0000 0.0000 0.0000 0.0000 0.0000 7.7069
#
#
#
# Elastic Compliance Matrix: (Units=1/GPa)
#
#
# Indices 1 2 3 4 5 6 
#
# 1 0.012329 0.000455 -0.004998 0.000000 0.000000 0.000000
# 2 0.000455 0.012440 -0.007093 0.000000 0.000000 0.000000
# 3 -0.004998 -0.007093 0.017117 0.000000 0.000000 0.000000
# 4 0.000000 0.000000 0.000000 -0.131512 0.000000 0.000000
# 5 0.000000 0.000000 0.000000 0.000000 0.032742 0.000000
# 6 0.000000 0.000000 0.000000 0.000000 0.000000 0.129754
#
#
# Mechanical properties :
#
#
# Convention : Reuss Voigt Hill
#
# Bulk Modulus (GPa) = 53.71952 54.51528 54.11740
# Shear Modulus (GPa) = 48.85391 18.90007 33.87699
#
# Velocity S-wave (km/s) = 4.86263 3.02450 4.04925
# Velocity P-wave (km/s) = 7.58466 6.21145 6.93214
#
# Compressibility (1/GPa) = 0.01861521
#
# Stress axis : x y z
#
# Youngs Moduli (GPa) = 81.11204 80.38332 58.42090
#
# Poissons Ratio (x) = -0.03661 0.29200
# Poissons Ratio (y) = -0.03694 0.41436
# Poissons Ratio (z) = 0.40542 0.57013
#
# Static dielectric constant tensor:
#      x y z
#    x 4.803730 0.000000 0.000000 
#    y 0.000000 3.450230 0.000000 
#    z 0.000000 0.000000 4.183070 
# 
# 
# High freq. dielectric constant tensor:
#      x y z
#    x 1.838000 0.000000 0.000000 
#    y 0.000000 1.791080 0.000000 
#    z 0.000000 0.000000 1.788720 
# 
# From -- ./inp_files/18543.got.cif
#   From: 2010.03.12/outbox.cif.g09.slc.cpg/sg60_10_cif.got.tgz:18543.got - 2010.04.10 18:46:24.
