data_PCOD8246513
_publ_section_title
;
Structure prediction by ZEFSAII (Michael W. Deem and Ramdas Pophale) SiO2 
 PCOD8246513
Probable space group: P B C N
;
_chemical_formula_sum "Si O2"
_cell_formula_units_Z 60
_cell_length_a 18.016896
_cell_length_b 15.192391
_cell_length_c 11.377976
_cell_angle_alpha 90.000000
_cell_angle_beta 90.000000
_cell_angle_gamma 90.000000
_cell_volume 3114.376503
_symmetry_space_group_name_H-M "P B C N"
_symmetry_group_IT_number 60
_symmetry_cell_setting 'orthorhombic'
loop_
_space_group_symop_operation_xyz
x,y,z
1/2-x,1/2-y,1/2+z
1/2+x,1/2-y,-z
-x,y,1/2-z
-x,-y,-z
1/2+x,1/2+y,1/2-z
1/2-x,1/2+y,z
x,-y,1/2+z
loop_
_atom_site_type_symbol
_atom_site_label
_atom_site_fract_x
_atom_site_fract_y
_atom_site_fract_z
Si Si1 0.404912 0.316155 0.347296
Si Si2 0.556842 0.256501 0.412134
Si Si3 0.500000 0.801997 0.250000
Si Si4 0.168742 0.862309 0.945190
Si Si5 0.827873 0.693221 0.996328
Si Si6 0.584107 0.467250 0.000714
Si Si7 0.515362 0.897752 0.484993
Si Si8 0.869622 0.825381 0.810504
O O1 0.475909 0.299605 0.435101
O O2 0.417474 0.292133 0.213467
O O3 0.337212 0.255638 0.389647
O O4 0.392568 0.419211 0.375536
O O5 0.617604 0.281095 0.509818
O O6 0.536702 0.152218 0.417681
O O7 0.485858 0.865658 0.359598
O O8 0.566745 0.736152 0.263356
O O9 0.171942 0.864644 0.803532
O O10 0.136295 0.948627 0.005687
O O11 0.252010 0.859357 0.993294
O O12 0.896651 0.624402 0.992392
O O13 0.818241 0.759181 0.885654
O O14 0.500000 0.500000 0.000000
O O15 0.600180 0.406080 0.888278
O O16 0.500000 0.000000 0.500000
#
# Coordination Sequence:
#
# PCOD8246513 Si02
#       8
#     8   8   4   8   8   8   8   8
#     4   9  20  40  60  87 127 162 199 259 307 374
#     4  10  20  37  65  89 118 165 206 246 321 373
#     4  10  18  40  66  88 116 164 206 258 314 372
#     4  12  23  38  61  94 123 167 210 253 322 384
#     4   9  23  42  59  87 127 161 206 255 314 374
#     4  11  22  38  63  98 126 162 209 264 309 383
#     4  10  21  41  64  93 116 159 217 264 301 368
#     4  10  22  41  63  88 128 168 206 255 318 389
#
# _framework density 19.265491999999998
#
# number of rings (size 3 to 8) (size 9 to 14) (size 15 to 20)
#    0.000    1.867    2.667    1.600    3.733    2.133 
#    4.800    2.667    0.000    0.000    0.000    0.000 
#    0.000    0.000    0.000    0.000    0.000    0.000 
#
# Total GULP energy -743435.472357 kJ/mol
# GULP energy per Si atom -12390.591206 kJ/mol
# Density = 1.922164 g / cm^3
# Si number density = 19.265492 Si / 1000 Ang^3
#
#
#
# Elastic Constant Matrix: (Units=GPa)
#
#
# Indices 1 2 3 4 5 6 
#
# 1 109.9170 65.1227 50.1948 0.0000 0.0000 0.0000
# 2 65.1227 144.7798 48.3941 0.0000 0.0000 0.0000
# 3 50.1948 48.3941 113.8404 0.0000 0.0000 0.0000
# 4 0.0000 0.0000 0.0000 29.2902 0.0000 0.0000
# 5 0.0000 0.0000 0.0000 0.0000 23.8690 0.0000
# 6 0.0000 0.0000 0.0000 0.0000 0.0000 34.5601
#
#
#
# Elastic Compliance Matrix: (Units=1/GPa)
#
#
# Indices 1 2 3 4 5 6 
#
# 1 0.013822 -0.004872 -0.004023 0.000000 0.000000 0.000000
# 2 -0.004872 0.009769 -0.002004 0.000000 0.000000 0.000000
# 3 -0.004023 -0.002004 0.011410 0.000000 0.000000 0.000000
# 4 0.000000 0.000000 0.000000 0.034141 0.000000 0.000000
# 5 0.000000 0.000000 0.000000 0.000000 0.041895 0.000000
# 6 0.000000 0.000000 0.000000 0.000000 0.000000 0.028935
#
#
# Mechanical properties :
#
#
# Convention : Reuss Voigt Hill
#
# Bulk Modulus (GPa) = 75.75201 77.32892 76.54047
# Shear Modulus (GPa) = 30.08935 31.19889 30.64412
#
# Velocity S-wave (km/s) = 3.95628 4.02857 3.99259
# Velocity P-wave (km/s) = 7.76370 7.86542 7.81472
#
# Compressibility (1/GPa) = 0.01320097
#
# Stress axis : x y z
#
# Youngs Moduli (GPa) = 72.35034 102.36867 87.64139
#
# Poissons Ratio (x) = 0.49877 0.35258
# Poissons Ratio (y) = 0.35251 0.17567
# Poissons Ratio (z) = 0.29107 0.20519
#
# Static dielectric constant tensor:
#      x y z
#    x 3.372020 0.000000 0.000000 
#    y 0.000000 3.568740 0.000000 
#    z 0.000000 0.000000 3.597970 
# 
# 
# High freq. dielectric constant tensor:
#      x y z
#    x 1.729960 0.000000 0.000000 
#    y 0.000000 1.748690 0.000000 
#    z 0.000000 0.000000 1.758570 
# 
# From -- ./inp_files/12516.got.cif
#   From: 2010.03.12/outbox.cif.g09.slc.cpg/sg60_7_cif.got.tgz:12516.got - 2010.04.10 18:46:24.
