data_PCOD8246085
_publ_section_title
;
Structure prediction by ZEFSAII (Michael W. Deem and Ramdas Pophale) SiO2 
 PCOD8246085
Probable space group: P M M N
;
_chemical_formula_sum "Si O2"
_cell_formula_units_Z 48
_cell_length_a 8.848788
_cell_length_b 23.089587
_cell_length_c 12.507663
_cell_angle_alpha 90.000000
_cell_angle_beta 90.000000
_cell_angle_gamma 90.000000
_cell_volume 2555.501419
_symmetry_space_group_name_H-M "P M M N"
_symmetry_group_IT_number 59
_space_group.IT_coordinate_system_code '2'
_symmetry_cell_setting 'orthorhombic'
loop_
_space_group_symop_operation_xyz
x,y,z
1/2-x,1/2-y,z
1/2+x,-y,-z
-x,1/2+y,-z
-x,-y,-z
1/2+x,1/2+y,-z
1/2-x,y,z
x,1/2-y,z
loop_
_atom_site_type_symbol
_atom_site_label
_atom_site_fract_x
_atom_site_fract_y
_atom_site_fract_z
Si Si1 0.075873 0.683359 0.387630
Si Si2 0.426941 0.001906 0.884158
Si Si3 0.425693 0.371333 0.805853
Si Si4 0.924340 0.182912 0.002623
Si Si5 0.423784 0.683111 0.632684
Si Si6 0.572760 0.610644 0.812158
O O1 0.250000 0.673716 0.356537
O O2 0.030411 0.750000 0.369978
O O3 0.048216 0.665531 0.510228
O O4 0.970631 0.642864 0.315576
O O5 0.250000 0.992625 0.897731
O O6 0.466457 0.062174 0.827628
O O7 0.493553 0.951734 0.809341
O O8 0.500000 0.000000 0.000000
O O9 0.250000 0.358903 0.824395
O O10 0.521124 0.329542 0.882795
O O11 0.750000 0.165042 0.014456
O O12 0.947937 0.250000 0.029572
O O13 0.022725 0.145676 0.083636
O O14 0.250000 0.672340 0.665415
O O15 0.465414 0.750000 0.651422
O O16 0.531682 0.644328 0.704660
O O17 0.750000 0.601152 0.818612
#
# Coordination Sequence:
#
# PCOD8246085 Si02
#       6
#     8   8   8   8   8   8
#     4   9  19  37  61  87 116 153 193 231 281 346
#     4  11  23  40  60  82 112 154 197 238 287 344
#     4  11  23  37  57  86 116 147 189 239 289 340
#     4  11  23  37  56  82 114 152 189 230 285 347
#     4   9  19  38  62  86 115 153 194 235 283 342
#     4  12  24  37  57  86 116 149 191 239 291 343
#
# _framework density 18.783006
#
# number of rings (size 3 to 8) (size 9 to 14) (size 15 to 20)
#    0.000    1.500    1.667    5.000    0.000    8.667 
#    0.000    2.500    0.000    0.000    0.000    0.000 
#    0.000    0.000    0.000    0.000    0.000    0.000 
#
# Total GULP energy -595481.987757 kJ/mol
# GULP energy per Si atom -12405.874745 kJ/mol
# Density = 1.874026 g / cm^3
# Si number density = 18.783006 Si / 1000 Ang^3
#
#
#
# Elastic Constant Matrix: (Units=GPa)
#
#
# Indices 1 2 3 4 5 6 
#
# 1 94.5619 48.0663 34.3442 0.0000 0.0000 0.0000
# 2 48.0663 84.5535 38.9890 0.0000 0.0000 0.0000
# 3 34.3442 38.9890 92.3484 0.0000 0.0000 0.0000
# 4 0.0000 0.0000 0.0000 26.1800 0.0000 0.0000
# 5 0.0000 0.0000 0.0000 0.0000 37.1847 0.0000
# 6 0.0000 0.0000 0.0000 0.0000 0.0000 30.8586
#
#
#
# Elastic Compliance Matrix: (Units=1/GPa)
#
#
# Indices 1 2 3 4 5 6 
#
# 1 0.015327 -0.007556 -0.002510 0.000000 0.000000 0.000000
# 2 -0.007556 0.018410 -0.004963 0.000000 0.000000 0.000000
# 3 -0.002510 -0.004963 0.013857 0.000000 0.000000 0.000000
# 4 0.000000 0.000000 0.000000 0.038197 0.000000 0.000000
# 5 0.000000 0.000000 0.000000 0.000000 0.026893 0.000000
# 6 0.000000 0.000000 0.000000 0.000000 0.000000 0.032406
#
#
# Mechanical properties :
#
#
# Convention : Reuss Voigt Hill
#
# Bulk Modulus (GPa) = 57.02008 57.14031 57.08019
# Shear Modulus (GPa) = 27.62515 28.84894 28.23705
#
# Velocity S-wave (km/s) = 3.83920 3.92332 3.88149
# Velocity P-wave (km/s) = 7.07642 7.14217 7.10937
#
# Compressibility (1/GPa) = 0.01753768
#
# Stress axis : x y z
#
# Youngs Moduli (GPa) = 65.24275 54.31689 72.16351
#
# Poissons Ratio (x) = 0.41040 0.18115
# Poissons Ratio (y) = 0.49295 0.35814
# Poissons Ratio (z) = 0.16378 0.26957
#
# Static dielectric constant tensor:
#      x y z
#    x 3.463350 0.000000 0.000000 
#    y 0.000000 4.940900 0.000000 
#    z 0.000000 0.000000 3.470230 
# 
# 
# High freq. dielectric constant tensor:
#      x y z
#    x 1.736210 0.000000 0.000000 
#    y 0.000000 1.730530 0.000000 
#    z 0.000000 0.000000 1.730300 
# 
# From -- ./inp_files/14360.got.cif
#   From: 2010.03.12/outbox.cif.g09.slc.cpg/sg59_8_cif.got.tgz:14360.got - 2010.04.16 16:29:54.
