data_PCOD8246745
_publ_section_title
;
Structure prediction by ZEFSAII (Michael W. Deem and Ramdas Pophale) SiO2 
 PCOD8246745
Probable space group: P B C N
;
_chemical_formula_sum "Si O2"
_cell_formula_units_Z 60
_cell_length_a 12.171428
_cell_length_b 13.532003
_cell_length_c 18.300927
_cell_angle_alpha 90.000000
_cell_angle_beta 90.000000
_cell_angle_gamma 90.000000
_cell_volume 3014.232224
_symmetry_space_group_name_H-M "P B C N"
_symmetry_group_IT_number 60
_symmetry_cell_setting 'orthorhombic'
loop_
_space_group_symop_operation_xyz
x,y,z
1/2-x,1/2-y,1/2+z
1/2+x,1/2-y,-z
-x,y,1/2-z
-x,-y,-z
1/2+x,1/2+y,1/2-z
1/2-x,1/2+y,z
x,-y,1/2+z
loop_
_atom_site_type_symbol
_atom_site_label
_atom_site_fract_x
_atom_site_fract_y
_atom_site_fract_z
Si Si1 0.475100 0.626274 0.635259
Si Si2 0.566698 0.829721 0.681897
Si Si3 0.221208 0.875844 0.036628
Si Si4 0.184916 0.857863 0.823305
Si Si5 0.650180 0.793885 0.062558
Si Si6 0.000000 0.040802 0.250000
Si Si7 0.325848 0.538164 0.934064
Si Si8 0.956235 0.392608 0.512933
O O1 0.519685 0.718808 0.680384
O O2 0.350815 0.650192 0.608067
O O3 0.472015 0.527115 0.681613
O O4 0.564275 0.604677 0.571174
O O5 0.500000 0.882312 0.750000
O O6 0.694038 0.829834 0.705390
O O7 0.558245 0.878031 0.600690
O O8 0.220769 0.785173 0.981129
O O9 0.351576 0.888840 0.041648
O O10 0.168480 0.979760 0.010258
O O11 0.130129 0.760292 0.860022
O O12 0.105536 0.888030 0.757275
O O13 0.190441 0.955048 0.873196
O O14 0.717798 0.894301 0.071523
O O15 0.538094 0.810420 0.018470
O O16 0.000000 0.500000 0.500000
#
# Coordination Sequence:
#
# PCOD8246745 Si02
#       8
#     8   8   8   8   8   4   8   8
#     4  11  21  39  64  94 127 169 221 267 333 398
#     4  12  23  41  67  91 129 179 212 264 342 415
#     4  11  22  36  62  95 123 166 216 271 326 386
#     4  10  22  43  63  89 124 172 218 263 336 388
#     4  11  20  38  66  88 130 165 213 270 325 386
#     4  10  24  44  62  92 130 168 222 280 320 404
#     4  10  19  38  65  88 122 167 207 274 327 381
#     4  12  23  42  65  99 134 168 225 282 331 399
#
# _framework density 19.905566
#
# number of rings (size 3 to 8) (size 9 to 14) (size 15 to 20)
#    0.000    1.067    7.333    0.400    0.000    1.067 
#    2.400    0.000    5.867    0.000    0.000    0.000 
#    0.000    0.000    0.000    0.000    0.000    0.000 
#
# Total GULP energy -743351.686065 kJ/mol
# GULP energy per Si atom -12389.194768 kJ/mol
# Density = 1.986026 g / cm^3
# Si number density = 19.905566 Si / 1000 Ang^3
#
#
#
# Elastic Constant Matrix: (Units=GPa)
#
#
# Indices 1 2 3 4 5 6 
#
# 1 152.7707 37.6441 50.5594 0.0000 0.0000 0.0000
# 2 37.6441 83.0226 23.2182 0.0000 0.0000 0.0000
# 3 50.5594 23.2182 62.6589 0.0000 0.0000 0.0000
# 4 0.0000 0.0000 0.0000 21.7678 0.0000 0.0000
# 5 0.0000 0.0000 0.0000 0.0000 33.0278 0.0000
# 6 0.0000 0.0000 0.0000 0.0000 0.0000 35.2555
#
#
#
# Elastic Compliance Matrix: (Units=1/GPa)
#
#
# Indices 1 2 3 4 5 6 
#
# 1 0.009331 -0.002371 -0.006651 0.000000 0.000000 0.000000
# 2 -0.002371 0.014040 -0.003289 0.000000 0.000000 0.000000
# 3 -0.006651 -0.003289 0.022545 0.000000 0.000000 0.000000
# 4 0.000000 0.000000 0.000000 0.045939 0.000000 0.000000
# 5 0.000000 0.000000 0.000000 0.000000 0.030278 0.000000
# 6 0.000000 0.000000 0.000000 0.000000 0.000000 0.028364
#
#
# Mechanical properties :
#
#
# Convention : Reuss Voigt Hill
#
# Bulk Modulus (GPa) = 46.96224 57.92174 52.44199
# Shear Modulus (GPa) = 27.43985 30.47890 28.95938
#
# Velocity S-wave (km/s) = 3.71685 3.91727 3.81837
# Velocity P-wave (km/s) = 6.48565 7.04425 6.77071
#
# Compressibility (1/GPa) = 0.02129370
#
# Stress axis : x y z
#
# Youngs Moduli (GPa) = 107.16958 71.22586 44.35631
#
# Poissons Ratio (x) = 0.16887 0.29500
# Poissons Ratio (y) = 0.25409 0.14590
# Poissons Ratio (z) = 0.71275 0.23429
#
# Static dielectric constant tensor:
#      x y z
#    x 3.890800 0.000000 0.000000 
#    y 0.000000 3.771410 0.000000 
#    z 0.000000 0.000000 3.596620 
# 
# 
# High freq. dielectric constant tensor:
#      x y z
#    x 1.785930 0.000000 0.000000 
#    y 0.000000 1.787680 0.000000 
#    z 0.000000 0.000000 1.747530 
# 
# From -- ./inp_files/22687.got.cif
#   From: 2010.03.12/outbox.cif.g09.slc.cpg/sg60_12_cif.got.tgz:22687.got - 2010.04.10 18:46:24.
