data_PCOD8246114
_publ_section_title
;
Structure prediction by ZEFSAII (Michael W. Deem and Ramdas Pophale) SiO2 
 PCOD8246114
Probable space group: P M M N
;
_chemical_formula_sum "Si O2"
_cell_formula_units_Z 40
_cell_length_a 9.324903
_cell_length_b 14.765954
_cell_length_c 14.631016
_cell_angle_alpha 90.000000
_cell_angle_beta 90.000000
_cell_angle_gamma 90.000000
_cell_volume 2014.560523
_symmetry_space_group_name_H-M "P M M N"
_symmetry_group_IT_number 59
_space_group.IT_coordinate_system_code '2'
_symmetry_cell_setting 'orthorhombic'
loop_
_space_group_symop_operation_xyz
x,y,z
1/2-x,1/2-y,z
1/2+x,-y,-z
-x,1/2+y,-z
-x,-y,-z
1/2+x,1/2+y,-z
1/2-x,y,z
x,1/2-y,z
loop_
_atom_site_type_symbol
_atom_site_label
_atom_site_fract_x
_atom_site_fract_y
_atom_site_fract_z
Si Si1 0.408733 0.142596 0.577412
Si Si2 0.081861 0.507149 0.094388
Si Si3 0.416195 0.144003 0.782386
Si Si4 0.414968 0.353196 0.235859
Si Si5 0.410250 0.642262 0.589824
O O1 0.250000 0.103638 0.558271
O O2 0.403357 0.250000 0.570494
O O3 0.458894 0.115013 0.679112
O O4 0.516098 0.102181 0.501548
O O5 0.250000 0.522840 0.077352
O O6 0.052778 0.413773 0.147787
O O7 0.020165 0.591751 0.149692
O O8 0.000000 0.500000 0.000000
O O9 0.250000 0.119972 0.801750
O O10 0.442566 0.250000 0.797758
O O11 0.250000 0.359171 0.265907
O O12 0.457674 0.250000 0.211104
O O13 0.506705 0.391344 0.320446
O O14 0.250000 0.603282 0.594479
O O15 0.411317 0.750000 0.586166
#
# Coordination Sequence:
#
# PCOD8246114 Si02
#       5
#     8   8   8   8   8
#     4   8  14  27  49  76 107 145 183 215 256 317
#     4  11  24  40  59  83 109 140 182 233 286 335
#     4   9  19  37  60  84 112 148 186 224 271 327
#     4   9  19  37  58  78 105 144 185 222 266 325
#     4   9  16  26  46  79 113 142 175 219 268 315
#
# _framework density 19.855447999999999
#
# number of rings (size 3 to 8) (size 9 to 14) (size 15 to 20)
#    0.000    2.800    0.000    2.400    0.000    6.000 
#    0.000    5.000    0.000    0.000    0.000    0.000 
#    0.000    0.000    0.000    0.000    0.000    0.000 
#
# Total GULP energy -495948.313678 kJ/mol
# GULP energy per Si atom -12398.707842 kJ/mol
# Density = 1.981026 g / cm^3
# Si number density = 19.855448 Si / 1000 Ang^3
#
#
#
# Elastic Constant Matrix: (Units=GPa)
#
#
# Indices 1 2 3 4 5 6 
#
# 1 144.2510 47.2471 111.9208 0.0000 0.0000 0.0000
# 2 47.2471 66.7272 49.9156 0.0000 0.0000 0.0000
# 3 111.9208 49.9156 180.6527 0.0000 0.0000 0.0000
# 4 0.0000 0.0000 0.0000 159.6182 0.0000 0.0000
# 5 0.0000 0.0000 0.0000 0.0000 41.7799 0.0000
# 6 0.0000 0.0000 0.0000 0.0000 0.0000 20.3172
#
#
#
# Elastic Compliance Matrix: (Units=1/GPa)
#
#
# Indices 1 2 3 4 5 6 
#
# 1 0.014310 -0.004413 -0.007647 0.000000 0.000000 0.000000
# 2 -0.004413 0.020252 -0.002862 0.000000 0.000000 0.000000
# 3 -0.007647 -0.002862 0.011064 0.000000 0.000000 0.000000
# 4 0.000000 0.000000 0.000000 0.006265 0.000000 0.000000
# 5 0.000000 0.000000 0.000000 0.000000 0.023935 0.000000
# 6 0.000000 0.000000 0.000000 0.000000 0.000000 0.049219
#
#
# Mechanical properties :
#
#
# Convention : Reuss Voigt Hill
#
# Bulk Modulus (GPa) = 63.35747 89.97753 76.66750
# Shear Modulus (GPa) = 31.22105 56.51288 43.86697
#
# Velocity S-wave (km/s) = 3.96967 5.34078 4.70544
# Velocity P-wave (km/s) = 7.27940 9.13491 8.25943
#
# Compressibility (1/GPa) = 0.01578346
#
# Stress axis : x y z
#
# Youngs Moduli (GPa) = 69.87905 49.37864 90.38672
#
# Poissons Ratio (x) = 0.21789 0.69115
# Poissons Ratio (y) = 0.30835 0.25868
# Poissons Ratio (z) = 0.53434 0.14132
#
# Static dielectric constant tensor:
#      x y z
#    x 3.833360 0.000000 0.000000 
#    y 0.000000 3.392680 0.000000 
#    z 0.000000 0.000000 3.673720 
# 
# 
# High freq. dielectric constant tensor:
#      x y z
#    x 1.774690 0.000000 0.000000 
#    y 0.000000 1.763320 0.000000 
#    z 0.000000 0.000000 1.773810 
# 
# From -- ./inp_files/13877.got.cif
#   From: 2010.03.12/outbox.cif.g09.slc.cpg/sg59_7_cif.got.tgz:13877.got - 2010.04.16 16:29:54.
