data_PCOD8246677
_publ_section_title
;
Structure prediction by ZEFSAII (Michael W. Deem and Ramdas Pophale) SiO2 
 PCOD8246677
Probable space group: P B C N
;
_chemical_formula_sum "Si O2"
_cell_formula_units_Z 64
_cell_length_a 9.270333
_cell_length_b 18.885711
_cell_length_c 18.802687
_cell_angle_alpha 90.000000
_cell_angle_beta 90.000000
_cell_angle_gamma 90.000000
_cell_volume 3291.914834
_symmetry_space_group_name_H-M "P B C N"
_symmetry_group_IT_number 60
_symmetry_cell_setting 'orthorhombic'
loop_
_space_group_symop_operation_xyz
x,y,z
1/2-x,1/2-y,1/2+z
1/2+x,1/2-y,-z
-x,y,1/2-z
-x,-y,-z
1/2+x,1/2+y,1/2-z
1/2-x,1/2+y,z
x,-y,1/2+z
loop_
_atom_site_type_symbol
_atom_site_label
_atom_site_fract_x
_atom_site_fract_y
_atom_site_fract_z
Si Si1 0.337321 0.456829 0.400195
Si Si2 0.571865 0.329686 0.004492
Si Si3 0.244807 0.643142 0.122485
Si Si4 0.842972 0.647361 0.228416
Si Si5 0.426252 0.815870 0.916549
Si Si6 0.282952 0.407933 0.994594
Si Si7 0.840007 0.519629 0.730216
Si Si8 0.660166 0.516538 0.865854
O O1 0.344458 0.388332 0.449816
O O2 0.291760 0.522181 0.448068
O O3 0.215276 0.441983 0.341099
O O4 0.487902 0.475522 0.361724
O O5 0.550034 0.262364 0.054519
O O6 0.663759 0.309959 0.933361
O O7 0.418487 0.357609 0.978314
O O8 0.265858 0.667368 0.205931
O O9 0.296400 0.562761 0.113007
O O10 0.075988 0.647898 0.105247
O O11 0.814722 0.684400 0.151668
O O12 0.838765 0.563734 0.215952
O O13 0.000000 0.674277 0.250000
O O14 0.361142 0.864638 0.978243
O O15 0.277260 0.429061 0.076691
O O16 0.729107 0.540230 0.791967
O O17 0.000000 0.546434 0.750000
#
# Coordination Sequence:
#
# PCOD8246677 Si02
#       8
#     8   8   8   8   8   8   8   8
#     4  11  20  38  60  84 118 156 196 242 297 355
#     4  11  22  39  56  85 120 160 194 242 293 366
#     4  10  19  36  58  82 113 149 197 248 288 348
#     4   8  17  33  53  79 108 141 187 233 288 346
#     4  11  22  36  58  86 117 154 197 244 305 345
#     4  11  21  38  59  87 116 153 202 239 297 361
#     4  10  20  35  58  91 117 145 196 253 294 340
#     4  10  20  36  58  86 117 149 197 240 298 348
#
# _framework density 19.441573000000002
#
# number of rings (size 3 to 8) (size 9 to 14) (size 15 to 20)
#    0.000    1.750    3.750    2.625    0.000    1.500 
#    0.000    9.375    0.000    0.000    0.000    0.000 
#    0.000    0.000    0.000    0.000    0.000    0.000 
#
# Total GULP energy -793383.963751 kJ/mol
# GULP energy per Si atom -12396.624434 kJ/mol
# Density = 1.939732 g / cm^3
# Si number density = 19.441573 Si / 1000 Ang^3
#
#
#
# Elastic Constant Matrix: (Units=GPa)
#
#
# Indices 1 2 3 4 5 6 
#
# 1 50.9657 14.9966 15.9650 0.0000 0.0000 0.0000
# 2 14.9966 51.4100 13.5147 0.0000 0.0000 0.0000
# 3 15.9650 13.5147 75.5012 0.0000 0.0000 0.0000
# 4 0.0000 0.0000 0.0000 19.4386 0.0000 0.0000
# 5 0.0000 0.0000 0.0000 0.0000 36.6142 0.0000
# 6 0.0000 0.0000 0.0000 0.0000 0.0000 2.5797
#
#
#
# Elastic Compliance Matrix: (Units=1/GPa)
#
#
# Indices 1 2 3 4 5 6 
#
# 1 0.022431 -0.005558 -0.003748 0.000000 0.000000 0.000000
# 2 -0.005558 0.021789 -0.002725 0.000000 0.000000 0.000000
# 3 -0.003748 -0.002725 0.014525 0.000000 0.000000 0.000000
# 4 0.000000 0.000000 0.000000 0.051444 0.000000 0.000000
# 5 0.000000 0.000000 0.000000 0.000000 0.027312 0.000000
# 6 0.000000 0.000000 0.000000 0.000000 0.000000 0.387636
#
#
# Mechanical properties :
#
#
# Convention : Reuss Voigt Hill
#
# Bulk Modulus (GPa) = 28.83278 29.64774 29.24026
# Shear Modulus (GPa) = 8.91647 20.61987 14.76817
#
# Velocity S-wave (km/s) = 2.14389 3.26023 2.75911
# Velocity P-wave (km/s) = 4.58159 5.42724 5.02225
#
# Compressibility (1/GPa) = 0.03468275
#
# Stress axis : x y z
#
# Youngs Moduli (GPa) = 44.58208 45.89456 68.84598
#
# Poissons Ratio (x) = 0.25507 0.25805
# Poissons Ratio (y) = 0.24778 0.18761
# Poissons Ratio (z) = 0.16710 0.12506
#
# Static dielectric constant tensor:
#      x y z
#    x 3.533140 0.000000 0.000000 
#    y 0.000000 3.374550 0.000000 
#    z 0.000000 0.000000 3.255320 
# 
# 
# High freq. dielectric constant tensor:
#      x y z
#    x 1.748220 0.000000 0.000000 
#    y 0.000000 1.722550 0.000000 
#    z 0.000000 0.000000 1.777380 
# 
# From -- ./inp_files/19679.got.cif
#   From: 2010.03.12/outbox.cif.g09.slc.cpg/sg60_10_cif.got.tgz:19679.got - 2010.04.10 18:46:24.
