data_PCOD8246410
_publ_section_title
;
Structure prediction by ZEFSAII (Michael W. Deem and Ramdas Pophale) SiO2 
 PCOD8246410
Probable space group: P B C N
;
_chemical_formula_sum "Si O2"
_cell_formula_units_Z 48
_cell_length_a 11.657803
_cell_length_b 11.614779
_cell_length_c 17.483036
_cell_angle_alpha 90.000000
_cell_angle_beta 90.000000
_cell_angle_gamma 90.000000
_cell_volume 2367.252123
_symmetry_space_group_name_H-M "P B C N"
_symmetry_group_IT_number 60
_symmetry_cell_setting 'orthorhombic'
loop_
_space_group_symop_operation_xyz
x,y,z
1/2-x,1/2-y,1/2+z
1/2+x,1/2-y,-z
-x,y,1/2-z
-x,-y,-z
1/2+x,1/2+y,1/2-z
1/2-x,1/2+y,z
x,-y,1/2+z
loop_
_atom_site_type_symbol
_atom_site_label
_atom_site_fract_x
_atom_site_fract_y
_atom_site_fract_z
Si Si1 0.483414 0.154532 0.922035
Si Si2 0.690196 0.292796 0.884320
Si Si3 0.569353 0.906288 0.589205
Si Si4 0.905350 0.025845 0.936162
Si Si5 0.279970 0.306487 0.967917
Si Si6 0.428629 0.268592 0.174372
O O1 0.587714 0.201242 0.869684
O O2 0.393802 0.258842 0.928079
O O3 0.423919 0.040789 0.886917
O O4 0.534233 0.116149 0.002466
O O5 0.637433 0.421953 0.881172
O O6 0.790629 0.260336 0.822659
O O7 0.734598 0.288746 0.972250
O O8 0.691816 0.841937 0.599402
O O9 0.477426 0.851240 0.644620
O O10 0.955244 0.125799 0.881808
O O11 0.798301 0.077059 0.982887
O O12 0.000000 0.000000 0.000000
O O13 0.500000 0.299932 0.250000
#
# Coordination Sequence:
#
# PCOD8246410 Si02
#       6
#     8   8   8   8   8   8
#     4  10  18  34  59  95 120 154 209 270 324 376
#     4  10  20  34  61  89 125 164 212 263 329 390
#     4  10  20  34  58  86 128 161 204 259 322 383
#     4  11  19  37  65  97 125 161 219 282 334 388
#     4  10  18  32  57  99 124 152 200 272 329 382
#     4  11  25  42  59  89 130 180 220 263 337 412
#
# _framework density 20.276672999999999
#
# number of rings (size 3 to 8) (size 9 to 14) (size 15 to 20)
#    0.000    1.667    5.000    2.000    7.000    0.000 
#    0.000    3.333    0.000    0.000    0.000    0.000 
#    0.000    0.000    0.000    0.000    0.000    0.000 
#
# Total GULP energy -594721.384695 kJ/mol
# GULP energy per Si atom -12390.028848 kJ/mol
# Density = 2.023052 g / cm^3
# Si number density = 20.276673 Si / 1000 Ang^3
#
#
#
# Elastic Constant Matrix: (Units=GPa)
#
#
# Indices 1 2 3 4 5 6 
#
# 1 128.6074 54.7080 25.0421 0.0000 0.0000 0.0000
# 2 54.7080 122.8287 30.1514 0.0000 0.0000 0.0000
# 3 25.0421 30.1514 34.8797 0.0000 0.0000 0.0000
# 4 0.0000 0.0000 0.0000 3.1145 0.0000 0.0000
# 5 0.0000 0.0000 0.0000 0.0000 28.0904 0.0000
# 6 0.0000 0.0000 0.0000 0.0000 0.0000 31.0257
#
#
#
# Elastic Compliance Matrix: (Units=1/GPa)
#
#
# Indices 1 2 3 4 5 6 
#
# 1 0.010067 -0.003440 -0.004254 0.000000 0.000000 0.000000
# 2 -0.003440 0.011510 -0.007480 0.000000 0.000000 0.000000
# 3 -0.004254 -0.007480 0.038190 0.000000 0.000000 0.000000
# 4 0.000000 0.000000 0.000000 0.321078 0.000000 0.000000
# 5 0.000000 0.000000 0.000000 0.000000 0.035599 0.000000
# 6 0.000000 0.000000 0.000000 0.000000 0.000000 0.032231
#
#
# Mechanical properties :
#
#
# Convention : Reuss Voigt Hill
#
# Bulk Modulus (GPa) = 33.99133 56.23543 45.11338
# Shear Modulus (GPa) = 10.22852 24.20708 17.21780
#
# Velocity S-wave (km/s) = 2.24843 3.45895 2.91717
# Velocity P-wave (km/s) = 4.85188 6.61413 5.80032
#
# Compressibility (1/GPa) = 0.02941926
#
# Stress axis : x y z
#
# Youngs Moduli (GPa) = 99.33280 86.88469 26.18466
#
# Poissons Ratio (x) = 0.29884 0.11140
# Poissons Ratio (y) = 0.34166 0.19586
# Poissons Ratio (z) = 0.42261 0.64988
#
# Static dielectric constant tensor:
#      x y z
#    x 4.069660 0.000000 0.000000 
#    y 0.000000 4.016880 0.000000 
#    z 0.000000 0.000000 3.182960 
# 
# 
# High freq. dielectric constant tensor:
#      x y z
#    x 1.807750 0.000000 0.000000 
#    y 0.000000 1.808550 0.000000 
#    z 0.000000 0.000000 1.716060 
# 
# From -- ./inp_files/20028.got.cif
#   From: 2010.03.12/outbox.cif.g09.slc.cpg/sg60_11_cif.got.tgz:20028.got - 2010.04.10 18:46:24.
