data_PCOD8246445
_publ_section_title
;
Structure prediction by ZEFSAII (Michael W. Deem and Ramdas Pophale) SiO2 
 PCOD8246445
Probable space group: P B C N
;
_chemical_formula_sum "Si O2"
_cell_formula_units_Z 56
_cell_length_a 15.853031
_cell_length_b 12.779999
_cell_length_c 14.129694
_cell_angle_alpha 90.000000
_cell_angle_beta 90.000000
_cell_angle_gamma 90.000000
_cell_volume 2862.700312
_symmetry_space_group_name_H-M "P B C N"
_symmetry_group_IT_number 60
_symmetry_cell_setting 'orthorhombic'
loop_
_space_group_symop_operation_xyz
x,y,z
1/2-x,1/2-y,1/2+z
1/2+x,1/2-y,-z
-x,y,1/2-z
-x,-y,-z
1/2+x,1/2+y,1/2-z
1/2-x,1/2+y,z
x,-y,1/2+z
loop_
_atom_site_type_symbol
_atom_site_label
_atom_site_fract_x
_atom_site_fract_y
_atom_site_fract_z
Si Si1 0.276106 0.756031 0.900904
Si Si2 0.554102 0.841196 0.887126
Si Si3 0.146332 0.592376 0.933688
Si Si4 0.614306 0.095329 0.197013
Si Si5 0.787108 0.947906 0.505358
Si Si6 0.102319 0.925465 0.366966
Si Si7 0.088483 0.894203 0.146968
O O1 0.189174 0.692649 0.882717
O O2 0.299613 0.837658 0.816274
O O3 0.256509 0.833181 0.989219
O O4 0.353035 0.674686 0.917697
O O5 0.455165 0.837645 0.862370
O O6 0.595264 0.918281 0.808048
O O7 0.595565 0.728797 0.871641
O O8 0.570011 0.878266 0.994991
O O9 0.115708 0.519775 0.848192
O O10 0.214817 0.535271 0.999966
O O11 0.841231 0.956747 0.410564
O O12 0.850043 0.970952 0.594656
O O13 0.111370 0.917530 0.254608
O O14 0.003052 0.932558 0.388987
#
# Coordination Sequence:
#
# PCOD8246445 Si02
#       7
#     8   8   8   8   8   8   8
#     4  10  18  35  50  82 112 143 176 221 282 312
#     4  11  19  37  61  82 105 147 193 220 266 333
#     4  10  22  34  55  84 116 140 179 232 281 318
#     4  10  20  36  58  81 110 148 185 227 265 326
#     4  10  22  34  55  84 116 140 179 232 281 318
#     4  10  20  36  58  81 110 148 185 227 265 326
#     4  11  19  37  61  82 105 147 193 220 266 333
#
# _framework density 19.56195
#
# number of rings (size 3 to 8) (size 9 to 14) (size 15 to 20)
#    0.000    1.714    4.286    1.714    0.000    3.429 
#    0.000    0.000    0.000    3.429    0.000    0.000 
#    0.000    0.000    0.000    0.000    0.000    0.000 
#
# Total GULP energy -693885.814390 kJ/mol
# GULP energy per Si atom -12390.818114 kJ/mol
# Density = 1.951743 g / cm^3
# Si number density = 19.561950 Si / 1000 Ang^3
#
#
#
# Elastic Constant Matrix: (Units=GPa)
#
#
# Indices 1 2 3 4 5 6 
#
# 1 64.2636 13.3184 31.6253 0.0000 0.0000 0.0000
# 2 13.3184 63.5073 28.3372 0.0000 0.0000 0.0000
# 3 31.6253 28.3372 69.9437 0.0000 0.0000 0.0000
# 4 0.0000 0.0000 0.0000 18.0200 0.0000 0.0000
# 5 0.0000 0.0000 0.0000 0.0000 33.2473 0.0000
# 6 0.0000 0.0000 0.0000 0.0000 0.0000 29.4438
#
#
#
# Elastic Compliance Matrix: (Units=1/GPa)
#
#
# Indices 1 2 3 4 5 6 
#
# 1 0.020016 -0.000195 -0.008972 0.000000 0.000000 0.000000
# 2 -0.000195 0.019223 -0.007700 0.000000 0.000000 0.000000
# 3 -0.008972 -0.007700 0.021473 0.000000 0.000000 0.000000
# 4 0.000000 0.000000 0.000000 0.055494 0.000000 0.000000
# 5 0.000000 0.000000 0.000000 0.000000 0.030078 0.000000
# 6 0.000000 0.000000 0.000000 0.000000 0.000000 0.033963
#
#
# Mechanical properties :
#
#
# Convention : Reuss Voigt Hill
#
# Bulk Modulus (GPa) = 37.06433 38.25294 37.65864
# Shear Modulus (GPa) = 22.42425 24.43779 23.43102
#
# Velocity S-wave (km/s) = 3.38941 3.53831 3.46466
# Velocity P-wave (km/s) = 5.85711 6.02412 5.94120
#
# Compressibility (1/GPa) = 0.02698012
#
# Stress axis : x y z
#
# Youngs Moduli (GPa) = 49.95920 52.02162 46.56930
#
# Poissons Ratio (x) = 0.01012 0.41780
# Poissons Ratio (y) = 0.00972 0.35858
# Poissons Ratio (z) = 0.44822 0.40057
#
# Static dielectric constant tensor:
#      x y z
#    x 3.732750 0.000000 0.000000 
#    y 0.000000 3.580710 0.000000 
#    z 0.000000 0.000000 3.303920 
# 
# 
# High freq. dielectric constant tensor:
#      x y z
#    x 1.765720 0.000000 0.000000 
#    y 0.000000 1.759510 0.000000 
#    z 0.000000 0.000000 1.733510 
# 
# From -- ./inp_files/16876.got.cif
#   From: 2010.03.12/outbox.cif.g09.slc.cpg/sg60_9_cif.got.tgz:16876.got - 2010.04.10 18:46:24.
