data_PCOD8246534
_publ_section_title
;
Structure prediction by ZEFSAII (Michael W. Deem and Ramdas Pophale) SiO2 
 PCOD8246534
Probable space group: P B C N
;
_chemical_formula_sum "Si O2"
_cell_formula_units_Z 60
_cell_length_a 15.168310
_cell_length_b 8.568702
_cell_length_c 23.036588
_cell_angle_alpha 90.000000
_cell_angle_beta 90.000000
_cell_angle_gamma 90.000000
_cell_volume 2994.128192
_symmetry_space_group_name_H-M "P B C N"
_symmetry_group_IT_number 60
_symmetry_cell_setting 'orthorhombic'
loop_
_space_group_symop_operation_xyz
x,y,z
1/2-x,1/2-y,1/2+z
1/2+x,1/2-y,-z
-x,y,1/2-z
-x,-y,-z
1/2+x,1/2+y,1/2-z
1/2-x,1/2+y,z
x,-y,1/2+z
loop_
_atom_site_type_symbol
_atom_site_label
_atom_site_fract_x
_atom_site_fract_y
_atom_site_fract_z
Si Si1 0.183829 0.259725 0.444400
Si Si2 0.168103 0.859947 0.359606
Si Si3 0.773994 0.472236 0.477751
Si Si4 0.036999 0.109845 0.370791
Si Si5 0.000000 0.766822 0.750000
Si Si6 0.841352 0.199583 0.406984
Si Si7 0.330807 0.849112 0.211627
Si Si8 0.733001 0.112186 0.215425
O O1 0.276102 0.291885 0.412473
O O2 0.198145 0.102118 0.481448
O O3 0.165047 0.405888 0.486945
O O4 0.101331 0.236895 0.401221
O O5 0.154559 0.716457 0.313946
O O6 0.074820 0.933145 0.381272
O O7 0.224034 0.002735 0.332737
O O8 0.839784 0.336546 0.455166
O O9 0.723200 0.559397 0.425208
O O10 0.040135 0.125410 0.300867
O O11 0.939080 0.129694 0.397003
O O12 0.935951 0.649934 0.784468
O O13 0.799947 0.282450 0.349981
O O14 0.304790 0.735195 0.263910
O O15 0.297447 0.022237 0.226338
#
# Coordination Sequence:
#
# PCOD8246534 Si02
#       8
#     8   8   8   8   4   8   8   8
#     4  11  20  37  64  85 124 155 207 256 309 357
#     4  11  18  35  58  94 120 157 197 252 304 372
#     4  10  22  41  59  88 118 166 212 263 306 359
#     4  11  21  37  63  93 120 162 200 252 313 370
#     4  10  20  36  56  86 126 146 186 248 308 360
#     4  10  23  39  64  83 125 163 209 260 314 368
#     4  10  19  35  57  83 116 162 191 241 301 372
#     4  10  19  31  61  87 116 156 202 231 300 385
#
# _framework density 20.039221999999999
#
# number of rings (size 3 to 8) (size 9 to 14) (size 15 to 20)
#    0.000    1.600    4.000    1.600    0.000    1.067 
#    0.000    0.667   17.600    0.000    0.000    0.000 
#    0.000    0.000    0.000    0.000    0.000    0.000 
#
# Total GULP energy -743472.910140 kJ/mol
# GULP energy per Si atom -12391.215169 kJ/mol
# Density = 1.999361 g / cm^3
# Si number density = 20.039222 Si / 1000 Ang^3
#
#
#
# Elastic Constant Matrix: (Units=GPa)
#
#
# Indices 1 2 3 4 5 6 
#
# 1 70.9619 33.3709 33.9884 0.0000 0.0000 0.0000
# 2 33.3709 110.2882 36.7213 0.0000 0.0000 0.0000
# 3 33.9884 36.7213 96.5700 0.0000 0.0000 0.0000
# 4 0.0000 0.0000 0.0000 43.1565 0.0000 0.0000
# 5 0.0000 0.0000 0.0000 0.0000 32.4231 0.0000
# 6 0.0000 0.0000 0.0000 0.0000 0.0000 22.4324
#
#
#
# Elastic Compliance Matrix: (Units=1/GPa)
#
#
# Indices 1 2 3 4 5 6 
#
# 1 0.018295 -0.003883 -0.004962 0.000000 0.000000 0.000000
# 2 -0.003883 0.011206 -0.002894 0.000000 0.000000 0.000000
# 3 -0.004962 -0.002894 0.013202 0.000000 0.000000 0.000000
# 4 0.000000 0.000000 0.000000 0.023171 0.000000 0.000000
# 5 0.000000 0.000000 0.000000 0.000000 0.030842 0.000000
# 6 0.000000 0.000000 0.000000 0.000000 0.000000 0.044578
#
#
# Mechanical properties :
#
#
# Convention : Reuss Voigt Hill
#
# Bulk Modulus (GPa) = 52.02087 53.99792 53.00940
# Shear Modulus (GPa) = 29.20843 31.18503 30.19673
#
# Velocity S-wave (km/s) = 3.82195 3.94915 3.88607
# Velocity P-wave (km/s) = 6.74479 6.91368 6.82976
#
# Compressibility (1/GPa) = 0.01922305
#
# Stress axis : x y z
#
# Youngs Moduli (GPa) = 54.65926 89.23883 75.74439
#
# Poissons Ratio (x) = 0.34656 0.37587
# Poissons Ratio (y) = 0.21227 0.21923
# Poissons Ratio (z) = 0.27124 0.25828
#
# Static dielectric constant tensor:
#      x y z
#    x 3.383950 0.000000 0.000000 
#    y 0.000000 3.849700 0.000000 
#    z 0.000000 0.000000 3.827450 
# 
# 
# High freq. dielectric constant tensor:
#      x y z
#    x 1.746230 0.000000 0.000000 
#    y 0.000000 1.785980 0.000000 
#    z 0.000000 0.000000 1.796300 
# 
# From -- ./inp_files/24393.got.cif
#   From: 2010.03.12/outbox.cif.g09.slc.cpg/sg60_13_cif.got.tgz:24393.got - 2010.04.10 18:46:24.
