data_PCOD8246462
_publ_section_title
;
Structure prediction by ZEFSAII (Michael W. Deem and Ramdas Pophale) SiO2 
 PCOD8246462
Probable space group: P B C N
;
_chemical_formula_sum "Si O2"
_cell_formula_units_Z 60
_cell_length_a 17.389992
_cell_length_b 18.286387
_cell_length_c 9.404771
_cell_angle_alpha 90.000000
_cell_angle_beta 90.000000
_cell_angle_gamma 90.000000
_cell_volume 2990.718341
_symmetry_space_group_name_H-M "P B C N"
_symmetry_group_IT_number 60
_symmetry_cell_setting 'orthorhombic'
loop_
_space_group_symop_operation_xyz
x,y,z
1/2-x,1/2-y,1/2+z
1/2+x,1/2-y,-z
-x,y,1/2-z
-x,-y,-z
1/2+x,1/2+y,1/2-z
1/2-x,1/2+y,z
x,-y,1/2+z
loop_
_atom_site_type_symbol
_atom_site_label
_atom_site_fract_x
_atom_site_fract_y
_atom_site_fract_z
Si Si1 0.000000 0.822487 0.750000
Si Si2 0.201657 0.665275 0.182507
Si Si3 0.229145 0.031163 0.317525
Si Si4 0.517851 0.393986 0.046486
Si Si5 0.221073 0.628837 0.864808
Si Si6 0.351094 0.759743 0.176245
Si Si7 0.123663 0.984231 0.064116
Si Si8 0.128217 0.778430 0.363407
O O1 0.004098 0.874386 0.885887
O O2 0.925892 0.771493 0.748114
O O3 0.207173 0.590732 0.273149
O O4 0.282092 0.704947 0.211433
O O5 0.132628 0.718352 0.237460
O O6 0.185762 0.648703 0.018182
O O7 0.186761 0.055414 0.463713
O O8 0.276456 0.957449 0.344084
O O9 0.165149 0.023534 0.194540
O O10 0.584141 0.455066 0.036694
O O11 0.440476 0.426083 0.121148
O O12 0.547662 0.323048 0.133682
O O13 0.165845 0.661111 0.743150
O O14 0.306255 0.660643 0.847750
O O15 0.361929 0.767577 0.008038
#
# Coordination Sequence:
#
# PCOD8246462 Si02
#       8
#     4   8   8   8   8   8   8   8
#     4  10  18  36  56  78 116 146 198 222 300 346
#     4  10  20  35  55  76 116 148 190 248 288 339
#     4  12  21  36  53  84 116 157 192 244 291 353
#     4  10  19  35  52  82 118 163 185 237 275 368
#     4  10  20  36  51  80 110 140 198 245 288 346
#     4   9  19  34  58  78 105 147 189 236 286 350
#     4  11  22  33  54  80 125 153 198 226 293 348
#     4   9  18  36  54  75 109 152 197 240 285 340
#
# _framework density 20.062069999999999
#
# number of rings (size 3 to 8) (size 9 to 14) (size 15 to 20)
#    0.000    1.867    2.667    3.200    1.867    1.600 
#    4.800    0.000    0.000    0.000    0.000    8.400 
#    0.000    0.000    0.000    0.000    0.000    0.000 
#
# Total GULP energy -744058.123553 kJ/mol
# GULP energy per Si atom -12400.968726 kJ/mol
# Density = 2.001641 g / cm^3
# Si number density = 20.062070 Si / 1000 Ang^3
#
#
#
# Elastic Constant Matrix: (Units=GPa)
#
#
# Indices 1 2 3 4 5 6 
#
# 1 42.6113 29.7713 9.1668 0.0000 0.0000 0.0000
# 2 29.7713 111.8430 28.6732 0.0000 0.0000 0.0000
# 3 9.1668 28.6732 45.1729 0.0000 0.0000 0.0000
# 4 0.0000 0.0000 0.0000 32.2040 0.0000 0.0000
# 5 0.0000 0.0000 0.0000 0.0000 27.1909 0.0000
# 6 0.0000 0.0000 0.0000 0.0000 0.0000 35.1784
#
#
#
# Elastic Compliance Matrix: (Units=1/GPa)
#
#
# Indices 1 2 3 4 5 6 
#
# 1 0.028882 -0.007388 -0.001172 0.000000 0.000000 0.000000
# 2 -0.007388 0.012569 -0.006479 0.000000 0.000000 0.000000
# 3 -0.001172 -0.006479 0.026487 0.000000 0.000000 0.000000
# 4 0.000000 0.000000 0.000000 0.031052 0.000000 0.000000
# 5 0.000000 0.000000 0.000000 0.000000 0.036777 0.000000
# 6 0.000000 0.000000 0.000000 0.000000 0.000000 0.028427
#
#
# Mechanical properties :
#
#
# Convention : Reuss Voigt Hill
#
# Bulk Modulus (GPa) = 26.41202 37.20554 31.80878
# Shear Modulus (GPa) = 24.16754 27.71571 25.94162
#
# Velocity S-wave (km/s) = 3.47456 3.72088 3.59983
# Velocity P-wave (km/s) = 5.41206 6.08650 5.75916
#
# Compressibility (1/GPa) = 0.03786154
#
# Stress axis : x y z
#
# Youngs Moduli (GPa) = 34.62421 79.56380 37.75406
#
# Poissons Ratio (x) = 0.58778 0.04423
# Poissons Ratio (y) = 0.25579 0.24460
# Poissons Ratio (z) = 0.04057 0.51547
#
# Static dielectric constant tensor:
#      x y z
#    x 3.427620 0.000000 0.000000 
#    y 0.000000 3.652590 0.000000 
#    z 0.000000 0.000000 3.757600 
# 
# 
# High freq. dielectric constant tensor:
#      x y z
#    x 1.742420 0.000000 0.000000 
#    y 0.000000 1.773100 0.000000 
#    z 0.000000 0.000000 1.795850 
# 
# From -- ./inp_files/6914.got.cif
#   From: 2010.03.12/outbox.cif.g09.slc.cpg/sg60_4_cif.got.tgz:6914.got - 2010.04.10 18:46:24.
