data_PCOD8246656
_publ_section_title
;
Structure prediction by ZEFSAII (Michael W. Deem and Ramdas Pophale) SiO2 
 PCOD8246656
Probable space group: P B C N
;
_chemical_formula_sum "Si O2"
_cell_formula_units_Z 60
_cell_length_a 11.110000
_cell_length_b 22.872465
_cell_length_c 12.719956
_cell_angle_alpha 90.000000
_cell_angle_beta 90.000000
_cell_angle_gamma 90.000000
_cell_volume 3232.307275
_symmetry_space_group_name_H-M "P B C N"
_symmetry_group_IT_number 60
_symmetry_cell_setting 'orthorhombic'
loop_
_space_group_symop_operation_xyz
x,y,z
1/2-x,1/2-y,1/2+z
1/2+x,1/2-y,-z
-x,y,1/2-z
-x,-y,-z
1/2+x,1/2+y,1/2-z
1/2-x,1/2+y,z
x,-y,1/2+z
loop_
_atom_site_type_symbol
_atom_site_label
_atom_site_fract_x
_atom_site_fract_y
_atom_site_fract_z
Si Si1 0.251110 0.390652 0.688584
Si Si2 0.413925 0.992150 0.653295
Si Si3 0.349415 0.825844 0.878072
Si Si4 0.704369 0.157983 0.539058
Si Si5 0.984626 0.410776 0.479973
Si Si6 0.000000 0.157069 0.250000
Si Si7 0.439116 0.696562 0.857621
Si Si8 0.601206 0.713643 0.052751
O O1 0.212955 0.459116 0.676085
O O2 0.155995 0.363463 0.771272
O O3 0.242069 0.354333 0.581105
O O4 0.386677 0.385913 0.731757
O O5 0.500000 0.002436 0.750000
O O6 0.492799 0.954053 0.575117
O O7 0.394270 0.056707 0.601435
O O8 0.397473 0.762998 0.844197
O O9 0.220065 0.824265 0.932425
O O10 0.431831 0.852191 0.969241
O O11 0.610763 0.107708 0.576602
O O12 0.822153 0.157211 0.613544
O O13 0.634558 0.218871 0.545445
O O14 0.014966 0.200992 0.348007
O O15 0.500000 0.673842 0.750000
O O16 0.537181 0.690612 0.948492
#
# Coordination Sequence:
#
# PCOD8246656 Si02
#       8
#     8   8   8   8   8   4   8   8
#     4  10  19  35  62  81 110 149 200 242 286 340
#     4  10  20  35  58  82 108 143 188 244 297 340
#     4  10  20  33  59  84 109 156 194 234 281 346
#     4  10  20  35  54  84 118 153 186 233 290 344
#     4  10  20  36  56  84 113 140 188 245 288 340
#     4  10  20  36  58  84 114 150 198 248 280 334
#     4  11  21  35  55  82 120 161 193 226 278 355
#     4  10  20  35  54  84 116 151 196 230 281 352
#
# _framework density 18.562591000000001
#
# number of rings (size 3 to 8) (size 9 to 14) (size 15 to 20)
#    0.000    1.867    4.000    0.800    1.867    0.000 
#    3.600    0.000    0.000    4.800    0.000    0.000 
#    0.000    0.000    0.000    0.000    0.000    0.000 
#
# Total GULP energy -743665.223428 kJ/mol
# GULP energy per Si atom -12394.420390 kJ/mol
# Density = 1.852034 g / cm^3
# Si number density = 18.562591 Si / 1000 Ang^3
#
#
#
# Elastic Constant Matrix: (Units=GPa)
#
#
# Indices 1 2 3 4 5 6 
#
# 1 86.4052 26.8366 53.6173 0.0000 0.0000 0.0000
# 2 26.8366 52.9990 37.4692 0.0000 0.0000 0.0000
# 3 53.6173 37.4692 116.3162 0.0000 0.0000 0.0000
# 4 0.0000 0.0000 0.0000 23.5751 0.0000 0.0000
# 5 0.0000 0.0000 0.0000 0.0000 29.2319 0.0000
# 6 0.0000 0.0000 0.0000 0.0000 0.0000 22.9225
#
#
#
# Elastic Compliance Matrix: (Units=1/GPa)
#
#
# Indices 1 2 3 4 5 6 
#
# 1 0.016820 -0.003931 -0.006487 0.000000 0.000000 0.000000
# 2 -0.003931 0.025351 -0.006355 0.000000 0.000000 0.000000
# 3 -0.006487 -0.006355 0.013635 0.000000 0.000000 0.000000
# 4 0.000000 0.000000 0.000000 0.042418 0.000000 0.000000
# 5 0.000000 0.000000 0.000000 0.000000 0.034209 0.000000
# 6 0.000000 0.000000 0.000000 0.000000 0.000000 0.043625
#
#
# Mechanical properties :
#
#
# Convention : Reuss Voigt Hill
#
# Bulk Modulus (GPa) = 44.92181 54.61850 49.77015
# Shear Modulus (GPa) = 23.03916 24.33240 23.68578
#
# Velocity S-wave (km/s) = 3.52683 3.62447 3.57598
# Velocity P-wave (km/s) = 6.39042 6.85591 6.62725
#
# Compressibility (1/GPa) = 0.02226090
#
# Stress axis : x y z
#
# Youngs Moduli (GPa) = 59.45451 39.44602 73.34327
#
# Poissons Ratio (x) = 0.15505 0.47578
# Poissons Ratio (y) = 0.23369 0.46606
# Poissons Ratio (z) = 0.38568 0.25066
#
# Static dielectric constant tensor:
#      x y z
#    x 3.541010 0.000000 0.000000 
#    y 0.000000 3.379490 0.000000 
#    z 0.000000 0.000000 3.570210 
# 
# 
# High freq. dielectric constant tensor:
#      x y z
#    x 1.721370 0.000000 0.000000 
#    y 0.000000 1.696260 0.000000 
#    z 0.000000 0.000000 1.725680 
# 
# From -- ./inp_files/11255.got.cif
#   From: 2010.03.12/outbox.cif.g09.slc.cpg/sg60_6_cif.got.tgz:11255.got - 2010.04.10 18:46:24.
