data_PCOD8246510
_publ_section_title
;
Structure prediction by ZEFSAII (Michael W. Deem and Ramdas Pophale) SiO2 
 PCOD8246510
Probable space group: P B C N
;
_chemical_formula_sum "Si O2"
_cell_formula_units_Z 40
_cell_length_a 8.321840
_cell_length_b 24.485145
_cell_length_c 10.281480
_cell_angle_alpha 90.000000
_cell_angle_beta 90.000000
_cell_angle_gamma 90.000000
_cell_volume 2094.969366
_symmetry_space_group_name_H-M "P B C N"
_symmetry_group_IT_number 60
_symmetry_cell_setting 'orthorhombic'
loop_
_space_group_symop_operation_xyz
x,y,z
1/2-x,1/2-y,1/2+z
1/2+x,1/2-y,-z
-x,y,1/2-z
-x,-y,-z
1/2+x,1/2+y,1/2-z
1/2-x,1/2+y,z
x,-y,1/2+z
loop_
_atom_site_type_symbol
_atom_site_label
_atom_site_fract_x
_atom_site_fract_y
_atom_site_fract_z
Si Si1 0.417903 0.429099 0.113175
Si Si2 0.701477 0.674932 0.996553
Si Si3 0.912339 0.231967 0.386801
Si Si4 0.626185 0.450710 0.867347
Si Si5 0.314206 0.854202 0.726201
O O1 0.500000 0.422646 0.250000
O O2 0.303162 0.376761 0.100053
O O3 0.319775 0.486436 0.109469
O O4 0.549208 0.427376 0.998764
O O5 0.846572 0.711997 0.946536
O O6 0.533985 0.708166 0.004857
O O7 0.725754 0.649718 0.137674
O O8 0.762083 0.191047 0.369173
O O9 0.000000 0.244186 0.250000
O O10 0.500000 0.446573 0.750000
O O11 0.782321 0.414386 0.833551
O O12 0.500000 0.843415 0.750000
#
# Coordination Sequence:
#
# PCOD8246510 Si02
#       5
#     8   8   8   8   8
#     4  10  21  34  65  91 115 152 203 250 298 361
#     4  11  21  40  60  90 119 160 201 254 296 365
#     4  10  22  38  59  86 121 160 202 249 307 368
#     4  10  18  40  64  85 114 158 206 244 301 370
#     4  11  21  38  62  85 116 164 204 246 302 369
#
# _framework density 19.093357000000001
#
# number of rings (size 3 to 8) (size 9 to 14) (size 15 to 20)
#    0.000    1.600    4.000    1.800    0.000    4.000 
#    3.600    2.000    0.000    0.000    0.000    0.000 
#    0.000    0.000    0.000    0.000    0.000    0.000 
#
# Total GULP energy -495933.324622 kJ/mol
# GULP energy per Si atom -12398.333116 kJ/mol
# Density = 1.904990 g / cm^3
# Si number density = 19.093357 Si / 1000 Ang^3
#
#
#
# Elastic Constant Matrix: (Units=GPa)
#
#
# Indices 1 2 3 4 5 6 
#
# 1 87.5187 48.3778 17.4708 0.0000 0.0000 0.0000
# 2 48.3778 149.1290 40.5222 0.0000 0.0000 0.0000
# 3 17.4708 40.5222 83.9534 0.0000 0.0000 0.0000
# 4 0.0000 0.0000 0.0000 27.7604 0.0000 0.0000
# 5 0.0000 0.0000 0.0000 0.0000 22.2090 0.0000
# 6 0.0000 0.0000 0.0000 0.0000 0.0000 29.6329
#
#
#
# Elastic Compliance Matrix: (Units=1/GPa)
#
#
# Indices 1 2 3 4 5 6 
#
# 1 0.013973 -0.004308 -0.000829 0.000000 0.000000 0.000000
# 2 -0.004308 0.009046 -0.003470 0.000000 0.000000 0.000000
# 3 -0.000829 -0.003470 0.013759 0.000000 0.000000 0.000000
# 4 0.000000 0.000000 0.000000 0.036023 0.000000 0.000000
# 5 0.000000 0.000000 0.000000 0.000000 0.045027 0.000000
# 6 0.000000 0.000000 0.000000 0.000000 0.000000 0.033746
#
#
# Mechanical properties :
#
#
# Convention : Reuss Voigt Hill
#
# Bulk Modulus (GPa) = 51.11125 59.26030 55.18578
# Shear Modulus (GPa) = 28.52153 30.20249 29.36201
#
# Velocity S-wave (km/s) = 3.86916 3.98154 3.92575
# Velocity P-wave (km/s) = 6.84016 7.22782 7.03666
#
# Compressibility (1/GPa) = 0.01956516
#
# Stress axis : x y z
#
# Youngs Moduli (GPa) = 71.56839 110.54816 72.68204
#
# Poissons Ratio (x) = 0.47620 0.06022
# Poissons Ratio (y) = 0.30829 0.25219
# Poissons Ratio (z) = 0.05930 0.38358
#
# Static dielectric constant tensor:
#      x y z
#    x 3.314330 0.000000 0.000000 
#    y 0.000000 3.844440 0.000000 
#    z 0.000000 0.000000 3.650670 
# 
# 
# High freq. dielectric constant tensor:
#      x y z
#    x 1.708080 0.000000 0.000000 
#    y 0.000000 1.760330 0.000000 
#    z 0.000000 0.000000 1.749000 
# 
# From -- ./inp_files/3788.got.cif
#   From: 2010.03.12/outbox.cif.g09.slc.cpg/sg60_2_cif.got.tgz:3788.got - 2010.04.10 18:46:24.
