data_PCOD8246570
_publ_section_title
;
Structure prediction by ZEFSAII (Michael W. Deem and Ramdas Pophale) SiO2 
 PCOD8246570
Probable space group: P B C N
;
_chemical_formula_sum "Si O2"
_cell_formula_units_Z 56
_cell_length_a 18.908028
_cell_length_b 9.461018
_cell_length_c 16.739615
_cell_angle_alpha 90.000000
_cell_angle_beta 90.000000
_cell_angle_gamma 90.000000
_cell_volume 2994.536223
_symmetry_space_group_name_H-M "P B C N"
_symmetry_group_IT_number 60
_symmetry_cell_setting 'orthorhombic'
loop_
_space_group_symop_operation_xyz
x,y,z
1/2-x,1/2-y,1/2+z
1/2+x,1/2-y,-z
-x,y,1/2-z
-x,-y,-z
1/2+x,1/2+y,1/2-z
1/2-x,1/2+y,z
x,-y,1/2+z
loop_
_atom_site_type_symbol
_atom_site_label
_atom_site_fract_x
_atom_site_fract_y
_atom_site_fract_z
Si Si1 0.799213 0.441415 0.385159
Si Si2 0.860199 0.227789 0.500136
Si Si3 0.734806 0.706650 0.111832
Si Si4 0.653192 0.578348 0.967290
Si Si5 0.912455 0.362068 0.948825
Si Si6 0.944884 0.454629 0.592262
Si Si7 0.178685 0.474694 0.300711
O O1 0.833354 0.297149 0.417636
O O2 0.715572 0.443542 0.402272
O O3 0.835249 0.571947 0.431960
O O4 0.816813 0.457308 0.293078
O O5 0.796244 0.216484 0.562719
O O6 0.922161 0.319484 0.539042
O O7 0.887128 0.070449 0.479428
O O8 0.764546 0.590766 0.172861
O O9 0.692479 0.823754 0.160156
O O10 0.682545 0.628475 0.052014
O O11 0.595934 0.693457 0.937469
O O12 0.972420 0.424145 0.888134
O O13 0.935308 0.403812 0.039041
O O14 0.899624 0.471968 0.673013
#
# Coordination Sequence:
#
# PCOD8246570 Si02
#       7
#     8   8   8   8   8   8   8
#     4  10  22  33  54  83 117 146 184 232 292 339
#     4   9  19  35  53  81 111 147 186 235 278 340
#     4  10  19  33  53  80 110 147 187 233 284 329
#     4  11  19  34  56  82 115 145 183 239 288 326
#     4  10  20  37  57  80 108 151 187 232 272 345
#     4   9  20  38  57  78 107 149 199 219 276 340
#     4  11  21  34  55  83 113 148 189 238 284 339
#
# _framework density 18.700726
#
# number of rings (size 3 to 8) (size 9 to 14) (size 15 to 20)
#    0.000    2.000    2.857    2.571    4.000    1.143 
#    0.000    0.000    0.000    0.000    0.000    0.000 
#    0.000    0.000    0.000    0.000    0.000    0.000 
#
# Total GULP energy -694292.203917 kJ/mol
# GULP energy per Si atom -12398.075070 kJ/mol
# Density = 1.865816 g / cm^3
# Si number density = 18.700726 Si / 1000 Ang^3
#
#
#
# Elastic Constant Matrix: (Units=GPa)
#
#
# Indices 1 2 3 4 5 6 
#
# 1 62.4752 19.4636 21.2089 0.0000 0.0000 0.0000
# 2 19.4636 123.3410 24.5510 0.0000 0.0000 0.0000
# 3 21.2089 24.5510 90.4230 0.0000 0.0000 0.0000
# 4 0.0000 0.0000 0.0000 11.1748 0.0000 0.0000
# 5 0.0000 0.0000 0.0000 0.0000 15.5335 0.0000
# 6 0.0000 0.0000 0.0000 0.0000 0.0000 17.7089
#
#
#
# Elastic Compliance Matrix: (Units=1/GPa)
#
#
# Indices 1 2 3 4 5 6 
#
# 1 0.017892 -0.002102 -0.003626 0.000000 0.000000 0.000000
# 2 -0.002102 0.008818 -0.001901 0.000000 0.000000 0.000000
# 3 -0.003626 -0.001901 0.012426 0.000000 0.000000 0.000000
# 4 0.000000 0.000000 0.000000 0.089487 0.000000 0.000000
# 5 0.000000 0.000000 0.000000 0.000000 0.064377 0.000000
# 6 0.000000 0.000000 0.000000 0.000000 0.000000 0.056469
#
#
# Mechanical properties :
#
#
# Convention : Reuss Voigt Hill
#
# Bulk Modulus (GPa) = 41.87974 45.18736 43.53355
# Shear Modulus (GPa) = 18.33618 22.95116 20.64367
#
# Velocity S-wave (km/s) = 3.13470 3.50707 3.32610
# Velocity P-wave (km/s) = 5.96197 6.37301 6.17091
#
# Compressibility (1/GPa) = 0.02387789
#
# Stress axis : x y z
#
# Youngs Moduli (GPa) = 55.89072 113.40849 80.47763
#
# Poissons Ratio (x) = 0.23835 0.29181
# Poissons Ratio (y) = 0.11746 0.15300
# Poissons Ratio (z) = 0.20266 0.21561
#
# Static dielectric constant tensor:
#      x y z
#    x 3.434120 0.000000 0.000000 
#    y 0.000000 3.568070 0.000000 
#    z 0.000000 0.000000 3.207310 
# 
# 
# High freq. dielectric constant tensor:
#      x y z
#    x 1.711810 0.000000 0.000000 
#    y 0.000000 1.734870 0.000000 
#    z 0.000000 0.000000 1.701260 
# 
# From -- ./inp_files/17724.got.cif
#   From: 2010.03.12/outbox.cif.g09.slc.cpg/sg60_9_cif.got.tgz:17724.got - 2010.04.10 18:46:24.
