data_PCOD8246529
_publ_section_title
;
Structure prediction by ZEFSAII (Michael W. Deem and Ramdas Pophale) SiO2 
 PCOD8246529
Probable space group: P B C N
;
_chemical_formula_sum "Si O2"
_cell_formula_units_Z 48
_cell_length_a 14.113172
_cell_length_b 23.729607
_cell_length_c 7.975051
_cell_angle_alpha 90.000000
_cell_angle_beta 90.000000
_cell_angle_gamma 90.000000
_cell_volume 2670.844780
_symmetry_space_group_name_H-M "P B C N"
_symmetry_group_IT_number 60
_symmetry_cell_setting 'orthorhombic'
loop_
_space_group_symop_operation_xyz
x,y,z
1/2-x,1/2-y,1/2+z
1/2+x,1/2-y,-z
-x,y,1/2-z
-x,-y,-z
1/2+x,1/2+y,1/2-z
1/2-x,1/2+y,z
x,-y,1/2+z
loop_
_atom_site_type_symbol
_atom_site_label
_atom_site_fract_x
_atom_site_fract_y
_atom_site_fract_z
Si Si1 0.108767 0.047285 0.688564
Si Si2 0.899623 0.704502 0.688017
Si Si3 0.886653 0.817104 0.885126
Si Si4 0.939040 0.783416 0.415685
Si Si5 0.792974 0.153211 0.713674
Si Si6 0.892868 0.071429 0.199650
O O1 0.173476 0.088585 0.801392
O O2 0.120199 0.067050 0.498364
O O3 0.000000 0.053044 0.750000
O O4 0.151321 0.984669 0.713510
O O5 0.866863 0.760737 0.783597
O O6 0.909729 0.722723 0.492562
O O7 0.820955 0.657005 0.724716
O O8 0.000000 0.679913 0.750000
O O9 0.851733 0.870838 0.776426
O O10 0.822097 0.812700 0.048720
O O11 0.998425 0.818413 0.944121
O O12 0.845449 0.819291 0.374546
O O13 0.000000 0.772433 0.250000
O O14 0.000000 0.068889 0.250000
#
# Coordination Sequence:
#
# PCOD8246529 Si02
#       6
#     8   8   8   8   8   8
#     4  11  21  31  48  73 102 131 159 191 236 290
#     4  10  20  33  49  70  97 131 166 201 235 277
#     4  10  19  31  49  72 100 129 159 195 241 288
#     4   9  18  31  47  69  98 128 157 194 240 289
#     4  11  19  31  48  71 100 132 162 195 237 284
#     4  11  19  31  48  71 103 131 156 190 238 296
#
# _framework density 17.971843
#
# number of rings (size 3 to 8) (size 9 to 14) (size 15 to 20)
#    0.000    1.667    0.000   10.000    0.000    0.000 
#    0.000    1.667    0.000    0.000    0.000    4.667 
#    0.000    0.000    0.000    0.000    0.000    0.000 
#
# Total GULP energy -594972.789261 kJ/mol
# GULP energy per Si atom -12395.266443 kJ/mol
# Density = 1.793094 g / cm^3
# Si number density = 17.971843 Si / 1000 Ang^3
#
#
#
# Elastic Constant Matrix: (Units=GPa)
#
#
# Indices 1 2 3 4 5 6 
#
# 1 86.6487 39.7634 7.4629 0.0000 0.0000 0.0000
# 2 39.7634 74.1396 14.1526 0.0000 0.0000 0.0000
# 3 7.4629 14.1526 74.3073 0.0000 0.0000 0.0000
# 4 0.0000 0.0000 0.0000 21.4177 0.0000 0.0000
# 5 0.0000 0.0000 0.0000 0.0000 11.7787 0.0000
# 6 0.0000 0.0000 0.0000 0.0000 0.0000 15.8141
#
#
#
# Elastic Compliance Matrix: (Units=1/GPa)
#
#
# Indices 1 2 3 4 5 6 
#
# 1 0.015309 -0.008216 0.000027 0.000000 0.000000 0.000000
# 2 -0.008216 0.018406 -0.002681 0.000000 0.000000 0.000000
# 3 0.000027 -0.002681 0.013965 0.000000 0.000000 0.000000
# 4 0.000000 0.000000 0.000000 0.046690 0.000000 0.000000
# 5 0.000000 0.000000 0.000000 0.000000 0.084899 0.000000
# 6 0.000000 0.000000 0.000000 0.000000 0.000000 0.063235
#
#
# Mechanical properties :
#
#
# Convention : Reuss Voigt Hill
#
# Bulk Modulus (GPa) = 38.54707 39.76148 39.15427
# Shear Modulus (GPa) = 18.32240 21.38321 19.85280
#
# Velocity S-wave (km/s) = 3.19643 3.45311 3.32725
# Velocity P-wave (km/s) = 5.92605 6.17017 6.04934
#
# Compressibility (1/GPa) = 0.02594231
#
# Stress axis : x y z
#
# Youngs Moduli (GPa) = 65.32211 54.32973 71.60544
#
# Poissons Ratio (x) = 0.44636 -0.00195
# Poissons Ratio (y) = 0.53667 0.19194
# Poissons Ratio (z) = -0.00178 0.14563
#
# Static dielectric constant tensor:
#      x y z
#    x 3.038920 0.000000 0.000000 
#    y 0.000000 3.566450 0.000000 
#    z 0.000000 0.000000 3.588270 
# 
# 
# High freq. dielectric constant tensor:
#      x y z
#    x 1.645050 0.000000 0.000000 
#    y 0.000000 1.675000 0.000000 
#    z 0.000000 0.000000 1.718980 
# 
# From -- ./inp_files/6039.got.cif
#   From: 2010.03.12/outbox.cif.g09.slc.cpg/sg60_4_cif.got.tgz:6039.got - 2010.04.10 18:46:24.
