data_PCOD8246701
_publ_section_title
;
Structure prediction by ZEFSAII (Michael W. Deem and Ramdas Pophale) SiO2 
 PCOD8246701
Probable space group: P B C N
;
_chemical_formula_sum "Si O2"
_cell_formula_units_Z 52
_cell_length_a 13.950533
_cell_length_b 8.534867
_cell_length_c 21.240488
_cell_angle_alpha 90.000000
_cell_angle_beta 90.000000
_cell_angle_gamma 90.000000
_cell_volume 2529.018749
_symmetry_space_group_name_H-M "P B C N"
_symmetry_group_IT_number 60
_symmetry_cell_setting 'orthorhombic'
loop_
_space_group_symop_operation_xyz
x,y,z
1/2-x,1/2-y,1/2+z
1/2+x,1/2-y,-z
-x,y,1/2-z
-x,-y,-z
1/2+x,1/2+y,1/2-z
1/2-x,1/2+y,z
x,-y,1/2+z
loop_
_atom_site_type_symbol
_atom_site_label
_atom_site_fract_x
_atom_site_fract_y
_atom_site_fract_z
Si Si1 0.346268 0.760820 0.857675
Si Si2 0.646407 0.108675 0.670461
Si Si3 0.828300 0.911079 0.453071
Si Si4 0.983965 0.973155 0.361204
Si Si5 0.051728 0.240476 0.446412
Si Si6 0.649474 0.761479 0.495402
Si Si7 0.000000 0.797256 0.750000
O O1 0.255425 0.667830 0.830536
O O2 0.442520 0.663601 0.842241
O O3 0.353581 0.922584 0.819275
O O4 0.331847 0.798748 0.931380
O O5 0.593709 0.142606 0.604900
O O6 0.588550 0.190556 0.727288
O O7 0.882231 0.904185 0.385541
O O8 0.872980 0.778221 0.497865
O O9 0.717461 0.861714 0.448604
O O10 0.835909 0.078892 0.484810
O O11 0.032533 0.067541 0.418370
O O12 0.960503 0.090986 0.304834
O O13 0.956248 0.315557 0.475588
#
# Coordination Sequence:
#
# PCOD8246701 Si02
#       7
#     8   8   8   8   8   8   4
#     4  12  21  38  66  99 116 159 214 250 308 383
#     4  11  24  38  63  91 125 159 208 258 307 368
#     4  11  20  36  57  90 132 161 198 254 311 372
#     4  10  21  41  64  85 122 169 210 253 316 365
#     4  10  19  37  57  88 129 161 194 254 308 367
#     4  11  21  33  57  94 131 160 201 248 314 378
#     4  10  24  46  60  82 120 168 218 268 306 354
#
# _framework density 20.561336000000001
#
# number of rings (size 3 to 8) (size 9 to 14) (size 15 to 20)
#    0.000    1.231    4.615    3.692    0.000    2.462 
#    0.000    9.231    0.000    1.846    0.000    0.000 
#    0.000    0.000    0.000    0.000    0.000    0.000 
#
# Total GULP energy -644917.456980 kJ/mol
# GULP energy per Si atom -12402.258788 kJ/mol
# Density = 2.051454 g / cm^3
# Si number density = 20.561336 Si / 1000 Ang^3
#
#
#
# Elastic Constant Matrix: (Units=GPa)
#
#
# Indices 1 2 3 4 5 6 
#
# 1 69.2765 46.4116 31.4294 0.0000 0.0000 0.0000
# 2 46.4116 102.7408 37.3712 0.0000 0.0000 0.0000
# 3 31.4294 37.3712 80.1927 0.0000 0.0000 0.0000
# 4 0.0000 0.0000 0.0000 21.3115 0.0000 0.0000
# 5 0.0000 0.0000 0.0000 0.0000 31.4054 0.0000
# 6 0.0000 0.0000 0.0000 0.0000 0.0000 29.7711
#
#
#
# Elastic Compliance Matrix: (Units=1/GPa)
#
#
# Indices 1 2 3 4 5 6 
#
# 1 0.022157 -0.008249 -0.004840 0.000000 0.000000 0.000000
# 2 -0.008249 0.014791 -0.003660 0.000000 0.000000 0.000000
# 3 -0.004840 -0.003660 0.016072 0.000000 0.000000 0.000000
# 4 0.000000 0.000000 0.000000 0.046923 0.000000 0.000000
# 5 0.000000 0.000000 0.000000 0.000000 0.031842 0.000000
# 6 0.000000 0.000000 0.000000 0.000000 0.000000 0.033590
#
#
# Mechanical properties :
#
#
# Convention : Reuss Voigt Hill
#
# Bulk Modulus (GPa) = 51.22087 53.62605 52.42346
# Shear Modulus (GPa) = 24.34535 25.63081 24.98808
#
# Velocity S-wave (km/s) = 3.44471 3.53449 3.48989
# Velocity P-wave (km/s) = 6.38645 6.54175 6.46456
#
# Compressibility (1/GPa) = 0.01952329
#
# Stress axis : x y z
#
# Youngs Moduli (GPa) = 45.13312 67.61032 62.21861
#
# Poissons Ratio (x) = 0.55769 0.30112
# Poissons Ratio (y) = 0.37228 0.22771
# Poissons Ratio (z) = 0.21843 0.24745
#
# Static dielectric constant tensor:
#      x y z
#    x 3.977060 0.000000 0.000000 
#    y 0.000000 3.637500 0.000000 
#    z 0.000000 0.000000 3.539430 
# 
# 
# High freq. dielectric constant tensor:
#      x y z
#    x 1.813940 0.000000 0.000000 
#    y 0.000000 1.805190 0.000000 
#    z 0.000000 0.000000 1.775910 
# 
# From -- ./inp_files/22834.got.cif
#   From: 2010.03.12/outbox.cif.g09.slc.cpg/sg60_12_cif.got.tgz:22834.got - 2010.04.10 18:46:24.
