data_PCOD8246594
_publ_section_title
;
Structure prediction by ZEFSAII (Michael W. Deem and Ramdas Pophale) SiO2 
 PCOD8246594
Probable space group: P B C N
;
_chemical_formula_sum "Si O2"
_cell_formula_units_Z 64
_cell_length_a 11.149906
_cell_length_b 16.586200
_cell_length_c 20.439945
_cell_angle_alpha 90.000000
_cell_angle_beta 90.000000
_cell_angle_gamma 90.000000
_cell_volume 3780.052458
_symmetry_space_group_name_H-M "P B C N"
_symmetry_group_IT_number 60
_symmetry_cell_setting 'orthorhombic'
loop_
_space_group_symop_operation_xyz
x,y,z
1/2-x,1/2-y,1/2+z
1/2+x,1/2-y,-z
-x,y,1/2-z
-x,-y,-z
1/2+x,1/2+y,1/2-z
1/2-x,1/2+y,z
x,-y,1/2+z
loop_
_atom_site_type_symbol
_atom_site_label
_atom_site_fract_x
_atom_site_fract_y
_atom_site_fract_z
Si Si1 0.525024 0.705018 0.544030
Si Si2 0.967055 0.977013 0.820896
Si Si3 0.659006 0.625070 0.429832
Si Si4 0.230812 0.208630 0.599436
Si Si5 0.166066 0.543344 0.972274
Si Si6 0.633124 0.635723 0.774230
Si Si7 0.335430 0.405878 0.362161
Si Si8 0.086026 0.374406 0.009247
O O1 0.556802 0.653586 0.479932
O O2 0.382633 0.697870 0.551748
O O3 0.588205 0.667043 0.606951
O O4 0.571009 0.797052 0.537717
O O5 0.874061 0.049792 0.810238
O O6 0.000000 0.937823 0.750000
O O7 0.084993 0.013592 0.855048
O O8 0.906539 0.913173 0.868061
O O9 0.733501 0.698938 0.402357
O O10 0.750892 0.564391 0.465407
O O11 0.197599 0.195175 0.675432
O O12 0.337336 0.150633 0.573618
O O13 0.222408 0.571467 0.904764
O O14 0.043007 0.592377 0.970842
O O15 0.151424 0.446824 0.970831
O O16 0.500000 0.663399 0.750000
O O17 0.711823 0.625881 0.708286
#
# Coordination Sequence:
#
# PCOD8246594 Si02
#       8
#     8   8   8   8   8   8   8   8
#     4  10  19  34  53  82 103 133 185 222 262 320
#     4   9  18  34  53  79 108 131 178 226 262 304
#     4  10  21  32  56  80 107 140 178 224 268 321
#     4  11  19  35  55  77 109 142 176 217 274 317
#     4  10  20  35  52  78 111 139 177 217 274 324
#     4   9  17  34  57  77 102 138 179 216 258 320
#     4   9  19  34  58  80 102 136 185 223 258 316
#     4  10  22  34  50  80 111 142 166 224 276 318
#
# _framework density 16.930980999999999
#
# number of rings (size 3 to 8) (size 9 to 14) (size 15 to 20)
#    0.000    2.500    3.750    0.750    1.750    1.000 
#    0.000    5.625    0.000    0.000    0.000    0.000 
#    0.000    0.000    0.000    0.000    0.000    0.000 
#
# Total GULP energy -793290.426874 kJ/mol
# GULP energy per Si atom -12395.162920 kJ/mol
# Density = 1.689245 g / cm^3
# Si number density = 16.930981 Si / 1000 Ang^3
#
#
#
# Elastic Constant Matrix: (Units=GPa)
#
#
# Indices 1 2 3 4 5 6 
#
# 1 84.8940 49.2456 52.8983 0.0000 0.0000 0.0000
# 2 49.2456 78.9935 43.4582 0.0000 0.0000 0.0000
# 3 52.8983 43.4582 112.3244 0.0000 0.0000 0.0000
# 4 0.0000 0.0000 0.0000 27.4748 0.0000 0.0000
# 5 0.0000 0.0000 0.0000 0.0000 24.7606 0.0000
# 6 0.0000 0.0000 0.0000 0.0000 0.0000 23.7090
#
#
#
# Elastic Compliance Matrix: (Units=1/GPa)
#
#
# Indices 1 2 3 4 5 6 
#
# 1 0.021431 -0.009919 -0.006255 0.000000 0.000000 0.000000
# 2 -0.009919 0.020673 -0.003327 0.000000 0.000000 0.000000
# 3 -0.006255 -0.003327 0.013136 0.000000 0.000000 0.000000
# 4 0.000000 0.000000 0.000000 0.036397 0.000000 0.000000
# 5 0.000000 0.000000 0.000000 0.000000 0.040387 0.000000
# 6 0.000000 0.000000 0.000000 0.000000 0.000000 0.042178
#
#
# Mechanical properties :
#
#
# Convention : Reuss Voigt Hill
#
# Bulk Modulus (GPa) = 61.58589 63.04625 62.31607
# Shear Modulus (GPa) = 22.87105 23.89620 23.38362
#
# Velocity S-wave (km/s) = 3.67937 3.76092 3.72037
# Velocity P-wave (km/s) = 7.38268 7.49516 7.43913
#
# Compressibility (1/GPa) = 0.01623748
#
# Stress axis : x y z
#
# Youngs Moduli (GPa) = 46.66173 48.37132 76.12767
#
# Poissons Ratio (x) = 0.47980 0.47618
# Poissons Ratio (y) = 0.46284 0.25329
# Poissons Ratio (z) = 0.29187 0.16094
#
# Static dielectric constant tensor:
#      x y z
#    x 3.164760 0.000000 0.000000 
#    y 0.000000 3.189990 0.000000 
#    z 0.000000 0.000000 3.217470 
# 
# 
# High freq. dielectric constant tensor:
#      x y z
#    x 1.646810 0.000000 0.000000 
#    y 0.000000 1.650190 0.000000 
#    z 0.000000 0.000000 1.653160 
# 
# From -- ./inp_files/22741.got.cif
#   From: 2010.03.12/outbox.cif.g09.slc.cpg/sg60_12_cif.got.tgz:22741.got - 2010.04.10 18:46:24.
