data_PCOD8246488
_publ_section_title
;
Structure prediction by ZEFSAII (Michael W. Deem and Ramdas Pophale) SiO2 
 PCOD8246488
Probable space group: P B C N
;
_chemical_formula_sum "Si O2"
_cell_formula_units_Z 60
_cell_length_a 7.749558
_cell_length_b 14.637763
_cell_length_c 25.699441
_cell_angle_alpha 90.000000
_cell_angle_beta 90.000000
_cell_angle_gamma 90.000000
_cell_volume 2915.246758
_symmetry_space_group_name_H-M "P B C N"
_symmetry_group_IT_number 60
_symmetry_cell_setting 'orthorhombic'
loop_
_space_group_symop_operation_xyz
x,y,z
1/2-x,1/2-y,1/2+z
1/2+x,1/2-y,-z
-x,y,1/2-z
-x,-y,-z
1/2+x,1/2+y,1/2-z
1/2-x,1/2+y,z
x,-y,1/2+z
loop_
_atom_site_type_symbol
_atom_site_label
_atom_site_fract_x
_atom_site_fract_y
_atom_site_fract_z
Si Si1 0.372693 0.783651 0.317051
Si Si2 0.982593 0.902200 0.433242
Si Si3 0.711487 0.533588 0.659282
Si Si4 0.431126 0.602855 0.046739
Si Si5 0.500000 0.571096 0.750000
Si Si6 0.361332 0.216096 0.102950
Si Si7 0.257905 0.275272 0.208479
Si Si8 0.774879 0.644701 0.104588
O O1 0.336502 0.891573 0.316110
O O2 0.577256 0.786135 0.320700
O O3 0.287358 0.735022 0.265771
O O4 0.294964 0.733525 0.366322
O O5 0.852324 0.821401 0.416390
O O6 0.121085 0.916365 0.388522
O O7 0.085597 0.874134 0.485818
O O8 0.879288 0.997001 0.442802
O O9 0.581725 0.505762 0.706151
O O10 0.806161 0.441328 0.642573
O O11 0.303955 0.664872 0.080197
O O12 0.632832 0.618467 0.061498
O O13 0.634880 0.632707 0.782502
O O14 0.363214 0.212274 0.166859
O O15 0.537674 0.169857 0.081188
#
# Coordination Sequence:
#
# PCOD8246488 Si02
#       8
#     8   8   8   8   4   8   8   8
#     4  10  20  39  59  89 128 163 202 267 312 368
#     4  10  22  44  67  89 134 165 205 275 316 371
#     4  10  21  39  62  87 127 163 209 261 316 379
#     4  10  25  44  63  97 127 166 218 262 320 377
#     4  10  18  38  60  90 122 172 204 250 330 380
#     4  12  22  41  68  93 124 172 213 258 321 381
#     4  10  20  36  62  89 124 165 209 253 319 373
#     4  11  23  41  61  96 124 162 218 256 308 387
#
# _framework density 20.581448999999999
#
# number of rings (size 3 to 8) (size 9 to 14) (size 15 to 20)
#    0.000    1.600    4.000    0.800    1.867    2.133 
#    0.000   10.000    0.000    0.000    0.000    0.000 
#    0.000    0.000    0.000    0.000    0.000    0.000 
#
# Total GULP energy -743470.920939 kJ/mol
# GULP energy per Si atom -12391.182016 kJ/mol
# Density = 2.053460 g / cm^3
# Si number density = 20.581449 Si / 1000 Ang^3
#
#
#
# Elastic Constant Matrix: (Units=GPa)
#
#
# Indices 1 2 3 4 5 6 
#
# 1 81.6343 24.8079 26.0796 0.0000 0.0000 0.0000
# 2 24.8079 90.5134 21.3304 0.0000 0.0000 0.0000
# 3 26.0796 21.3304 94.1550 0.0000 0.0000 0.0000
# 4 0.0000 0.0000 0.0000 12.4691 0.0000 0.0000
# 5 0.0000 0.0000 0.0000 0.0000 21.7321 0.0000
# 6 0.0000 0.0000 0.0000 0.0000 0.0000 20.2893
#
#
#
# Elastic Compliance Matrix: (Units=1/GPa)
#
#
# Indices 1 2 3 4 5 6 
#
# 1 0.014237 -0.003140 -0.003232 0.000000 0.000000 0.000000
# 2 -0.003140 0.012364 -0.001931 0.000000 0.000000 0.000000
# 3 -0.003232 -0.001931 0.011953 0.000000 0.000000 0.000000
# 4 0.000000 0.000000 0.000000 0.080198 0.000000 0.000000
# 5 0.000000 0.000000 0.000000 0.000000 0.046015 0.000000
# 6 0.000000 0.000000 0.000000 0.000000 0.000000 0.049287
#
#
# Mechanical properties :
#
#
# Convention : Reuss Voigt Hill
#
# Bulk Modulus (GPa) = 45.56397 45.63758 45.60078
# Shear Modulus (GPa) = 21.01048 23.83709 22.42379
#
# Velocity S-wave (km/s) = 3.19853 3.40690 3.30436
# Velocity P-wave (km/s) = 5.98559 6.13989 6.06323
#
# Compressibility (1/GPa) = 0.02194717
#
# Stress axis : x y z
#
# Youngs Moduli (GPa) = 70.24170 80.88073 83.65770
#
# Poissons Ratio (x) = 0.25399 0.27037
# Poissons Ratio (y) = 0.22058 0.16156
# Poissons Ratio (z) = 0.22701 0.15619
#
# Static dielectric constant tensor:
#      x y z
#    x 3.707700 0.000000 0.000000 
#    y 0.000000 3.677800 0.000000 
#    z 0.000000 0.000000 3.918900 
# 
# 
# High freq. dielectric constant tensor:
#      x y z
#    x 1.793870 0.000000 0.000000 
#    y 0.000000 1.792940 0.000000 
#    z 0.000000 0.000000 1.816460 
# 
# From -- ./inp_files/24023.got.cif
#   From: 2010.03.12/outbox.cif.g09.slc.cpg/sg60_13_cif.got.tgz:24023.got - 2010.04.10 18:46:24.
