data_PCOD8246713
_publ_section_title
;
Structure prediction by ZEFSAII (Michael W. Deem and Ramdas Pophale) SiO2 
 PCOD8246713
Probable space group: P B C N
;
_chemical_formula_sum "Si O2"
_cell_formula_units_Z 44
_cell_length_a 10.470607
_cell_length_b 16.769285
_cell_length_c 10.037166
_cell_angle_alpha 90.000000
_cell_angle_beta 90.000000
_cell_angle_gamma 90.000000
_cell_volume 1762.371706
_symmetry_space_group_name_H-M "P B C N"
_symmetry_group_IT_number 60
_symmetry_cell_setting 'orthorhombic'
loop_
_space_group_symop_operation_xyz
x,y,z
1/2-x,1/2-y,1/2+z
1/2+x,1/2-y,-z
-x,y,1/2-z
-x,-y,-z
1/2+x,1/2+y,1/2-z
1/2-x,1/2+y,z
x,-y,1/2+z
loop_
_atom_site_type_symbol
_atom_site_label
_atom_site_fract_x
_atom_site_fract_y
_atom_site_fract_z
Si Si1 0.718808 0.452215 0.760752
Si Si2 0.793018 0.768871 0.771166
Si Si3 0.401043 0.734714 0.945582
Si Si4 0.000000 0.482919 0.250000
Si Si5 0.420017 0.846137 0.418484
Si Si6 0.344388 0.570200 0.961649
O O1 0.680962 0.361092 0.735567
O O2 0.872570 0.463599 0.755694
O O3 0.646014 0.507706 0.656271
O O4 0.655309 0.479296 0.900993
O O5 0.800957 0.750117 0.929715
O O6 0.659016 0.746430 0.701204
O O7 0.903021 0.714336 0.705335
O O8 0.515263 0.798307 0.959512
O O9 0.449937 0.641615 0.952356
O O10 0.997818 0.424361 0.378562
O O11 0.284908 0.877534 0.468372
#
# Coordination Sequence:
#
# PCOD8246713 Si02
#       6
#     8   8   8   4   8   8
#     4  10  22  35  55  86 121 143 190 243 295 343
#     4  10  21  36  56  86 116 154 193 243 287 347
#     4  10  20  37  59  82 113 155 201 234 288 356
#     4  10  20  32  60  84 112 150 192 230 302 334
#     4  10  19  37  62  81 113 161 198 230 291 355
#     4   9  22  37  55  90 114 153 191 240 297 342
#
# _framework density 24.966356000000001
#
# number of rings (size 3 to 8) (size 9 to 14) (size 15 to 20)
#    0.000    2.182    1.818    0.000    5.091    1.455 
#    0.000    0.909    0.000    0.000    0.000    0.000 
#    0.000    0.000    0.000    0.000    0.000    0.000 
#
# Total GULP energy -545136.367233 kJ/mol
# GULP energy per Si atom -12389.462892 kJ/mol
# Density = 2.490953 g / cm^3
# Si number density = 24.966356 Si / 1000 Ang^3
#
#
#
# Elastic Constant Matrix: (Units=GPa)
#
#
# Indices 1 2 3 4 5 6 
#
# 1 14.3932 12.1239 -22.9298 0.0000 0.0000 0.0000
# 2 12.1239 123.0052 36.6298 0.0000 0.0000 0.0000
# 3 -22.9298 36.6298 99.4046 0.0000 0.0000 0.0000
# 4 0.0000 0.0000 0.0000 39.2318 0.0000 0.0000
# 5 0.0000 0.0000 0.0000 0.0000 15.5361 0.0000
# 6 0.0000 0.0000 0.0000 0.0000 0.0000 28.4781
#
#
#
# Elastic Compliance Matrix: (Units=1/GPa)
#
#
# Indices 1 2 3 4 5 6 
#
# 1 0.190885 -0.035862 0.057247 0.000000 0.000000 0.000000
# 2 -0.035862 0.015869 -0.014120 0.000000 0.000000 0.000000
# 3 0.057247 -0.014120 0.028468 0.000000 0.000000 0.000000
# 4 0.000000 0.000000 0.000000 0.025490 0.000000 0.000000
# 5 0.000000 0.000000 0.000000 0.000000 0.064366 0.000000
# 6 0.000000 0.000000 0.000000 0.000000 0.000000 0.035115
#
#
# Mechanical properties :
#
#
# Convention : Reuss Voigt Hill
#
# Bulk Modulus (GPa) = 4.00397 32.05009 18.02703
# Shear Modulus (GPa) = 11.65733 30.71448 21.18591
#
# Velocity S-wave (km/s) = 2.16318 3.51128 2.91620
# Velocity P-wave (km/s) = 2.80114 5.41331 4.30989
#
# Compressibility (1/GPa) = 0.24975208
#
# Stress axis : x y z
#
# Youngs Moduli (GPa) = 5.23875 63.01475 35.12684
#
# Poissons Ratio (x) = 2.25984 -2.01090
# Poissons Ratio (y) = 0.18787 0.49599
# Poissons Ratio (z) = -0.29990 0.88977
#
# Static dielectric constant tensor:
#      x y z
#    x 4.204720 0.000000 0.000000 
#    y 0.000000 4.788120 0.000000 
#    z 0.000000 0.000000 4.558140 
# 
# 
# High freq. dielectric constant tensor:
#      x y z
#    x 1.964200 0.000000 0.000000 
#    y 0.000000 2.008800 0.000000 
#    z 0.000000 0.000000 1.996520 
# 
# From -- ./inp_files/11818.got.cif
#   From: 2010.03.12/outbox.cif.g09.slc.cpg/sg60_6_cif.got.tgz:11818.got - 2010.04.10 18:46:24.
