data_PCOD8246391
_publ_section_title
;
Structure prediction by ZEFSAII (Michael W. Deem and Ramdas Pophale) SiO2 
 PCOD8246391
Probable space group: P B C N
;
_chemical_formula_sum "Si O2"
_cell_formula_units_Z 64
_cell_length_a 16.841549
_cell_length_b 11.237132
_cell_length_c 17.977573
_cell_angle_alpha 90.000000
_cell_angle_beta 90.000000
_cell_angle_gamma 90.000000
_cell_volume 3402.268440
_symmetry_space_group_name_H-M "P B C N"
_symmetry_group_IT_number 60
_symmetry_cell_setting 'orthorhombic'
loop_
_space_group_symop_operation_xyz
x,y,z
1/2-x,1/2-y,1/2+z
1/2+x,1/2-y,-z
-x,y,1/2-z
-x,-y,-z
1/2+x,1/2+y,1/2-z
1/2-x,1/2+y,z
x,-y,1/2+z
loop_
_atom_site_type_symbol
_atom_site_label
_atom_site_fract_x
_atom_site_fract_y
_atom_site_fract_z
Si Si1 0.737496 0.305606 0.043216
Si Si2 0.805463 0.726395 0.698245
Si Si3 0.695887 0.976894 0.304521
Si Si4 0.865715 0.038153 0.238691
Si Si5 0.135471 0.288060 0.737060
Si Si6 0.415788 0.588521 0.629615
Si Si7 0.765577 0.055287 0.958832
Si Si8 0.085980 0.838219 0.369525
O O1 0.797207 0.314859 0.113101
O O2 0.644352 0.296270 0.065197
O O3 0.755383 0.179680 0.002858
O O4 0.753763 0.429580 0.999578
O O5 0.838601 0.624712 0.751721
O O6 0.871454 0.829828 0.705928
O O7 0.720237 0.770258 0.724827
O O8 0.704777 0.935406 0.389718
O O9 0.781203 0.019742 0.277415
O O10 0.630016 0.080541 0.296794
O O11 0.929495 0.011225 0.304975
O O12 0.872409 0.950833 0.169124
O O13 0.127690 0.199475 0.668290
O O14 0.072580 0.261836 0.804239
O O15 0.358509 0.544372 0.564019
O O16 0.500811 0.626492 0.596100
#
# Coordination Sequence:
#
# PCOD8246391 Si02
#       8
#     8   8   8   8   8   8   8   8
#     4  11  23  36  55  87 120 148 194 241 296 344
#     4  10  18  31  55  80 110 142 186 237 293 328
#     4  10  18  31  56  81 111 141 189 239 290 328
#     4   9  16  30  54  85 108 133 186 246 282 326
#     4   9  16  30  54  82 105 136 188 242 277 336
#     4  10  19  34  56  81 110 150 190 235 286 344
#     4  11  23  36  56  86 120 151 191 246 292 342
#     4  10  19  34  56  81 111 150 187 234 292 349
#
# _framework density 18.810977999999999
#
# number of rings (size 3 to 8) (size 9 to 14) (size 15 to 20)
#    0.000    2.000    5.000    3.000    7.000    0.500 
#    0.000    0.000    0.000    6.000    0.000    0.000 
#    0.000    0.000    0.000    0.000    0.000    0.000 
#
# Total GULP energy -792957.299673 kJ/mol
# GULP energy per Si atom -12389.957807 kJ/mol
# Density = 1.876816 g / cm^3
# Si number density = 18.810978 Si / 1000 Ang^3
#
#
#
# Elastic Constant Matrix: (Units=GPa)
#
#
# Indices 1 2 3 4 5 6 
#
# 1 44.1202 24.5222 23.8678 0.0000 0.0000 0.0000
# 2 24.5222 132.1458 72.1395 0.0000 0.0000 0.0000
# 3 23.8678 72.1395 102.5772 0.0000 0.0000 0.0000
# 4 0.0000 0.0000 0.0000 32.2038 0.0000 0.0000
# 5 0.0000 0.0000 0.0000 0.0000 15.8790 0.0000
# 6 0.0000 0.0000 0.0000 0.0000 0.0000 11.9895
#
#
#
# Elastic Compliance Matrix: (Units=1/GPa)
#
#
# Indices 1 2 3 4 5 6 
#
# 1 0.026433 -0.002512 -0.004384 0.000000 0.000000 0.000000
# 2 -0.002512 0.012522 -0.008222 0.000000 0.000000 0.000000
# 3 -0.004384 -0.008222 0.016551 0.000000 0.000000 0.000000
# 4 0.000000 0.000000 0.000000 0.031052 0.000000 0.000000
# 5 0.000000 0.000000 0.000000 0.000000 0.062976 0.000000
# 6 0.000000 0.000000 0.000000 0.000000 0.000000 0.083407
#
#
# Mechanical properties :
#
#
# Convention : Reuss Voigt Hill
#
# Bulk Modulus (GPa) = 39.57161 57.76690 48.66926
# Shear Modulus (GPa) = 18.40943 22.56870 20.48906
#
# Velocity S-wave (km/s) = 3.13174 3.46752 3.30390
# Velocity P-wave (km/s) = 5.84458 6.84159 6.36265
#
# Compressibility (1/GPa) = 0.02527064
#
# Stress axis : x y z
#
# Youngs Moduli (GPa) = 37.83135 79.86023 60.41954
#
# Poissons Ratio (x) = 0.20061 0.26487
# Poissons Ratio (y) = 0.09503 0.49676
# Poissons Ratio (z) = 0.16585 0.65659
#
# Static dielectric constant tensor:
#      x y z
#    x 3.318400 0.000000 0.000000 
#    y 0.000000 3.910820 0.000000 
#    z 0.000000 0.000000 3.503850 
# 
# 
# High freq. dielectric constant tensor:
#      x y z
#    x 1.690480 0.000000 0.000000 
#    y 0.000000 1.734500 0.000000 
#    z 0.000000 0.000000 1.726500 
# 
# From -- ./inp_files/20970.got.cif
#   From: 2010.03.12/outbox.cif.g09.slc.cpg/sg60_11_cif.got.tgz:20970.got - 2010.04.10 18:46:24.
