data_PCOD8246903
_publ_section_title
;
Structure prediction by ZEFSAII (Michael W. Deem and Ramdas Pophale) SiO2 
 PCOD8246903
Probable space group: P B C N
;
_chemical_formula_sum "Si O2"
_cell_formula_units_Z 48
_cell_length_a 9.032396
_cell_length_b 17.784414
_cell_length_c 15.324729
_cell_angle_alpha 90.000000
_cell_angle_beta 90.000000
_cell_angle_gamma 90.000000
_cell_volume 2461.701174
_symmetry_space_group_name_H-M "P B C N"
_symmetry_group_IT_number 60
_symmetry_cell_setting 'orthorhombic'
loop_
_space_group_symop_operation_xyz
x,y,z
1/2-x,1/2-y,1/2+z
1/2+x,1/2-y,-z
-x,y,1/2-z
-x,-y,-z
1/2+x,1/2+y,1/2-z
1/2-x,1/2+y,z
x,-y,1/2+z
loop_
_atom_site_type_symbol
_atom_site_label
_atom_site_fract_x
_atom_site_fract_y
_atom_site_fract_z
Si Si1 0.646807 0.787850 0.567531
Si Si2 0.319469 0.962022 0.588055
Si Si3 0.174457 0.794562 0.261695
Si Si4 0.200228 0.289796 0.591508
Si Si5 0.175439 0.035222 0.749803
Si Si6 0.163998 0.459907 0.908687
O O1 0.721989 0.747241 0.650017
O O2 0.700179 0.747867 0.481119
O O3 0.471021 0.779072 0.569266
O O4 0.698173 0.874049 0.566936
O O5 0.261401 0.877474 0.598348
O O6 0.491441 0.970120 0.612615
O O7 0.228800 0.013535 0.653813
O O8 0.287207 0.988235 0.489446
O O9 0.247544 0.750119 0.181445
O O10 0.230989 0.879999 0.267005
O O11 0.000000 0.792251 0.250000
O O12 0.000000 0.028367 0.750000
O O13 0.243789 0.981501 0.823278
#
# Coordination Sequence:
#
# PCOD8246903 Si02
#       6
#     8   8   8   8   8   8
#     4  10  20  36  57  79 107 142 178 219 266 318
#     4  10  21  37  57  81 110 145 182 222 273 329
#     4   9  19  35  53  75 106 143 176 212 268 323
#     4  10  20  36  57  79 107 142 178 219 266 318
#     4  11  22  35  55  81 108 141 182 228 272 319
#     4  10  21  37  57  81 110 145 182 222 273 329
#
# _framework density 19.498711
#
# number of rings (size 3 to 8) (size 9 to 14) (size 15 to 20)
#    0.000    2.000    0.000    3.500    0.000    4.667 
#    0.000    2.500    0.000    0.000    0.000    0.000 
#    0.000    0.000    0.000    0.000    0.000    0.000 
#
# Total GULP energy -595421.362047 kJ/mol
# GULP energy per Si atom -12404.611709 kJ/mol
# Density = 1.945433 g / cm^3
# Si number density = 19.498711 Si / 1000 Ang^3
#
#
#
# Elastic Constant Matrix: (Units=GPa)
#
#
# Indices 1 2 3 4 5 6 
#
# 1 26.9747 30.2588 9.5646 0.0000 0.0000 0.0000
# 2 30.2588 91.7351 20.1368 0.0000 0.0000 0.0000
# 3 9.5646 20.1368 74.2644 0.0000 0.0000 0.0000
# 4 0.0000 0.0000 0.0000 43.9359 0.0000 0.0000
# 5 0.0000 0.0000 0.0000 0.0000 32.5426 0.0000
# 6 0.0000 0.0000 0.0000 0.0000 0.0000 23.3999
#
#
#
# Elastic Compliance Matrix: (Units=1/GPa)
#
#
# Indices 1 2 3 4 5 6 
#
# 1 0.059272 -0.019006 -0.002480 0.000000 0.000000 0.000000
# 2 -0.019006 0.017686 -0.002348 0.000000 0.000000 0.000000
# 3 -0.002480 -0.002348 0.014421 0.000000 0.000000 0.000000
# 4 0.000000 0.000000 0.000000 0.022760 0.000000 0.000000
# 5 0.000000 0.000000 0.000000 0.000000 0.030729 0.000000
# 6 0.000000 0.000000 0.000000 0.000000 0.000000 0.042735
#
#
# Mechanical properties :
#
#
# Convention : Reuss Voigt Hill
#
# Bulk Modulus (GPa) = 22.87782 34.76606 28.82194
# Shear Modulus (GPa) = 20.01272 28.84327 24.42800
#
# Velocity S-wave (km/s) = 3.20716 3.85026 3.54333
# Velocity P-wave (km/s) = 5.04708 6.13471 5.61728
#
# Compressibility (1/GPa) = 0.04371046
#
# Stress axis : x y z
#
# Youngs Moduli (GPa) = 16.87151 56.54348 69.34159
#
# Poissons Ratio (x) = 1.07468 0.17197
# Poissons Ratio (y) = 0.32067 0.16279
# Poissons Ratio (z) = 0.04184 0.13274
#
# Static dielectric constant tensor:
#      x y z
#    x 3.294460 0.000000 0.000000 
#    y 0.000000 3.788620 0.000000 
#    z 0.000000 0.000000 3.292090 
# 
# 
# High freq. dielectric constant tensor:
#      x y z
#    x 1.734440 0.000000 0.000000 
#    y 0.000000 1.777810 0.000000 
#    z 0.000000 0.000000 1.774660 
# 
# From -- ./inp_files/14993.got.cif
#   From: 2010.03.12/outbox.cif.g09.slc.cpg/sg60_8_cif.got.tgz:14993.got - 2010.04.10 18:46:24.
