data_PCOD8246581
_publ_section_title
;
Structure prediction by ZEFSAII (Michael W. Deem and Ramdas Pophale) SiO2 
 PCOD8246581
Probable space group: P B C N
;
_chemical_formula_sum "Si O2"
_cell_formula_units_Z 48
_cell_length_a 12.447541
_cell_length_b 20.756905
_cell_length_c 9.729120
_cell_angle_alpha 90.000000
_cell_angle_beta 90.000000
_cell_angle_gamma 90.000000
_cell_volume 2513.736337
_symmetry_space_group_name_H-M "P B C N"
_symmetry_group_IT_number 60
_symmetry_cell_setting 'orthorhombic'
loop_
_space_group_symop_operation_xyz
x,y,z
1/2-x,1/2-y,1/2+z
1/2+x,1/2-y,-z
-x,y,1/2-z
-x,-y,-z
1/2+x,1/2+y,1/2-z
1/2-x,1/2+y,z
x,-y,1/2+z
loop_
_atom_site_type_symbol
_atom_site_label
_atom_site_fract_x
_atom_site_fract_y
_atom_site_fract_z
Si Si1 0.701641 0.180491 0.559412
Si Si2 0.978909 0.278352 0.402431
Si Si3 0.553242 0.354127 0.500030
Si Si4 0.753379 0.791382 0.358277
Si Si5 0.115462 0.048722 0.288620
Si Si6 0.346553 0.564003 0.983614
O O1 0.572514 0.170993 0.559397
O O2 0.727731 0.221328 0.423869
O O3 0.744339 0.218484 0.694569
O O4 0.753695 0.111080 0.565205
O O5 0.988527 0.212854 0.491316
O O6 0.000000 0.253037 0.250000
O O7 0.863544 0.313550 0.418078
O O8 0.653167 0.343114 0.394983
O O9 0.604168 0.379988 0.643270
O O10 0.466356 0.407730 0.452315
O O11 0.000000 0.019669 0.250000
O O12 0.170828 0.001352 0.398507
O O13 0.178690 0.052935 0.145021
#
# Coordination Sequence:
#
# PCOD8246581 Si02
#       6
#     8   8   8   8   8   8
#     4  10  22  34  58  80 114 148 185 230 275 337
#     4   9  17  35  53  80 109 148 183 215 282 335
#     4  10  19  33  58  81 117 143 183 231 277 336
#     4  10  21  35  56  82 112 150 181 226 285 332
#     4  10  22  35  56  81 117 152 183 227 285 331
#     4  11  22  37  56  87 116 146 189 231 279 337
#
# _framework density 19.095081
#
# number of rings (size 3 to 8) (size 9 to 14) (size 15 to 20)
#    0.000    2.000    1.667    3.500    9.333    0.000 
#    0.000    0.000    0.000    1.000    0.000    0.000 
#    0.000    0.000    0.000    0.000    0.000    0.000 
#
# Total GULP energy -594735.894165 kJ/mol
# GULP energy per Si atom -12390.331128 kJ/mol
# Density = 1.905162 g / cm^3
# Si number density = 19.095081 Si / 1000 Ang^3
#
#
#
# Elastic Constant Matrix: (Units=GPa)
#
#
# Indices 1 2 3 4 5 6 
#
# 1 82.8558 24.1070 7.7269 0.0000 0.0000 0.0000
# 2 24.1070 66.9564 18.7911 0.0000 0.0000 0.0000
# 3 7.7269 18.7911 56.0375 0.0000 0.0000 0.0000
# 4 0.0000 0.0000 0.0000 27.7851 0.0000 0.0000
# 5 0.0000 0.0000 0.0000 0.0000 22.2879 0.0000
# 6 0.0000 0.0000 0.0000 0.0000 0.0000 19.9586
#
#
#
# Elastic Compliance Matrix: (Units=1/GPa)
#
#
# Indices 1 2 3 4 5 6 
#
# 1 0.013485 -0.004783 -0.000255 0.000000 0.000000 0.000000
# 2 -0.004783 0.018183 -0.005438 0.000000 0.000000 0.000000
# 3 -0.000255 -0.005438 0.019704 0.000000 0.000000 0.000000
# 4 0.000000 0.000000 0.000000 0.035991 0.000000 0.000000
# 5 0.000000 0.000000 0.000000 0.000000 0.044867 0.000000
# 6 0.000000 0.000000 0.000000 0.000000 0.000000 0.050104
#
#
# Mechanical properties :
#
#
# Convention : Reuss Voigt Hill
#
# Bulk Modulus (GPa) = 32.87446 34.12220 33.49833
# Shear Modulus (GPa) = 23.42728 24.35463 23.89095
#
# Velocity S-wave (km/s) = 3.50648 3.57520 3.54101
# Velocity P-wave (km/s) = 5.80064 5.91195 5.85656
#
# Compressibility (1/GPa) = 0.03041875
#
# Stress axis : x y z
#
# Youngs Moduli (GPa) = 74.15808 54.99515 50.75137
#
# Poissons Ratio (x) = 0.26306 0.01296
# Poissons Ratio (y) = 0.35472 0.27598
# Poissons Ratio (z) = 0.01894 0.29906
#
# Static dielectric constant tensor:
#      x y z
#    x 3.654700 0.000000 0.000000 
#    y 0.000000 3.141740 0.000000 
#    z 0.000000 0.000000 3.608190 
# 
# 
# High freq. dielectric constant tensor:
#      x y z
#    x 1.729140 0.000000 0.000000 
#    y 0.000000 1.711030 0.000000 
#    z 0.000000 0.000000 1.746000 
# 
# From -- ./inp_files/11123.got.cif
#   From: 2010.03.12/outbox.cif.g09.slc.cpg/sg60_6_cif.got.tgz:11123.got - 2010.04.10 18:46:24.
