data_PCOD8246787
_publ_section_title
;
Structure prediction by ZEFSAII (Michael W. Deem and Ramdas Pophale) SiO2 
 PCOD8246787
Probable space group: P B C N
;
_chemical_formula_sum "Si O2"
_cell_formula_units_Z 56
_cell_length_a 16.763869
_cell_length_b 23.599240
_cell_length_c 8.417106
_cell_angle_alpha 90.000000
_cell_angle_beta 90.000000
_cell_angle_gamma 90.000000
_cell_volume 3329.929753
_symmetry_space_group_name_H-M "P B C N"
_symmetry_group_IT_number 60
_symmetry_cell_setting 'orthorhombic'
loop_
_space_group_symop_operation_xyz
x,y,z
1/2-x,1/2-y,1/2+z
1/2+x,1/2-y,-z
-x,y,1/2-z
-x,-y,-z
1/2+x,1/2+y,1/2-z
1/2-x,1/2+y,z
x,-y,1/2+z
loop_
_atom_site_type_symbol
_atom_site_label
_atom_site_fract_x
_atom_site_fract_y
_atom_site_fract_z
Si Si1 0.706095 0.315517 0.936095
Si Si2 0.015826 0.438069 0.563600
Si Si3 0.897485 0.348287 0.411005
Si Si4 0.790805 0.711273 0.135015
Si Si5 0.536531 0.278666 0.912308
Si Si6 0.430254 0.774752 0.642932
Si Si7 0.649024 0.870429 0.060048
O O1 0.720529 0.311646 0.746667
O O2 0.610927 0.319139 0.962188
O O3 0.742877 0.258229 0.014863
O O4 0.756789 0.367494 0.011333
O O5 0.962978 0.392882 0.467257
O O6 0.000000 0.434260 0.750000
O O7 0.000000 0.500000 0.500000
O O8 0.108678 0.425399 0.521113
O O9 0.827341 0.342757 0.541909
O O10 0.934537 0.285998 0.386068
O O11 0.858836 0.371180 0.249167
O O12 0.859486 0.743059 0.239014
O O13 0.500000 0.302834 0.750000
O O14 0.470098 0.279356 0.052600
O O15 0.500000 0.804456 0.750000
O O16 0.398252 0.817205 0.511186
#
# Coordination Sequence:
#
# PCOD8246787 Si02
#       7
#     8   8   8   8   8   8   8
#     4  10  20  29  43  65  89 126 167 203 246 287
#     4  12  23  35  53  74  95 127 168 202 243 289
#     4  11  19  32  48  66  92 128 164 206 246 285
#     4  10  20  28  44  64  90 123 169 201 243 291
#     4  11  19  30  45  66  93 131 170 202 242 293
#     4  11  17  28  44  61  86 123 160 202 236 280
#     4  11  20  33  47  64  95 124 163 204 242 286
#
# _framework density 16.817170999999998
#
# number of rings (size 3 to 8) (size 9 to 14) (size 15 to 20)
#    0.000    1.143    5.714    5.143    2.000    0.000 
#    0.000    0.000    0.000    0.000    0.000    0.000 
#    0.000    0.000    0.000   11.571    5.429    8.429 
#
# Total GULP energy -694028.735446 kJ/mol
# GULP energy per Si atom -12393.370276 kJ/mol
# Density = 1.677889 g / cm^3
# Si number density = 16.817171 Si / 1000 Ang^3
#
#
#
# Elastic Constant Matrix: (Units=GPa)
#
#
# Indices 1 2 3 4 5 6 
#
# 1 82.6175 32.5962 34.2942 0.0000 0.0000 0.0000
# 2 32.5962 50.1417 15.2801 0.0000 0.0000 0.0000
# 3 34.2942 15.2801 112.3453 0.0000 0.0000 0.0000
# 4 0.0000 0.0000 0.0000 16.6560 0.0000 0.0000
# 5 0.0000 0.0000 0.0000 0.0000 33.4750 0.0000
# 6 0.0000 0.0000 0.0000 0.0000 0.0000 16.3345
#
#
#
# Elastic Compliance Matrix: (Units=1/GPa)
#
#
# Indices 1 2 3 4 5 6 
#
# 1 0.017884 -0.010393 -0.004046 0.000000 0.000000 0.000000
# 2 -0.010393 0.026846 -0.000479 0.000000 0.000000 0.000000
# 3 -0.004046 -0.000479 0.010201 0.000000 0.000000 0.000000
# 4 0.000000 0.000000 0.000000 0.060038 0.000000 0.000000
# 5 0.000000 0.000000 0.000000 0.000000 0.029873 0.000000
# 6 0.000000 0.000000 0.000000 0.000000 0.000000 0.061220
#
#
# Mechanical properties :
#
#
# Convention : Reuss Voigt Hill
#
# Bulk Modulus (GPa) = 39.84715 45.49395 42.67055
# Shear Modulus (GPa) = 20.46978 24.15535 22.31257
#
# Velocity S-wave (km/s) = 3.49262 3.79403 3.64644
# Velocity P-wave (km/s) = 6.32537 6.80468 6.56940
#
# Compressibility (1/GPa) = 0.02509590
#
# Stress axis : x y z
#
# Youngs Moduli (GPa) = 55.91657 37.24991 98.02784
#
# Poissons Ratio (x) = 0.38714 0.39658
# Poissons Ratio (y) = 0.58114 0.04693
# Poissons Ratio (z) = 0.22622 0.01783
#
# Static dielectric constant tensor:
#      x y z
#    x 3.387560 0.000000 0.000000 
#    y 0.000000 2.712450 0.000000 
#    z 0.000000 0.000000 3.629720 
# 
# 
# High freq. dielectric constant tensor:
#      x y z
#    x 1.645940 0.000000 0.000000 
#    y 0.000000 1.561620 0.000000 
#    z 0.000000 0.000000 1.682410 
# 
# From -- ./inp_files/6961.got.cif
#   From: 2010.03.12/outbox.cif.g09.slc.cpg/sg60_4_cif.got.tgz:6961.got - 2010.04.10 18:46:24.
