data_PCOD8246592
_publ_section_title
;
Structure prediction by ZEFSAII (Michael W. Deem and Ramdas Pophale) SiO2 
 PCOD8246592
Probable space group: P B C N
;
_chemical_formula_sum "Si O2"
_cell_formula_units_Z 40
_cell_length_a 13.865389
_cell_length_b 30.816219
_cell_length_c 5.115618
_cell_angle_alpha 90.000000
_cell_angle_beta 90.000000
_cell_angle_gamma 90.000000
_cell_volume 2185.795447
_symmetry_space_group_name_H-M "P B C N"
_symmetry_group_IT_number 60
_symmetry_cell_setting 'orthorhombic'
loop_
_space_group_symop_operation_xyz
x,y,z
1/2-x,1/2-y,1/2+z
1/2+x,1/2-y,-z
-x,y,1/2-z
-x,-y,-z
1/2+x,1/2+y,1/2-z
1/2-x,1/2+y,z
x,-y,1/2+z
loop_
_atom_site_type_symbol
_atom_site_label
_atom_site_fract_x
_atom_site_fract_y
_atom_site_fract_z
Si Si1 0.609160 0.195615 0.230793
Si Si2 0.107185 0.882286 0.186764
Si Si3 0.891293 0.248214 0.233381
Si Si4 0.299530 0.342282 0.684515
Si Si5 0.106915 0.018033 0.565382
O O1 0.500000 0.177417 0.250000
O O2 0.627672 0.233524 0.443571
O O3 0.683608 0.155591 0.273220
O O4 0.627555 0.213944 0.941781
O O5 0.178300 0.863723 0.405863
O O6 0.107535 0.934010 0.180214
O O7 0.000000 0.864940 0.250000
O O8 0.139604 0.866675 0.903643
O O9 0.821718 0.208747 0.302893
O O10 0.000000 0.230450 0.250000
O O11 0.159838 0.012311 0.285355
O O12 0.000000 0.000000 0.500000
#
# Coordination Sequence:
#
# PCOD8246592 Si02
#       5
#     8   8   8   8   8
#     4  10  21  37  56  71  99 147 192 226 263 314
#     4  12  23  34  52  80 113 143 165 214 267 318
#     4  10  19  34  53  73 102 145 182 218 272 325
#     4  12  23  34  51  81 111 134 182 229 274 304
#     4  10  19  34  55  71 103 149 176 187 242 330
#
# _framework density 18.299973999999999
#
# number of rings (size 3 to 8) (size 9 to 14) (size 15 to 20)
#    0.000    1.200    2.000    6.600    2.800    1.600 
#    0.000    0.000    0.000    0.000    0.000    0.000 
#    0.000   16.000    0.000    0.000    0.000    0.000 
#
# Total GULP energy -495839.762394 kJ/mol
# GULP energy per Si atom -12395.994060 kJ/mol
# Density = 1.825832 g / cm^3
# Si number density = 18.299974 Si / 1000 Ang^3
#
#
#
# Elastic Constant Matrix: (Units=GPa)
#
#
# Indices 1 2 3 4 5 6 
#
# 1 80.1176 28.4133 7.3299 0.0000 0.0000 0.0000
# 2 28.4133 50.0849 5.8187 0.0000 0.0000 0.0000
# 3 7.3299 5.8187 99.5793 0.0000 0.0000 0.0000
# 4 0.0000 0.0000 0.0000 6.7428 0.0000 0.0000
# 5 0.0000 0.0000 0.0000 0.0000 24.1435 0.0000
# 6 0.0000 0.0000 0.0000 0.0000 0.0000 10.6524
#
#
#
# Elastic Compliance Matrix: (Units=1/GPa)
#
#
# Indices 1 2 3 4 5 6 
#
# 1 0.015665 -0.008813 -0.000638 0.000000 0.000000 0.000000
# 2 -0.008813 0.025060 -0.000816 0.000000 0.000000 0.000000
# 3 -0.000638 -0.000816 0.010137 0.000000 0.000000 0.000000
# 4 0.000000 0.000000 0.000000 0.148307 0.000000 0.000000
# 5 0.000000 0.000000 0.000000 0.000000 0.041419 0.000000
# 6 0.000000 0.000000 0.000000 0.000000 0.000000 0.093876
#
#
# Mechanical properties :
#
#
# Convention : Reuss Voigt Hill
#
# Bulk Modulus (GPa) = 32.97136 34.76731 33.86933
# Shear Modulus (GPa) = 13.69460 20.85573 17.27517
#
# Velocity S-wave (km/s) = 2.73855 3.37955 3.07579
# Velocity P-wave (km/s) = 5.29677 5.85391 5.58230
#
# Compressibility (1/GPa) = 0.03032935
#
# Stress axis : x y z
#
# Youngs Moduli (GPa) = 63.83457 39.90354 98.64965
#
# Poissons Ratio (x) = 0.35167 0.06295
# Poissons Ratio (y) = 0.56257 0.08046
# Poissons Ratio (z) = 0.04074 0.03255
#
# Static dielectric constant tensor:
#      x y z
#    x 3.506150 0.000000 0.000000 
#    y 0.000000 3.166070 0.000000 
#    z 0.000000 0.000000 -2.134820 
# 
# 
# High freq. dielectric constant tensor:
#      x y z
#    x 1.682370 0.000000 0.000000 
#    y 0.000000 1.676420 0.000000 
#    z 0.000000 0.000000 1.746580 
# 
# From -- ./inp_files/1210.got.cif
#   From: 2010.03.12/outbox.cif.g09.slc.cpg/sg60_1_cif.got.tgz:1210.got - 2010.04.10 18:46:24.
