data_PCOD8246374
_publ_section_title
;
Structure prediction by ZEFSAII (Michael W. Deem and Ramdas Pophale) SiO2 
 PCOD8246374
Probable space group: P B C N
;
_chemical_formula_sum "Si O2"
_cell_formula_units_Z 60
_cell_length_a 14.549611
_cell_length_b 12.638361
_cell_length_c 17.395350
_cell_angle_alpha 90.000000
_cell_angle_beta 90.000000
_cell_angle_gamma 90.000000
_cell_volume 3198.713253
_symmetry_space_group_name_H-M "P B C N"
_symmetry_group_IT_number 60
_symmetry_cell_setting 'orthorhombic'
loop_
_space_group_symop_operation_xyz
x,y,z
1/2-x,1/2-y,1/2+z
1/2+x,1/2-y,-z
-x,y,1/2-z
-x,-y,-z
1/2+x,1/2+y,1/2-z
1/2-x,1/2+y,z
x,-y,1/2+z
loop_
_atom_site_type_symbol
_atom_site_label
_atom_site_fract_x
_atom_site_fract_y
_atom_site_fract_z
Si Si1 0.373632 0.132190 0.344035
Si Si2 0.241001 0.830894 0.339510
Si Si3 0.141278 0.546580 0.729799
Si Si4 0.000000 0.272619 0.250000
Si Si5 0.354662 0.009349 0.556911
Si Si6 0.214243 0.018039 0.435911
Si Si7 0.912291 0.203112 0.100497
Si Si8 0.503453 0.843655 0.515963
O O1 0.325320 0.237247 0.309433
O O2 0.405866 0.049826 0.278151
O O3 0.301825 0.067041 0.393610
O O4 0.459130 0.169551 0.396878
O O5 0.331328 0.785834 0.381469
O O6 0.265281 0.909651 0.269072
O O7 0.189470 0.901732 0.403722
O O8 0.161946 0.497312 0.647265
O O9 0.079248 0.649741 0.721099
O O10 0.027911 0.196892 0.321097
O O11 0.250472 0.011880 0.523539
O O12 0.415623 0.112298 0.538426
O O13 0.411705 0.913728 0.519322
O O14 0.124485 0.088633 0.423754
O O15 0.972677 0.236713 0.026669
#
# Coordination Sequence:
#
# PCOD8246374 Si02
#       8
#     8   8   8   4   8   8   8   8
#     4   9  19  32  52  78 107 138 180 235 285 320
#     4   9  18  35  51  73 107 146 180 222 283 336
#     4  10  18  31  52  78 104 136 184 228 281 334
#     4  10  18  30  54  82 106 134 182 234 270 324
#     4  10  18  31  53  80 108 135 181 237 276 321
#     4   9  18  33  54  75 107 147 179 221 281 336
#     4  10  18  32  55  81 106 143 188 228 278 333
#     4  10  18  31  52  82 107 136 182 230 281 327
#
# _framework density 18.757542000000001
#
# number of rings (size 3 to 8) (size 9 to 14) (size 15 to 20)
#    0.000    2.400    2.667    0.800    3.733    0.000 
#    2.400    0.667    2.933    2.400    0.000    0.000 
#    0.000    0.000    0.000    0.000    0.000    0.000 
#
# Total GULP energy -743523.034111 kJ/mol
# GULP energy per Si atom -12392.050569 kJ/mol
# Density = 1.871485 g / cm^3
# Si number density = 18.757542 Si / 1000 Ang^3
#
#
#
# Elastic Constant Matrix: (Units=GPa)
#
#
# Indices 1 2 3 4 5 6 
#
# 1 56.1646 29.2219 34.2015 0.0000 0.0000 0.0000
# 2 29.2219 59.7918 29.2595 0.0000 0.0000 0.0000
# 3 34.2015 29.2595 116.7054 0.0000 0.0000 0.0000
# 4 0.0000 0.0000 0.0000 15.9728 0.0000 0.0000
# 5 0.0000 0.0000 0.0000 0.0000 25.9005 0.0000
# 6 0.0000 0.0000 0.0000 0.0000 0.0000 20.6398
#
#
#
# Elastic Compliance Matrix: (Units=1/GPa)
#
#
# Indices 1 2 3 4 5 6 
#
# 1 0.026306 -0.010354 -0.005113 0.000000 0.000000 0.000000
# 2 -0.010354 0.023139 -0.002767 0.000000 0.000000 0.000000
# 3 -0.005113 -0.002767 0.010761 0.000000 0.000000 0.000000
# 4 0.000000 0.000000 0.000000 0.062606 0.000000 0.000000
# 5 0.000000 0.000000 0.000000 0.000000 0.038609 0.000000
# 6 0.000000 0.000000 0.000000 0.000000 0.000000 0.048450
#
#
# Mechanical properties :
#
#
# Convention : Reuss Voigt Hill
#
# Bulk Modulus (GPa) = 42.12827 46.44753 44.28790
# Shear Modulus (GPa) = 19.66553 21.83455 20.75004
#
# Velocity S-wave (km/s) = 3.24142 3.41551 3.32960
# Velocity P-wave (km/s) = 6.04295 6.35374 6.20029
#
# Compressibility (1/GPa) = 0.02373703
#
# Stress axis : x y z
#
# Youngs Moduli (GPa) = 38.01467 43.21701 92.93046
#
# Poissons Ratio (x) = 0.44747 0.47517
# Poissons Ratio (y) = 0.39361 0.25713
# Poissons Ratio (z) = 0.19438 0.11958
#
# Static dielectric constant tensor:
#      x y z
#    x 3.224260 0.000000 0.000000 
#    y 0.000000 3.324240 0.000000 
#    z 0.000000 0.000000 3.510010 
# 
# 
# High freq. dielectric constant tensor:
#      x y z
#    x 1.698790 0.000000 0.000000 
#    y 0.000000 1.708710 0.000000 
#    z 0.000000 0.000000 1.725170 
# 
# From -- ./inp_files/20624.got.cif
#   From: 2010.03.12/outbox.cif.g09.slc.cpg/sg60_11_cif.got.tgz:20624.got - 2010.04.10 18:46:24.
