data_PCOD8246827
_publ_section_title
;
Structure prediction by ZEFSAII (Michael W. Deem and Ramdas Pophale) SiO2 
 PCOD8246827
Probable space group: P B C N
;
_chemical_formula_sum "Si O2"
_cell_formula_units_Z 64
_cell_length_a 11.098241
_cell_length_b 12.687360
_cell_length_c 21.997089
_cell_angle_alpha 90.000000
_cell_angle_beta 90.000000
_cell_angle_gamma 90.000000
_cell_volume 3097.352446
_symmetry_space_group_name_H-M "P B C N"
_symmetry_group_IT_number 60
_symmetry_cell_setting 'orthorhombic'
loop_
_space_group_symop_operation_xyz
x,y,z
1/2-x,1/2-y,1/2+z
1/2+x,1/2-y,-z
-x,y,1/2-z
-x,-y,-z
1/2+x,1/2+y,1/2-z
1/2-x,1/2+y,z
x,-y,1/2+z
loop_
_atom_site_type_symbol
_atom_site_label
_atom_site_fract_x
_atom_site_fract_y
_atom_site_fract_z
Si Si1 0.059866 0.940027 0.814962
Si Si2 0.624254 0.420593 0.463592
Si Si3 0.048872 0.158898 0.863821
Si Si4 0.661405 0.790692 0.808113
Si Si5 0.813408 0.659755 0.171363
Si Si6 0.976331 0.505059 0.319552
Si Si7 0.966554 0.867871 0.935679
Si Si8 0.155968 0.325420 0.108698
O O1 0.175601 0.870552 0.829567
O O2 0.000000 0.916502 0.750000
O O3 0.965313 0.904732 0.865582
O O4 0.095522 0.062117 0.822471
O O5 0.505936 0.381671 0.426799
O O6 0.623182 0.548032 0.468275
O O7 0.598760 0.372953 0.531216
O O8 0.748415 0.384950 0.433771
O O9 0.156285 0.244159 0.875481
O O10 0.946933 0.216659 0.825945
O O11 0.664540 0.786340 0.736153
O O12 0.782065 0.746674 0.839589
O O13 0.634462 0.912351 0.826355
O O14 0.899864 0.559509 0.157193
O O15 0.938983 0.404764 0.359966
O O16 0.000000 0.469353 0.250000
O O17 0.916436 0.749348 0.937847
#
# Coordination Sequence:
#
# PCOD8246827 Si02
#       8
#     8   8   8   8   8   8   8   8
#     4  11  22  35  55  84 114 146 186 231 291 356
#     4   9  21  41  60  79 111 153 193 237 285 345
#     4   9  19  36  57  76 103 151 194 222 280 351
#     4   9  18  34  54  78 113 153 184 223 286 355
#     4  10  20  34  53  80 119 149 182 240 290 337
#     4   9  20  35  52  85 121 149 188 237 290 342
#     4  10  22  39  57  83 113 145 193 237 280 347
#     4  11  20  34  62  86 110 152 197 239 287 341
#
# _framework density 20.662808999999999
#
# number of rings (size 3 to 8) (size 9 to 14) (size 15 to 20)
#    0.000    2.250    0.000    3.375    0.000   10.500 
#    0.000    2.500    0.000    8.250    0.000    0.000 
#    0.000    0.000    0.000    0.000    0.000    0.000 
#
# Total GULP energy -793093.499042 kJ/mol
# GULP energy per Si atom -12392.085923 kJ/mol
# Density = 2.061578 g / cm^3
# Si number density = 20.662809 Si / 1000 Ang^3
#
#
#
# Elastic Constant Matrix: (Units=GPa)
#
#
# Indices 1 2 3 4 5 6 
#
# 1 65.6288 35.3976 10.7939 0.0000 0.0000 0.0000
# 2 35.3976 110.8674 20.7745 0.0000 0.0000 0.0000
# 3 10.7939 20.7745 67.3850 0.0000 0.0000 0.0000
# 4 0.0000 0.0000 0.0000 27.3755 0.0000 0.0000
# 5 0.0000 0.0000 0.0000 0.0000 23.2865 0.0000
# 6 0.0000 0.0000 0.0000 0.0000 0.0000 23.5945
#
#
#
# Elastic Compliance Matrix: (Units=1/GPa)
#
#
# Indices 1 2 3 4 5 6 
#
# 1 0.018500 -0.005679 -0.001212 0.000000 0.000000 0.000000
# 2 -0.005679 0.011316 -0.002579 0.000000 0.000000 0.000000
# 3 -0.001212 -0.002579 0.015829 0.000000 0.000000 0.000000
# 4 0.000000 0.000000 0.000000 0.036529 0.000000 0.000000
# 5 0.000000 0.000000 0.000000 0.000000 0.042943 0.000000
# 6 0.000000 0.000000 0.000000 0.000000 0.000000 0.042383
#
#
# Mechanical properties :
#
#
# Convention : Reuss Voigt Hill
#
# Bulk Modulus (GPa) = 37.44773 41.97925 39.71349
# Shear Modulus (GPa) = 25.59590 26.64566 26.12078
#
# Velocity S-wave (km/s) = 3.52340 3.59492 3.55934
# Velocity P-wave (km/s) = 5.89195 6.13121 6.01277
#
# Compressibility (1/GPa) = 0.02670389
#
# Stress axis : x y z
#
# Youngs Moduli (GPa) = 54.05434 88.36756 63.17352
#
# Poissons Ratio (x) = 0.50188 0.07659
# Poissons Ratio (y) = 0.30700 0.16293
# Poissons Ratio (z) = 0.06554 0.22790
#
# Static dielectric constant tensor:
#      x y z
#    x 3.696470 0.000000 0.000000 
#    y 0.000000 4.119670 0.000000 
#    z 0.000000 0.000000 3.788850 
# 
# 
# High freq. dielectric constant tensor:
#      x y z
#    x 1.789930 0.000000 0.000000 
#    y 0.000000 1.818170 0.000000 
#    z 0.000000 0.000000 1.795510 
# 
# From -- ./inp_files/24313.got.cif
#   From: 2010.03.12/outbox.cif.g09.slc.cpg/sg60_13_cif.got.tgz:24313.got - 2010.04.10 18:46:24.
