data_PCOD8246874
_publ_section_title
;
Structure prediction by ZEFSAII (Michael W. Deem and Ramdas Pophale) SiO2 
 PCOD8246874
Probable space group: P B C N
;
_chemical_formula_sum "Si O2"
_cell_formula_units_Z 40
_cell_length_a 18.908930
_cell_length_b 4.984467
_cell_length_c 20.758426
_cell_angle_alpha 90.000000
_cell_angle_beta 90.000000
_cell_angle_gamma 90.000000
_cell_volume 1956.501113
_symmetry_space_group_name_H-M "P B C N"
_symmetry_group_IT_number 60
_symmetry_cell_setting 'orthorhombic'
loop_
_space_group_symop_operation_xyz
x,y,z
1/2-x,1/2-y,1/2+z
1/2+x,1/2-y,-z
-x,y,1/2-z
-x,-y,-z
1/2+x,1/2+y,1/2-z
1/2-x,1/2+y,z
x,-y,1/2+z
loop_
_atom_site_type_symbol
_atom_site_label
_atom_site_fract_x
_atom_site_fract_y
_atom_site_fract_z
Si Si1 0.204188 0.024217 0.324437
Si Si2 0.064060 0.793470 0.011636
Si Si3 0.021132 0.495597 0.892262
Si Si4 0.048493 0.994621 0.809908
Si Si5 0.205834 0.992548 0.474914
O O1 0.260999 0.245891 0.303336
O O2 0.187004 0.034004 0.400180
O O3 0.128852 0.078947 0.289003
O O4 0.051678 0.620178 0.076868
O O5 0.071015 0.587308 0.951529
O O6 0.136831 0.953930 0.018281
O O7 0.000000 0.000000 0.000000
O O8 0.058939 0.254536 0.854894
O O9 0.008592 0.748812 0.845471
O O10 0.000000 0.076520 0.750000
O O11 0.268829 0.196166 0.492867
#
# Coordination Sequence:
#
# PCOD8246874 Si02
#       5
#     8   8   8   8   8
#     4  10  20  35  58  85 118 152 193 254 311 355
#     4  11  22  38  65  88 129 157 196 251 302 391
#     4  11  23  37  62  91 118 159 205 237 315 348
#     4  12  24  41  61  90 123 158 212 257 293 360
#     4  10  22  33  56  90 125 152 192 250 312 359
#
# _framework density 20.444659000000001
#
# number of rings (size 3 to 8) (size 9 to 14) (size 15 to 20)
#    0.000    1.200    4.000    1.800   11.200    0.000 
#    0.000    0.000    0.000    7.200    0.000    0.000 
#    0.000    0.000    0.000    0.000    0.000    0.000 
#
# Total GULP energy -495989.076785 kJ/mol
# GULP energy per Si atom -12399.726920 kJ/mol
# Density = 2.039813 g / cm^3
# Si number density = 20.444659 Si / 1000 Ang^3
#
#
#
# Elastic Constant Matrix: (Units=GPa)
#
#
# Indices 1 2 3 4 5 6 
#
# 1 113.9051 15.1261 36.2714 0.0000 0.0000 0.0000
# 2 15.1261 103.4433 23.7686 0.0000 0.0000 0.0000
# 3 36.2714 23.7686 47.3848 0.0000 0.0000 0.0000
# 4 0.0000 0.0000 0.0000 25.9088 0.0000 0.0000
# 5 0.0000 0.0000 0.0000 0.0000 23.3038 0.0000
# 6 0.0000 0.0000 0.0000 0.0000 0.0000 24.3018
#
#
#
# Elastic Compliance Matrix: (Units=1/GPa)
#
#
# Indices 1 2 3 4 5 6 
#
# 1 0.011623 0.000390 -0.009092 0.000000 0.000000 0.000000
# 2 0.000390 0.010940 -0.005786 0.000000 0.000000 0.000000
# 3 -0.009092 -0.005786 0.030966 0.000000 0.000000 0.000000
# 4 0.000000 0.000000 0.000000 0.038597 0.000000 0.000000
# 5 0.000000 0.000000 0.000000 0.000000 0.042911 0.000000
# 6 0.000000 0.000000 0.000000 0.000000 0.000000 0.041149
#
#
# Mechanical properties :
#
#
# Convention : Reuss Voigt Hill
#
# Bulk Modulus (GPa) = 40.73062 46.11838 43.42450
# Shear Modulus (GPa) = 23.43609 27.34068 25.38838
#
# Velocity S-wave (km/s) = 3.38941 3.66088 3.52776
# Velocity P-wave (km/s) = 5.93995 6.36208 6.15464
#
# Compressibility (1/GPa) = 0.02455155
#
# Stress axis : x y z
#
# Youngs Moduli (GPa) = 86.03777 91.41146 32.29373
#
# Poissons Ratio (x) = -0.03562 0.29362
# Poissons Ratio (y) = -0.03352 0.18684
# Poissons Ratio (z) = 0.78228 0.52887
#
# Static dielectric constant tensor:
#      x y z
#    x 3.529450 0.000000 0.000000 
#    y 0.000000 4.025890 0.000000 
#    z 0.000000 0.000000 3.368560 
# 
# 
# High freq. dielectric constant tensor:
#      x y z
#    x 1.792330 0.000000 0.000000 
#    y 0.000000 1.826430 0.000000 
#    z 0.000000 0.000000 1.739730 
# 
# From -- ./inp_files/20731.got.cif
#   From: 2010.03.12/outbox.cif.g09.slc.cpg/sg60_11_cif.got.tgz:20731.got - 2010.04.10 18:46:24.
