data_PCOD8246665
_publ_section_title
;
Structure prediction by ZEFSAII (Michael W. Deem and Ramdas Pophale) SiO2 
 PCOD8246665
Probable space group: P B C N
;
_chemical_formula_sum "Si O2"
_cell_formula_units_Z 48
_cell_length_a 9.211343
_cell_length_b 18.983522
_cell_length_c 13.477639
_cell_angle_alpha 90.000000
_cell_angle_beta 90.000000
_cell_angle_gamma 90.000000
_cell_volume 2356.750261
_symmetry_space_group_name_H-M "P B C N"
_symmetry_group_IT_number 60
_symmetry_cell_setting 'orthorhombic'
loop_
_space_group_symop_operation_xyz
x,y,z
1/2-x,1/2-y,1/2+z
1/2+x,1/2-y,-z
-x,y,1/2-z
-x,-y,-z
1/2+x,1/2+y,1/2-z
1/2-x,1/2+y,z
x,-y,1/2+z
loop_
_atom_site_type_symbol
_atom_site_label
_atom_site_fract_x
_atom_site_fract_y
_atom_site_fract_z
Si Si1 0.125256 0.517435 0.884692
Si Si2 0.899479 0.341879 0.012981
Si Si3 0.196844 0.505378 0.665166
Si Si4 0.795497 0.848560 0.828632
Si Si5 0.278659 0.892945 0.004075
Si Si6 0.383996 0.702773 0.375104
O O1 0.168956 0.584517 0.950771
O O2 0.163456 0.535840 0.772503
O O3 0.955228 0.494689 0.895320
O O4 0.219447 0.451732 0.918435
O O5 0.867761 0.284926 0.099136
O O6 0.072055 0.349400 0.007601
O O7 0.827160 0.321162 0.906271
O O8 0.289854 0.433866 0.671253
O O9 0.273566 0.569227 0.606034
O O10 0.774877 0.818073 0.716323
O O11 0.951508 0.819460 0.857426
O O12 0.156359 0.837802 0.975543
#
# Coordination Sequence:
#
# PCOD8246665 Si02
#       6
#     8   8   8   8   8   8
#     4  10  19  35  65  94 108 154 212 252 282 339
#     4  11  22  41  62  87 122 155 205 252 289 356
#     4  10  19  35  64  89 118 150 205 254 287 344
#     4  11  22  41  58  85 123 160 194 245 307 360
#     4  11  20  39  64  92 113 162 207 247 293 349
#     4  11  26  37  60  90 127 160 191 240 319 369
#
# _framework density 20.36703
#
# number of rings (size 3 to 8) (size 9 to 14) (size 15 to 20)
#    0.000    1.333    5.000    2.000    0.000    8.000 
#    0.000    0.000    0.000    2.000    0.000    0.000 
#    0.000    0.000    0.000    0.000    0.000    0.000 
#
# Total GULP energy -594937.287574 kJ/mol
# GULP energy per Si atom -12394.526824 kJ/mol
# Density = 2.032067 g / cm^3
# Si number density = 20.367030 Si / 1000 Ang^3
#
#
#
# Elastic Constant Matrix: (Units=GPa)
#
#
# Indices 1 2 3 4 5 6 
#
# 1 23.5750 27.1552 17.7105 0.0000 0.0000 0.0000
# 2 27.1552 111.0546 55.4724 0.0000 0.0000 0.0000
# 3 17.7105 55.4724 96.9739 0.0000 0.0000 0.0000
# 4 0.0000 0.0000 0.0000 38.0087 0.0000 0.0000
# 5 0.0000 0.0000 0.0000 0.0000 28.9174 0.0000
# 6 0.0000 0.0000 0.0000 0.0000 0.0000 26.4532
#
#
#
# Elastic Compliance Matrix: (Units=1/GPa)
#
#
# Indices 1 2 3 4 5 6 
#
# 1 0.059928 -0.012862 -0.003587 0.000000 0.000000 0.000000
# 2 -0.012862 0.015367 -0.006442 0.000000 0.000000 0.000000
# 3 -0.003587 -0.006442 0.014652 0.000000 0.000000 0.000000
# 4 0.000000 0.000000 0.000000 0.026310 0.000000 0.000000
# 5 0.000000 0.000000 0.000000 0.000000 0.034581 0.000000
# 6 0.000000 0.000000 0.000000 0.000000 0.000000 0.037803
#
#
# Mechanical properties :
#
#
# Convention : Reuss Voigt Hill
#
# Bulk Modulus (GPa) = 22.64207 48.03108 35.33658
# Shear Modulus (GPa) = 20.06876 27.42690 23.74783
#
# Velocity S-wave (km/s) = 3.14244 3.67363 3.41837
# Velocity P-wave (km/s) = 4.93029 6.45198 5.74177
#
# Compressibility (1/GPa) = 0.04416557
#
# Stress axis : x y z
#
# Youngs Moduli (GPa) = 16.68679 65.07384 68.24995
#
# Poissons Ratio (x) = 0.83696 0.24483
# Poissons Ratio (y) = 0.21462 0.43964
# Poissons Ratio (z) = 0.05986 0.41918
#
# Static dielectric constant tensor:
#      x y z
#    x 3.334280 0.000000 0.000000 
#    y 0.000000 3.665720 0.000000 
#    z 0.000000 0.000000 4.074110 
# 
# 
# High freq. dielectric constant tensor:
#      x y z
#    x 1.755530 0.000000 0.000000 
#    y 0.000000 1.797130 0.000000 
#    z 0.000000 0.000000 1.816870 
# 
# From -- ./inp_files/14960.got.cif
#   From: 2010.03.12/outbox.cif.g09.slc.cpg/sg60_8_cif.got.tgz:14960.got - 2010.04.10 18:46:24.
