data_PCOD8246744
_publ_section_title
;
Structure prediction by ZEFSAII (Michael W. Deem and Ramdas Pophale) SiO2 
 PCOD8246744
Probable space group: P B C N
;
_chemical_formula_sum "Si O2"
_cell_formula_units_Z 52
_cell_length_a 27.102440
_cell_length_b 5.161104
_cell_length_c 17.639625
_cell_angle_alpha 90.000000
_cell_angle_beta 90.000000
_cell_angle_gamma 90.000000
_cell_volume 2467.404488
_symmetry_space_group_name_H-M "P B C N"
_symmetry_group_IT_number 60
_symmetry_cell_setting 'orthorhombic'
loop_
_space_group_symop_operation_xyz
x,y,z
1/2-x,1/2-y,1/2+z
1/2+x,1/2-y,-z
-x,y,1/2-z
-x,-y,-z
1/2+x,1/2+y,1/2-z
1/2-x,1/2+y,z
x,-y,1/2+z
loop_
_atom_site_type_symbol
_atom_site_label
_atom_site_fract_x
_atom_site_fract_y
_atom_site_fract_z
Si Si1 0.097959 0.834034 0.734055
Si Si2 0.500000 0.342110 0.250000
Si Si3 0.855255 0.928866 0.132086
Si Si4 0.718397 0.731066 0.523071
Si Si5 0.092156 0.766937 0.981875
Si Si6 0.939059 0.538321 0.144451
Si Si7 0.881341 0.251191 0.436830
O O1 0.087599 0.575620 0.781233
O O2 0.119396 0.760412 0.653498
O O3 0.046903 0.988264 0.728218
O O4 0.140030 0.999344 0.779287
O O5 0.489228 0.170195 0.325384
O O6 0.803230 0.796718 0.109643
O O7 0.901122 0.743876 0.107387
O O8 0.862044 0.181516 0.076986
O O9 0.759497 0.513728 0.509643
O O10 0.673848 0.687861 0.464306
O O11 0.048707 0.672731 0.922334
O O12 0.103212 0.539633 0.040805
O O13 0.081463 0.028792 0.029787
#
# Coordination Sequence:
#
# PCOD8246744 Si02
#       7
#     8   4   8   8   8   8   8
#     4  10  23  39  67  92 133 169 213 267 319 391
#     4  10  22  40  62 100 124 170 222 264 316 372
#     4   9  20  39  64  92 121 175 212 257 307 382
#     4  11  22  39  65  93 124 164 214 261 308 381
#     4  10  19  38  64  88 125 166 214 245 311 393
#     4  10  19  40  67  89 126 171 216 257 312 389
#     4  11  23  40  64  97 129 171 203 265 339 372
#
# _framework density 21.074776
#
# number of rings (size 3 to 8) (size 9 to 14) (size 15 to 20)
#    0.000    1.846    3.077    2.308    6.462    0.000 
#    0.000    3.077    0.000    0.000    0.000    0.000 
#    0.000    0.000    0.000    0.000    0.000    0.000 
#
# Total GULP energy -644246.978980 kJ/mol
# GULP energy per Si atom -12389.364980 kJ/mol
# Density = 2.102681 g / cm^3
# Si number density = 21.074776 Si / 1000 Ang^3
#
#
#
# Elastic Constant Matrix: (Units=GPa)
#
#
# Indices 1 2 3 4 5 6 
#
# 1 55.0032 8.7341 20.9927 0.0000 0.0000 0.0000
# 2 8.7341 96.2576 31.1898 0.0000 0.0000 0.0000
# 3 20.9927 31.1898 128.8127 0.0000 0.0000 0.0000
# 4 0.0000 0.0000 0.0000 31.0426 0.0000 0.0000
# 5 0.0000 0.0000 0.0000 0.0000 25.9386 0.0000
# 6 0.0000 0.0000 0.0000 0.0000 0.0000 18.3279
#
#
#
# Elastic Compliance Matrix: (Units=1/GPa)
#
#
# Indices 1 2 3 4 5 6 
#
# 1 0.019443 -0.000800 -0.002975 0.000000 0.000000 0.000000
# 2 -0.000800 0.011306 -0.002607 0.000000 0.000000 0.000000
# 3 -0.002975 -0.002607 0.008879 0.000000 0.000000 0.000000
# 4 0.000000 0.000000 0.000000 0.032214 0.000000 0.000000
# 5 0.000000 0.000000 0.000000 0.000000 0.038553 0.000000
# 6 0.000000 0.000000 0.000000 0.000000 0.000000 0.054562
#
#
# Mechanical properties :
#
#
# Convention : Reuss Voigt Hill
#
# Bulk Modulus (GPa) = 37.22448 44.65629 40.94039
# Shear Modulus (GPa) = 26.78434 29.67227 28.22831
#
# Velocity S-wave (km/s) = 3.56886 3.75634 3.66380
# Velocity P-wave (km/s) = 5.88929 6.32842 6.11280
#
# Compressibility (1/GPa) = 0.02686404
#
# Stress axis : x y z
#
# Youngs Moduli (GPa) = 51.43172 88.44714 112.62127
#
# Poissons Ratio (x) = 0.07078 0.33504
# Poissons Ratio (y) = 0.04116 0.29362
# Poissons Ratio (z) = 0.15300 0.23060
#
# Static dielectric constant tensor:
#      x y z
#    x 3.502010 0.000000 0.000000 
#    y 0.000000 4.154000 0.000000 
#    z 0.000000 0.000000 3.884400 
# 
# 
# High freq. dielectric constant tensor:
#      x y z
#    x 1.775550 0.000000 0.000000 
#    y 0.000000 1.850800 0.000000 
#    z 0.000000 0.000000 1.824580 
# 
# From -- ./inp_files/21205.got.cif
#   From: 2010.03.12/outbox.cif.g09.slc.cpg/sg60_11_cif.got.tgz:21205.got - 2010.04.10 18:46:24.
