data_PCOD8246731
_publ_section_title
;
Structure prediction by ZEFSAII (Michael W. Deem and Ramdas Pophale) SiO2 
 PCOD8246731
Probable space group: P B C N
;
_chemical_formula_sum "Si O2"
_cell_formula_units_Z 52
_cell_length_a 8.334653
_cell_length_b 14.577602
_cell_length_c 22.296633
_cell_angle_alpha 90.000000
_cell_angle_beta 90.000000
_cell_angle_gamma 90.000000
_cell_volume 2709.024282
_symmetry_space_group_name_H-M "P B C N"
_symmetry_group_IT_number 60
_symmetry_cell_setting 'orthorhombic'
loop_
_space_group_symop_operation_xyz
x,y,z
1/2-x,1/2-y,1/2+z
1/2+x,1/2-y,-z
-x,y,1/2-z
-x,-y,-z
1/2+x,1/2+y,1/2-z
1/2-x,1/2+y,z
x,-y,1/2+z
loop_
_atom_site_type_symbol
_atom_site_label
_atom_site_fract_x
_atom_site_fract_y
_atom_site_fract_z
Si Si1 0.170197 0.793640 0.454360
Si Si2 0.000000 0.754524 0.750000
Si Si3 0.500000 0.547309 0.750000
Si Si4 0.500000 0.161208 0.250000
Si Si5 0.203166 0.191868 0.816751
Si Si6 0.330972 0.436201 0.549836
Si Si7 0.296349 0.597854 0.184228
Si Si8 0.361916 0.628567 0.502221
O O1 0.231100 0.811161 0.387590
O O2 0.248338 0.871415 0.498195
O O3 0.221075 0.690906 0.474583
O O4 0.976086 0.804980 0.457119
O O5 0.878497 0.691462 0.712986
O O6 0.899714 0.813571 0.797862
O O7 0.611135 0.602884 0.705073
O O8 0.610480 0.491211 0.794783
O O9 0.401433 0.220224 0.298367
O O10 0.621932 0.097200 0.285799
O O11 0.265659 0.403855 0.613523
O O12 0.287317 0.543853 0.540151
O O13 0.525488 0.419653 0.548835
#
# Coordination Sequence:
#
# PCOD8246731 Si02
#       8
#     8   4   4   4   8   8   8   8
#     4  10  20  36  61  85 116 155 191 239 295 344
#     4   9  20  36  58  81 112 152 196 235 292 330
#     4  10  22  34  60  82 110 156 192 236 304 328
#     4   9  22  36  56  83 110 156 194 241 288 334
#     4  10  20  38  57  84 114 147 200 241 283 353
#     4   9  20  36  60  82 120 151 191 232 301 345
#     4  10  19  38  57  82 114 154 191 240 287 355
#     4   9  20  36  56  89 111 154 191 230 298 348
#
# _framework density 19.195103
#
# number of rings (size 3 to 8) (size 9 to 14) (size 15 to 20)
#    0.923    1.538    0.000    1.846    2.154    0.615 
#    2.769    2.308    0.000    0.000    0.000    0.000 
#    0.000    0.000    0.000    0.000    0.000    0.000 
#
# Total GULP energy -644544.813305 kJ/mol
# GULP energy per Si atom -12395.092564 kJ/mol
# Density = 1.915141 g / cm^3
# Si number density = 19.195103 Si / 1000 Ang^3
#
#
#
# Elastic Constant Matrix: (Units=GPa)
#
#
# Indices 1 2 3 4 5 6 
#
# 1 95.9416 44.8727 52.9243 0.0000 0.0000 0.0000
# 2 44.8727 104.1342 60.4365 0.0000 0.0000 0.0000
# 3 52.9243 60.4365 166.4857 0.0000 0.0000 0.0000
# 4 0.0000 0.0000 0.0000 17.4777 0.0000 0.0000
# 5 0.0000 0.0000 0.0000 0.0000 16.1246 0.0000
# 6 0.0000 0.0000 0.0000 0.0000 0.0000 144.8983
#
#
#
# Elastic Compliance Matrix: (Units=1/GPa)
#
#
# Indices 1 2 3 4 5 6 
#
# 1 0.014063 -0.004390 -0.002877 0.000000 0.000000 0.000000
# 2 -0.004390 0.013537 -0.003518 0.000000 0.000000 0.000000
# 3 -0.002877 -0.003518 0.008198 0.000000 0.000000 0.000000
# 4 0.000000 0.000000 0.000000 0.057216 0.000000 0.000000
# 5 0.000000 0.000000 0.000000 0.000000 0.062017 0.000000
# 6 0.000000 0.000000 0.000000 0.000000 0.000000 0.006901
#
#
# Mechanical properties :
#
#
# Convention : Reuss Voigt Hill
#
# Bulk Modulus (GPa) = 70.28795 75.89206 73.09000
# Shear Modulus (GPa) = 26.56093 49.58866 38.07479
#
# Velocity S-wave (km/s) = 3.72389 5.08823 4.45856
# Velocity P-wave (km/s) = 7.42879 8.61064 8.04146
#
# Compressibility (1/GPa) = 0.01422719
#
# Stress axis : x y z
#
# Youngs Moduli (GPa) = 71.10653 73.87240 121.97712
#
# Poissons Ratio (x) = 0.32433 0.35091
# Poissons Ratio (y) = 0.31219 0.42916
# Poissons Ratio (z) = 0.20456 0.25991
#
# Static dielectric constant tensor:
#      x y z
#    x 3.376970 0.000000 0.000000 
#    y 0.000000 3.452270 0.000000 
#    z 0.000000 0.000000 3.290840 
# 
# 
# High freq. dielectric constant tensor:
#      x y z
#    x 1.729640 0.000000 0.000000 
#    y 0.000000 1.743720 0.000000 
#    z 0.000000 0.000000 1.743200 
# 
# From -- ./inp_files/22173.got.cif
#   From: 2010.03.12/outbox.cif.g09.slc.cpg/sg60_12_cif.got.tgz:22173.got - 2010.04.10 18:46:24.
