data_PCOD8246214
_publ_section_title
;
Structure prediction by ZEFSAII (Michael W. Deem and Ramdas Pophale) SiO2 
 PCOD8246214
Probable space group: P M M N
;
_chemical_formula_sum "Si O2"
_cell_formula_units_Z 48
_cell_length_a 9.187026
_cell_length_b 25.222416
_cell_length_c 12.679489
_cell_angle_alpha 90.000000
_cell_angle_beta 90.000000
_cell_angle_gamma 90.000000
_cell_volume 2938.078405
_symmetry_space_group_name_H-M "P M M N"
_symmetry_group_IT_number 59
_space_group.IT_coordinate_system_code '2'
_symmetry_cell_setting 'orthorhombic'
loop_
_space_group_symop_operation_xyz
x,y,z
1/2-x,1/2-y,z
1/2+x,-y,-z
-x,1/2+y,-z
-x,-y,-z
1/2+x,1/2+y,-z
1/2-x,y,z
x,1/2-y,z
loop_
_atom_site_type_symbol
_atom_site_label
_atom_site_fract_x
_atom_site_fract_y
_atom_site_fract_z
Si Si1 0.081151 0.689287 0.796080
Si Si2 0.081903 0.611568 0.384688
Si Si3 0.421142 0.605315 0.621822
Si Si4 0.586057 0.812988 0.000401
Si Si5 0.419361 0.005121 0.390221
Si Si6 0.421539 0.688765 0.207705
O O1 0.250000 0.684065 0.825481
O O2 0.039202 0.750000 0.771304
O O3 0.041081 0.655960 0.692526
O O4 0.991500 0.665953 0.894661
O O5 0.250000 0.625835 0.395415
O O6 0.017273 0.616344 0.503451
O O7 0.060463 0.552461 0.334953
O O8 0.013166 0.654671 0.305184
O O9 0.250000 0.592608 0.619921
O O10 0.503519 0.553778 0.671354
O O11 0.750000 0.835220 0.004222
O O12 0.583418 0.750000 0.998413
O O13 0.499261 0.832931 0.102708
O O14 0.250000 0.018049 0.406742
O O15 0.500000 0.000000 0.500000
O O16 0.250000 0.680198 0.192215
O O17 0.459228 0.750000 0.229996
#
# Coordination Sequence:
#
# PCOD8246214 Si02
#       6
#     8   8   8   8   8   8
#     4   9  17  29  46  67  90 117 147 179 217 262
#     4   8  15  27  43  65  90 114 141 175 214 255
#     4   9  17  29  45  67  93 117 145 181 219 261
#     4   9  17  29  44  62  86 115 147 182 216 253
#     4   9  16  28  45  63  86 117 152 185 216 255
#     4   9  16  27  45  66  87 113 144 176 213 259
#
# _framework density 16.337209000000001
#
# number of rings (size 3 to 8) (size 9 to 14) (size 15 to 20)
#    0.000    3.167    0.000    2.000    0.000    3.333 
#    0.000    7.500    0.000    1.000    0.000    4.667 
#    0.000    0.000    0.000    0.000    0.000    0.000 
#
# Total GULP energy -594841.300033 kJ/mol
# GULP energy per Si atom -12392.527084 kJ/mol
# Density = 1.630002 g / cm^3
# Si number density = 16.337209 Si / 1000 Ang^3
#
#
#
# Elastic Constant Matrix: (Units=GPa)
#
#
# Indices 1 2 3 4 5 6 
#
# 1 62.1060 40.3968 41.0788 0.0000 0.0000 0.0000
# 2 40.3968 91.8672 63.1279 0.0000 0.0000 0.0000
# 3 41.0788 63.1279 110.6273 0.0000 0.0000 0.0000
# 4 0.0000 0.0000 0.0000 6.4919 0.0000 0.0000
# 5 0.0000 0.0000 0.0000 0.0000 15.6268 0.0000
# 6 0.0000 0.0000 0.0000 0.0000 0.0000 21.9325
#
#
#
# Elastic Compliance Matrix: (Units=1/GPa)
#
#
# Indices 1 2 3 4 5 6 
#
# 1 0.023978 -0.007280 -0.004749 0.000000 0.000000 0.000000
# 2 -0.007280 0.020118 -0.008776 0.000000 0.000000 0.000000
# 3 -0.004749 -0.008776 0.015811 0.000000 0.000000 0.000000
# 4 0.000000 0.000000 0.000000 0.154038 0.000000 0.000000
# 5 0.000000 0.000000 0.000000 0.000000 0.063993 0.000000
# 6 0.000000 0.000000 0.000000 0.000000 0.000000 0.045595
#
#
# Mechanical properties :
#
#
# Convention : Reuss Voigt Hill
#
# Bulk Modulus (GPa) = 54.66073 61.53418 58.09745
# Shear Modulus (GPa) = 13.46829 16.81004 15.13916
#
# Velocity S-wave (km/s) = 2.87434 3.21119 3.04742
# Velocity P-wave (km/s) = 6.67430 7.17606 6.92972
#
# Compressibility (1/GPa) = 0.01829467
#
# Stress axis : x y z
#
# Youngs Moduli (GPa) = 41.70413 49.70785 63.24709
#
# Poissons Ratio (x) = 0.36190 0.30038
# Poissons Ratio (y) = 0.30363 0.55508
# Poissons Ratio (z) = 0.19807 0.43625
#
# Static dielectric constant tensor:
#      x y z
#    x 3.116650 0.000000 0.000000 
#    y 0.000000 3.484270 0.000000 
#    z 0.000000 0.000000 3.152020 
# 
# 
# High freq. dielectric constant tensor:
#      x y z
#    x 1.617570 0.000000 0.000000 
#    y 0.000000 1.615070 0.000000 
#    z 0.000000 0.000000 1.610470 
# 
# From -- ./inp_files/14305.got.cif
#   From: 2010.03.12/outbox.cif.g09.slc.cpg/sg59_8_cif.got.tgz:14305.got - 2010.04.16 16:29:54.
