data_PCOD8246335
_publ_section_title
;
Structure prediction by ZEFSAII (Michael W. Deem and Ramdas Pophale) SiO2 
 PCOD8246335
Probable space group: P B C N
;
_chemical_formula_sum "Si O2"
_cell_formula_units_Z 64
_cell_length_a 17.937041
_cell_length_b 10.050511
_cell_length_c 19.204292
_cell_angle_alpha 90.000000
_cell_angle_beta 90.000000
_cell_angle_gamma 90.000000
_cell_volume 3462.081162
_symmetry_space_group_name_H-M "P B C N"
_symmetry_group_IT_number 60
_symmetry_cell_setting 'orthorhombic'
loop_
_space_group_symop_operation_xyz
x,y,z
1/2-x,1/2-y,1/2+z
1/2+x,1/2-y,-z
-x,y,1/2-z
-x,-y,-z
1/2+x,1/2+y,1/2-z
1/2-x,1/2+y,z
x,-y,1/2+z
loop_
_atom_site_type_symbol
_atom_site_label
_atom_site_fract_x
_atom_site_fract_y
_atom_site_fract_z
Si Si1 0.914930 0.778376 0.257897
Si Si2 0.179597 0.209502 0.879496
Si Si3 0.340038 0.633043 0.028987
Si Si4 0.179636 0.520484 0.882813
Si Si5 0.844365 0.128617 0.895223
Si Si6 0.414344 0.972412 0.248384
Si Si7 0.667473 0.126836 0.878268
Si Si8 0.163510 0.388163 0.529441
O O1 0.874089 0.811125 0.185787
O O2 0.882818 0.867232 0.320210
O O3 0.906039 0.623789 0.278081
O O4 0.000000 0.819618 0.250000
O O5 0.204802 0.364742 0.887845
O O6 0.250151 0.114382 0.866467
O O7 0.134877 0.163972 0.949486
O O8 0.372776 0.497804 0.060928
O O9 0.366187 0.747880 0.081193
O O10 0.251836 0.621819 0.026807
O O11 0.117107 0.540974 0.825386
O O12 0.137484 0.567918 0.952820
O O13 0.756702 0.129637 0.878388
O O14 0.869985 0.248806 0.945246
O O15 0.500000 0.926346 0.250000
O O16 0.365567 0.875255 0.199494
O O17 0.636132 0.996717 0.915886
#
# Coordination Sequence:
#
# PCOD8246335 Si02
#       8
#     8   8   8   8   8   8   8   8
#     4  10  21  38  56  77 109 149 188 221 263 325
#     4  10  20  36  58  84 110 140 178 223 277 322
#     4   9  19  31  54  84 110 136 172 233 274 317
#     4  10  20  35  57  85 110 140 178 225 276 322
#     4  10  19  34  57  84 106 143 183 220 273 320
#     4  10  21  37  55  78 110 147 186 226 266 319
#     4  10  17  34  55  81 109 134 180 225 269 318
#     4   9  17  31  54  82 108 133 177 225 267 318
#
# _framework density 18.485992
#
# number of rings (size 3 to 8) (size 9 to 14) (size 15 to 20)
#    0.000    2.250    2.500    0.750    5.250    0.000 
#    2.250    3.125    0.000    0.000    0.000    0.000 
#    0.000    0.000    0.000    0.000    0.000    0.000 
#
# Total GULP energy -793405.568734 kJ/mol
# GULP energy per Si atom -12396.962011 kJ/mol
# Density = 1.844392 g / cm^3
# Si number density = 18.485992 Si / 1000 Ang^3
#
#
#
# Elastic Constant Matrix: (Units=GPa)
#
#
# Indices 1 2 3 4 5 6 
#
# 1 59.1161 38.4623 45.7014 0.0000 0.0000 0.0000
# 2 38.4623 132.1327 71.6698 0.0000 0.0000 0.0000
# 3 45.7014 71.6698 152.7965 0.0000 0.0000 0.0000
# 4 0.0000 0.0000 0.0000 34.9054 0.0000 0.0000
# 5 0.0000 0.0000 0.0000 0.0000 6.2238 0.0000
# 6 0.0000 0.0000 0.0000 0.0000 0.0000 15.0527
#
#
#
# Elastic Compliance Matrix: (Units=1/GPa)
#
#
# Indices 1 2 3 4 5 6 
#
# 1 0.023527 -0.004066 -0.005130 0.000000 0.000000 0.000000
# 2 -0.004066 0.010853 -0.003875 0.000000 0.000000 0.000000
# 3 -0.005130 -0.003875 0.009896 0.000000 0.000000 0.000000
# 4 0.000000 0.000000 0.000000 0.028649 0.000000 0.000000
# 5 0.000000 0.000000 0.000000 0.000000 0.160674 0.000000
# 6 0.000000 0.000000 0.000000 0.000000 0.000000 0.066433
#
#
# Mechanical properties :
#
#
# Convention : Reuss Voigt Hill
#
# Bulk Modulus (GPa) = 55.13928 72.85693 63.99811
# Shear Modulus (GPa) = 15.05031 23.78382 19.41707
#
# Velocity S-wave (km/s) = 2.85642 3.59079 3.24445
# Velocity P-wave (km/s) = 6.38523 7.52923 6.98070
#
# Compressibility (1/GPa) = 0.01813589
#
# Stress axis : x y z
#
# Youngs Moduli (GPa) = 42.50437 92.13715 101.04705
#
# Poissons Ratio (x) = 0.37463 0.51834
# Poissons Ratio (y) = 0.17282 0.39152
# Poissons Ratio (z) = 0.21804 0.35700
#
# Static dielectric constant tensor:
#      x y z
#    x 2.939280 0.000000 0.000000 
#    y 0.000000 3.624000 0.000000 
#    z 0.000000 0.000000 3.607350 
# 
# 
# High freq. dielectric constant tensor:
#      x y z
#    x 1.672190 0.000000 0.000000 
#    y 0.000000 1.719470 0.000000 
#    z 0.000000 0.000000 1.737610 
# 
# From -- ./inp_files/21068.got.cif
#   From: 2010.03.12/outbox.cif.g09.slc.cpg/sg60_11_cif.got.tgz:21068.got - 2010.04.10 18:46:24.
