data_PCOD8246326
_publ_section_title
;
Structure prediction by ZEFSAII (Michael W. Deem and Ramdas Pophale) SiO2 
 PCOD8246326
Probable space group: P B C N
;
_chemical_formula_sum "Si O2"
_cell_formula_units_Z 48
_cell_length_a 15.770917
_cell_length_b 9.843462
_cell_length_c 18.028884
_cell_angle_alpha 90.000000
_cell_angle_beta 90.000000
_cell_angle_gamma 90.000000
_cell_volume 2798.811564
_symmetry_space_group_name_H-M "P B C N"
_symmetry_group_IT_number 60
_symmetry_cell_setting 'orthorhombic'
loop_
_space_group_symop_operation_xyz
x,y,z
1/2-x,1/2-y,1/2+z
1/2+x,1/2-y,-z
-x,y,1/2-z
-x,-y,-z
1/2+x,1/2+y,1/2-z
1/2-x,1/2+y,z
x,-y,1/2+z
loop_
_atom_site_type_symbol
_atom_site_label
_atom_site_fract_x
_atom_site_fract_y
_atom_site_fract_z
Si Si1 0.391124 0.232488 0.567632
Si Si2 0.652836 0.110177 0.570913
Si Si3 0.583523 0.526874 0.953801
Si Si4 0.754148 0.137657 0.028567
Si Si5 0.531369 0.189845 0.442967
Si Si6 0.999176 0.551072 0.837047
O O1 0.395026 0.391450 0.593368
O O2 0.295986 0.190471 0.544529
O O3 0.450260 0.207922 0.495900
O O4 0.420002 0.143889 0.637946
O O5 0.720332 0.232539 0.578655
O O6 0.605936 0.119780 0.491030
O O7 0.585743 0.124388 0.637446
O O8 0.697690 0.964306 0.577420
O O9 0.564299 0.666228 0.908549
O O10 0.500000 0.500000 0.000000
O O11 0.662422 0.554291 0.007350
O O12 0.507123 0.096582 0.374180
O O13 0.000000 0.532140 0.750000
#
# Coordination Sequence:
#
# PCOD8246326 Si02
#       6
#     8   8   8   8   8   8
#     4  10  17  32  54  81 106 135 184 236 271 315
#     4  10  19  32  55  85 102 136 184 232 275 321
#     4   9  19  30  51  87 108 130 170 235 286 313
#     4  11  17  29  58  83 106 130 178 239 272 311
#     4   9  17  33  54  79 103 132 186 226 269 330
#     4  11  21  35  55  76 114 155 183 218 280 343
#
# _framework density 17.150136
#
# number of rings (size 3 to 8) (size 9 to 14) (size 15 to 20)
#    0.000    2.000    5.000    2.000    0.000    0.000 
#    0.000    0.833   11.000    0.000    0.000    0.000 
#    0.000    0.000    0.000    0.000    0.000    0.000 
#
# Total GULP energy -594913.233234 kJ/mol
# GULP energy per Si atom -12394.025692 kJ/mol
# Density = 1.711110 g / cm^3
# Si number density = 17.150136 Si / 1000 Ang^3
#
#
#
# Elastic Constant Matrix: (Units=GPa)
#
#
# Indices 1 2 3 4 5 6 
#
# 1 88.2364 31.1241 19.3606 0.0000 0.0000 0.0000
# 2 31.1241 125.0036 40.8407 0.0000 0.0000 0.0000
# 3 19.3606 40.8407 84.5805 0.0000 0.0000 0.0000
# 4 0.0000 0.0000 0.0000 13.0053 0.0000 0.0000
# 5 0.0000 0.0000 0.0000 0.0000 12.8931 0.0000
# 6 0.0000 0.0000 0.0000 0.0000 0.0000 37.5148
#
#
#
# Elastic Compliance Matrix: (Units=1/GPa)
#
#
# Indices 1 2 3 4 5 6 
#
# 1 0.012610 -0.002608 -0.001627 0.000000 0.000000 0.000000
# 2 -0.002608 0.010038 -0.004250 0.000000 0.000000 0.000000
# 3 -0.001627 -0.004250 0.014248 0.000000 0.000000 0.000000
# 4 0.000000 0.000000 0.000000 0.076892 0.000000 0.000000
# 5 0.000000 0.000000 0.000000 0.000000 0.077561 0.000000
# 6 0.000000 0.000000 0.000000 0.000000 0.000000 0.026656
#
#
# Mechanical properties :
#
#
# Convention : Reuss Voigt Hill
#
# Bulk Modulus (GPa) = 50.18745 53.38569 51.78657
# Shear Modulus (GPa) = 20.69400 26.44899 23.57149
#
# Velocity S-wave (km/s) = 3.47744 3.93135 3.71134
# Velocity P-wave (km/s) = 6.74170 7.19745 6.97330
#
# Compressibility (1/GPa) = 0.01992530
#
# Stress axis : x y z
#
# Youngs Moduli (GPa) = 79.30090 99.62508 70.18751
#
# Poissons Ratio (x) = 0.25984 0.11420
# Poissons Ratio (y) = 0.20683 0.29828
# Poissons Ratio (z) = 0.12903 0.42338
#
# Static dielectric constant tensor:
#      x y z
#    x 3.464100 0.000000 0.000000 
#    y 0.000000 3.831560 0.000000 
#    z 0.000000 0.000000 2.512800 
# 
# 
# High freq. dielectric constant tensor:
#      x y z
#    x 1.679690 0.000000 0.000000 
#    y 0.000000 1.693140 0.000000 
#    z 0.000000 0.000000 1.575300 
# 
# From -- ./inp_files/16800.got.cif
#   From: 2010.03.12/outbox.cif.g09.slc.cpg/sg60_9_cif.got.tgz:16800.got - 2010.04.10 18:46:24.
