data_PCOD8246227
_publ_section_title
;
Structure prediction by ZEFSAII (Michael W. Deem and Ramdas Pophale) SiO2 
 PCOD8246227
Probable space group: P M M N
;
_chemical_formula_sum "Si O2"
_cell_formula_units_Z 48
_cell_length_a 20.218693
_cell_length_b 9.180727
_cell_length_c 16.694626
_cell_angle_alpha 90.000000
_cell_angle_beta 90.000000
_cell_angle_gamma 90.000000
_cell_volume 3098.894888
_symmetry_space_group_name_H-M "P M M N"
_symmetry_group_IT_number 59
_space_group.IT_coordinate_system_code '2'
_symmetry_cell_setting 'orthorhombic'
loop_
_space_group_symop_operation_xyz
x,y,z
1/2-x,1/2-y,z
1/2+x,-y,-z
-x,1/2+y,-z
-x,-y,-z
1/2+x,1/2+y,-z
1/2-x,y,z
x,1/2-y,z
loop_
_atom_site_type_symbol
_atom_site_label
_atom_site_fract_x
_atom_site_fract_y
_atom_site_fract_z
Si Si1 0.433185 0.920763 0.281407
Si Si2 0.487357 0.415495 0.419030
Si Si3 0.175324 0.579279 0.841327
Si Si4 0.674292 0.419034 0.846694
Si Si5 0.328586 0.413981 0.998007
Si Si6 0.056478 0.914334 0.734605
O O1 0.440538 0.750000 0.296943
O O2 0.367660 0.959036 0.231763
O O3 0.429365 0.004162 0.367446
O O4 0.498039 0.979529 0.232827
O O5 0.500000 0.500000 0.500000
O O6 0.465907 0.250000 0.438262
O O7 0.553950 0.419090 0.363235
O O8 0.250000 0.528101 0.820217
O O9 0.174270 0.750000 0.859588
O O10 0.128241 0.536096 0.766684
O O11 0.146567 0.498706 0.919443
O O12 0.750000 0.461429 0.827933
O O13 0.667525 0.250000 0.868694
O O14 0.645209 0.507834 0.921943
O O15 0.250000 0.417603 0.999064
O O16 0.356253 0.250000 0.995754
O O17 0.041419 0.750000 0.764483
#
# Coordination Sequence:
#
# PCOD8246227 Si02
#       6
#     8   8   8   8   8   8
#     4   9  17  29  47  69  91 116 148 184 224 265
#     4   9  17  30  49  70  91 116 147 180 217 266
#     4   9  16  29  48  66  87 118 153 186 222 263
#     4   9  17  30  47  66  89 119 155 189 220 260
#     4   9  17  27  41  64  91 119 152 187 223 262
#     4   8  17  30  45  67  92 115 145 184 222 264
#
# _framework density 15.489393
#
# number of rings (size 3 to 8) (size 9 to 14) (size 15 to 20)
#    1.000    2.167    0.000    1.000    0.000    4.000 
#    0.000    0.833    0.000    1.000    0.000    4.667 
#    0.000    0.000    0.000    0.000    0.000    0.000 
#
# Total GULP energy -594663.140537 kJ/mol
# GULP energy per Si atom -12388.815428 kJ/mol
# Density = 1.545414 g / cm^3
# Si number density = 15.489393 Si / 1000 Ang^3
#
#
#
# Elastic Constant Matrix: (Units=GPa)
#
#
# Indices 1 2 3 4 5 6 
#
# 1 66.1657 36.7829 47.9861 0.0000 0.0000 0.0000
# 2 36.7829 85.5911 54.8877 0.0000 0.0000 0.0000
# 3 47.9861 54.8877 109.1643 0.0000 0.0000 0.0000
# 4 0.0000 0.0000 0.0000 27.2981 0.0000 0.0000
# 5 0.0000 0.0000 0.0000 0.0000 23.3961 0.0000
# 6 0.0000 0.0000 0.0000 0.0000 0.0000 18.3795
#
#
#
# Elastic Compliance Matrix: (Units=1/GPa)
#
#
# Indices 1 2 3 4 5 6 
#
# 1 0.023635 -0.005158 -0.007796 0.000000 0.000000 0.000000
# 2 -0.005158 0.018369 -0.006969 0.000000 0.000000 0.000000
# 3 -0.007796 -0.006969 0.016091 0.000000 0.000000 0.000000
# 4 0.000000 0.000000 0.000000 0.036633 0.000000 0.000000
# 5 0.000000 0.000000 0.000000 0.000000 0.042742 0.000000
# 6 0.000000 0.000000 0.000000 0.000000 0.000000 0.054409
#
#
# Mechanical properties :
#
#
# Convention : Reuss Voigt Hill
#
# Bulk Modulus (GPa) = 54.79382 60.02608 57.40995
# Shear Modulus (GPa) = 21.02551 21.89903 21.46227
#
# Velocity S-wave (km/s) = 3.68831 3.76414 3.72642
# Velocity P-wave (km/s) = 7.32052 7.59795 7.46052
#
# Compressibility (1/GPa) = 0.01825023
#
# Stress axis : x y z
#
# Youngs Moduli (GPa) = 42.31034 54.44013 62.14536
#
# Poissons Ratio (x) = 0.28078 0.48449
# Poissons Ratio (y) = 0.21822 0.43307
# Poissons Ratio (z) = 0.32985 0.37937
#
# Static dielectric constant tensor:
#      x y z
#    x 2.758780 0.000000 0.000000 
#    y 0.000000 3.066850 0.000000 
#    z 0.000000 0.000000 2.851200 
# 
# 
# High freq. dielectric constant tensor:
#      x y z
#    x 1.558840 0.000000 0.000000 
#    y 0.000000 1.605280 0.000000 
#    z 0.000000 0.000000 1.581340 
# 
# From -- ./inp_files/24501.got.cif
#   From: 2010.03.12/outbox.cif.g09.slc.cpg/sg59_13_cif.got.tgz:24501.got - 2010.04.16 16:29:54.
