data_PCOD8246925
_publ_section_title
;
Structure prediction by ZEFSAII (Michael W. Deem and Ramdas Pophale) SiO2 
 PCOD8246925
Probable space group: P B C N
;
_chemical_formula_sum "Si O2"
_cell_formula_units_Z 48
_cell_length_a 5.020667
_cell_length_b 30.282546
_cell_length_c 14.507061
_cell_angle_alpha 90.000000
_cell_angle_beta 90.000000
_cell_angle_gamma 90.000000
_cell_volume 2205.632945
_symmetry_space_group_name_H-M "P B C N"
_symmetry_group_IT_number 60
_symmetry_cell_setting 'orthorhombic'
loop_
_space_group_symop_operation_xyz
x,y,z
1/2-x,1/2-y,1/2+z
1/2+x,1/2-y,-z
-x,y,1/2-z
-x,-y,-z
1/2+x,1/2+y,1/2-z
1/2-x,1/2+y,z
x,-y,1/2+z
loop_
_atom_site_type_symbol
_atom_site_label
_atom_site_fract_x
_atom_site_fract_y
_atom_site_fract_z
Si Si1 0.256694 0.001698 0.312732
Si Si2 0.410196 0.723157 0.984319
Si Si3 0.028300 0.407549 0.858350
Si Si4 0.237818 0.679071 0.808423
Si Si5 0.878925 0.090108 0.647659
Si Si6 0.012021 0.126097 0.041355
O O1 0.500000 0.986697 0.250000
O O2 0.218413 0.959060 0.379215
O O3 0.000000 0.014526 0.250000
O O4 0.349928 0.043363 0.373911
O O5 0.292772 0.715830 0.883317
O O6 0.708602 0.741715 0.970263
O O7 0.406282 0.677407 0.039718
O O8 0.241825 0.373978 0.900149
O O9 0.000000 0.398010 0.750000
O O10 0.746093 0.402169 0.909852
O O11 0.500000 0.670134 0.750000
O O12 0.158299 0.629875 0.847379
O O13 0.000000 0.699241 0.750000
O O14 0.058920 0.106596 0.560840
O O15 0.000000 0.083861 0.750000
#
# Coordination Sequence:
#
# PCOD8246925 Si02
#       6
#     8   8   8   8   8   8
#     4  10  20  36  60  88 124 167 205 249 300 347
#     4  11  23  42  63  88 121 151 193 253 308 364
#     4  11  23  42  62  87 127 169 211 251 286 346
#     4  10  20  37  61  87 118 153 190 239 304 369
#     4   9  21  38  62  94 126 156 198 252 308 369
#     4  11  24  41  66  92 118 164 207 247 315 367
#
# _framework density 21.762460999999998
#
# number of rings (size 3 to 8) (size 9 to 14) (size 15 to 20)
#    0.000    1.667    0.000    5.000    0.000   10.667 
#    0.000    8.333    0.000    0.000    0.000    0.000 
#    0.000    0.000    0.000    0.000    0.000    0.000 
#
# Total GULP energy -594724.753773 kJ/mol
# GULP energy per Si atom -12390.099037 kJ/mol
# Density = 2.171293 g / cm^3
# Si number density = 21.762461 Si / 1000 Ang^3
#
#
#
# Elastic Constant Matrix: (Units=GPa)
#
#
# Indices 1 2 3 4 5 6 
#
# 1 103.1541 12.3699 31.0482 0.0000 0.0000 0.0000
# 2 12.3699 107.7437 33.5063 0.0000 0.0000 0.0000
# 3 31.0482 33.5063 108.9832 0.0000 0.0000 0.0000
# 4 0.0000 0.0000 0.0000 32.1000 0.0000 0.0000
# 5 0.0000 0.0000 0.0000 0.0000 38.0454 0.0000
# 6 0.0000 0.0000 0.0000 0.0000 0.0000 23.7614
#
#
#
# Elastic Compliance Matrix: (Units=1/GPa)
#
#
# Indices 1 2 3 4 5 6 
#
# 1 0.010613 -0.000308 -0.002929 0.000000 0.000000 0.000000
# 2 -0.000308 0.010271 -0.003070 0.000000 0.000000 0.000000
# 3 -0.002929 -0.003070 0.010954 0.000000 0.000000 0.000000
# 4 0.000000 0.000000 0.000000 0.031153 0.000000 0.000000
# 5 0.000000 0.000000 0.000000 0.000000 0.026284 0.000000
# 6 0.000000 0.000000 0.000000 0.000000 0.000000 0.042085
#
#
# Mechanical properties :
#
#
# Convention : Reuss Voigt Hill
#
# Bulk Modulus (GPa) = 52.01648 52.63666 52.32657
# Shear Modulus (GPa) = 33.24868 34.97847 34.11357
#
# Velocity S-wave (km/s) = 3.91295 4.01344 3.96352
# Velocity P-wave (km/s) = 6.66098 6.76139 6.71137
#
# Compressibility (1/GPa) = 0.01922467
#
# Stress axis : x y z
#
# Youngs Moduli (GPa) = 94.22697 97.35779 91.29027
#
# Poissons Ratio (x) = 0.02995 0.26738
# Poissons Ratio (y) = 0.02898 0.28028
# Poissons Ratio (z) = 0.27598 0.29891
#
# Static dielectric constant tensor:
#      x y z
#    x 3.442410 0.000000 0.000000 
#    y 0.000000 4.111520 0.000000 
#    z 0.000000 0.000000 3.864320 
# 
# 
# High freq. dielectric constant tensor:
#      x y z
#    x 1.850480 0.000000 0.000000 
#    y 0.000000 1.865220 0.000000 
#    z 0.000000 0.000000 1.845020 
# 
# From -- ./inp_files/13926.got.cif
#   From: 2010.03.12/outbox.cif.g09.slc.cpg/sg60_7_cif.got.tgz:13926.got - 2010.04.10 18:46:24.
