data_PCOD8246360
_publ_section_title
;
Structure prediction by ZEFSAII (Michael W. Deem and Ramdas Pophale) SiO2 
 PCOD8246360
Probable space group: P B C N
;
_chemical_formula_sum "Si O2"
_cell_formula_units_Z 52
_cell_length_a 14.084667
_cell_length_b 26.416090
_cell_length_c 8.869419
_cell_angle_alpha 90.000000
_cell_angle_beta 90.000000
_cell_angle_gamma 90.000000
_cell_volume 3299.972274
_symmetry_space_group_name_H-M "P B C N"
_symmetry_group_IT_number 60
_symmetry_cell_setting 'orthorhombic'
loop_
_space_group_symop_operation_xyz
x,y,z
1/2-x,1/2-y,1/2+z
1/2+x,1/2-y,-z
-x,y,1/2-z
-x,-y,-z
1/2+x,1/2+y,1/2-z
1/2-x,1/2+y,z
x,-y,1/2+z
loop_
_atom_site_type_symbol
_atom_site_label
_atom_site_fract_x
_atom_site_fract_y
_atom_site_fract_z
Si Si1 0.096351 0.024051 0.945460
Si Si2 0.598252 0.786675 0.693473
Si Si3 0.885379 0.934312 0.750574
Si Si4 0.937987 0.758451 0.885849
Si Si5 0.406584 0.307202 0.083209
Si Si6 0.701517 0.674366 0.198273
Si Si7 0.500000 0.604783 0.750000
O O1 0.075118 0.070526 0.836555
O O2 0.151148 0.977980 0.863791
O O3 0.152801 0.046837 0.087067
O O4 0.000000 0.000000 0.000000
O O5 0.500000 0.812654 0.750000
O O6 0.597985 0.781334 0.511190
O O7 0.606865 0.732622 0.780568
O O8 0.686551 0.822289 0.735376
O O9 0.834101 0.882530 0.711878
O O10 0.000000 0.927212 0.750000
O O11 0.850103 0.789084 0.817159
O O12 0.000000 0.732620 0.750000
O O13 0.004721 0.797050 0.974613
O O14 0.429366 0.362208 0.148087
O O15 0.314448 0.307773 0.975115
#
# Coordination Sequence:
#
# PCOD8246360 Si02
#       7
#     8   8   8   8   8   8   4
#     4  10  18  29  44  68 101 128 159 190 239 297
#     4  10  20  35  47  70  98 132 170 214 240 281
#     4  10  19  31  45  71 101 132 157 197 242 298
#     4   9  17  32  48  69  96 129 160 197 242 295
#     4  10  19  30  49  70 102 131 165 196 243 299
#     4  11  20  30  50  71  98 134 172 199 245 294
#     4  12  16  28  50  66  98 138 154 188 244 298
#
# _framework density 15.757707999999999
#
# number of rings (size 3 to 8) (size 9 to 14) (size 15 to 20)
#    0.000    1.846    4.615    5.077    0.000    0.000 
#    0.000    0.000    0.000    0.000    0.000    1.077 
#    0.000    0.000    0.000    0.000    0.000    0.000 
#
# Total GULP energy -644307.828099 kJ/mol
# GULP energy per Si atom -12390.535156 kJ/mol
# Density = 1.572184 g / cm^3
# Si number density = 15.757708 Si / 1000 Ang^3
#
#
#
# Elastic Constant Matrix: (Units=GPa)
#
#
# Indices 1 2 3 4 5 6 
#
# 1 84.6095 35.0486 30.5233 0.0000 0.0000 0.0000
# 2 35.0486 60.3646 28.5169 0.0000 0.0000 0.0000
# 3 30.5233 28.5169 106.6450 0.0000 0.0000 0.0000
# 4 0.0000 0.0000 0.0000 19.8026 0.0000 0.0000
# 5 0.0000 0.0000 0.0000 0.0000 13.6470 0.0000
# 6 0.0000 0.0000 0.0000 0.0000 0.0000 11.5451
#
#
#
# Elastic Compliance Matrix: (Units=1/GPa)
#
#
# Indices 1 2 3 4 5 6 
#
# 1 0.016086 -0.008201 -0.002411 0.000000 0.000000 0.000000
# 2 -0.008201 0.023142 -0.003841 0.000000 0.000000 0.000000
# 3 -0.002411 -0.003841 0.011094 0.000000 0.000000 0.000000
# 4 0.000000 0.000000 0.000000 0.050498 0.000000 0.000000
# 5 0.000000 0.000000 0.000000 0.000000 0.073276 0.000000
# 6 0.000000 0.000000 0.000000 0.000000 0.000000 0.086617
#
#
# Mechanical properties :
#
#
# Convention : Reuss Voigt Hill
#
# Bulk Modulus (GPa) = 46.69341 48.86629 47.77985
# Shear Modulus (GPa) = 16.84878 19.50097 18.17487
#
# Velocity S-wave (km/s) = 3.27347 3.52170 3.39985
# Velocity P-wave (km/s) = 6.63204 6.90035 6.76752
#
# Compressibility (1/GPa) = 0.02141630
#
# Stress axis : x y z
#
# Youngs Moduli (GPa) = 62.16629 43.21149 90.13799
#
# Poissons Ratio (x) = 0.35436 0.21734
# Poissons Ratio (y) = 0.50981 0.34622
# Poissons Ratio (z) = 0.14989 0.16598
#
# Static dielectric constant tensor:
#      x y z
#    x 2.783020 0.000000 0.000000 
#    y 0.000000 2.825220 0.000000 
#    z 0.000000 0.000000 3.720190 
# 
# 
# High freq. dielectric constant tensor:
#      x y z
#    x 1.556960 0.000000 0.000000 
#    y 0.000000 1.582480 0.000000 
#    z 0.000000 0.000000 1.633810 
# 
# From -- ./inp_files/6349.got.cif
#   From: 2010.03.12/outbox.cif.g09.slc.cpg/sg60_4_cif.got.tgz:6349.got - 2010.04.10 18:46:24.
