data_PCOD8246122
_publ_section_title
;
Structure prediction by ZEFSAII (Michael W. Deem and Ramdas Pophale) SiO2 
 PCOD8246122
Probable space group: P M M N
;
_chemical_formula_sum "Si O2"
_cell_formula_units_Z 32
_cell_length_a 11.841741
_cell_length_b 13.675135
_cell_length_c 10.057236
_cell_angle_alpha 90.000000
_cell_angle_beta 90.000000
_cell_angle_gamma 90.000000
_cell_volume 1628.642718
_symmetry_space_group_name_H-M "P M M N"
_symmetry_group_IT_number 59
_space_group.IT_coordinate_system_code '2'
_symmetry_cell_setting 'orthorhombic'
loop_
_space_group_symop_operation_xyz
x,y,z
1/2-x,1/2-y,z
1/2+x,-y,-z
-x,1/2+y,-z
-x,-y,-z
1/2+x,1/2+y,-z
1/2-x,y,z
x,1/2-y,z
loop_
_atom_site_type_symbol
_atom_site_label
_atom_site_fract_x
_atom_site_fract_y
_atom_site_fract_z
Si Si1 0.750000 0.133960 0.721689
Si Si2 0.023077 0.566038 0.873391
Si Si3 0.116410 0.250000 0.528205
Si Si4 0.250000 0.638184 0.981994
Si Si5 0.988204 0.433862 0.626292
Si Si6 0.615637 0.750000 0.781720
O O1 0.750000 0.250000 0.721471
O O2 0.641592 0.095982 0.643289
O O3 0.750000 0.087312 0.871404
O O4 0.143570 0.615156 0.891656
O O5 0.032363 0.493775 0.750780
O O6 0.931085 0.651940 0.852154
O O7 0.000000 0.500000 0.000000
O O8 0.250000 0.250000 0.539440
O O9 0.078942 0.250000 0.373338
O O10 0.068212 0.341550 0.607560
O O11 0.250000 0.750000 0.019907
O O12 0.000000 0.500000 0.500000
O O13 0.750000 0.750000 0.797851
#
# Coordination Sequence:
#
# PCOD8246122 Si02
#       6
#     4   8   4   4   8   4
#     4  11  24  45  71  96 139 183 230 288 343 404
#     4  12  26  44  71 104 139 181 232 280 348 412
#     4  11  26  48  67 102 144 179 230 287 346 411
#     4  11  24  45  69  98 141 183 230 288 341 404
#     4  12  26  44  72 104 137 183 230 283 348 409
#     4  11  26  48  71 100 142 183 226 285 346 415
#
# _framework density 19.648261999999999
#
# number of rings (size 3 to 8) (size 9 to 14) (size 15 to 20)
#    0.000    0.500    7.500    0.000    7.000    1.000 
#    0.000    3.750    0.000    0.000    0.000    0.000 
#    0.000    0.000    0.000    0.000    0.000    0.000 
#
# Total GULP energy -396869.678948 kJ/mol
# GULP energy per Si atom -12402.177467 kJ/mol
# Density = 1.960354 g / cm^3
# Si number density = 19.648262 Si / 1000 Ang^3
#
#
#
# Elastic Constant Matrix: (Units=GPa)
#
#
# Indices 1 2 3 4 5 6 
#
# 1 150.5385 57.3429 62.4309 0.0000 0.0000 0.0000
# 2 57.3429 149.1686 81.4874 0.0000 0.0000 0.0000
# 3 62.4309 81.4874 158.7090 0.0000 0.0000 0.0000
# 4 0.0000 0.0000 0.0000 46.8024 0.0000 0.0000
# 5 0.0000 0.0000 0.0000 0.0000 39.7515 0.0000
# 6 0.0000 0.0000 0.0000 0.0000 0.0000 37.4453
#
#
#
# Elastic Compliance Matrix: (Units=1/GPa)
#
#
# Indices 1 2 3 4 5 6 
#
# 1 0.008332 -0.001963 -0.002270 0.000000 0.000000 0.000000
# 2 -0.001963 0.009780 -0.004249 0.000000 0.000000 0.000000
# 3 -0.002270 -0.004249 0.009375 0.000000 0.000000 0.000000
# 4 0.000000 0.000000 0.000000 0.021366 0.000000 0.000000
# 5 0.000000 0.000000 0.000000 0.000000 0.025156 0.000000
# 6 0.000000 0.000000 0.000000 0.000000 0.000000 0.026706
#
#
# Mechanical properties :
#
#
# Convention : Reuss Voigt Hill
#
# Bulk Modulus (GPa) = 95.02681 95.65984 95.34332
# Shear Modulus (GPa) = 41.25887 41.94348 41.60117
#
# Velocity S-wave (km/s) = 4.58741 4.62531 4.60640
# Velocity P-wave (km/s) = 8.74803 8.79298 8.77054
#
# Compressibility (1/GPa) = 0.01052335
#
# Stress axis : x y z
#
# Youngs Moduli (GPa) = 120.02187 102.25363 106.66431
#
# Poissons Ratio (x) = 0.20073 0.24208
# Poissons Ratio (y) = 0.23561 0.45322
# Poissons Ratio (z) = 0.27239 0.43448
#
# Static dielectric constant tensor:
#      x y z
#    x 3.674870 0.000000 0.000000 
#    y 0.000000 4.035480 0.000000 
#    z 0.000000 0.000000 3.680810 
# 
# 
# High freq. dielectric constant tensor:
#      x y z
#    x 1.775730 0.000000 0.000000 
#    y 0.000000 1.785710 0.000000 
#    z 0.000000 0.000000 1.776940 
# 
# From -- ./inp_files/6883.got.cif
#   From: 2010.03.12/outbox.cif.g09.slc.cpg/sg59_4_cif.got.tgz:6883.got - 2010.04.16 16:29:54.
