data_PCOD8246250
_publ_section_title
;
Structure prediction by ZEFSAII (Michael W. Deem and Ramdas Pophale) SiO2 
 PCOD8246250
Probable space group: P M M N
;
_chemical_formula_sum "Si O2"
_cell_formula_units_Z 56
_cell_length_a 21.000000
_cell_length_b 9.000000
_cell_length_c 15.000000
_cell_angle_alpha 90.000000
_cell_angle_beta 90.000000
_cell_angle_gamma 90.000000
_cell_volume 2835.000000
_symmetry_space_group_name_H-M "P M M N"
_symmetry_group_IT_number 59
_space_group.IT_coordinate_system_code '2'
_symmetry_cell_setting 'orthorhombic'
loop_
_space_group_symop_operation_xyz
x,y,z
1/2-x,1/2-y,z
1/2+x,-y,-z
-x,1/2+y,-z
-x,-y,-z
1/2+x,1/2+y,-z
1/2-x,y,z
x,1/2-y,z
loop_
_atom_site_type_symbol
_atom_site_label
_atom_site_fract_x
_atom_site_fract_y
_atom_site_fract_z
Si Si1 0.320099 0.923594 0.447541
Si Si2 0.632069 0.917829 0.189860
Si Si3 0.177375 0.922595 0.973251
Si Si4 0.010358 0.918346 0.219459
Si Si5 0.178565 0.086112 0.624439
Si Si6 0.538857 0.425817 0.582193
Si Si7 0.943122 0.573875 0.943564
O O1 0.250000 0.990977 0.414377
O O2 0.315395 0.750000 0.433182
O O3 0.386833 0.981611 0.405391
O O4 0.328632 0.960785 0.550853
O O5 0.657870 0.750000 0.174704
O O6 0.557328 0.925765 0.169279
O O7 0.636719 0.965196 0.292585
O O8 0.671720 0.032892 0.130487
O O9 0.250000 0.952655 0.005795
O O10 0.159892 0.750000 0.985067
O O11 0.127014 0.023545 0.025569
O O12 0.037422 0.750000 0.215930
O O13 0.006572 0.968502 0.323304
O O14 0.054383 0.026483 0.160582
O O15 0.250000 0.097487 0.659785
O O16 0.156423 0.250000 0.588904
O O17 0.500000 0.500000 0.500000
O O18 0.537268 0.250000 0.563834
O O19 0.948911 0.750000 0.953306
O O20 0.000000 0.500000 0.000000
#
# Coordination Sequence:
#
# PCOD8246250 Si02
#       7
#     8   8   8   8   8   8   8
#     4   9  18  33  52  75 106 148 194 240 294 349
#     4  10  19  32  53  79 111 151 191 238 296 361
#     4  11  24  40  60  88 121 156 197 247 301 357
#     4  10  21  37  58  86 117 154 199 247 302 361
#     4   9  17  29  47  74 108 147 190 234 287 351
#     4  10  21  37  58  85 119 156 199 252 301 352
#     4  12  24  41  65  90 119 157 200 247 298 360
#
# _framework density 19.753086
#
# number of rings (size 3 to 8) (size 9 to 14) (size 15 to 20)
#    0.000    1.857    1.429    3.000    0.000    4.571 
#    0.000    2.143    0.000    2.571    0.000    0.000 
#    0.000    0.000    0.000    0.000    0.000    0.000 
#
# Total GULP energy -693822.102379 kJ/mol
# GULP energy per Si atom -12389.680400 kJ/mol
# Density = 1.970813 g / cm^3
# Si number density = 19.753086 Si / 1000 Ang^3
#
#
#
# Elastic Constant Matrix: (Units=GPa)
#
#
# Indices 1 2 3 4 5 6 
#
# 1 114.1247 42.5978 31.6464 0.0000 0.0000 0.0000
# 2 42.5978 82.8364 37.7713 0.0000 0.0000 0.0000
# 3 31.6464 37.7713 80.1758 0.0000 0.0000 0.0000
# 4 0.0000 0.0000 0.0000 30.9351 0.0000 0.0000
# 5 0.0000 0.0000 0.0000 0.0000 32.9812 0.0000
# 6 0.0000 0.0000 0.0000 0.0000 0.0000 28.9247
#
#
#
# Elastic Compliance Matrix: (Units=1/GPa)
#
#
# Indices 1 2 3 4 5 6 
#
# 1 0.011130 -0.004738 -0.002161 0.000000 0.000000 0.000000
# 2 -0.004738 0.017392 -0.006323 0.000000 0.000000 0.000000
# 3 -0.002161 -0.006323 0.016304 0.000000 0.000000 0.000000
# 4 0.000000 0.000000 0.000000 0.032326 0.000000 0.000000
# 5 0.000000 0.000000 0.000000 0.000000 0.030320 0.000000
# 6 0.000000 0.000000 0.000000 0.000000 0.000000 0.034572
#
#
# Mechanical properties :
#
#
# Convention : Reuss Voigt Hill
#
# Bulk Modulus (GPa) = 54.40210 55.68532 55.04371
# Shear Modulus (GPa) = 28.63414 29.57631 29.10522
#
# Velocity S-wave (km/s) = 3.81150 3.87369 3.84272
# Velocity P-wave (km/s) = 6.85353 6.94689 6.90037
#
# Compressibility (1/GPa) = 0.01838164
#
# Stress axis : x y z
#
# Youngs Moduli (GPa) = 89.84605 57.49857 61.33302
#
# Poissons Ratio (x) = 0.27244 0.13254
# Poissons Ratio (y) = 0.42571 0.38782
# Poissons Ratio (z) = 0.19416 0.36357
#
# Static dielectric constant tensor:
#      x y z
#    x 4.093190 0.000000 0.000000 
#    y 0.000000 3.538560 0.000000 
#    z 0.000000 0.000000 3.465510 
# 
# 
# High freq. dielectric constant tensor:
#      x y z
#    x 1.786320 0.000000 0.000000 
#    y 0.000000 1.757620 0.000000 
#    z 0.000000 0.000000 1.752560 
# 
# From -- ./inp_files/24299.got.cif
#   From: 2010.03.12/outbox.ucp.g09.slc.cvg/sg59_13_cif.got.tgz:24299.got - 2010.05.04 19:30:51.
