data_PCOD8246428
_publ_section_title
;
Structure prediction by ZEFSAII (Michael W. Deem and Ramdas Pophale) SiO2 
 PCOD8246428
Probable space group: P B C N
;
_chemical_formula_sum "Si O2"
_cell_formula_units_Z 64
_cell_length_a 13.443427
_cell_length_b 14.958633
_cell_length_c 17.270273
_cell_angle_alpha 90.000000
_cell_angle_beta 90.000000
_cell_angle_gamma 90.000000
_cell_volume 3472.970570
_symmetry_space_group_name_H-M "P B C N"
_symmetry_group_IT_number 60
_symmetry_cell_setting 'orthorhombic'
loop_
_space_group_symop_operation_xyz
x,y,z
1/2-x,1/2-y,1/2+z
1/2+x,1/2-y,-z
-x,y,1/2-z
-x,-y,-z
1/2+x,1/2+y,1/2-z
1/2-x,1/2+y,z
x,-y,1/2+z
loop_
_atom_site_type_symbol
_atom_site_label
_atom_site_fract_x
_atom_site_fract_y
_atom_site_fract_z
Si Si1 0.208601 0.888043 0.571009
Si Si2 0.609154 0.460518 0.514378
Si Si3 0.441378 0.649949 0.612273
Si Si4 0.332084 0.306467 0.416249
Si Si5 0.220789 0.987223 0.347031
Si Si6 0.377247 0.128699 0.339006
Si Si7 0.595822 0.469872 0.795741
Si Si8 0.397615 0.161112 0.160360
O O1 0.187089 0.807563 0.509562
O O2 0.131987 0.892444 0.644120
O O3 0.321186 0.883460 0.601020
O O4 0.196220 0.979102 0.523079
O O5 0.500000 0.500000 0.500000
O O6 0.611257 0.364156 0.471983
O O7 0.635157 0.458691 0.604697
O O8 0.555758 0.668279 0.600364
O O9 0.434561 0.560016 0.661011
O O10 0.389098 0.731499 0.655558
O O11 0.267621 0.382826 0.371316
O O12 0.314315 0.207749 0.381499
O O13 0.327351 0.034495 0.361482
O O14 0.187784 0.001675 0.258771
O O15 0.369405 0.138774 0.247273
O O16 0.492657 0.127597 0.364385
O O17 0.500000 0.432107 0.750000
#
# Coordination Sequence:
#
# PCOD8246428 Si02
#       8
#     8   8   8   8   8   8   8   8
#     4  10  20  34  51  82 114 144 178 226 287 332
#     4  10  18  34  53  84 113 138 176 227 290 348
#     4  10  19  32  55  78 108 144 178 230 283 330
#     4  10  20  36  54  81 115 137 185 234 280 338
#     4  11  19  33  55  84 109 142 182 230 285 328
#     4  10  22  37  56  81 107 148 200 230 271 337
#     4  11  19  30  55  87 109 139 178 234 288 335
#     4  10  21  37  53  79 108 149 193 237 264 330
#
# _framework density 18.428028000000001
#
# number of rings (size 3 to 8) (size 9 to 14) (size 15 to 20)
#    0.000    1.750    5.000    1.500    3.500    0.000 
#    0.000    2.500    0.000    0.000   16.250    0.000 
#    0.000    0.000    0.000    0.000    0.000    0.000 
#
# Total GULP energy -793079.462236 kJ/mol
# GULP energy per Si atom -12391.866597 kJ/mol
# Density = 1.838608 g / cm^3
# Si number density = 18.428028 Si / 1000 Ang^3
#
#
#
# Elastic Constant Matrix: (Units=GPa)
#
#
# Indices 1 2 3 4 5 6 
#
# 1 82.9438 39.5890 30.7484 0.0000 0.0000 0.0000
# 2 39.5890 54.3193 17.7548 0.0000 0.0000 0.0000
# 3 30.7484 17.7548 85.7575 0.0000 0.0000 0.0000
# 4 0.0000 0.0000 0.0000 21.6165 0.0000 0.0000
# 5 0.0000 0.0000 0.0000 0.0000 31.3085 0.0000
# 6 0.0000 0.0000 0.0000 0.0000 0.0000 27.3039
#
#
#
# Elastic Compliance Matrix: (Units=1/GPa)
#
#
# Indices 1 2 3 4 5 6 
#
# 1 0.019950 -0.013088 -0.004444 0.000000 0.000000 0.000000
# 2 -0.013088 0.028332 -0.001173 0.000000 0.000000 0.000000
# 3 -0.004444 -0.001173 0.013497 0.000000 0.000000 0.000000
# 4 0.000000 0.000000 0.000000 0.046261 0.000000 0.000000
# 5 0.000000 0.000000 0.000000 0.000000 0.031940 0.000000
# 6 0.000000 0.000000 0.000000 0.000000 0.000000 0.036625
#
#
# Mechanical properties :
#
#
# Convention : Reuss Voigt Hill
#
# Bulk Modulus (GPa) = 41.03374 44.35610 42.69492
# Shear Modulus (GPa) = 22.50857 25.04100 23.77479
#
# Velocity S-wave (km/s) = 3.49869 3.69026 3.59575
# Velocity P-wave (km/s) = 6.21582 6.50227 6.36066
#
# Compressibility (1/GPa) = 0.02437019
#
# Stress axis : x y z
#
# Youngs Moduli (GPa) = 50.12408 35.29609 74.09113
#
# Poissons Ratio (x) = 0.46195 0.32923
# Poissons Ratio (y) = 0.65602 0.08691
# Poissons Ratio (z) = 0.22273 0.04140
#
# Static dielectric constant tensor:
#      x y z
#    x 3.309160 0.000000 0.000000 
#    y 0.000000 3.638370 0.000000 
#    z 0.000000 0.000000 3.882550 
# 
# 
# High freq. dielectric constant tensor:
#      x y z
#    x 1.700400 0.000000 0.000000 
#    y 0.000000 1.683560 0.000000 
#    z 0.000000 0.000000 1.732290 
# 
# From -- ./inp_files/20299.got.cif
#   From: 2010.03.12/outbox.cif.g09.slc.cpg/sg60_11_cif.got.tgz:20299.got - 2010.04.10 18:46:24.
