data_PCOD8246554
_publ_section_title
;
Structure prediction by ZEFSAII (Michael W. Deem and Ramdas Pophale) SiO2 
 PCOD8246554
Probable space group: P B C N
;
_chemical_formula_sum "Si O2"
_cell_formula_units_Z 36
_cell_length_a 5.213788
_cell_length_b 24.270028
_cell_length_c 14.322718
_cell_angle_alpha 90.000000
_cell_angle_beta 90.000000
_cell_angle_gamma 90.000000
_cell_volume 1812.379273
_symmetry_space_group_name_H-M "P B C N"
_symmetry_group_IT_number 60
_symmetry_cell_setting 'orthorhombic'
loop_
_space_group_symop_operation_xyz
x,y,z
1/2-x,1/2-y,1/2+z
1/2+x,1/2-y,-z
-x,y,1/2-z
-x,-y,-z
1/2+x,1/2+y,1/2-z
1/2-x,1/2+y,z
x,-y,1/2+z
loop_
_atom_site_type_symbol
_atom_site_label
_atom_site_fract_x
_atom_site_fract_y
_atom_site_fract_z
Si Si1 0.455545 0.059064 0.956039
Si Si2 0.183012 0.188607 0.678094
Si Si3 0.027924 0.235298 0.056396
Si Si4 0.959002 0.874178 0.495976
Si Si5 0.500000 0.907165 0.250000
O O1 0.183234 0.080812 0.993915
O O2 0.450598 0.055450 0.842555
O O3 0.680135 0.098102 0.994520
O O4 0.500000 0.000000 0.000000
O O5 0.419883 0.228266 0.649759
O O6 0.261817 0.132365 0.730351
O O7 0.000000 0.221597 0.750000
O O8 0.018256 0.169223 0.589177
O O9 0.281268 0.239224 0.992555
O O10 0.987248 0.169674 0.081917
#
# Coordination Sequence:
#
# PCOD8246554 Si02
#       5
#     8   8   8   8   4
#     4  11  22  37  61  84 110 154 199 245 295 332
#     4  10  19  32  57  86 113 140 190 236 290 345
#     4  10  20  33  54  83 117 153 175 224 293 356
#     4  10  20  37  54  85 115 145 188 238 285 345
#     4  10  20  36  56  86 116 140 200 254 280 340
#
# _framework density 19.863391
#
# number of rings (size 3 to 8) (size 9 to 14) (size 15 to 20)
#    0.000    1.778    2.222    4.667    3.111    0.000 
#    0.000    0.000    2.444    0.000    0.000    0.000 
#    0.000    0.000    0.000    0.000    0.000    0.000 
#
# Total GULP energy -445985.814426 kJ/mol
# GULP energy per Si atom -12388.494845 kJ/mol
# Density = 1.981818 g / cm^3
# Si number density = 19.863391 Si / 1000 Ang^3
#
#
#
# Elastic Constant Matrix: (Units=GPa)
#
#
# Indices 1 2 3 4 5 6 
#
# 1 108.3007 20.3032 14.0798 0.0000 0.0000 0.0000
# 2 20.3032 107.9452 50.2188 0.0000 0.0000 0.0000
# 3 14.0798 50.2188 61.6126 0.0000 0.0000 0.0000
# 4 0.0000 0.0000 0.0000 25.0627 0.0000 0.0000
# 5 0.0000 0.0000 0.0000 0.0000 22.4911 0.0000
# 6 0.0000 0.0000 0.0000 0.0000 0.0000 35.5610
#
#
#
# Elastic Compliance Matrix: (Units=1/GPa)
#
#
# Indices 1 2 3 4 5 6 
#
# 1 0.009623 -0.001268 -0.001166 0.000000 0.000000 0.000000
# 2 -0.001268 0.015089 -0.012009 0.000000 0.000000 0.000000
# 3 -0.001166 -0.012009 0.026285 0.000000 0.000000 0.000000
# 4 0.000000 0.000000 0.000000 0.039900 0.000000 0.000000
# 5 0.000000 0.000000 0.000000 0.000000 0.044462 0.000000
# 6 0.000000 0.000000 0.000000 0.000000 0.000000 0.028121
#
#
# Mechanical properties :
#
#
# Convention : Reuss Voigt Hill
#
# Bulk Modulus (GPa) = 45.22420 49.67357 47.44889
# Shear Modulus (GPa) = 25.03301 29.50674 27.26987
#
# Velocity S-wave (km/s) = 3.55386 3.85838 3.70925
# Velocity P-wave (km/s) = 6.29738 6.70159 6.50263
#
# Compressibility (1/GPa) = 0.02211206
#
# Stress axis : x y z
#
# Youngs Moduli (GPa) = 103.92046 66.27172 38.04402
#
# Poissons Ratio (x) = 0.08400 0.04435
# Poissons Ratio (y) = 0.13172 0.45688
# Poissons Ratio (z) = 0.12116 0.79588
#
# Static dielectric constant tensor:
#      x y z
#    x 3.925890 0.000000 0.000000 
#    y 0.000000 3.703620 0.000000 
#    z 0.000000 0.000000 3.913110 
# 
# 
# High freq. dielectric constant tensor:
#      x y z
#    x 1.798170 0.000000 0.000000 
#    y 0.000000 1.759760 0.000000 
#    z 0.000000 0.000000 1.744490 
# 
# From -- ./inp_files/13719.got.cif
#   From: 2010.03.12/outbox.cif.g09.slc.cpg/sg60_7_cif.got.tgz:13719.got - 2010.04.10 18:46:24.
