data_PCOD8246308
_publ_section_title
;
Structure prediction by ZEFSAII (Michael W. Deem and Ramdas Pophale) SiO2 
 PCOD8246308
Probable space group: P B C N
;
_chemical_formula_sum "Si O2"
_cell_formula_units_Z 48
_cell_length_a 14.041066
_cell_length_b 23.707256
_cell_length_c 8.599433
_cell_angle_alpha 90.000000
_cell_angle_beta 90.000000
_cell_angle_gamma 90.000000
_cell_volume 2862.537517
_symmetry_space_group_name_H-M "P B C N"
_symmetry_group_IT_number 60
_symmetry_cell_setting 'orthorhombic'
loop_
_space_group_symop_operation_xyz
x,y,z
1/2-x,1/2-y,1/2+z
1/2+x,1/2-y,-z
-x,y,1/2-z
-x,-y,-z
1/2+x,1/2+y,1/2-z
1/2-x,1/2+y,z
x,-y,1/2+z
loop_
_atom_site_type_symbol
_atom_site_label
_atom_site_fract_x
_atom_site_fract_y
_atom_site_fract_z
Si Si1 0.400535 0.565660 0.674827
Si Si2 0.293114 0.341400 0.781162
Si Si3 0.102833 0.956079 0.826410
Si Si4 0.056877 0.221656 0.093115
Si Si5 0.380149 0.685574 0.588561
Si Si6 0.601105 0.789519 0.691307
O O1 0.500000 0.580113 0.750000
O O2 0.416101 0.539074 0.507085
O O3 0.349574 0.515652 0.772741
O O4 0.347869 0.626015 0.666273
O O5 0.323063 0.406416 0.789852
O O6 0.349936 0.314368 0.636651
O O7 0.178885 0.337064 0.765893
O O8 0.314743 0.305397 0.937404
O O9 0.000000 0.944433 0.750000
O O10 0.000000 0.240167 0.250000
O O11 0.092020 0.275874 0.993400
O O12 0.989051 0.184466 0.978444
O O13 0.366440 0.733575 0.715561
O O14 0.500000 0.812899 0.750000
#
# Coordination Sequence:
#
# PCOD8246308 Si02
#       6
#     8   8   8   8   8   8
#     4  10  17  27  42  63  92 119 143 173 213 268
#     4  10  18  30  44  65  94 123 150 182 219 263
#     4  10  19  28  43  66  93 122 147 174 216 266
#     4   9  17  29  45  64  91 120 146 179 222 269
#     4   9  18  30  45  67  93 122 148 180 223 266
#     4  10  19  30  46  67  90 120 154 186 220 260
#
# _framework density 16.768339000000001
#
# number of rings (size 3 to 8) (size 9 to 14) (size 15 to 20)
#    0.000    2.333    0.000    7.000    0.000    1.333 
#    0.000    0.000    0.000    0.000    0.000    4.667 
#    0.000    5.333    0.000    0.000    0.000    0.000 
#
# Total GULP energy -594683.989108 kJ/mol
# GULP energy per Si atom -12389.249773 kJ/mol
# Density = 1.673017 g / cm^3
# Si number density = 16.768339 Si / 1000 Ang^3
#
#
#
# Elastic Constant Matrix: (Units=GPa)
#
#
# Indices 1 2 3 4 5 6 
#
# 1 72.0444 30.8402 2.4799 0.0000 0.0000 0.0000
# 2 30.8402 64.4021 16.8848 0.0000 0.0000 0.0000
# 3 2.4799 16.8848 59.2355 0.0000 0.0000 0.0000
# 4 0.0000 0.0000 0.0000 19.7809 0.0000 0.0000
# 5 0.0000 0.0000 0.0000 0.0000 13.0864 0.0000
# 6 0.0000 0.0000 0.0000 0.0000 0.0000 17.4686
#
#
#
# Elastic Compliance Matrix: (Units=1/GPa)
#
#
# Indices 1 2 3 4 5 6 
#
# 1 0.017636 -0.008918 0.001804 0.000000 0.000000 0.000000
# 2 -0.008918 0.021291 -0.005696 0.000000 0.000000 0.000000
# 3 0.001804 -0.005696 0.018430 0.000000 0.000000 0.000000
# 4 0.000000 0.000000 0.000000 0.050554 0.000000 0.000000
# 5 0.000000 0.000000 0.000000 0.000000 0.076415 0.000000
# 6 0.000000 0.000000 0.000000 0.000000 0.000000 0.057246
#
#
# Mechanical properties :
#
#
# Convention : Reuss Voigt Hill
#
# Bulk Modulus (GPa) = 31.50909 32.89908 32.20408
# Shear Modulus (GPa) = 18.00045 19.76564 18.88305
#
# Velocity S-wave (km/s) = 3.27995 3.43701 3.35940
# Velocity P-wave (km/s) = 5.75984 5.95089 5.85614
#
# Compressibility (1/GPa) = 0.03173687
#
# Stress axis : x y z
#
# Youngs Moduli (GPa) = 56.70260 46.96735 54.26001
#
# Poissons Ratio (x) = 0.41886 -0.09787
# Poissons Ratio (y) = 0.50569 0.30905
# Poissons Ratio (z) = -0.10228 0.26751
#
# Static dielectric constant tensor:
#      x y z
#    x 2.919240 0.000000 0.000000 
#    y 0.000000 3.007910 0.000000 
#    z 0.000000 0.000000 3.431440 
# 
# 
# High freq. dielectric constant tensor:
#      x y z
#    x 1.604260 0.000000 0.000000 
#    y 0.000000 1.621330 0.000000 
#    z 0.000000 0.000000 1.667360 
# 
# From -- ./inp_files/5160.got.cif
#   From: 2010.03.12/outbox.cif.g09.slc.cpg/sg60_3_cif.got.tgz:5160.got - 2010.04.10 18:46:24.
