data_PCOD8246572
_publ_section_title
;
Structure prediction by ZEFSAII (Michael W. Deem and Ramdas Pophale) SiO2 
 PCOD8246572
Probable space group: P B C N
;
_chemical_formula_sum "Si O2"
_cell_formula_units_Z 60
_cell_length_a 26.561960
_cell_length_b 19.766684
_cell_length_c 5.331432
_cell_angle_alpha 90.000000
_cell_angle_beta 90.000000
_cell_angle_gamma 90.000000
_cell_volume 2799.225026
_symmetry_space_group_name_H-M "P B C N"
_symmetry_group_IT_number 60
_symmetry_cell_setting 'orthorhombic'
loop_
_space_group_symop_operation_xyz
x,y,z
1/2-x,1/2-y,1/2+z
1/2+x,1/2-y,-z
-x,y,1/2-z
-x,-y,-z
1/2+x,1/2+y,1/2-z
1/2-x,1/2+y,z
x,-y,1/2+z
loop_
_atom_site_type_symbol
_atom_site_label
_atom_site_fract_x
_atom_site_fract_y
_atom_site_fract_z
Si Si1 0.789517 0.532038 0.210319
Si Si2 0.775404 0.670557 0.015553
Si Si3 0.100539 0.522820 0.877552
Si Si4 0.637832 0.832350 0.155245
Si Si5 0.324055 0.717562 0.697861
Si Si6 0.572273 0.663669 0.796528
Si Si7 0.553320 0.741800 0.309844
Si Si8 0.000000 0.956084 0.250000
O O1 0.764224 0.501778 0.956656
O O2 0.780904 0.613349 0.230715
O O3 0.848894 0.517716 0.205250
O O4 0.810166 0.644980 0.786721
O O5 0.716215 0.675403 0.961116
O O6 0.794079 0.747032 0.074141
O O7 0.070965 0.486700 0.110290
O O8 0.111130 0.600542 0.947569
O O9 0.649227 0.780851 0.934336
O O10 0.598241 0.795842 0.342699
O O11 0.367927 0.665269 0.774876
O O12 0.544688 0.706296 0.578383
O O13 0.550777 0.588459 0.768754
O O14 0.564621 0.689636 0.081424
O O15 0.500000 0.778224 0.250000
O O16 0.000000 0.000000 0.500000
#
# Coordination Sequence:
#
# PCOD8246572 Si02
#       8
#     8   8   8   8   8   8   8   4
#     4  10  20  34  54  77 108 152 209 238 275 345
#     4  12  21  36  58  87 124 166 204 254 309 383
#     4  10  19  33  54  78 109 152 204 240 275 347
#     4  11  22  35  59  87 119 160 205 254 314 376
#     4  11  24  37  57  93 129 162 206 265 325 374
#     4  11  23  42  65  94 126 163 203 269 321 384
#     4  11  21  39  65  95 123 156 203 265 324 372
#     4  12  24  44  74  96 124 172 224 268 334 412
#
# _framework density 21.434504
#
# number of rings (size 3 to 8) (size 9 to 14) (size 15 to 20)
#    0.000    1.067    6.667    2.400    0.000    0.000 
#    0.000    1.333    0.000    0.800    0.000    0.000 
#    0.000    0.000    0.000    0.000    0.000    0.000 
#
# Total GULP energy -743522.545086 kJ/mol
# GULP energy per Si atom -12392.042418 kJ/mol
# Density = 2.138572 g / cm^3
# Si number density = 21.434504 Si / 1000 Ang^3
#
#
#
# Elastic Constant Matrix: (Units=GPa)
#
#
# Indices 1 2 3 4 5 6 
#
# 1 84.0826 36.2997 8.4194 0.0000 0.0000 0.0000
# 2 36.2997 108.8818 28.2142 0.0000 0.0000 0.0000
# 3 8.4194 28.2142 124.3592 0.0000 0.0000 0.0000
# 4 0.0000 0.0000 0.0000 34.2003 0.0000 0.0000
# 5 0.0000 0.0000 0.0000 0.0000 20.5055 0.0000
# 6 0.0000 0.0000 0.0000 0.0000 0.0000 23.2181
#
#
#
# Elastic Compliance Matrix: (Units=1/GPa)
#
#
# Indices 1 2 3 4 5 6 
#
# 1 0.013894 -0.004662 0.000117 0.000000 0.000000 0.000000
# 2 -0.004662 0.011323 -0.002253 0.000000 0.000000 0.000000
# 3 0.000117 -0.002253 0.008544 0.000000 0.000000 0.000000
# 4 0.000000 0.000000 0.000000 0.029239 0.000000 0.000000
# 5 0.000000 0.000000 0.000000 0.000000 0.048767 0.000000
# 6 0.000000 0.000000 0.000000 0.000000 0.000000 0.043070
#
#
# Mechanical properties :
#
#
# Convention : Reuss Voigt Hill
#
# Bulk Modulus (GPa) = 49.59283 51.46558 50.52920
# Shear Modulus (GPa) = 28.54595 31.87749 30.21172
#
# Velocity S-wave (km/s) = 3.65331 3.86061 3.75839
# Velocity P-wave (km/s) = 6.40177 6.62836 6.51605
#
# Compressibility (1/GPa) = 0.02016420
#
# Stress axis : x y z
#
# Youngs Moduli (GPa) = 71.97245 88.31945 117.03464
#
# Poissons Ratio (x) = 0.41179 -0.01371
# Poissons Ratio (y) = 0.33557 0.26370
# Poissons Ratio (z) = -0.00843 0.19900
#
# Static dielectric constant tensor:
#      x y z
#    x 3.852670 0.000000 0.000000 
#    y 0.000000 3.816850 0.000000 
#    z 0.000000 0.000000 4.276150 
# 
# 
# High freq. dielectric constant tensor:
#      x y z
#    x 1.809480 0.000000 0.000000 
#    y 0.000000 1.827550 0.000000 
#    z 0.000000 0.000000 1.856190 
# 
# From -- ./inp_files/2422.got.cif
#   From: 2010.03.12/outbox.cif.g09.slc.cpg/sg60_2_cif.got.tgz:2422.got - 2010.04.10 18:46:24.
