data_PCOD8246858
_publ_section_title
;
Structure prediction by ZEFSAII (Michael W. Deem and Ramdas Pophale) SiO2 
 PCOD8246858
Probable space group: P B C N
;
_chemical_formula_sum "Si O2"
_cell_formula_units_Z 48
_cell_length_a 24.628629
_cell_length_b 9.898779
_cell_length_c 9.195929
_cell_angle_alpha 90.000000
_cell_angle_beta 90.000000
_cell_angle_gamma 90.000000
_cell_volume 2241.906388
_symmetry_space_group_name_H-M "P B C N"
_symmetry_group_IT_number 60
_symmetry_cell_setting 'orthorhombic'
loop_
_space_group_symop_operation_xyz
x,y,z
1/2-x,1/2-y,1/2+z
1/2+x,1/2-y,-z
-x,y,1/2-z
-x,-y,-z
1/2+x,1/2+y,1/2-z
1/2-x,1/2+y,z
x,-y,1/2+z
loop_
_atom_site_type_symbol
_atom_site_label
_atom_site_fract_x
_atom_site_fract_y
_atom_site_fract_z
Si Si1 0.902669 0.067493 0.325453
Si Si2 0.936868 0.660215 0.738449
Si Si3 0.774730 0.166214 0.635532
Si Si4 0.559717 0.054645 0.033250
Si Si5 0.224407 0.094720 0.191590
Si Si6 0.403293 0.673603 0.865695
O O1 0.929629 0.180294 0.219914
O O2 0.839797 0.093247 0.305702
O O3 0.920901 0.088607 0.491250
O O4 0.920587 0.918654 0.272203
O O5 0.909881 0.573353 0.607719
O O6 0.000000 0.624021 0.750000
O O7 0.909375 0.604840 0.888138
O O8 0.744130 0.298935 0.688629
O O9 0.754794 0.125961 0.472178
O O10 0.838839 0.197801 0.636143
O O11 0.756603 0.051183 0.750222
O O12 0.563274 0.185149 0.141901
O O13 0.500000 0.000000 0.000000
#
# Coordination Sequence:
#
# PCOD8246858 Si02
#       6
#     8   8   8   8   8   8
#     4   9  19  35  53  76 106 137 174 218 264 313
#     4   9  18  34  52  74 102 133 171 216 261 313
#     4  10  20  35  54  78 108 144 183 225 273 324
#     4   9  18  34  53  74 102 134 170 215 264 315
#     4  10  20  35  54  77 108 143 179 223 269 321
#     4   9  19  35  54  77 106 139 178 221 266 318
#
# _framework density 21.410350999999999
#
# number of rings (size 3 to 8) (size 9 to 14) (size 15 to 20)
#    0.000    2.667    0.000    1.000    0.000    4.000 
#    0.000   13.333    0.000    0.000    0.000    0.000 
#    0.000    0.000    0.000    0.000    0.000    0.000 
#
# Total GULP energy -594702.004495 kJ/mol
# GULP energy per Si atom -12389.625094 kJ/mol
# Density = 2.136162 g / cm^3
# Si number density = 21.410351 Si / 1000 Ang^3
#
#
#
# Elastic Constant Matrix: (Units=GPa)
#
#
# Indices 1 2 3 4 5 6 
#
# 1 9.4752 21.6013 9.8798 0.0000 0.0000 0.0000
# 2 21.6013 82.8533 5.7329 0.0000 0.0000 0.0000
# 3 9.8798 5.7329 52.5746 0.0000 0.0000 0.0000
# 4 0.0000 0.0000 0.0000 46.2754 0.0000 0.0000
# 5 0.0000 0.0000 0.0000 0.0000 14.3642 0.0000
# 6 0.0000 0.0000 0.0000 0.0000 0.0000 33.3294
#
#
#
# Elastic Compliance Matrix: (Units=1/GPa)
#
#
# Indices 1 2 3 4 5 6 
#
# 1 0.400669 -0.100006 -0.064388 0.000000 0.000000 0.000000
# 2 -0.100006 0.037123 0.014745 0.000000 0.000000 0.000000
# 3 -0.064388 0.014745 0.029513 0.000000 0.000000 0.000000
# 4 0.000000 0.000000 0.000000 0.021610 0.000000 0.000000
# 5 0.000000 0.000000 0.000000 0.000000 0.069618 0.000000
# 6 0.000000 0.000000 0.000000 0.000000 0.000000 0.030004
#
#
# Mechanical properties :
#
#
# Convention : Reuss Voigt Hill
#
# Bulk Modulus (GPa) = 5.95218 24.37012 15.16115
# Shear Modulus (GPa) = 5.29753 25.97306 15.63529
#
# Velocity S-wave (km/s) = 1.57469 3.48675 2.70528
# Velocity P-wave (km/s) = 2.46826 5.25519 4.10544
#
# Compressibility (1/GPa) = 0.16800556
#
# Stress axis : x y z
#
# Youngs Moduli (GPa) = 2.49582 26.93778 33.88389
#
# Poissons Ratio (x) = 2.69394 2.18173
# Poissons Ratio (y) = 0.24960 -0.49962
# Poissons Ratio (z) = 0.16070 -0.39720
#
# Static dielectric constant tensor:
#      x y z
#    x 3.422860 0.000000 0.000000 
#    y 0.000000 4.094910 0.000000 
#    z 0.000000 0.000000 4.593920 
# 
# 
# High freq. dielectric constant tensor:
#      x y z
#    x 1.798380 0.000000 0.000000 
#    y 0.000000 1.852380 0.000000 
#    z 0.000000 0.000000 1.846220 
# 
# From -- ./inp_files/8399.got.cif
#   From: 2010.03.12/outbox.cif.g09.slc.cpg/sg60_5_cif.got.tgz:8399.got - 2010.04.10 18:46:24.
