data_PCOD8246504
_publ_section_title
;
Structure prediction by ZEFSAII (Michael W. Deem and Ramdas Pophale) SiO2 
 PCOD8246504
Probable space group: P B C N
;
_chemical_formula_sum "Si O2"
_cell_formula_units_Z 40
_cell_length_a 8.477760
_cell_length_b 15.318525
_cell_length_c 13.512554
_cell_angle_alpha 90.000000
_cell_angle_beta 90.000000
_cell_angle_gamma 90.000000
_cell_volume 1754.831857
_symmetry_space_group_name_H-M "P B C N"
_symmetry_group_IT_number 60
_symmetry_cell_setting 'orthorhombic'
loop_
_space_group_symop_operation_xyz
x,y,z
1/2-x,1/2-y,1/2+z
1/2+x,1/2-y,-z
-x,y,1/2-z
-x,-y,-z
1/2+x,1/2+y,1/2-z
1/2-x,1/2+y,z
x,-y,1/2+z
loop_
_atom_site_type_symbol
_atom_site_label
_atom_site_fract_x
_atom_site_fract_y
_atom_site_fract_z
Si Si1 0.387081 0.041135 0.622138
Si Si2 0.834002 0.053082 0.697155
Si Si3 0.562911 0.862353 0.971926
Si Si4 0.623551 0.571395 0.033499
Si Si5 0.382859 0.696428 0.965743
O O1 0.321484 0.061375 0.731942
O O2 0.540190 0.096571 0.584166
O O3 0.259760 0.077144 0.545788
O O4 0.423550 0.938702 0.609543
O O5 0.858194 0.140665 0.633638
O O6 0.000000 0.037397 0.750000
O O7 0.803239 0.963382 0.636222
O O8 0.420870 0.797305 0.939765
O O9 0.724631 0.808107 0.969770
O O10 0.500000 0.500000 0.000000
O O11 0.527581 0.662415 0.035544
#
# Coordination Sequence:
#
# PCOD8246504 Si02
#       5
#     8   8   8   8   8
#     4  11  22  43  71  99 132 183 226 281 341 422
#     4  11  20  38  73  98 131 177 228 269 343 416
#     4  11  24  42  69  94 137 180 228 285 352 402
#     4  10  18  39  67  95 129 178 220 270 344 401
#     4  11  22  41  67  97 136 181 221 290 343 402
#
# _framework density 22.794207
#
# number of rings (size 3 to 8) (size 9 to 14) (size 15 to 20)
#    0.000    1.200    8.000    1.200    0.000    0.800 
#    0.000    4.000   13.200    0.000    0.000    0.000 
#    0.000    0.000    0.000    0.000    0.000    0.000 
#
# Total GULP energy -495696.778583 kJ/mol
# GULP energy per Si atom -12392.419465 kJ/mol
# Density = 2.274233 g / cm^3
# Si number density = 22.794207 Si / 1000 Ang^3
#
#
#
# Elastic Constant Matrix: (Units=GPa)
#
#
# Indices 1 2 3 4 5 6 
#
# 1 68.4905 44.4272 4.8621 0.0000 0.0000 0.0000
# 2 44.4272 140.2851 39.1748 0.0000 0.0000 0.0000
# 3 4.8621 39.1748 110.1342 0.0000 0.0000 0.0000
# 4 0.0000 0.0000 0.0000 22.2279 0.0000 0.0000
# 5 0.0000 0.0000 0.0000 0.0000 30.4956 0.0000
# 6 0.0000 0.0000 0.0000 0.0000 0.0000 44.6064
#
#
#
# Elastic Compliance Matrix: (Units=1/GPa)
#
#
# Indices 1 2 3 4 5 6 
#
# 1 0.018571 -0.006276 0.001412 0.000000 0.000000 0.000000
# 2 -0.006276 0.010035 -0.003292 0.000000 0.000000 0.000000
# 3 0.001412 -0.003292 0.010189 0.000000 0.000000 0.000000
# 4 0.000000 0.000000 0.000000 0.044988 0.000000 0.000000
# 5 0.000000 0.000000 0.000000 0.000000 0.032792 0.000000
# 6 0.000000 0.000000 0.000000 0.000000 0.000000 0.022418
#
#
# Mechanical properties :
#
#
# Convention : Reuss Voigt Hill
#
# Bulk Modulus (GPa) = 44.47729 55.09309 49.78519
# Shear Modulus (GPa) = 30.71263 34.82904 32.77083
#
# Velocity S-wave (km/s) = 3.67466 3.91318 3.79579
# Velocity P-wave (km/s) = 6.12855 6.68128 6.41087
#
# Compressibility (1/GPa) = 0.02248339
#
# Stress axis : x y z
#
# Youngs Moduli (GPa) = 53.84696 99.64870 98.14875
#
# Poissons Ratio (x) = 0.62537 -0.13863
# Poissons Ratio (y) = 0.33793 0.32315
# Poissons Ratio (z) = -0.07605 0.32809
#
# Static dielectric constant tensor:
#      x y z
#    x 4.313780 0.000000 0.000000 
#    y 0.000000 4.332230 0.000000 
#    z 0.000000 0.000000 4.133560 
# 
# 
# High freq. dielectric constant tensor:
#      x y z
#    x 1.938280 0.000000 0.000000 
#    y 0.000000 1.891920 0.000000 
#    z 0.000000 0.000000 1.863580 
# 
# From -- ./inp_files/14689.got.cif
#   From: 2010.03.12/outbox.cif.g09.slc.cpg/sg60_8_cif.got.tgz:14689.got - 2010.04.10 18:46:24.
