data_PCOD8246196
_publ_section_title
;
Structure prediction by ZEFSAII (Michael W. Deem and Ramdas Pophale) SiO2 
 PCOD8246196
Probable space group: P M M N
;
_chemical_formula_sum "Si O2"
_cell_formula_units_Z 56
_cell_length_a 17.995750
_cell_length_b 9.213496
_cell_length_c 20.606413
_cell_angle_alpha 90.000000
_cell_angle_beta 90.000000
_cell_angle_gamma 90.000000
_cell_volume 3416.620975
_symmetry_space_group_name_H-M "P M M N"
_symmetry_group_IT_number 59
_space_group.IT_coordinate_system_code '2'
_symmetry_cell_setting 'orthorhombic'
loop_
_space_group_symop_operation_xyz
x,y,z
1/2-x,1/2-y,z
1/2+x,-y,-z
-x,1/2+y,-z
-x,-y,-z
1/2+x,1/2+y,-z
1/2-x,y,z
x,1/2-y,z
loop_
_atom_site_type_symbol
_atom_site_label
_atom_site_fract_x
_atom_site_fract_y
_atom_site_fract_z
Si Si1 0.956591 0.413940 0.405222
Si Si2 0.167307 0.580771 0.060328
Si Si3 0.168555 0.586384 0.375057
Si Si4 0.108159 0.413246 0.485464
Si Si5 0.971302 0.421753 0.854543
Si Si6 0.528691 0.419585 0.705086
Si Si7 0.057055 0.579626 0.953854
O O1 0.929270 0.250000 0.393092
O O2 0.895223 0.501299 0.446381
O O3 0.031050 0.417153 0.447106
O O4 0.967617 0.491296 0.335654
O O5 0.250000 0.509023 0.068655
O O6 0.175357 0.750000 0.073506
O O7 0.106062 0.521911 0.112277
O O8 0.138450 0.554037 0.986097
O O9 0.250000 0.575397 0.343044
O O10 0.149924 0.750000 0.397567
O O11 0.168338 0.487990 0.439194
O O12 0.110247 0.536960 0.320740
O O13 0.133098 0.250000 0.500944
O O14 0.980151 0.250000 0.865571
O O15 0.972026 0.465895 0.779637
O O16 0.043973 0.503349 0.884217
O O17 0.511623 0.250000 0.696173
O O18 0.039235 0.750000 0.949022
O O19 0.000000 0.500000 0.000000
#
# Coordination Sequence:
#
# PCOD8246196 Si02
#       7
#     8   8   8   8   8   8   8
#     4   9  16  26  41  60  80 103 134 173 213 248
#     4   8  14  25  42  64  86 109 142 180 213 248
#     4   9  17  28  41  59  85 115 145 176 209 249
#     4   9  16  26  41  59  79 105 137 174 213 249
#     4   9  17  28  43  63  88 118 147 177 214 257
#     4   9  17  28  41  60  86 114 143 172 206 249
#     4   9  16  27  44  63  84 111 142 179 219 257
#
# _framework density 16.390463
#
# number of rings (size 3 to 8) (size 9 to 14) (size 15 to 20)
#    0.000    3.143    0.000    2.143    0.000    4.857 
#    0.000    2.857    0.000   10.714    0.000    7.000 
#    0.000    3.429    0.000    0.000    0.000    0.000 
#
# Total GULP energy -693868.914171 kJ/mol
# GULP energy per Si atom -12390.516324 kJ/mol
# Density = 1.635316 g / cm^3
# Si number density = 16.390463 Si / 1000 Ang^3
#
#
#
# Elastic Constant Matrix: (Units=GPa)
#
#
# Indices 1 2 3 4 5 6 
#
# 1 22.5069 14.8355 35.5119 0.0000 0.0000 0.0000
# 2 14.8355 73.3196 51.1090 0.0000 0.0000 0.0000
# 3 35.5119 51.1090 132.6593 0.0000 0.0000 0.0000
# 4 0.0000 0.0000 0.0000 27.7754 0.0000 0.0000
# 5 0.0000 0.0000 0.0000 0.0000 16.5916 0.0000
# 6 0.0000 0.0000 0.0000 0.0000 0.0000 15.5574
#
#
#
# Elastic Compliance Matrix: (Units=1/GPa)
#
#
# Indices 1 2 3 4 5 6 
#
# 1 0.077066 -0.001658 -0.019991 0.000000 0.000000 0.000000
# 2 -0.001658 0.018682 -0.006754 0.000000 0.000000 0.000000
# 3 -0.019991 -0.006754 0.015492 0.000000 0.000000 0.000000
# 4 0.000000 0.000000 0.000000 0.036003 0.000000 0.000000
# 5 0.000000 0.000000 0.000000 0.000000 0.060272 0.000000
# 6 0.000000 0.000000 0.000000 0.000000 0.000000 0.064278
#
#
# Mechanical properties :
#
#
# Convention : Reuss Voigt Hill
#
# Bulk Modulus (GPa) = 18.37097 47.93318 33.15207
# Shear Modulus (GPa) = 14.41986 20.45349 17.43668
#
# Velocity S-wave (km/s) = 2.96931 3.53638 3.26518
# Velocity P-wave (km/s) = 4.79462 6.78105 5.87244
#
# Compressibility (1/GPa) = 0.05443370
#
# Stress axis : x y z
#
# Youngs Moduli (GPa) = 12.97586 53.52662 64.55129
#
# Poissons Ratio (x) = 0.08876 1.29045
# Poissons Ratio (y) = 0.02152 0.43596
# Poissons Ratio (z) = 0.25940 0.36150
#
# Static dielectric constant tensor:
#      x y z
#    x 2.927930 0.000000 0.000000 
#    y 0.000000 3.186090 0.000000 
#    z 0.000000 0.000000 2.099840 
# 
# 
# High freq. dielectric constant tensor:
#      x y z
#    x 1.594160 0.000000 0.000000 
#    y 0.000000 1.625180 0.000000 
#    z 0.000000 0.000000 1.619780 
# 
# From -- ./inp_files/30602.got.cif
#   From: 2010.03.12/outbox.cif.g09.slc.cpg/sg59_16_cif.got.tgz:30602.got - 2010.04.16 16:29:54.
