data_PCOD8246556
_publ_section_title
;
Structure prediction by ZEFSAII (Michael W. Deem and Ramdas Pophale) SiO2 
 PCOD8246556
Probable space group: P B C N
;
_chemical_formula_sum "Si O2"
_cell_formula_units_Z 64
_cell_length_a 29.436629
_cell_length_b 5.133700
_cell_length_c 20.916898
_cell_angle_alpha 90.000000
_cell_angle_beta 90.000000
_cell_angle_gamma 90.000000
_cell_volume 3160.936992
_symmetry_space_group_name_H-M "P B C N"
_symmetry_group_IT_number 60
_symmetry_cell_setting 'orthorhombic'
loop_
_space_group_symop_operation_xyz
x,y,z
1/2-x,1/2-y,1/2+z
1/2+x,1/2-y,-z
-x,y,1/2-z
-x,-y,-z
1/2+x,1/2+y,1/2-z
1/2-x,1/2+y,z
x,-y,1/2+z
loop_
_atom_site_type_symbol
_atom_site_label
_atom_site_fract_x
_atom_site_fract_y
_atom_site_fract_z
Si Si1 0.479652 0.006265 0.156021
Si Si2 0.120343 0.956601 0.835535
Si Si3 0.578395 0.955586 0.609156
Si Si4 0.872807 0.031496 0.417662
Si Si5 0.082125 0.528544 0.035137
Si Si6 0.066876 0.990498 0.704277
Si Si7 0.720291 0.512357 0.216116
Si Si8 0.777906 0.965569 0.864107
O O1 0.533479 0.037911 0.152322
O O2 0.459403 0.005008 0.084499
O O3 0.459355 0.237386 0.198673
O O4 0.469328 0.738909 0.192900
O O5 0.112699 0.681618 0.869696
O O6 0.090380 0.970449 0.772161
O O7 0.173758 0.985625 0.823173
O O8 0.104438 0.183917 0.882943
O O9 0.563115 0.988963 0.535811
O O10 0.880138 0.311615 0.449631
O O11 0.893431 0.028332 0.347184
O O12 0.819570 0.978297 0.411026
O O13 0.894975 0.811081 0.461613
O O14 0.748949 0.258266 0.197683
O O15 0.706883 0.511991 0.290568
O O16 0.760624 0.676266 0.879209
#
# Coordination Sequence:
#
# PCOD8246556 Si02
#       8
#     8   8   8   8   8   8   8   8
#     4  10  22  39  61  84 117 152 201 250 286 339
#     4  12  24  39  61  88 127 150 195 242 286 367
#     4  12  25  39  59  86 116 165 203 235 276 340
#     4  10  19  37  60  84 116 146 186 248 294 344
#     4  10  22  39  61  80 112 158 204 242 279 334
#     4  10  21  37  58  89 117 154 185 237 316 335
#     4  10  21  38  61  88 118 151 189 235 286 347
#     4  10  19  32  58  91 116 139 180 238 303 358
#
# _framework density 20.247160999999998
#
# number of rings (size 3 to 8) (size 9 to 14) (size 15 to 20)
#    0.000    1.500    1.250    4.125    0.000    3.000 
#    0.000    5.000    0.000   15.000    0.000    0.000 
#    0.000    0.000    0.000    0.000    0.000    0.000 
#
# Total GULP energy -793940.113026 kJ/mol
# GULP energy per Si atom -12405.314266 kJ/mol
# Density = 2.020108 g / cm^3
# Si number density = 20.247161 Si / 1000 Ang^3
#
#
#
# Elastic Constant Matrix: (Units=GPa)
#
#
# Indices 1 2 3 4 5 6 
#
# 1 100.9436 13.1964 13.4889 0.0000 0.0000 0.0000
# 2 13.1964 101.8216 14.2486 0.0000 0.0000 0.0000
# 3 13.4889 14.2486 59.6644 0.0000 0.0000 0.0000
# 4 0.0000 0.0000 0.0000 4.8587 0.0000 0.0000
# 5 0.0000 0.0000 0.0000 0.0000 16.8316 0.0000
# 6 0.0000 0.0000 0.0000 0.0000 0.0000 4.1650
#
#
#
# Elastic Compliance Matrix: (Units=1/GPa)
#
#
# Indices 1 2 3 4 5 6 
#
# 1 0.010322 -0.001046 -0.002084 0.000000 0.000000 0.000000
# 2 -0.001046 0.010267 -0.002215 0.000000 0.000000 0.000000
# 3 -0.002084 -0.002215 0.017761 0.000000 0.000000 0.000000
# 4 0.000000 0.000000 0.000000 0.205818 0.000000 0.000000
# 5 0.000000 0.000000 0.000000 0.000000 0.059412 0.000000
# 6 0.000000 0.000000 0.000000 0.000000 0.000000 0.240096
#
#
# Mechanical properties :
#
#
# Convention : Reuss Voigt Hill
#
# Bulk Modulus (GPa) = 36.15502 38.25526 37.20514
# Shear Modulus (GPa) = 8.87177 19.93743 14.40460
#
# Velocity S-wave (km/s) = 2.09553 3.14140 2.67017
# Velocity P-wave (km/s) = 4.87346 5.66507 5.28411
#
# Compressibility (1/GPa) = 0.02765867
#
# Stress axis : x y z
#
# Youngs Moduli (GPa) = 96.88301 97.40241 56.30463
#
# Poissons Ratio (x) = 0.10190 0.11732
# Poissons Ratio (y) = 0.10135 0.12473
# Poissons Ratio (z) = 0.20187 0.21577
#
# Static dielectric constant tensor:
#      x y z
#    x 3.531380 0.000000 0.000000 
#    y 0.000000 3.882970 0.000000 
#    z 0.000000 0.000000 3.637040 
# 
# 
# High freq. dielectric constant tensor:
#      x y z
#    x 1.789330 0.000000 0.000000 
#    y 0.000000 1.809670 0.000000 
#    z 0.000000 0.000000 1.777490 
# 
# From -- ./inp_files/23362.got.cif
#   From: 2010.03.12/outbox.cif.g09.slc.cpg/sg60_12_cif.got.tgz:23362.got - 2010.04.10 18:46:24.
