data_PCOD8246883
_publ_section_title
;
Structure prediction by ZEFSAII (Michael W. Deem and Ramdas Pophale) SiO2 
 PCOD8246883
Probable space group: P B C N
;
_chemical_formula_sum "Si O2"
_cell_formula_units_Z 60
_cell_length_a 18.631636
_cell_length_b 8.176293
_cell_length_c 18.360710
_cell_angle_alpha 90.000000
_cell_angle_beta 90.000000
_cell_angle_gamma 90.000000
_cell_volume 2797.028607
_symmetry_space_group_name_H-M "P B C N"
_symmetry_group_IT_number 60
_symmetry_cell_setting 'orthorhombic'
loop_
_space_group_symop_operation_xyz
x,y,z
1/2-x,1/2-y,1/2+z
1/2+x,1/2-y,-z
-x,y,1/2-z
-x,-y,-z
1/2+x,1/2+y,1/2-z
1/2-x,1/2+y,z
x,-y,1/2+z
loop_
_atom_site_type_symbol
_atom_site_label
_atom_site_fract_x
_atom_site_fract_y
_atom_site_fract_z
Si Si1 0.350183 0.650590 0.745254
Si Si2 0.935993 0.260766 0.873614
Si Si3 0.075546 0.079930 0.882104
Si Si4 0.653367 0.917585 0.001434
Si Si5 0.236765 0.848273 0.804809
Si Si6 0.000000 0.511790 0.250000
Si Si7 0.901938 0.704162 0.647468
Si Si8 0.797081 0.256998 0.545312
O O1 0.382824 0.626198 0.664700
O O2 0.414385 0.669065 0.803889
O O3 0.297160 0.806201 0.745206
O O4 0.300804 0.509501 0.777534
O O5 0.954105 0.381123 0.806608
O O6 0.001858 0.162722 0.911088
O O7 0.892897 0.358234 0.933728
O O8 0.143250 0.119119 0.934850
O O9 0.068026 0.885528 0.871928
O O10 0.603886 0.894348 0.072360
O O11 0.728993 0.823067 0.006184
O O12 0.667958 0.110852 0.990571
O O13 0.175627 0.709850 0.813561
O O14 0.274072 0.864733 0.884072
O O15 0.048295 0.391694 0.297627
#
# Coordination Sequence:
#
# PCOD8246883 Si02
#       8
#     8   8   8   8   8   4   8   8
#     4  10  20  35  60  90 124 165 214 263 318 381
#     4  12  26  41  63  95 139 178 216 271 342 396
#     4  10  21  42  71  92 125 178 219 270 332 399
#     4  11  24  43  67  99 131 173 220 273 334 396
#     4   9  19  35  64  91 116 167 215 270 322 381
#     4  12  26  42  64  96 136 172 220 278 326 408
#     4  10  23  41  67  97 125 170 232 270 329 398
#     4  10  20  42  70  95 127 167 226 271 325 404
#
# _framework density 21.451336000000001
#
# number of rings (size 3 to 8) (size 9 to 14) (size 15 to 20)
#    0.000    1.600    1.333    4.800    7.467    3.733 
#    0.000    1.333    0.000    0.000    0.000    0.000 
#    0.000    0.000    0.000    0.000    0.000    0.000 
#
# Total GULP energy -743683.774566 kJ/mol
# GULP energy per Si atom -12394.729576 kJ/mol
# Density = 2.140251 g / cm^3
# Si number density = 21.451336 Si / 1000 Ang^3
#
#
#
# Elastic Constant Matrix: (Units=GPa)
#
#
# Indices 1 2 3 4 5 6 
#
# 1 92.1880 25.5857 42.4468 0.0000 0.0000 0.0000
# 2 25.5857 71.9862 23.0594 0.0000 0.0000 0.0000
# 3 42.4468 23.0594 71.2518 0.0000 0.0000 0.0000
# 4 0.0000 0.0000 0.0000 18.7806 0.0000 0.0000
# 5 0.0000 0.0000 0.0000 0.0000 38.8490 0.0000
# 6 0.0000 0.0000 0.0000 0.0000 0.0000 23.4448
#
#
#
# Elastic Compliance Matrix: (Units=1/GPa)
#
#
# Indices 1 2 3 4 5 6 
#
# 1 0.015450 -0.002837 -0.008286 0.000000 0.000000 0.000000
# 2 -0.002837 0.016019 -0.003494 0.000000 0.000000 0.000000
# 3 -0.008286 -0.003494 0.020102 0.000000 0.000000 0.000000
# 4 0.000000 0.000000 0.000000 0.053246 0.000000 0.000000
# 5 0.000000 0.000000 0.000000 0.000000 0.025741 0.000000
# 6 0.000000 0.000000 0.000000 0.000000 0.000000 0.042653
#
#
# Mechanical properties :
#
#
# Convention : Reuss Voigt Hill
#
# Bulk Modulus (GPa) = 44.76956 46.40111 45.58533
# Shear Modulus (GPa) = 23.82190 25.83716 24.82953
#
# Velocity S-wave (km/s) = 3.33605 3.47429 3.40587
# Velocity P-wave (km/s) = 5.97951 6.14590 6.06328
#
# Compressibility (1/GPa) = 0.02233661
#
# Stress axis : x y z
#
# Youngs Moduli (GPa) = 64.72536 62.42502 49.74717
#
# Poissons Ratio (x) = 0.17711 0.41219
# Poissons Ratio (y) = 0.18363 0.17383
# Poissons Ratio (z) = 0.53630 0.21813
#
# Static dielectric constant tensor:
#      x y z
#    x 4.210550 0.000000 0.000000 
#    y 0.000000 3.880770 0.000000 
#    z 0.000000 0.000000 3.634540 
# 
# 
# High freq. dielectric constant tensor:
#      x y z
#    x 1.858680 0.000000 0.000000 
#    y 0.000000 1.846110 0.000000 
#    z 0.000000 0.000000 1.808450 
# 
# From -- ./inp_files/20909.got.cif
#   From: 2010.03.12/outbox.cif.g09.slc.cpg/sg60_11_cif.got.tgz:20909.got - 2010.04.10 18:46:24.
