data_PCOD8246162
_publ_section_title
;
Structure prediction by ZEFSAII (Michael W. Deem and Ramdas Pophale) SiO2 
 PCOD8246162
Probable space group: P M M N
;
_chemical_formula_sum "Si O2"
_cell_formula_units_Z 56
_cell_length_a 13.582766
_cell_length_b 9.655252
_cell_length_c 29.134192
_cell_angle_alpha 90.000000
_cell_angle_beta 90.000000
_cell_angle_gamma 90.000000
_cell_volume 3820.804443
_symmetry_space_group_name_H-M "P M M N"
_symmetry_group_IT_number 59
_space_group.IT_coordinate_system_code '2'
_symmetry_cell_setting 'orthorhombic'
loop_
_space_group_symop_operation_xyz
x,y,z
1/2-x,1/2-y,z
1/2+x,-y,-z
-x,1/2+y,-z
-x,-y,-z
1/2+x,1/2+y,-z
1/2-x,y,z
x,1/2-y,z
loop_
_atom_site_type_symbol
_atom_site_label
_atom_site_fract_x
_atom_site_fract_y
_atom_site_fract_z
Si Si1 0.639713 0.408337 0.488734
Si Si2 0.863211 0.410437 0.024957
Si Si3 0.976150 0.410522 0.932872
Si Si4 0.451434 0.088402 0.434433
Si Si5 0.632703 0.595295 0.758280
Si Si6 0.640467 0.914321 0.658380
Si Si7 0.635956 0.089231 0.841394
O O1 0.750000 0.434032 0.470277
O O2 0.625054 0.250000 0.504932
O O3 0.620775 0.506023 0.532006
O O4 0.564925 0.443169 0.447183
O O5 0.750000 0.455378 0.028543
O O6 0.877659 0.250000 0.037390
O O7 0.925002 0.500397 0.061161
O O8 0.899277 0.441742 0.973471
O O9 0.006125 0.250000 0.932031
O O10 0.924540 0.456804 0.885948
O O11 0.425548 0.250000 0.439687
O O12 0.432320 0.037061 0.382363
O O13 0.750000 0.598362 0.758179
O O14 0.591267 0.750000 0.767238
O O15 0.598820 0.537054 0.708160
O O16 0.592970 0.494962 0.798088
O O17 0.750000 0.975207 0.649113
O O18 0.647607 0.750000 0.660279
O O19 0.750000 0.054087 0.850516
O O20 0.621541 0.250000 0.830454
#
# Coordination Sequence:
#
# PCOD8246162 Si02
#       7
#     8   8   8   8   8   8   8
#     4   9  17  27  37  54  81 104 123 157 199 228
#     4   9  17  29  43  59  81 107 133 163 197 229
#     4   9  17  28  42  60  81 106 135 162 191 230
#     4   9  16  26  41  57  73 101 137 160 182 227
#     4   8  14  24  37  54  76  99 124 158 197 231
#     4   8  13  22  37  56  75  95 124 161 193 223
#     4   9  16  26  40  58  81 107 132 158 190 230
#
# _framework density 14.656599
#
# number of rings (size 3 to 8) (size 9 to 14) (size 15 to 20)
#    0.000    3.286    0.000    1.714    0.000    3.429 
#    0.000    0.714    0.000    5.143    0.000    1.000 
#    0.000    3.429    0.000    0.000    0.000    0.000 
#
# Total GULP energy -694138.440146 kJ/mol
# GULP energy per Si atom -12395.329288 kJ/mol
# Density = 1.462324 g / cm^3
# Si number density = 14.656599 Si / 1000 Ang^3
#
#
#
# Elastic Constant Matrix: (Units=GPa)
#
#
# Indices 1 2 3 4 5 6 
#
# 1 86.4729 36.7386 56.2019 0.0000 0.0000 0.0000
# 2 36.7386 45.5546 49.4437 0.0000 0.0000 0.0000
# 3 56.2019 49.4437 137.4793 0.0000 0.0000 0.0000
# 4 0.0000 0.0000 0.0000 23.2876 0.0000 0.0000
# 5 0.0000 0.0000 0.0000 0.0000 21.1724 0.0000
# 6 0.0000 0.0000 0.0000 0.0000 0.0000 18.8944
#
#
#
# Elastic Compliance Matrix: (Units=1/GPa)
#
#
# Indices 1 2 3 4 5 6 
#
# 1 0.018635 -0.011088 -0.003630 0.000000 0.000000 0.000000
# 2 -0.011088 0.042605 -0.010790 0.000000 0.000000 0.000000
# 3 -0.003630 -0.010790 0.012638 0.000000 0.000000 0.000000
# 4 0.000000 0.000000 0.000000 0.042941 0.000000 0.000000
# 5 0.000000 0.000000 0.000000 0.000000 0.047231 0.000000
# 6 0.000000 0.000000 0.000000 0.000000 0.000000 0.052926
#
#
# Mechanical properties :
#
#
# Convention : Reuss Voigt Hill
#
# Bulk Modulus (GPa) = 43.74138 61.58612 52.66375
# Shear Modulus (GPa) = 18.14140 21.14574 19.64357
#
# Velocity S-wave (km/s) = 3.52200 3.80247 3.66492
# Velocity P-wave (km/s) = 6.81530 7.83511 7.34293
#
# Compressibility (1/GPa) = 0.02286164
#
# Stress axis : x y z
#
# Youngs Moduli (GPa) = 53.66370 23.47140 79.12511
#
# Poissons Ratio (x) = 0.26026 0.28722
# Poissons Ratio (y) = 0.59505 0.85373
# Poissons Ratio (z) = 0.19480 0.25325
#
# Static dielectric constant tensor:
#      x y z
#    x 2.710820 0.000000 0.000000 
#    y 0.000000 2.802270 0.000000 
#    z 0.000000 0.000000 3.051090 
# 
# 
# High freq. dielectric constant tensor:
#      x y z
#    x 1.532390 0.000000 0.000000 
#    y 0.000000 1.550560 0.000000 
#    z 0.000000 0.000000 1.557070 
# 
# From -- ./inp_files/31915.got.cif
#   From: 2010.03.12/outbox.cif.g09.slc.cpg/sg59_16_cif.got.tgz:31915.got - 2010.04.16 16:29:54.
