data_PCOD8246276
_publ_section_title
;
Structure prediction by ZEFSAII (Michael W. Deem and Ramdas Pophale) SiO2 
 PCOD8246276
Probable space group: P B C N
;
_chemical_formula_sum "Si O2"
_cell_formula_units_Z 52
_cell_length_a 9.868214
_cell_length_b 32.153636
_cell_length_c 9.066087
_cell_angle_alpha 90.000000
_cell_angle_beta 90.000000
_cell_angle_gamma 90.000000
_cell_volume 2876.659985
_symmetry_space_group_name_H-M "P B C N"
_symmetry_group_IT_number 60
_symmetry_cell_setting 'orthorhombic'
loop_
_space_group_symop_operation_xyz
x,y,z
1/2-x,1/2-y,1/2+z
1/2+x,1/2-y,-z
-x,y,1/2-z
-x,-y,-z
1/2+x,1/2+y,1/2-z
1/2-x,1/2+y,z
x,-y,1/2+z
loop_
_atom_site_type_symbol
_atom_site_label
_atom_site_fract_x
_atom_site_fract_y
_atom_site_fract_z
Si Si1 0.335455 0.447848 0.239093
Si Si2 0.520843 0.349373 0.000272
Si Si3 0.363788 0.480144 0.936986
Si Si4 0.796010 0.141871 0.761482
Si Si5 0.582175 0.262499 0.564605
Si Si6 0.324186 0.777193 0.144214
Si Si7 0.000000 0.913387 0.750000
O O1 0.500000 0.441484 0.250000
O O2 0.284528 0.482642 0.354855
O O3 0.253201 0.405413 0.276807
O O4 0.284717 0.461944 0.077020
O O5 0.643843 0.338376 0.111051
O O6 0.399427 0.365017 0.103453
O O7 0.479936 0.308150 0.912462
O O8 0.560720 0.384869 0.881749
O O9 0.385320 0.443255 0.817986
O O10 0.500000 0.500000 0.000000
O O11 0.679071 0.173611 0.814892
O O12 0.663097 0.250984 0.711224
O O13 0.683389 0.262103 0.426785
O O14 0.456093 0.230379 0.540599
#
# Coordination Sequence:
#
# PCOD8246276 Si02
#       7
#     8   8   8   8   8   8   4
#     4  10  16  27  39  63  92 133 175 207 259 320
#     4  10  19  28  46  67  97 135 171 212 258 317
#     4  10  17  23  37  59  93 132 168 210 257 316
#     4  10  18  31  46  66  95 137 174 208 257 314
#     4  10  21  38  53  80 105 140 180 219 265 316
#     4  10  21  35  55  75 106 140 178 223 262 315
#     4  12  16  24  40  64  94 134 174 212 258 320
#
# _framework density 18.076518
#
# number of rings (size 3 to 8) (size 9 to 14) (size 15 to 20)
#    0.000    1.846    5.385    2.769    0.000    1.846 
#    0.000    0.000    0.000    0.000    0.000    0.000 
#    0.000    4.923    0.000    0.000    0.615    0.154 
#
# Total GULP energy -644245.646386 kJ/mol
# GULP energy per Si atom -12389.339354 kJ/mol
# Density = 1.803537 g / cm^3
# Si number density = 18.076518 Si / 1000 Ang^3
#
#
#
# Elastic Constant Matrix: (Units=GPa)
#
#
# Indices 1 2 3 4 5 6 
#
# 1 49.2274 45.2997 24.5869 0.0000 0.0000 0.0000
# 2 45.2997 155.1395 66.9517 0.0000 0.0000 0.0000
# 3 24.5869 66.9517 101.5539 0.0000 0.0000 0.0000
# 4 0.0000 0.0000 0.0000 40.2069 0.0000 0.0000
# 5 0.0000 0.0000 0.0000 0.0000 21.3719 0.0000
# 6 0.0000 0.0000 0.0000 0.0000 0.0000 6.9489
#
#
#
# Elastic Compliance Matrix: (Units=1/GPa)
#
#
# Indices 1 2 3 4 5 6 
#
# 1 0.028050 -0.007351 -0.001945 0.000000 0.000000 0.000000
# 2 -0.007351 0.010936 -0.005430 0.000000 0.000000 0.000000
# 3 -0.001945 -0.005430 0.013897 0.000000 0.000000 0.000000
# 4 0.000000 0.000000 0.000000 0.024871 0.000000 0.000000
# 5 0.000000 0.000000 0.000000 0.000000 0.046790 0.000000
# 6 0.000000 0.000000 0.000000 0.000000 0.000000 0.143907
#
#
# Mechanical properties :
#
#
# Convention : Reuss Voigt Hill
#
# Bulk Modulus (GPa) = 42.67712 64.39973 53.53842
# Shear Modulus (GPa) = 16.35522 24.97772 20.66647
#
# Velocity S-wave (km/s) = 3.01121 3.72126 3.38491
# Velocity P-wave (km/s) = 5.97915 7.35984 6.70513
#
# Compressibility (1/GPa) = 0.02343176
#
# Stress axis : x y z
#
# Youngs Moduli (GPa) = 35.65091 91.44495 71.95551
#
# Poissons Ratio (x) = 0.67222 0.13993
# Poissons Ratio (y) = 0.26207 0.39070
# Poissons Ratio (z) = 0.06933 0.49652
#
# Static dielectric constant tensor:
#      x y z
#    x 2.815950 0.000000 0.000000 
#    y 0.000000 3.713380 0.000000 
#    z 0.000000 0.000000 3.672280 
# 
# 
# High freq. dielectric constant tensor:
#      x y z
#    x 1.609920 0.000000 0.000000 
#    y 0.000000 1.721800 0.000000 
#    z 0.000000 0.000000 1.717430 
# 
# From -- ./inp_files/5281.got.cif
#   From: 2010.03.12/outbox.cif.g09.slc.cpg/sg60_3_cif.got.tgz:5281.got - 2010.04.10 18:46:24.
