data_PCOD8246880
_publ_section_title
;
Structure prediction by ZEFSAII (Michael W. Deem and Ramdas Pophale) SiO2 
 PCOD8246880
Probable space group: P B C N
;
_chemical_formula_sum "Si O2"
_cell_formula_units_Z 52
_cell_length_a 6.083951
_cell_length_b 19.932675
_cell_length_c 20.535114
_cell_angle_alpha 90.000000
_cell_angle_beta 90.000000
_cell_angle_gamma 90.000000
_cell_volume 2490.281323
_symmetry_space_group_name_H-M "P B C N"
_symmetry_group_IT_number 60
_symmetry_cell_setting 'orthorhombic'
loop_
_space_group_symop_operation_xyz
x,y,z
1/2-x,1/2-y,1/2+z
1/2+x,1/2-y,-z
-x,y,1/2-z
-x,-y,-z
1/2+x,1/2+y,1/2-z
1/2-x,1/2+y,z
x,-y,1/2+z
loop_
_atom_site_type_symbol
_atom_site_label
_atom_site_fract_x
_atom_site_fract_y
_atom_site_fract_z
Si Si1 0.242939 0.886699 0.082490
Si Si2 0.500000 0.417014 0.750000
Si Si3 0.781210 0.476737 0.860648
Si Si4 0.519972 0.602156 0.460117
Si Si5 0.669058 0.128537 0.146380
Si Si6 0.976275 0.237033 0.598413
Si Si7 0.374490 0.187678 0.980595
O O1 0.144418 0.821539 0.121782
O O2 0.445248 0.867306 0.037055
O O3 0.322978 0.943339 0.133567
O O4 0.058443 0.916503 0.033075
O O5 0.636154 0.464935 0.797059
O O6 0.674036 0.371373 0.709965
O O7 0.636856 0.459589 0.924097
O O8 0.009204 0.435961 0.854466
O O9 0.316341 0.629965 0.418095
O O10 0.708487 0.657481 0.465981
O O11 0.523832 0.197622 0.145454
O O12 0.027287 0.250406 0.521358
O O13 0.728504 0.208811 0.589593
#
# Coordination Sequence:
#
# PCOD8246880 Si02
#       7
#     8   4   8   8   8   8   8
#     4  11  23  34  60  97 134 171 196 248 321 388
#     4  10  26  44  70  84 110 162 228 280 314 358
#     4  11  23  42  63  90 122 162 215 266 318 367
#     4  10  20  35  59  94 127 162 202 248 306 387
#     4  11  22  41  66  91 121 167 217 266 312 369
#     4  11  20  35  59  91 134 165 199 243 304 383
#     4  11  19  34  55  93 136 172 193 237 312 381
#
# _framework density 20.881174999999999
#
# number of rings (size 3 to 8) (size 9 to 14) (size 15 to 20)
#    0.000    1.231    4.615    1.846    0.000    7.385 
#    0.000    0.000    6.769    0.000    0.000    0.000 
#    0.000    0.000    0.000    0.000    0.000    0.000 
#
# Total GULP energy -644405.853860 kJ/mol
# GULP energy per Si atom -12392.420267 kJ/mol
# Density = 2.083365 g / cm^3
# Si number density = 20.881175 Si / 1000 Ang^3
#
#
#
# Elastic Constant Matrix: (Units=GPa)
#
#
# Indices 1 2 3 4 5 6 
#
# 1 107.6707 55.0218 30.9959 0.0000 0.0000 0.0000
# 2 55.0218 143.8308 49.5973 0.0000 0.0000 0.0000
# 3 30.9959 49.5973 63.7010 0.0000 0.0000 0.0000
# 4 0.0000 0.0000 0.0000 19.1409 0.0000 0.0000
# 5 0.0000 0.0000 0.0000 0.0000 31.3135 0.0000
# 6 0.0000 0.0000 0.0000 0.0000 0.0000 19.5233
#
#
#
# Elastic Compliance Matrix: (Units=1/GPa)
#
#
# Indices 1 2 3 4 5 6 
#
# 1 0.011973 -0.003515 -0.003089 0.000000 0.000000 0.000000
# 2 -0.003515 0.010536 -0.006493 0.000000 0.000000 0.000000
# 3 -0.003089 -0.006493 0.022257 0.000000 0.000000 0.000000
# 4 0.000000 0.000000 0.000000 0.052244 0.000000 0.000000
# 5 0.000000 0.000000 0.000000 0.000000 0.031935 0.000000
# 6 0.000000 0.000000 0.000000 0.000000 0.000000 0.051221
#
#
# Mechanical properties :
#
#
# Convention : Reuss Voigt Hill
#
# Bulk Modulus (GPa) = 53.84518 65.15916 59.50217
# Shear Modulus (GPa) = 23.52368 25.96804 24.74586
#
# Velocity S-wave (km/s) = 3.36005 3.53031 3.44623
# Velocity P-wave (km/s) = 6.39498 6.92026 6.66279
#
# Compressibility (1/GPa) = 0.01857176
#
# Stress axis : x y z
#
# Youngs Moduli (GPa) = 83.52046 94.90990 44.92966
#
# Poissons Ratio (x) = 0.33361 0.13879
# Poissons Ratio (y) = 0.29358 0.29174
# Poissons Ratio (z) = 0.25801 0.61627
#
# Static dielectric constant tensor:
#      x y z
#    x 4.074680 0.000000 0.000000 
#    y 0.000000 3.650550 0.000000 
#    z 0.000000 0.000000 3.445540 
# 
# 
# High freq. dielectric constant tensor:
#      x y z
#    x 1.838610 0.000000 0.000000 
#    y 0.000000 1.811200 0.000000 
#    z 0.000000 0.000000 1.771860 
# 
# From -- ./inp_files/21645.got.cif
#   From: 2010.03.12/outbox.cif.g09.slc.cpg/sg60_11_cif.got.tgz:21645.got - 2010.04.10 18:46:24.
