data_PCOD8246390
_publ_section_title
;
Structure prediction by ZEFSAII (Michael W. Deem and Ramdas Pophale) SiO2 
 PCOD8246390
Probable space group: P B C N
;
_chemical_formula_sum "Si O2"
_cell_formula_units_Z 48
_cell_length_a 9.416924
_cell_length_b 25.421340
_cell_length_c 10.802564
_cell_angle_alpha 90.000000
_cell_angle_beta 90.000000
_cell_angle_gamma 90.000000
_cell_volume 2586.034727
_symmetry_space_group_name_H-M "P B C N"
_symmetry_group_IT_number 60
_symmetry_cell_setting 'orthorhombic'
loop_
_space_group_symop_operation_xyz
x,y,z
1/2-x,1/2-y,1/2+z
1/2+x,1/2-y,-z
-x,y,1/2-z
-x,-y,-z
1/2+x,1/2+y,1/2-z
1/2-x,1/2+y,z
x,-y,1/2+z
loop_
_atom_site_type_symbol
_atom_site_label
_atom_site_fract_x
_atom_site_fract_y
_atom_site_fract_z
Si Si1 0.000000 0.644101 0.750000
Si Si2 0.231054 0.378521 0.803610
Si Si3 0.129221 0.573136 0.538303
Si Si4 0.374490 0.769621 0.409760
Si Si5 0.601408 0.967403 0.855815
Si Si6 0.000000 0.816476 0.750000
Si Si7 0.571087 0.776700 0.634024
O O1 0.907518 0.611059 0.847412
O O2 0.884215 0.681113 0.682652
O O3 0.199849 0.424784 0.708156
O O4 0.367486 0.354508 0.738195
O O5 0.111562 0.334055 0.813821
O O6 0.246391 0.401630 0.944711
O O7 0.188769 0.517089 0.589084
O O8 0.984465 0.562139 0.463546
O O9 0.472433 0.720561 0.368057
O O10 0.442936 0.785899 0.539033
O O11 0.208819 0.753184 0.421357
O O12 0.500000 0.991732 0.750000
O O13 0.500000 0.745407 0.750000
#
# Coordination Sequence:
#
# PCOD8246390 Si02
#       7
#     4   8   8   8   8   4   8
#     4  11  20  34  52  84 114 148 182 245 288 336
#     4  10  20  37  57  80 111 153 190 233 294 346
#     4  10  18  31  54  83 111 137 185 237 290 338
#     4  10  24  37  57  85 116 152 197 236 288 339
#     4   9  18  31  52  84 109 137 182 240 289 341
#     4   9  22  38  56  78 114 152 194 235 284 348
#     4  11  23  38  60  85 118 153 194 239 286 351
#
# _framework density 18.561236999999998
#
# number of rings (size 3 to 8) (size 9 to 14) (size 15 to 20)
#    0.000    2.000    2.500    1.500    7.000    0.000 
#    0.000    0.833    0.000    0.000    2.167    0.000 
#    0.000    0.000    0.000    0.000    0.000    0.000 
#
# Total GULP energy -594701.833694 kJ/mol
# GULP energy per Si atom -12389.621535 kJ/mol
# Density = 1.851899 g / cm^3
# Si number density = 18.561237 Si / 1000 Ang^3
#
#
#
# Elastic Constant Matrix: (Units=GPa)
#
#
# Indices 1 2 3 4 5 6 
#
# 1 86.7885 40.3241 47.4491 0.0000 0.0000 0.0000
# 2 40.3241 100.0168 40.9203 0.0000 0.0000 0.0000
# 3 47.4491 40.9203 105.4956 0.0000 0.0000 0.0000
# 4 0.0000 0.0000 0.0000 -511.6712 0.0000 0.0000
# 5 0.0000 0.0000 0.0000 0.0000 26.6703 0.0000
# 6 0.0000 0.0000 0.0000 0.0000 0.0000 13.9416
#
#
#
# Elastic Compliance Matrix: (Units=1/GPa)
#
#
# Indices 1 2 3 4 5 6 
#
# 1 0.016740 -0.004361 -0.005838 0.000000 0.000000 0.000000
# 2 -0.004361 0.013020 -0.003089 0.000000 0.000000 0.000000
# 3 -0.005838 -0.003089 0.013303 0.000000 0.000000 0.000000
# 4 0.000000 0.000000 0.000000 -0.001954 0.000000 0.000000
# 5 0.000000 0.000000 0.000000 0.000000 0.037495 0.000000
# 6 0.000000 0.000000 0.000000 0.000000 0.000000 0.071728
#
#
# Mechanical properties :
#
#
# Convention : Reuss Voigt Hill
#
# Bulk Modulus (GPa) = 60.64946 61.07642 60.86294
# Shear Modulus (GPa) = 27.41191 -83.30470 -27.94639
#
# Velocity S-wave (km/s) = 3.84713 -6.70660 -3.88446
# Velocity P-wave (km/s) = 7.24432 5.19562 3.56971
#
# Compressibility (1/GPa) = 0.01648819
#
# Stress axis : x y z
#
# Youngs Moduli (GPa) = 59.73729 76.80331 75.17137
#
# Poissons Ratio (x) = 0.33492 0.43883
# Poissons Ratio (y) = 0.26050 0.23221
# Poissons Ratio (z) = 0.34873 0.23725
#
# Static dielectric constant tensor:
#      x y z
#    x 2.775080 0.000000 0.000000 
#    y 0.000000 3.632810 0.000000 
#    z 0.000000 0.000000 3.695160 
# 
# 
# High freq. dielectric constant tensor:
#      x y z
#    x 1.674350 0.000000 0.000000 
#    y 0.000000 1.731570 0.000000 
#    z 0.000000 0.000000 1.735320 
# 
# From -- ./inp_files/10221.got.cif
#   From: 2010.03.12/outbox.cif.g09.slc.cpg/sg60_6_cif.got.tgz:10221.got - 2010.04.10 18:46:24.
