data_PCOD8246869
_publ_section_title
;
Structure prediction by ZEFSAII (Michael W. Deem and Ramdas Pophale) SiO2 
 PCOD8246869
Probable space group: P B C N
;
_chemical_formula_sum "Si O2"
_cell_formula_units_Z 64
_cell_length_a 9.084878
_cell_length_b 20.430341
_cell_length_c 17.740926
_cell_angle_alpha 90.000000
_cell_angle_beta 90.000000
_cell_angle_gamma 90.000000
_cell_volume 3292.842811
_symmetry_space_group_name_H-M "P B C N"
_symmetry_group_IT_number 60
_symmetry_cell_setting 'orthorhombic'
loop_
_space_group_symop_operation_xyz
x,y,z
1/2-x,1/2-y,1/2+z
1/2+x,1/2-y,-z
-x,y,1/2-z
-x,-y,-z
1/2+x,1/2+y,1/2-z
1/2-x,1/2+y,z
x,-y,1/2+z
loop_
_atom_site_type_symbol
_atom_site_label
_atom_site_fract_x
_atom_site_fract_y
_atom_site_fract_z
Si Si1 0.328843 0.387458 0.078525
Si Si2 0.670364 0.761940 0.077858
Si Si3 0.170364 0.261940 0.077858
Si Si4 0.669201 0.998411 0.837196
Si Si5 0.333071 0.381302 0.901167
Si Si6 0.166929 0.118698 0.098833
Si Si7 0.828843 0.887458 0.078525
Si Si8 0.169201 0.501589 0.337196
O O1 0.246634 0.324900 0.116875
O O2 0.267696 0.453678 0.113395
O O3 0.500000 0.381207 0.097057
O O4 0.297916 0.389296 0.989579
O O5 0.500000 0.777978 0.063321
O O6 0.687124 0.694532 0.125187
O O7 0.746634 0.824900 0.116875
O O8 0.750000 0.750000 0.000000
O O9 0.187124 0.194532 0.125187
O O10 0.721848 0.924493 0.852504
O O11 0.500000 0.005126 0.861563
O O12 0.690565 0.015505 0.750000
O O13 0.500000 0.404192 0.885233
O O14 0.221848 0.424493 0.852504
O O15 0.202084 0.110704 0.010420
O O16 0.767696 0.953678 0.113395
#
# Coordination Sequence:
#
# PCOD8246869 Si02
#       8
#     8   8   8   8   8   8   8   8
#     4  10  20  35  57  83 108 137 176 219 265 319
#     4   9  17  31  53  82 112 138 170 216 265 314
#     4   9  17  31  53  82 112 138 170 216 265 314
#     4  11  24  38  52  75 107 142 181 222 263 312
#     4   9  19  35  56  82 108 136 173 215 261 315
#     4   9  19  35  56  82 108 136 173 215 261 315
#     4  10  20  35  57  83 108 137 176 219 265 319
#     4  11  24  38  52  75 107 142 181 222 263 312
#
# _framework density 19.436091999999999
#
# number of rings (size 3 to 8) (size 9 to 14) (size 15 to 20)
#    0.000    2.250    0.000    4.500    0.000   11.000 
#    0.000    1.250    0.000    1.500    0.000    0.000 
#    0.000    0.000    0.000    0.000    0.000    0.000 
#
# Total GULP energy -793474.124181 kJ/mol
# GULP energy per Si atom -12398.033190 kJ/mol
# Density = 1.939185 g / cm^3
# Si number density = 19.436092 Si / 1000 Ang^3
#
#
#
# Elastic Constant Matrix: (Units=GPa)
#
#
# Indices 1 2 3 4 5 6 
#
# 1 127.8899 53.1170 24.4667 0.0000 0.0000 0.0000
# 2 53.1170 106.7654 9.9732 0.0000 0.0000 0.0000
# 3 24.4667 9.9732 24.2975 0.0000 0.0000 0.0000
# 4 0.0000 0.0000 0.0000 4.4324 0.0000 0.0000
# 5 0.0000 0.0000 0.0000 0.0000 23.3059 0.0000
# 6 0.0000 0.0000 0.0000 0.0000 0.0000 44.5589
#
#
#
# Elastic Compliance Matrix: (Units=1/GPa)
#
#
# Indices 1 2 3 4 5 6 
#
# 1 0.011740 -0.004925 -0.009800 0.000000 0.000000 0.000000
# 2 -0.004925 0.011806 0.000114 0.000000 0.000000 0.000000
# 3 -0.009800 0.000114 0.050978 0.000000 0.000000 0.000000
# 4 0.000000 0.000000 0.000000 0.225610 0.000000 0.000000
# 5 0.000000 0.000000 0.000000 0.000000 0.042908 0.000000
# 6 0.000000 0.000000 0.000000 0.000000 0.000000 0.022442
#
#
# Mechanical properties :
#
#
# Convention : Reuss Voigt Hill
#
# Bulk Modulus (GPa) = 22.07469 48.22962 35.15216
# Shear Modulus (GPa) = 12.20088 25.88584 19.04336
#
# Velocity S-wave (km/s) = 2.50820 3.65340 3.13356
# Velocity P-wave (km/s) = 4.44638 6.53183 5.58727
#
# Compressibility (1/GPa) = 0.04530075
#
# Stress axis : x y z
#
# Youngs Moduli (GPa) = 85.18168 84.70227 19.61635
#
# Poissons Ratio (x) = 0.41717 0.19224
# Poissons Ratio (y) = 0.41953 -0.00223
# Poissons Ratio (z) = 0.83476 -0.00962
#
# Static dielectric constant tensor:
#      x y z
#    x 3.765570 0.000000 0.000000 
#    y 0.000000 3.840800 0.000000 
#    z 0.000000 0.000000 3.080620 
# 
# 
# High freq. dielectric constant tensor:
#      x y z
#    x 1.771140 0.000000 0.000000 
#    y 0.000000 1.778570 0.000000 
#    z 0.000000 0.000000 1.706900 
# 
# From -- ./inp_files/19687.got.cif
#   From: 2010.03.12/outbox.cif.g09.slc.cpg/sg60_10_cif.got.tgz:19687.got - 2010.04.10 18:46:24.
