data_PCOD8246299
_publ_section_title
;
Structure prediction by ZEFSAII (Michael W. Deem and Ramdas Pophale) SiO2 
 PCOD8246299
Probable space group: P B C N
;
_chemical_formula_sum "Si O2"
_cell_formula_units_Z 64
_cell_length_a 16.979781
_cell_length_b 13.384461
_cell_length_c 14.510195
_cell_angle_alpha 90.000000
_cell_angle_beta 90.000000
_cell_angle_gamma 90.000000
_cell_volume 3297.662609
_symmetry_space_group_name_H-M "P B C N"
_symmetry_group_IT_number 60
_symmetry_cell_setting 'orthorhombic'
loop_
_space_group_symop_operation_xyz
x,y,z
1/2-x,1/2-y,1/2+z
1/2+x,1/2-y,-z
-x,y,1/2-z
-x,-y,-z
1/2+x,1/2+y,1/2-z
1/2-x,1/2+y,z
x,-y,1/2+z
loop_
_atom_site_type_symbol
_atom_site_label
_atom_site_fract_x
_atom_site_fract_y
_atom_site_fract_z
Si Si1 0.008569 0.612155 0.966625
Si Si2 0.954262 0.888531 0.904733
Si Si3 0.385413 0.593635 0.627193
Si Si4 0.964902 0.798118 0.088495
Si Si5 0.335635 0.182108 0.867763
Si Si6 0.425659 0.202510 0.693062
Si Si7 0.134683 0.895430 0.916747
Si Si8 0.327068 0.601906 0.821744
O O1 0.099314 0.639396 0.940076
O O2 0.952594 0.615913 0.876992
O O3 0.000000 0.500000 0.000000
O O4 0.972930 0.688575 0.042649
O O5 0.898983 0.801629 0.862251
O O6 0.045983 0.861783 0.893771
O O7 0.932847 0.991267 0.857138
O O8 0.942962 0.886966 0.015354
O O9 0.450655 0.680871 0.635557
O O10 0.346221 0.589961 0.525754
O O11 0.321181 0.603012 0.709256
O O12 0.892783 0.811687 0.159098
O O13 0.359638 0.161879 0.761534
O O14 0.316175 0.298828 0.884292
O O15 0.253023 0.125851 0.875982
O O16 0.500000 0.240966 0.750000
O O17 0.152937 0.991351 0.855911
#
# Coordination Sequence:
#
# PCOD8246299 Si02
#       8
#     8   8   8   8   8   8   8   8
#     4  10  21  41  67  86 114 173 222 255 299 372
#     4  10  16  33  67  93 107 148 215 251 298 359
#     4  11  20  36  63  98 123 157 203 256 320 375
#     4  10  19  38  60  92 120 156 208 255 312 369
#     4  11  23  42  57  89 130 162 207 259 308 374
#     4   9  17  35  62  85 110 159 211 246 283 371
#     4  11  20  41  64  88 125 163 204 254 309 378
#     4  12  25  36  59  99 134 159 196 266 324 365
#
# _framework density 19.407686999999999
#
# number of rings (size 3 to 8) (size 9 to 14) (size 15 to 20)
#    0.000    1.500    7.500    1.875    0.000    1.000 
#    6.750    5.000    0.000    0.000    0.000    0.000 
#    0.000    0.000    0.000    0.000    0.000    0.000 
#
# Total GULP energy -792998.350263 kJ/mol
# GULP energy per Si atom -12390.599223 kJ/mol
# Density = 1.936351 g / cm^3
# Si number density = 19.407687 Si / 1000 Ang^3
#
#
#
# Elastic Constant Matrix: (Units=GPa)
#
#
# Indices 1 2 3 4 5 6 
#
# 1 42.3064 24.6931 28.4228 0.0000 0.0000 0.0000
# 2 24.6931 107.9744 46.3261 0.0000 0.0000 0.0000
# 3 28.4228 46.3261 102.2277 0.0000 0.0000 0.0000
# 4 0.0000 0.0000 0.0000 19.5577 0.0000 0.0000
# 5 0.0000 0.0000 0.0000 0.0000 23.7161 0.0000
# 6 0.0000 0.0000 0.0000 0.0000 0.0000 17.6810
#
#
#
# Elastic Compliance Matrix: (Units=1/GPa)
#
#
# Indices 1 2 3 4 5 6 
#
# 1 0.030488 -0.004141 -0.006600 0.000000 0.000000 0.000000
# 2 -0.004141 0.012059 -0.004314 0.000000 0.000000 0.000000
# 3 -0.006600 -0.004314 0.013572 0.000000 0.000000 0.000000
# 4 0.000000 0.000000 0.000000 0.051131 0.000000 0.000000
# 5 0.000000 0.000000 0.000000 0.000000 0.042165 0.000000
# 6 0.000000 0.000000 0.000000 0.000000 0.000000 0.056558
#
#
# Mechanical properties :
#
#
# Convention : Reuss Voigt Hill
#
# Bulk Modulus (GPa) = 38.44642 50.15472 44.30057
# Shear Modulus (GPa) = 20.42878 22.39537 21.41207
#
# Velocity S-wave (km/s) = 3.24792 3.40066 3.32517
# Velocity P-wave (km/s) = 5.82393 6.42792 6.13336
#
# Compressibility (1/GPa) = 0.02601023
#
# Stress axis : x y z
#
# Youngs Moduli (GPa) = 32.79956 82.92489 73.68129
#
# Poissons Ratio (x) = 0.34336 0.48633
# Poissons Ratio (y) = 0.13581 0.31783
# Poissons Ratio (z) = 0.21649 0.35770
#
# Static dielectric constant tensor:
#      x y z
#    x 3.252090 0.000000 0.000000 
#    y 0.000000 3.335480 0.000000 
#    z 0.000000 0.000000 3.862720 
# 
# 
# High freq. dielectric constant tensor:
#      x y z
#    x 1.715260 0.000000 0.000000 
#    y 0.000000 1.746510 0.000000 
#    z 0.000000 0.000000 1.766260 
# 
# From -- ./inp_files/17551.got.cif
#   From: 2010.03.12/outbox.cif.g09.slc.cpg/sg60_9_cif.got.tgz:17551.got - 2010.04.10 18:46:24.
