data_PCOD8246807
_publ_section_title
;
Structure prediction by ZEFSAII (Michael W. Deem and Ramdas Pophale) SiO2 
 PCOD8246807
Probable space group: P B C N
;
_chemical_formula_sum "Si O2"
_cell_formula_units_Z 64
_cell_length_a 9.094895
_cell_length_b 22.413940
_cell_length_c 16.147613
_cell_angle_alpha 90.000000
_cell_angle_beta 90.000000
_cell_angle_gamma 90.000000
_cell_volume 3291.730162
_symmetry_space_group_name_H-M "P B C N"
_symmetry_group_IT_number 60
_symmetry_cell_setting 'orthorhombic'
loop_
_space_group_symop_operation_xyz
x,y,z
1/2-x,1/2-y,1/2+z
1/2+x,1/2-y,-z
-x,y,1/2-z
-x,-y,-z
1/2+x,1/2+y,1/2-z
1/2-x,1/2+y,z
x,-y,1/2+z
loop_
_atom_site_type_symbol
_atom_site_label
_atom_site_fract_x
_atom_site_fract_y
_atom_site_fract_z
Si Si1 0.674049 0.838933 0.486913
Si Si2 0.649030 0.737317 0.877247
Si Si3 0.833663 0.053663 0.065745
Si Si4 0.172599 0.936231 0.751108
Si Si5 0.849996 0.654032 0.503558
Si Si6 0.326831 0.735398 0.895304
Si Si7 0.673258 0.302301 0.741004
Si Si8 0.179814 0.044336 0.069525
O O1 0.779671 0.825190 0.408923
O O2 0.758656 0.883022 0.549062
O O3 0.512771 0.865610 0.464776
O O4 0.639464 0.773551 0.522982
O O5 0.481379 0.722794 0.848636
O O6 0.747825 0.757021 0.801770
O O7 0.642659 0.789552 0.943946
O O8 0.783763 0.033369 0.159825
O O9 0.008997 0.061685 0.061980
O O10 0.779990 0.008653 0.993956
O O11 0.237424 0.869039 0.747240
O O12 0.220142 0.971720 0.666630
O O13 0.000000 0.929707 0.750000
O O14 0.749030 0.672094 0.582209
O O15 0.777598 0.600105 0.454581
O O16 0.211925 0.777320 0.848384
O O17 0.500000 0.300085 0.750000
#
# Coordination Sequence:
#
# PCOD8246807 Si02
#       8
#     8   8   8   8   8   8   8   8
#     4  10  20  34  53  78 109 143 182 228 281 336
#     4  10  20  33  52  79 111 143 180 224 278 340
#     4  10  20  36  58  81 109 149 193 237 288 344
#     4   9  18  33  54  81 108 139 186 236 281 337
#     4  10  20  34  53  78 109 143 182 228 281 336
#     4  10  20  33  52  79 111 143 180 224 278 340
#     4  11  19  31  54  81 112 143 182 234 285 337
#     4  10  20  36  58  81 109 149 193 237 288 344
#
# _framework density 19.442661999999999
#
# number of rings (size 3 to 8) (size 9 to 14) (size 15 to 20)
#    0.000    2.000    2.500    1.875    0.000    2.500 
#    0.000    1.875    0.000    3.000    0.000    0.000 
#    0.000    0.000    0.000    0.000    0.000    0.000 
#
# Total GULP energy -792881.255539 kJ/mol
# GULP energy per Si atom -12388.769618 kJ/mol
# Density = 1.939841 g / cm^3
# Si number density = 19.442662 Si / 1000 Ang^3
#
#
#
# Elastic Constant Matrix: (Units=GPa)
#
#
# Indices 1 2 3 4 5 6 
#
# 1 95.0820 24.5659 26.9411 0.0000 0.0000 0.0000
# 2 24.5659 52.6215 46.4619 0.0000 0.0000 0.0000
# 3 26.9411 46.4619 109.1168 0.0000 0.0000 0.0000
# 4 0.0000 0.0000 0.0000 34.5112 0.0000 0.0000
# 5 0.0000 0.0000 0.0000 0.0000 25.7740 0.0000
# 6 0.0000 0.0000 0.0000 0.0000 0.0000 20.0015
#
#
#
# Elastic Compliance Matrix: (Units=1/GPa)
#
#
# Indices 1 2 3 4 5 6 
#
# 1 0.012018 -0.004792 -0.000927 0.000000 0.000000 0.000000
# 2 -0.004792 0.032363 -0.012597 0.000000 0.000000 0.000000
# 3 -0.000927 -0.012597 0.014757 0.000000 0.000000 0.000000
# 4 0.000000 0.000000 0.000000 0.028976 0.000000 0.000000
# 5 0.000000 0.000000 0.000000 0.000000 0.038799 0.000000
# 6 0.000000 0.000000 0.000000 0.000000 0.000000 0.049996
#
#
# Mechanical properties :
#
#
# Convention : Reuss Voigt Hill
#
# Bulk Modulus (GPa) = 44.43183 50.30642 47.36913
# Shear Modulus (GPa) = 22.61993 26.64743 24.63368
#
# Velocity S-wave (km/s) = 3.41459 3.70613 3.56334
# Velocity P-wave (km/s) = 6.20067 6.65164 6.43011
#
# Compressibility (1/GPa) = 0.02250639
#
# Stress axis : x y z
#
# Youngs Moduli (GPa) = 83.20869 30.89907 67.76377
#
# Poissons Ratio (x) = 0.14808 0.06280
# Poissons Ratio (y) = 0.39876 0.85363
# Poissons Ratio (z) = 0.07711 0.38924
#
# Static dielectric constant tensor:
#      x y z
#    x 3.781380 0.000000 0.000000 
#    y 0.000000 3.278600 0.000000 
#    z 0.000000 0.000000 3.851980 
# 
# 
# High freq. dielectric constant tensor:
#      x y z
#    x 1.757830 0.000000 0.000000 
#    y 0.000000 1.720380 0.000000 
#    z 0.000000 0.000000 1.753840 
# 
# From -- ./inp_files/15437.got.cif
#   From: 2010.03.12/outbox.cif.g09.slc.cpg/sg60_8_cif.got.tgz:15437.got - 2010.04.10 18:46:24.
