data_PCOD8246384
_publ_section_title
;
Structure prediction by ZEFSAII (Michael W. Deem and Ramdas Pophale) SiO2 
 PCOD8246384
Probable space group: P B C N
;
_chemical_formula_sum "Si O2"
_cell_formula_units_Z 56
_cell_length_a 16.993123
_cell_length_b 19.218174
_cell_length_c 8.661189
_cell_angle_alpha 90.000000
_cell_angle_beta 90.000000
_cell_angle_gamma 90.000000
_cell_volume 2828.543341
_symmetry_space_group_name_H-M "P B C N"
_symmetry_group_IT_number 60
_symmetry_cell_setting 'orthorhombic'
loop_
_space_group_symop_operation_xyz
x,y,z
1/2-x,1/2-y,1/2+z
1/2+x,1/2-y,-z
-x,y,1/2-z
-x,-y,-z
1/2+x,1/2+y,1/2-z
1/2-x,1/2+y,z
x,-y,1/2+z
loop_
_atom_site_type_symbol
_atom_site_label
_atom_site_fract_x
_atom_site_fract_y
_atom_site_fract_z
Si Si1 0.702717 0.368199 0.115889
Si Si2 0.408214 0.471939 0.245523
Si Si3 0.239323 0.333137 0.072326
Si Si4 0.622399 0.599816 0.071236
Si Si5 0.963594 0.241580 0.083309
Si Si6 0.672999 0.806845 0.923815
Si Si7 0.389763 0.223561 0.391092
O O1 0.638621 0.430129 0.118350
O O2 0.753748 0.377882 0.272452
O O3 0.654725 0.296745 0.116952
O O4 0.767399 0.369685 0.975759
O O5 0.500000 0.455408 0.250000
O O6 0.390970 0.553903 0.274967
O O7 0.382006 0.450555 0.076017
O O8 0.270728 0.257089 0.113696
O O9 0.290929 0.365912 0.931422
O O10 0.149492 0.327087 0.018310
O O11 0.556631 0.660047 0.064927
O O12 0.000000 0.256758 0.250000
O O13 0.021095 0.262393 0.942076
O O14 0.885404 0.288497 0.066069
O O15 0.619233 0.818424 0.771275
#
# Coordination Sequence:
#
# PCOD8246384 Si02
#       7
#     8   8   8   8   8   8   8
#     4   9  18  32  49  69 100 137 177 222 265 316
#     4  11  21  34  50  72 105 146 184 216 252 307
#     4   8  17  32  48  69  97 130 171 218 267 316
#     4  10  22  35  49  73 105 142 184 220 257 311
#     4  11  21  33  50  74 106 138 172 222 278 329
#     4   9  18  31  49  74  98 129 174 222 274 323
#     4  10  18  31  52  73  97 130 171 222 274 326
#
# _framework density 19.798175000000001
#
# number of rings (size 3 to 8) (size 9 to 14) (size 15 to 20)
#    0.000    2.286    0.000    3.857    0.000    5.714 
#    0.000    0.000    0.000    0.000    0.000    1.000 
#    0.000    0.000    0.000    0.429    0.000    0.000 
#
# Total GULP energy -693749.833017 kJ/mol
# GULP energy per Si atom -12388.389875 kJ/mol
# Density = 1.975311 g / cm^3
# Si number density = 19.798175 Si / 1000 Ang^3
#
#
#
# Elastic Constant Matrix: (Units=GPa)
#
#
# Indices 1 2 3 4 5 6 
#
# 1 77.1768 34.2322 10.0216 0.0000 0.0000 0.0000
# 2 34.2322 44.9219 4.7111 0.0000 0.0000 0.0000
# 3 10.0216 4.7111 49.9377 0.0000 0.0000 0.0000
# 4 0.0000 0.0000 0.0000 18.4400 0.0000 0.0000
# 5 0.0000 0.0000 0.0000 0.0000 30.9721 0.0000
# 6 0.0000 0.0000 0.0000 0.0000 0.0000 22.3823
#
#
#
# Elastic Compliance Matrix: (Units=1/GPa)
#
#
# Indices 1 2 3 4 5 6 
#
# 1 0.019899 -0.014892 -0.002588 0.000000 0.000000 0.000000
# 2 -0.014892 0.033629 -0.000184 0.000000 0.000000 0.000000
# 3 -0.002588 -0.000184 0.020562 0.000000 0.000000 0.000000
# 4 0.000000 0.000000 0.000000 0.054230 0.000000 0.000000
# 5 0.000000 0.000000 0.000000 0.000000 0.032287 0.000000
# 6 0.000000 0.000000 0.000000 0.000000 0.000000 0.044678
#
#
# Mechanical properties :
#
#
# Convention : Reuss Voigt Hill
#
# Bulk Modulus (GPa) = 25.79974 29.99625 27.89799
# Shear Modulus (GPa) = 19.72122 22.56362 21.14242
#
# Velocity S-wave (km/s) = 3.15955 3.37958 3.27142
# Velocity P-wave (km/s) = 5.13517 5.51477 5.32835
#
# Compressibility (1/GPa) = 0.03876008
#
# Stress axis : x y z
#
# Youngs Moduli (GPa) = 50.25393 29.73655 48.63397
#
# Poissons Ratio (x) = 0.44285 0.12589
# Poissons Ratio (y) = 0.74840 0.00894
# Poissons Ratio (z) = 0.13008 0.00547
#
# Static dielectric constant tensor:
#      x y z
#    x 3.731870 0.000000 0.000000 
#    y 0.000000 3.309210 0.000000 
#    z 0.000000 0.000000 3.779200 
# 
# 
# High freq. dielectric constant tensor:
#      x y z
#    x 1.769280 0.000000 0.000000 
#    y 0.000000 1.715530 0.000000 
#    z 0.000000 0.000000 1.779360 
# 
# From -- ./inp_files/6184.got.cif
#   From: 2010.03.12/outbox.cif.g09.slc.cpg/sg60_4_cif.got.tgz:6184.got - 2010.04.10 18:46:24.
