data_PCOD8246890
_publ_section_title
;
Structure prediction by ZEFSAII (Michael W. Deem and Ramdas Pophale) SiO2 
 PCOD8246890
Probable space group: P B C N
;
_chemical_formula_sum "Si O2"
_cell_formula_units_Z 64
_cell_length_a 29.672084
_cell_length_b 10.717647
_cell_length_c 10.110200
_cell_angle_alpha 90.000000
_cell_angle_beta 90.000000
_cell_angle_gamma 90.000000
_cell_volume 3215.194465
_symmetry_space_group_name_H-M "P B C N"
_symmetry_group_IT_number 60
_symmetry_cell_setting 'orthorhombic'
loop_
_space_group_symop_operation_xyz
x,y,z
1/2-x,1/2-y,1/2+z
1/2+x,1/2-y,-z
-x,y,1/2-z
-x,-y,-z
1/2+x,1/2+y,1/2-z
1/2-x,1/2+y,z
x,-y,1/2+z
loop_
_atom_site_type_symbol
_atom_site_label
_atom_site_fract_x
_atom_site_fract_y
_atom_site_fract_z
Si Si1 0.532563 0.127570 0.635965
Si Si2 0.686143 0.987106 0.599315
Si Si3 0.369919 0.226864 0.853283
Si Si4 0.332429 0.611056 0.122614
Si Si5 0.229082 0.616513 0.142591
Si Si6 0.343288 0.680088 0.626740
Si Si7 0.522075 0.835855 0.615461
Si Si8 0.121357 0.260409 0.900142
O O1 0.500000 0.176037 0.750000
O O2 0.580904 0.176796 0.676534
O O3 0.515343 0.182763 0.497320
O O4 0.535254 0.979151 0.632921
O O5 0.720445 0.934224 0.709215
O O6 0.646066 0.890670 0.564896
O O7 0.665246 0.114027 0.655275
O O8 0.713228 0.013654 0.464366
O O9 0.358051 0.328355 0.744571
O O10 0.371125 0.292783 0.994959
O O11 0.280680 0.652714 0.121001
O O12 0.333336 0.464136 0.141391
O O13 0.356547 0.650958 0.986943
O O14 0.203910 0.747279 0.122164
O O15 0.373227 0.730413 0.746384
O O16 0.500000 0.782134 0.750000
O O17 0.567902 0.765687 0.573355
#
# Coordination Sequence:
#
# PCOD8246890 Si02
#       8
#     8   8   8   8   8   8   8   8
#     4  10  20  35  62  98 126 152 198 255 318 376
#     4  10  22  40  64  92 126 158 205 257 317 371
#     4  11  22  41  63  91 128 164 198 262 314 366
#     4  12  26  39  63  87 122 173 215 252 303 371
#     4  10  25  39  63  89 123 164 212 267 303 356
#     4  10  25  41  59  89 123 170 211 252 304 372
#     4  10  20  36  64  97 127 154 195 260 321 381
#     4  11  22  41  64  93 127 165 199 259 319 368
#
# _framework density 19.905481999999999
#
# number of rings (size 3 to 8) (size 9 to 14) (size 15 to 20)
#    0.000    1.500    1.250    3.000    7.000    2.000 
#    0.000    0.000    0.000   15.000    0.000    0.000 
#    0.000    0.000    0.000    0.000    0.000    0.000 
#
# Total GULP energy -793921.711902 kJ/mol
# GULP energy per Si atom -12405.026748 kJ/mol
# Density = 1.986018 g / cm^3
# Si number density = 19.905482 Si / 1000 Ang^3
#
#
#
# Elastic Constant Matrix: (Units=GPa)
#
#
# Indices 1 2 3 4 5 6 
#
# 1 110.2605 14.2472 25.7010 0.0000 0.0000 0.0000
# 2 14.2472 66.1152 15.2620 0.0000 0.0000 0.0000
# 3 25.7010 15.2620 100.4588 0.0000 0.0000 0.0000
# 4 0.0000 0.0000 0.0000 25.3781 0.0000 0.0000
# 5 0.0000 0.0000 0.0000 0.0000 23.9838 0.0000
# 6 0.0000 0.0000 0.0000 0.0000 0.0000 20.9021
#
#
#
# Elastic Compliance Matrix: (Units=1/GPa)
#
#
# Indices 1 2 3 4 5 6 
#
# 1 0.009803 -0.001589 -0.002267 0.000000 0.000000 0.000000
# 2 -0.001589 0.015932 -0.002014 0.000000 0.000000 0.000000
# 3 -0.002267 -0.002014 0.010840 0.000000 0.000000 0.000000
# 4 0.000000 0.000000 0.000000 0.039404 0.000000 0.000000
# 5 0.000000 0.000000 0.000000 0.000000 0.041695 0.000000
# 6 0.000000 0.000000 0.000000 0.000000 0.000000 0.047842
#
#
# Mechanical properties :
#
#
# Convention : Reuss Voigt Hill
#
# Bulk Modulus (GPa) = 40.26368 43.02832 41.64600
# Shear Modulus (GPa) = 26.94910 28.82775 27.88843
#
# Velocity S-wave (km/s) = 3.68347 3.80969 3.74711
# Velocity P-wave (km/s) = 6.19370 6.40429 6.29987
#
# Compressibility (1/GPa) = 0.02483628
#
# Stress axis : x y z
#
# Youngs Moduli (GPa) = 102.00854 62.76491 92.24965
#
# Poissons Ratio (x) = 0.09975 0.20909
# Poissons Ratio (y) = 0.16212 0.18578
# Poissons Ratio (z) = 0.23121 0.12640
#
# Static dielectric constant tensor:
#      x y z
#    x 3.568280 0.000000 0.000000 
#    y 0.000000 3.472900 0.000000 
#    z 0.000000 0.000000 3.786420 
# 
# 
# High freq. dielectric constant tensor:
#      x y z
#    x 1.778000 0.000000 0.000000 
#    y 0.000000 1.761710 0.000000 
#    z 0.000000 0.000000 1.794190 
# 
# From -- ./inp_files/8496.got.cif
#   From: 2010.03.12/outbox.cif.g09.slc.cpg/sg60_5_cif.got.tgz:8496.got - 2010.04.10 18:46:24.
