data_PCOD8246043
_publ_section_title
;
Structure prediction by ZEFSAII (Michael W. Deem and Ramdas Pophale) SiO2 
 PCOD8246043
Probable space group: P M M N
;
_chemical_formula_sum "Si O2"
_cell_formula_units_Z 56
_cell_length_a 8.920578
_cell_length_b 22.909682
_cell_length_c 15.358304
_cell_angle_alpha 90.000000
_cell_angle_beta 90.000000
_cell_angle_gamma 90.000000
_cell_volume 3138.739809
_symmetry_space_group_name_H-M "P M M N"
_symmetry_group_IT_number 59
_space_group.IT_coordinate_system_code '2'
_symmetry_cell_setting 'orthorhombic'
loop_
_space_group_symop_operation_xyz
x,y,z
1/2-x,1/2-y,z
1/2+x,-y,-z
-x,1/2+y,-z
-x,-y,-z
1/2+x,1/2+y,-z
1/2-x,y,z
x,1/2-y,z
loop_
_atom_site_type_symbol
_atom_site_label
_atom_site_fract_x
_atom_site_fract_y
_atom_site_fract_z
Si Si1 0.928035 0.390008 0.653397
Si Si2 0.584118 0.819348 0.013099
Si Si3 0.573236 0.315782 0.816319
Si Si4 0.073536 0.182421 0.179566
Si Si5 0.423159 0.182634 0.503605
Si Si6 0.575127 0.497772 0.406333
Si Si7 0.924254 0.368805 0.342277
O O1 0.750000 0.396199 0.652344
O O2 0.987808 0.355498 0.737936
O O3 0.976671 0.356117 0.567023
O O4 0.001972 0.453642 0.655881
O O5 0.750000 0.844316 0.030402
O O6 0.588229 0.750000 0.012311
O O7 0.479123 0.842381 0.091099
O O8 0.527258 0.839161 0.917690
O O9 0.750000 0.315089 0.815597
O O10 0.510344 0.250000 0.803163
O O11 0.250000 0.172902 0.194637
O O12 0.031382 0.250000 0.193584
O O13 0.977350 0.143138 0.244490
O O14 0.250000 0.163859 0.511077
O O15 0.444599 0.250000 0.528386
O O16 0.479789 0.172312 0.405822
O O17 0.500000 0.500000 0.500000
O O18 0.750000 0.510441 0.417681
O O19 0.543369 0.436116 0.362025
O O20 0.750000 0.353409 0.353062
#
# Coordination Sequence:
#
# PCOD8246043 Si02
#       7
#     8   8   8   8   8   8   8
#     4  11  22  36  55  78 105 139 177 220 265 313
#     4   8  15  29  50  76 106 139 173 209 252 308
#     4   9  18  32  51  78 110 140 170 209 261 316
#     4   9  18  33  53  79 110 141 173 211 259 315
#     4  11  23  36  52  76 106 140 174 211 260 316
#     4  11  23  39  57  76 100 136 182 226 267 312
#     4  11  23  36  53  77 104 136 175 220 266 312
#
# _framework density 17.841556000000001
#
# number of rings (size 3 to 8) (size 9 to 14) (size 15 to 20)
#    0.000    2.000    1.429    3.429    0.000    7.143 
#    0.000    2.857    0.000    0.857    0.000    0.000 
#    0.000    0.000    0.000    0.000    0.000    0.000 
#
# Total GULP energy -694463.142137 kJ/mol
# GULP energy per Si atom -12401.127538 kJ/mol
# Density = 1.780095 g / cm^3
# Si number density = 17.841556 Si / 1000 Ang^3
#
#
#
# Elastic Constant Matrix: (Units=GPa)
#
#
# Indices 1 2 3 4 5 6 
#
# 1 67.0315 39.6569 35.3540 0.0000 0.0000 0.0000
# 2 39.6569 74.7509 40.5883 0.0000 0.0000 0.0000
# 3 35.3540 40.5883 123.8039 0.0000 0.0000 0.0000
# 4 0.0000 0.0000 0.0000 15.6238 0.0000 0.0000
# 5 0.0000 0.0000 0.0000 0.0000 34.2582 0.0000
# 6 0.0000 0.0000 0.0000 0.0000 0.0000 26.9917
#
#
#
# Elastic Compliance Matrix: (Units=1/GPa)
#
#
# Indices 1 2 3 4 5 6 
#
# 1 0.022668 -0.010354 -0.003079 0.000000 0.000000 0.000000
# 2 -0.010354 0.021004 -0.003929 0.000000 0.000000 0.000000
# 3 -0.003079 -0.003929 0.010245 0.000000 0.000000 0.000000
# 4 0.000000 0.000000 0.000000 0.064005 0.000000 0.000000
# 5 0.000000 0.000000 0.000000 0.000000 0.029190 0.000000
# 6 0.000000 0.000000 0.000000 0.000000 0.000000 0.037048
#
#
# Mechanical properties :
#
#
# Convention : Reuss Voigt Hill
#
# Bulk Modulus (GPa) = 52.10326 55.19829 53.65077
# Shear Modulus (GPa) = 22.19443 25.37389 23.78416
#
# Velocity S-wave (km/s) = 3.53083 3.77527 3.65509
# Velocity P-wave (km/s) = 6.77415 7.07169 6.92451
#
# Compressibility (1/GPa) = 0.01919266
#
# Stress axis : x y z
#
# Youngs Moduli (GPa) = 44.11560 47.60910 97.61193
#
# Poissons Ratio (x) = 0.49295 0.30051
# Poissons Ratio (y) = 0.45678 0.38356
# Poissons Ratio (z) = 0.13581 0.18707
#
# Static dielectric constant tensor:
#      x y z
#    x 3.362790 0.000000 0.000000 
#    y 0.000000 3.493010 0.000000 
#    z 0.000000 0.000000 3.517970 
# 
# 
# High freq. dielectric constant tensor:
#      x y z
#    x 1.695300 0.000000 0.000000 
#    y 0.000000 1.667460 0.000000 
#    z 0.000000 0.000000 1.696300 
# 
# From -- ./inp_files/20903.got.cif
#   From: 2010.03.12/outbox.cif.g09.slc.cpg/sg59_11_cif.got.tgz:20903.got - 2010.04.16 16:29:54.
