data_PCOD8246898
_publ_section_title
;
Structure prediction by ZEFSAII (Michael W. Deem and Ramdas Pophale) SiO2 
 PCOD8246898
Probable space group: P B C N
;
_chemical_formula_sum "Si O2"
_cell_formula_units_Z 64
_cell_length_a 22.600610
_cell_length_b 9.474675
_cell_length_c 15.675805
_cell_angle_alpha 90.000000
_cell_angle_beta 90.000000
_cell_angle_gamma 90.000000
_cell_volume 3356.713964
_symmetry_space_group_name_H-M "P B C N"
_symmetry_group_IT_number 60
_symmetry_cell_setting 'orthorhombic'
loop_
_space_group_symop_operation_xyz
x,y,z
1/2-x,1/2-y,1/2+z
1/2+x,1/2-y,-z
-x,y,1/2-z
-x,-y,-z
1/2+x,1/2+y,1/2-z
1/2-x,1/2+y,z
x,-y,1/2+z
loop_
_atom_site_type_symbol
_atom_site_label
_atom_site_fract_x
_atom_site_fract_y
_atom_site_fract_z
Si Si1 0.553322 0.410114 0.091807
Si Si2 0.712539 0.427090 0.260862
Si Si3 0.199444 0.080556 0.554813
Si Si4 0.835748 0.394318 0.173706
Si Si5 0.111641 0.886988 0.777296
Si Si6 0.148602 0.288809 0.836795
Si Si7 0.074025 0.989604 0.094194
Si Si8 0.247600 0.820524 0.460142
O O1 0.572413 0.550391 0.145227
O O2 0.587712 0.275867 0.128313
O O3 0.483215 0.391642 0.109610
O O4 0.562849 0.412627 0.989273
O O5 0.722625 0.478697 0.356265
O O6 0.776921 0.397520 0.228578
O O7 0.678416 0.551936 0.210193
O O8 0.669522 0.288681 0.250878
O O9 0.129328 0.107731 0.566497
O O10 0.235375 0.223993 0.539923
O O11 0.212760 0.962779 0.483895
O O12 0.883411 0.281828 0.209527
O O13 0.866092 0.547325 0.176718
O O14 0.812051 0.353733 0.080040
O O15 0.087265 0.921981 0.681670
O O16 0.203565 0.267857 0.900688
#
# Coordination Sequence:
#
# PCOD8246898 Si02
#       8
#     8   8   8   8   8   8   8   8
#     4  10  20  39  64  83 118 152 213 260 292 355
#     4   9  21  33  53  80 118 156 196 240 298 371
#     4  11  22  35  56  86 118 151 193 248 298 356
#     4  11  21  34  55  84 121 157 193 244 308 372
#     4  10  21  37  60  85 119 161 207 247 306 365
#     4  10  20  36  54  84 116 160 192 243 310 355
#     4  10  21  37  62  90 110 158 211 252 292 356
#     4  11  21  35  55  85 123 155 193 237 305 373
#
# _framework density 19.066265000000001
#
# number of rings (size 3 to 8) (size 9 to 14) (size 15 to 20)
#    0.000    1.750    2.500    2.625    7.000    0.000 
#    0.000    0.000    0.000   17.250    0.000    0.000 
#    0.000    0.000    0.000    0.000    0.000    0.000 
#
# Total GULP energy -792938.819176 kJ/mol
# GULP energy per Si atom -12389.669050 kJ/mol
# Density = 1.902287 g / cm^3
# Si number density = 19.066265 Si / 1000 Ang^3
#
#
#
# Elastic Constant Matrix: (Units=GPa)
#
#
# Indices 1 2 3 4 5 6 
#
# 1 94.6844 44.4699 26.8401 0.0000 0.0000 0.0000
# 2 44.4699 120.3513 25.5644 0.0000 0.0000 0.0000
# 3 26.8401 25.5644 88.9055 0.0000 0.0000 0.0000
# 4 0.0000 0.0000 0.0000 18.7320 0.0000 0.0000
# 5 0.0000 0.0000 0.0000 0.0000 24.1081 0.0000
# 6 0.0000 0.0000 0.0000 0.0000 0.0000 12.4541
#
#
#
# Elastic Compliance Matrix: (Units=1/GPa)
#
#
# Indices 1 2 3 4 5 6 
#
# 1 0.013400 -0.004358 -0.002792 0.000000 0.000000 0.000000
# 2 -0.004358 0.010267 -0.001637 0.000000 0.000000 0.000000
# 3 -0.002792 -0.001637 0.012561 0.000000 0.000000 0.000000
# 4 0.000000 0.000000 0.000000 0.053385 0.000000 0.000000
# 5 0.000000 0.000000 0.000000 0.000000 0.041480 0.000000
# 6 0.000000 0.000000 0.000000 0.000000 0.000000 0.080295
#
#
# Mechanical properties :
#
#
# Convention : Reuss Voigt Hill
#
# Bulk Modulus (GPa) = 53.60633 55.29888 54.45261
# Shear Modulus (GPa) = 21.26039 24.86329 23.06184
#
# Velocity S-wave (km/s) = 3.34290 3.61508 3.48165
# Velocity P-wave (km/s) = 6.56329 6.81847 6.69210
#
# Compressibility (1/GPa) = 0.01865451
#
# Stress axis : x y z
#
# Youngs Moduli (GPa) = 74.62830 97.39984 79.60891
#
# Poissons Ratio (x) = 0.42448 0.22228
# Poissons Ratio (y) = 0.32524 0.13028
# Poissons Ratio (z) = 0.20837 0.15940
#
# Static dielectric constant tensor:
#      x y z
#    x 3.509810 0.000000 0.000000 
#    y 0.000000 3.363400 0.000000 
#    z 0.000000 0.000000 3.811550 
# 
# 
# High freq. dielectric constant tensor:
#      x y z
#    x 1.731220 0.000000 0.000000 
#    y 0.000000 1.713830 0.000000 
#    z 0.000000 0.000000 1.753660 
# 
# From -- ./inp_files/21167.got.cif
#   From: 2010.03.12/outbox.cif.g09.slc.cpg/sg60_11_cif.got.tgz:21167.got - 2010.04.10 18:46:24.
