data_PCOD8246166
_publ_section_title
;
Structure prediction by ZEFSAII (Michael W. Deem and Ramdas Pophale) SiO2 
 PCOD8246166
Probable space group: P M M N
;
_chemical_formula_sum "Si O2"
_cell_formula_units_Z 48
_cell_length_a 19.618072
_cell_length_b 9.874543
_cell_length_c 15.287809
_cell_angle_alpha 90.000000
_cell_angle_beta 90.000000
_cell_angle_gamma 90.000000
_cell_volume 2961.546647
_symmetry_space_group_name_H-M "P M M N"
_symmetry_group_IT_number 59
_space_group.IT_coordinate_system_code '2'
_symmetry_cell_setting 'orthorhombic'
loop_
_space_group_symop_operation_xyz
x,y,z
1/2-x,1/2-y,z
1/2+x,-y,-z
-x,1/2+y,-z
-x,-y,-z
1/2+x,1/2+y,-z
1/2-x,y,z
x,1/2-y,z
loop_
_atom_site_type_symbol
_atom_site_label
_atom_site_fract_x
_atom_site_fract_y
_atom_site_fract_z
Si Si1 0.917864 0.100825 0.429553
Si Si2 0.920203 0.599380 0.574835
Si Si3 0.083285 0.590465 0.767934
Si Si4 0.330277 0.404086 0.892819
Si Si5 0.825593 0.910540 0.910218
Si Si6 0.570610 0.588669 0.767323
O O1 0.888709 0.250000 0.451054
O O2 0.895861 0.057577 0.332036
O O3 0.998974 0.105537 0.435123
O O4 0.887366 0.996691 0.500721
O O5 0.889440 0.750000 0.562352
O O6 0.903275 0.540761 0.671551
O O7 0.090776 0.750000 0.787414
O O8 0.133206 0.507290 0.828949
O O9 0.006242 0.539293 0.786193
O O10 0.250000 0.415113 0.877877
O O11 0.354627 0.250000 0.874973
O O12 0.348863 0.448240 0.991820
O O13 0.750000 0.969366 0.890738
O O14 0.823123 0.750000 0.900748
O O15 0.879297 0.972698 0.841052
O O16 0.570252 0.750000 0.767135
#
# Coordination Sequence:
#
# PCOD8246166 Si02
#       6
#     8   8   8   8   8   8
#     4   8  14  24  37  56  83 111 138 168 204 248
#     4   8  13  22  38  59  82 109 139 171 206 241
#     4   9  17  28  43  64  88 113 141 175 214 252
#     4   9  18  31  45  62  84 110 142 178 212 250
#     4   8  14  26  44  63  84 113 143 169 207 258
#     4   8  14  25  41  63  89 112 139 177 213 247
#
# _framework density 16.207747999999999
#
# number of rings (size 3 to 8) (size 9 to 14) (size 15 to 20)
#    0.000    3.667    0.000    3.000    0.000    1.667 
#    0.000    2.500    0.000    2.000    0.000    2.333 
#    0.000    0.000    0.000    0.000    0.000    0.000 
#
# Total GULP energy -594813.996916 kJ/mol
# GULP energy per Si atom -12391.958269 kJ/mol
# Density = 1.617086 g / cm^3
# Si number density = 16.207748 Si / 1000 Ang^3
#
#
#
# Elastic Constant Matrix: (Units=GPa)
#
#
# Indices 1 2 3 4 5 6 
#
# 1 43.4942 30.5327 55.0047 0.0000 0.0000 0.0000
# 2 30.5327 58.0585 64.7432 0.0000 0.0000 0.0000
# 3 55.0047 64.7432 147.7854 0.0000 0.0000 0.0000
# 4 0.0000 0.0000 0.0000 23.5519 0.0000 0.0000
# 5 0.0000 0.0000 0.0000 0.0000 2.6404 0.0000
# 6 0.0000 0.0000 0.0000 0.0000 0.0000 16.2834
#
#
#
# Elastic Compliance Matrix: (Units=1/GPa)
#
#
# Indices 1 2 3 4 5 6 
#
# 1 0.046238 -0.010021 -0.012820 0.000000 0.000000 0.000000
# 2 -0.010021 0.035847 -0.011975 0.000000 0.000000 0.000000
# 3 -0.012820 -0.011975 0.016784 0.000000 0.000000 0.000000
# 4 0.000000 0.000000 0.000000 0.042459 0.000000 0.000000
# 5 0.000000 0.000000 0.000000 0.000000 0.378725 0.000000
# 6 0.000000 0.000000 0.000000 0.000000 0.000000 0.061412
#
#
# Mechanical properties :
#
#
# Convention : Reuss Voigt Hill
#
# Bulk Modulus (GPa) = 34.20050 61.09991 47.65020
# Shear Modulus (GPa) = 7.56609 15.09897 11.33253
#
# Velocity S-wave (km/s) = 2.16294 3.05551 2.64712
# Velocity P-wave (km/s) = 5.23306 7.08717 6.22948
#
# Compressibility (1/GPa) = 0.02923934
#
# Stress axis : x y z
#
# Youngs Moduli (GPa) = 21.62700 27.89616 59.58120
#
# Poissons Ratio (x) = 0.27955 0.76380
# Poissons Ratio (y) = 0.21673 0.71346
# Poissons Ratio (z) = 0.27725 0.33404
#
# Static dielectric constant tensor:
#      x y z
#    x 2.892940 0.000000 0.000000 
#    y 0.000000 2.950960 0.000000 
#    z 0.000000 0.000000 3.361200 
# 
# 
# High freq. dielectric constant tensor:
#      x y z
#    x 1.586550 0.000000 0.000000 
#    y 0.000000 1.590410 0.000000 
#    z 0.000000 0.000000 1.635150 
# 
# From -- ./inp_files/15895.got.cif
#   From: 2010.03.12/outbox.cif.g09.slc.cpg/sg59_8_cif.got.tgz:15895.got - 2010.04.16 16:29:54.
