data_PCOD8246802
_publ_section_title
;
Structure prediction by ZEFSAII (Michael W. Deem and Ramdas Pophale) SiO2 
 PCOD8246802
Probable space group: P B C N
;
_chemical_formula_sum "Si O2"
_cell_formula_units_Z 64
_cell_length_a 22.180584
_cell_length_b 5.161692
_cell_length_c 27.923589
_cell_angle_alpha 90.000000
_cell_angle_beta 90.000000
_cell_angle_gamma 90.000000
_cell_volume 3196.953358
_symmetry_space_group_name_H-M "P B C N"
_symmetry_group_IT_number 60
_symmetry_cell_setting 'orthorhombic'
loop_
_space_group_symop_operation_xyz
x,y,z
1/2-x,1/2-y,1/2+z
1/2+x,1/2-y,-z
-x,y,1/2-z
-x,-y,-z
1/2+x,1/2+y,1/2-z
1/2-x,1/2+y,z
x,-y,1/2+z
loop_
_atom_site_type_symbol
_atom_site_label
_atom_site_fract_x
_atom_site_fract_y
_atom_site_fract_z
Si Si1 0.280149 0.280576 0.805918
Si Si2 0.935909 0.609489 0.983893
Si Si3 0.092798 0.205449 0.678660
Si Si4 0.272862 0.757985 0.699649
Si Si5 0.061680 0.862453 0.075321
Si Si6 0.098523 0.257730 0.357465
Si Si7 0.921865 0.235935 0.585674
Si Si8 0.478170 0.785662 0.199176
O O1 0.252643 0.536353 0.830501
O O2 0.264847 0.290665 0.749386
O O3 0.351584 0.267573 0.815655
O O4 0.905981 0.363757 0.956501
O O5 0.941634 0.859697 0.950125
O O6 0.900119 0.699047 0.031462
O O7 0.000000 0.500000 0.000000
O O8 0.155859 0.236743 0.706307
O O9 0.100609 0.110001 0.623811
O O10 0.060765 0.483478 0.676869
O O11 0.058002 0.981315 0.707294
O O12 0.244907 0.516562 0.670449
O O13 0.994232 0.774042 0.088775
O O14 0.103578 0.541116 0.380060
O O15 0.033177 0.215367 0.335089
O O16 0.107065 0.036753 0.397921
O O17 0.500000 0.890811 0.250000
#
# Coordination Sequence:
#
# PCOD8246802 Si02
#       8
#     8   8   8   8   8   8   8   8
#     4  10  23  39  60  80 110 158 213 259 293 336
#     4  10  20  32  58  87 129 167 190 232 296 384
#     4  12  24  41  63  89 126 164 207 258 305 373
#     4  10  23  42  62  82 111 158 213 265 293 340
#     4  11  19  36  55  92 128 161 196 237 305 375
#     4  12  22  38  59  87 124 162 202 251 299 367
#     4  11  20  36  56  91 126 162 194 238 301 376
#     4  12  26  38  58  91 125 169 199 244 327 372
#
# _framework density 20.01906
#
# number of rings (size 3 to 8) (size 9 to 14) (size 15 to 20)
#    0.000    1.000    2.500    6.375    7.000    0.000 
#    0.000    0.000    0.000    0.000    0.000   17.500 
#    0.000    0.000    0.000    0.000    0.000    0.000 
#
# Total GULP energy -793300.705573 kJ/mol
# GULP energy per Si atom -12395.323525 kJ/mol
# Density = 1.997350 g / cm^3
# Si number density = 20.019060 Si / 1000 Ang^3
#
#
#
# Elastic Constant Matrix: (Units=GPa)
#
#
# Indices 1 2 3 4 5 6 
#
# 1 88.6802 33.8414 15.0299 0.0000 0.0000 0.0000
# 2 33.8414 163.3109 20.7204 0.0000 0.0000 0.0000
# 3 15.0299 20.7204 85.9936 0.0000 0.0000 0.0000
# 4 0.0000 0.0000 0.0000 24.7011 0.0000 0.0000
# 5 0.0000 0.0000 0.0000 0.0000 18.2600 0.0000
# 6 0.0000 0.0000 0.0000 0.0000 0.0000 14.3598
#
#
#
# Elastic Compliance Matrix: (Units=1/GPa)
#
#
# Indices 1 2 3 4 5 6 
#
# 1 0.012456 -0.002378 -0.001604 0.000000 0.000000 0.000000
# 2 -0.002378 0.006770 -0.001216 0.000000 0.000000 0.000000
# 3 -0.001604 -0.001216 0.012202 0.000000 0.000000 0.000000
# 4 0.000000 0.000000 0.000000 0.040484 0.000000 0.000000
# 5 0.000000 0.000000 0.000000 0.000000 0.054764 0.000000
# 6 0.000000 0.000000 0.000000 0.000000 0.000000 0.069639
#
#
# Mechanical properties :
#
#
# Convention : Reuss Voigt Hill
#
# Bulk Modulus (GPa) = 47.54410 53.01871 50.28140
# Shear Modulus (GPa) = 23.39496 29.35705 26.37600
#
# Velocity S-wave (km/s) = 3.42224 3.83359 3.63374
# Velocity P-wave (km/s) = 6.27826 6.79241 6.54039
#
# Compressibility (1/GPa) = 0.02103310
#
# Stress axis : x y z
#
# Youngs Moduli (GPa) = 80.28482 147.70573 81.95328
#
# Poissons Ratio (x) = 0.35118 0.13146
# Poissons Ratio (y) = 0.19088 0.09964
# Poissons Ratio (z) = 0.12879 0.17957
#
# Static dielectric constant tensor:
#      x y z
#    x 3.277790 0.000000 0.000000 
#    y 0.000000 4.914480 0.000000 
#    z 0.000000 0.000000 3.789400 
# 
# 
# High freq. dielectric constant tensor:
#      x y z
#    x 1.733980 0.000000 0.000000 
#    y 0.000000 1.821250 0.000000 
#    z 0.000000 0.000000 1.764160 
# 
# From -- ./inp_files/25505.got.cif
#   From: 2010.03.12/outbox.cif.g09.slc.cpg/sg60_13_cif.got.tgz:25505.got - 2010.04.10 18:46:24.
