data_PCOD8246905
_publ_section_title
;
Structure prediction by ZEFSAII (Michael W. Deem and Ramdas Pophale) SiO2 
 PCOD8246905
Probable space group: P B C N
;
_chemical_formula_sum "Si O2"
_cell_formula_units_Z 64
_cell_length_a 9.263590
_cell_length_b 17.681590
_cell_length_c 20.310525
_cell_angle_alpha 90.000000
_cell_angle_beta 90.000000
_cell_angle_gamma 90.000000
_cell_volume 3326.762449
_symmetry_space_group_name_H-M "P B C N"
_symmetry_group_IT_number 60
_symmetry_cell_setting 'orthorhombic'
loop_
_space_group_symop_operation_xyz
x,y,z
1/2-x,1/2-y,1/2+z
1/2+x,1/2-y,-z
-x,y,1/2-z
-x,-y,-z
1/2+x,1/2+y,1/2-z
1/2-x,1/2+y,z
x,-y,1/2+z
loop_
_atom_site_type_symbol
_atom_site_label
_atom_site_fract_x
_atom_site_fract_y
_atom_site_fract_z
Si Si1 0.656482 0.913094 0.989913
Si Si2 0.167402 0.334288 0.374265
Si Si3 0.844519 0.160238 0.113928
Si Si4 0.677116 0.915146 0.497522
Si Si5 0.670070 0.420145 0.743805
Si Si6 0.335192 0.164957 0.637887
Si Si7 0.329519 0.592662 0.756513
Si Si8 0.681653 0.661524 0.372875
O O1 0.729058 0.858754 0.937252
O O2 0.713801 0.998136 0.980271
O O3 0.698540 0.886064 0.062774
O O4 0.486184 0.907844 0.977615
O O5 0.195978 0.247791 0.394157
O O6 0.277286 0.357034 0.317229
O O7 0.005018 0.345652 0.347829
O O8 0.776448 0.129730 0.182145
O O9 0.014917 0.146702 0.111865
O O10 0.781713 0.112692 0.054254
O O11 0.706007 0.863819 0.434256
O O12 0.500000 0.411722 0.750000
O O13 0.716755 0.506146 0.731366
O O14 0.738833 0.388227 0.811311
O O15 0.245373 0.117255 0.689551
O O16 0.289900 0.251698 0.644962
O O17 0.500000 0.602084 0.750000
#
# Coordination Sequence:
#
# PCOD8246905 Si02
#       8
#     8   8   8   8   8   8   8   8
#     4  10  21  36  54  80 113 144 177 221 271 321
#     4  10  21  37  56  78 108 145 178 215 270 325
#     4  10  20  36  58  79 104 142 183 221 262 315
#     4  10  21  36  54  80 113 144 177 221 271 321
#     4   9  19  35  53  77 106 135 174 222 268 313
#     4  10  21  37  56  78 108 145 178 215 270 325
#     4  11  22  35  55  81 106 135 176 224 266 313
#     4  10  20  36  58  79 104 142 183 221 262 315
#
# _framework density 19.237924
#
# number of rings (size 3 to 8) (size 9 to 14) (size 15 to 20)
#    0.000    2.000    0.000    3.375    0.000    4.500 
#    0.000    1.875    0.000    0.000    0.000    0.000 
#    0.000    0.000    0.000    0.000    0.000    0.000 
#
# Total GULP energy -793916.103962 kJ/mol
# GULP energy per Si atom -12404.939124 kJ/mol
# Density = 1.919414 g / cm^3
# Si number density = 19.237924 Si / 1000 Ang^3
#
#
#
# Elastic Constant Matrix: (Units=GPa)
#
#
# Indices 1 2 3 4 5 6 
#
# 1 43.6891 27.3027 27.1973 0.0000 0.0000 0.0000
# 2 27.3027 63.4779 16.8312 0.0000 0.0000 0.0000
# 3 27.1973 16.8312 67.1982 0.0000 0.0000 0.0000
# 4 0.0000 0.0000 0.0000 39.3672 0.0000 0.0000
# 5 0.0000 0.0000 0.0000 0.0000 31.0258 0.0000
# 6 0.0000 0.0000 0.0000 0.0000 0.0000 19.9988
#
#
#
# Elastic Compliance Matrix: (Units=1/GPa)
#
#
# Indices 1 2 3 4 5 6 
#
# 1 0.039068 -0.013508 -0.012429 0.000000 0.000000 0.000000
# 2 -0.013508 0.021545 0.000071 0.000000 0.000000 0.000000
# 3 -0.012429 0.000071 0.019894 0.000000 0.000000 0.000000
# 4 0.000000 0.000000 0.000000 0.025402 0.000000 0.000000
# 5 0.000000 0.000000 0.000000 0.000000 0.032231 0.000000
# 6 0.000000 0.000000 0.000000 0.000000 0.000000 0.050003
#
#
# Mechanical properties :
#
#
# Convention : Reuss Voigt Hill
#
# Bulk Modulus (GPa) = 34.75286 35.22529 34.98908
# Shear Modulus (GPa) = 20.04284 24.94727 22.49506
#
# Velocity S-wave (km/s) = 3.23126 3.60498 3.42322
# Velocity P-wave (km/s) = 5.65909 5.97310 5.81822
#
# Compressibility (1/GPa) = 0.02877461
#
# Stress axis : x y z
#
# Youngs Moduli (GPa) = 25.59664 46.41504 50.26672
#
# Poissons Ratio (x) = 0.62698 0.62474
# Poissons Ratio (y) = 0.34576 -0.00356
# Poissons Ratio (z) = 0.31813 -0.00329
#
# Static dielectric constant tensor:
#      x y z
#    x 3.347530 0.000000 0.000000 
#    y 0.000000 3.661520 0.000000 
#    z 0.000000 0.000000 3.542900 
# 
# 
# High freq. dielectric constant tensor:
#      x y z
#    x 1.728700 0.000000 0.000000 
#    y 0.000000 1.765540 0.000000 
#    z 0.000000 0.000000 1.761070 
# 
# From -- ./inp_files/22390.got.cif
#   From: 2010.03.12/outbox.cif.g09.slc.cpg/sg60_12_cif.got.tgz:22390.got - 2010.04.10 18:46:24.
