data_PCOD8246136
_publ_section_title
;
Structure prediction by ZEFSAII (Michael W. Deem and Ramdas Pophale) SiO2 
 PCOD8246136
Probable space group: P M M N
;
_chemical_formula_sum "Si O2"
_cell_formula_units_Z 64
_cell_length_a 9.595089
_cell_length_b 18.629193
_cell_length_c 20.978524
_cell_angle_alpha 90.000000
_cell_angle_beta 90.000000
_cell_angle_gamma 90.000000
_cell_volume 3749.885253
_symmetry_space_group_name_H-M "P M M N"
_symmetry_group_IT_number 59
_space_group.IT_coordinate_system_code '2'
_symmetry_cell_setting 'orthorhombic'
loop_
_space_group_symop_operation_xyz
x,y,z
1/2-x,1/2-y,z
1/2+x,-y,-z
-x,1/2+y,-z
-x,-y,-z
1/2+x,1/2+y,-z
1/2-x,y,z
x,1/2-y,z
loop_
_atom_site_type_symbol
_atom_site_label
_atom_site_fract_x
_atom_site_fract_y
_atom_site_fract_z
Si Si1 0.584732 0.670516 0.940645
Si Si2 0.415728 0.582561 0.317700
Si Si3 0.915937 0.920740 0.685096
Si Si4 0.915707 0.668317 0.803250
Si Si5 0.588657 0.666744 0.562641
Si Si6 0.588609 0.166587 0.558979
Si Si7 0.087894 0.666239 0.194313
Si Si8 0.093125 0.164152 0.923102
O O1 0.750000 0.676016 0.943833
O O2 0.520218 0.750000 0.938133
O O3 0.540066 0.634503 0.872854
O O4 0.538281 0.633185 0.007699
O O5 0.250000 0.584419 0.317431
O O6 0.474099 0.501639 0.317002
O O7 0.469909 0.622184 0.381030
O O8 0.471070 0.624212 0.255529
O O9 0.750000 0.920893 0.688139
O O10 0.978941 0.881386 0.747532
O O11 0.966403 0.878731 0.622475
O O12 0.750000 0.669225 0.797672
O O13 0.970887 0.750000 0.795350
O O14 0.750000 0.650832 0.547848
O O15 0.564628 0.750000 0.578927
O O16 0.499555 0.642238 0.502003
O O17 0.750000 0.149444 0.545170
O O18 0.566241 0.250000 0.574590
O O19 0.250000 0.650837 0.182992
O O20 0.058649 0.750000 0.205691
O O21 0.007678 0.636157 0.132446
O O22 0.250000 0.137450 0.908432
O O23 0.090015 0.250000 0.927113
#
# Coordination Sequence:
#
# PCOD8246136 Si02
#       8
#     8   8   8   8   8   8   8   8
#     4   7  10  17  31  53  79 103 128 161 198 235
#     4   9  17  28  41  57  78 106 140 172 198 231
#     4   9  16  25  39  60  85 110 133 162 202 241
#     4   8  12  19  34  57  83 108 133 162 198 240
#     4   9  17  29  45  66  89 107 126 160 204 243
#     4   9  17  30  47  63  80 107 140 168 196 235
#     4   9  16  26  41  59  78 103 136 172 205 235
#     4   8  13  22  37  58  82 104 128 163 205 243
#
# _framework density 17.06719
#
# number of rings (size 3 to 8) (size 9 to 14) (size 15 to 20)
#    0.000    3.500    0.000    2.250    0.000    3.500 
#    0.000    0.625    0.000    4.500    0.000    0.875 
#    0.000    5.000    0.000    0.000    0.000    0.000 
#
# Total GULP energy -792936.972528 kJ/mol
# GULP energy per Si atom -12389.640196 kJ/mol
# Density = 1.702834 g / cm^3
# Si number density = 17.067190 Si / 1000 Ang^3
#
#
#
# Elastic Constant Matrix: (Units=GPa)
#
#
# Indices 1 2 3 4 5 6 
#
# 1 28.5219 20.0777 45.6119 0.0000 0.0000 0.0000
# 2 20.0777 71.2238 76.1509 0.0000 0.0000 0.0000
# 3 45.6119 76.1509 211.8590 0.0000 0.0000 0.0000
# 4 0.0000 0.0000 0.0000 6.5367 0.0000 0.0000
# 5 0.0000 0.0000 0.0000 0.0000 20.0310 0.0000
# 6 0.0000 0.0000 0.0000 0.0000 0.0000 8.2563
#
#
#
# Elastic Compliance Matrix: (Units=1/GPa)
#
#
# Indices 1 2 3 4 5 6 
#
# 1 0.054369 -0.004566 -0.010064 0.000000 0.000000 0.000000
# 2 -0.004566 0.023187 -0.007351 0.000000 0.000000 0.000000
# 3 -0.010064 -0.007351 0.009529 0.000000 0.000000 0.000000
# 4 0.000000 0.000000 0.000000 0.152983 0.000000 0.000000
# 5 0.000000 0.000000 0.000000 0.000000 0.049923 0.000000
# 6 0.000000 0.000000 0.000000 0.000000 0.000000 0.121120
#
#
# Mechanical properties :
#
#
# Convention : Reuss Voigt Hill
#
# Bulk Modulus (GPa) = 23.18970 66.14287 44.66629
# Shear Modulus (GPa) = 10.65077 18.28241 14.46659
#
# Velocity S-wave (km/s) = 2.50081 3.27647 2.91456
# Velocity P-wave (km/s) = 4.68567 7.29056 6.12812
#
# Compressibility (1/GPa) = 0.04312259
#
# Stress axis : x y z
#
# Youngs Moduli (GPa) = 18.39268 43.12679 104.93981
#
# Poissons Ratio (x) = 0.19693 1.05613
# Poissons Ratio (y) = 0.08399 0.77146
# Poissons Ratio (z) = 0.18511 0.31704
#
# Static dielectric constant tensor:
#      x y z
#    x 2.700920 0.000000 0.000000 
#    y 0.000000 3.015080 0.000000 
#    z 0.000000 0.000000 3.675280 
# 
# 
# High freq. dielectric constant tensor:
#      x y z
#    x 1.596900 0.000000 0.000000 
#    y 0.000000 1.626010 0.000000 
#    z 0.000000 0.000000 1.683970 
# 
# From -- ./inp_files/29457.got.cif
#   From: 2010.03.12/outbox.cif.g09.slc.cpg/sg59_15_cif.got.tgz:29457.got - 2010.04.16 16:29:54.
