data_PCOD8246996
_publ_section_title
;
Structure prediction by ZEFSAII (Michael W. Deem and Ramdas Pophale) SiO2 
 PCOD8246996
Probable space group: P B C N
;
_chemical_formula_sum "Si O2"
_cell_formula_units_Z 48
_cell_length_a 8.343339
_cell_length_b 22.702654
_cell_length_c 11.024855
_cell_angle_alpha 90.000000
_cell_angle_beta 90.000000
_cell_angle_gamma 90.000000
_cell_volume 2088.283257
_symmetry_space_group_name_H-M "P B C N"
_symmetry_group_IT_number 60
_symmetry_cell_setting 'orthorhombic'
loop_
_space_group_symop_operation_xyz
x,y,z
1/2-x,1/2-y,1/2+z
1/2+x,1/2-y,-z
-x,y,1/2-z
-x,-y,-z
1/2+x,1/2+y,1/2-z
1/2-x,1/2+y,z
x,-y,1/2+z
loop_
_atom_site_type_symbol
_atom_site_label
_atom_site_fract_x
_atom_site_fract_y
_atom_site_fract_z
Si Si1 0.978932 0.680391 0.608092
Si Si2 0.330747 0.531818 0.490733
Si Si3 0.702465 0.912307 0.979879
Si Si4 0.184109 0.117671 0.278367
Si Si5 0.483287 0.632816 0.610308
Si Si6 0.280875 0.714560 0.464912
O O1 0.954365 0.617236 0.540950
O O2 0.819768 0.719691 0.582001
O O3 0.000000 0.669521 0.750000
O O4 0.131598 0.714870 0.556266
O O5 0.500000 0.500000 0.500000
O O6 0.191745 0.483868 0.518882
O O7 0.304304 0.557768 0.356332
O O8 0.337038 0.585764 0.587736
O O9 0.713052 0.890112 0.842385
O O10 0.854356 0.893489 0.058845
O O11 0.256980 0.173280 0.349485
O O12 0.000000 0.131794 0.250000
O O13 0.500000 0.647965 0.750000
O O14 0.437195 0.691761 0.538141
#
# Coordination Sequence:
#
# PCOD8246996 Si02
#       6
#     8   8   8   8   8   8
#     4  12  28  48  70  97 138 176 229 290 344 413
#     4   9  19  32  64 102 132 179 223 271 327 387
#     4  11  23  40  68 100 136 183 225 281 344 394
#     4  11  20  41  69 102 141 175 229 285 330 409
#     4  10  20  37  66 103 137 175 230 277 333 403
#     4  11  25  44  70  98 131 181 226 283 352 401
#
# _framework density 22.985388
#
# number of rings (size 3 to 8) (size 9 to 14) (size 15 to 20)
#    0.000    1.333    5.000    2.500    7.000    0.667 
#    0.000    3.333    0.000    0.000    0.000    0.000 
#    0.000    0.000    0.000    0.000    0.000    0.000 
#
# Total GULP energy -595208.362722 kJ/mol
# GULP energy per Si atom -12400.174223 kJ/mol
# Density = 2.293307 g / cm^3
# Si number density = 22.985388 Si / 1000 Ang^3
#
#
#
# Elastic Constant Matrix: (Units=GPa)
#
#
# Indices 1 2 3 4 5 6 
#
# 1 34.7891 -13.0676 3.5205 0.0000 0.0000 0.0000
# 2 -13.0676 81.4718 21.7627 0.0000 0.0000 0.0000
# 3 3.5205 21.7627 160.8326 0.0000 0.0000 0.0000
# 4 0.0000 0.0000 0.0000 25.8135 0.0000 0.0000
# 5 0.0000 0.0000 0.0000 0.0000 28.5879 0.0000
# 6 0.0000 0.0000 0.0000 0.0000 0.0000 34.8266
#
#
#
# Elastic Compliance Matrix: (Units=1/GPa)
#
#
# Indices 1 2 3 4 5 6 
#
# 1 0.030887 0.005327 -0.001397 0.000000 0.000000 0.000000
# 2 0.005327 0.013653 -0.001964 0.000000 0.000000 0.000000
# 3 -0.001397 -0.001964 0.006514 0.000000 0.000000 0.000000
# 4 0.000000 0.000000 0.000000 0.038739 0.000000 0.000000
# 5 0.000000 0.000000 0.000000 0.000000 0.034980 0.000000
# 6 0.000000 0.000000 0.000000 0.000000 0.000000 0.028714
#
#
# Mechanical properties :
#
#
# Convention : Reuss Voigt Hill
#
# Bulk Modulus (GPa) = 18.18619 33.50273 25.84446
# Shear Modulus (GPa) = 29.78253 35.50413 32.64333
#
# Velocity S-wave (km/s) = 3.60351 3.93445 3.77261
# Velocity P-wave (km/s) = 5.02424 5.93694 5.49955
#
# Compressibility (1/GPa) = 0.05498679
#
# Stress axis : x y z
#
# Youngs Moduli (GPa) = 32.37605 73.24242 153.51586
#
# Poissons Ratio (x) = -0.39018 0.21445
# Poissons Ratio (y) = -0.17248 0.30152
# Poissons Ratio (z) = 0.04523 0.14385
#
# Static dielectric constant tensor:
#      x y z
#    x 3.818150 0.000000 0.000000 
#    y 0.000000 4.878200 0.000000 
#    z 0.000000 0.000000 3.956200 
# 
# 
# High freq. dielectric constant tensor:
#      x y z
#    x 1.880370 0.000000 0.000000 
#    y 0.000000 1.917070 0.000000 
#    z 0.000000 0.000000 1.911200 
# 
# From -- ./inp_files/10103.got.cif
#   From: 2010.03.12/outbox.cif.g09.slc.cpg/sg60_6_cif.got.tgz:10103.got - 2010.04.10 18:46:24.
