data_PCOD8246266
_publ_section_title
;
Structure prediction by ZEFSAII (Michael W. Deem and Ramdas Pophale) SiO2 
 PCOD8246266
Probable space group: P M M N
;
_chemical_formula_sum "Si O2"
_cell_formula_units_Z 48
_cell_length_a 9.000000
_cell_length_b 18.000000
_cell_length_c 15.000000
_cell_angle_alpha 90.000000
_cell_angle_beta 90.000000
_cell_angle_gamma 90.000000
_cell_volume 2430.000000
_symmetry_space_group_name_H-M "P M M N"
_symmetry_group_IT_number 59
_space_group.IT_coordinate_system_code '2'
_symmetry_cell_setting 'orthorhombic'
loop_
_space_group_symop_operation_xyz
x,y,z
1/2-x,1/2-y,z
1/2+x,-y,-z
-x,1/2+y,-z
-x,-y,-z
1/2+x,1/2+y,-z
1/2-x,y,z
x,1/2-y,z
loop_
_atom_site_type_symbol
_atom_site_label
_atom_site_fract_x
_atom_site_fract_y
_atom_site_fract_z
Si Si1 0.079040 0.750000 0.053278
Si Si2 0.415938 0.106839 0.965864
Si Si3 0.077408 0.335746 0.431977
Si Si4 0.416703 0.007201 0.139681
Si Si5 0.424994 0.957545 0.686882
Si Si6 0.077774 0.750000 0.262049
Si Si7 0.923433 0.622382 0.368314
O O1 0.250000 0.750000 0.028671
O O2 0.046674 0.750000 0.157662
O O3 0.005415 0.820534 0.006804
O O4 0.250000 0.126946 0.935003
O O5 0.495182 0.068280 0.881493
O O6 0.414111 0.056241 0.052083
O O7 0.250000 0.353885 0.415346
O O8 0.042103 0.250000 0.408811
O O9 0.032769 0.351567 0.533354
O O10 0.978336 0.389177 0.372278
O O11 0.250000 0.986265 0.169569
O O12 0.498687 0.051758 0.217339
O O13 0.250000 0.951900 0.698819
O O14 0.472021 0.036585 0.644016
O O15 0.250000 0.750000 0.285787
O O16 0.008275 0.674621 0.299668
O O17 0.750000 0.632883 0.350555
#
# Coordination Sequence:
#
# PCOD8246266 Si02
#       7
#     4   8   8   8   8   4   8
#     4  11  23  37  55  86 121 154 191 237 292 349
#     4  10  21  38  61  86 115 153 194 240 292 346
#     4  10  21  40  62  82 114 159 197 238 295 349
#     4  10  21  39  61  85 116 154 194 239 291 350
#     4  11  23  37  60  91 118 151 198 246 290 346
#     4  11  23  35  55  88 121 152 189 239 292 343
#     4  10  21  39  60  84 117 156 194 236 292 351
#
# _framework density 19.753086
#
# number of rings (size 3 to 8) (size 9 to 14) (size 15 to 20)
#    0.000    1.667    0.833    3.500    0.000    8.333 
#    1.500    0.000    0.000    0.000    0.000    0.000 
#    0.000    0.000    0.000    0.000    0.000    0.000 
#
# Total GULP energy -595400.080768 kJ/mol
# GULP energy per Si atom -12404.168349 kJ/mol
# Density = 1.970813 g / cm^3
# Si number density = 19.753086 Si / 1000 Ang^3
#
#
#
# Elastic Constant Matrix: (Units=GPa)
#
#
# Indices 1 2 3 4 5 6 
#
# 1 115.0688 49.7053 32.7374 0.0000 0.0000 0.0000
# 2 49.7053 96.1449 6.8570 0.0000 0.0000 0.0000
# 3 32.7374 6.8570 29.3855 0.0000 0.0000 0.0000
# 4 0.0000 0.0000 0.0000 13.1798 0.0000 0.0000
# 5 0.0000 0.0000 0.0000 0.0000 30.6099 0.0000
# 6 0.0000 0.0000 0.0000 0.0000 0.0000 40.3178
#
#
#
# Elastic Compliance Matrix: (Units=1/GPa)
#
#
# Indices 1 2 3 4 5 6 
#
# 1 0.016700 -0.007430 -0.016871 0.000000 0.000000 0.000000
# 2 -0.007430 0.013883 0.005038 0.000000 0.000000 0.000000
# 3 -0.016871 0.005038 0.051650 0.000000 0.000000 0.000000
# 4 0.000000 0.000000 0.000000 0.075874 0.000000 0.000000
# 5 0.000000 0.000000 0.000000 0.000000 0.032669 0.000000
# 6 0.000000 0.000000 0.000000 0.000000 0.000000 0.024803
#
#
# Mechanical properties :
#
#
# Convention : Reuss Voigt Hill
#
# Bulk Modulus (GPa) = 22.87959 46.57763 34.72861
# Shear Modulus (GPa) = 18.60991 26.90812 22.75902
#
# Velocity S-wave (km/s) = 3.07274 3.69484 3.39805
# Velocity P-wave (km/s) = 4.91903 6.46788 5.74589
#
# Compressibility (1/GPa) = 0.04370708
#
# Stress axis : x y z
#
# Youngs Moduli (GPa) = 59.88045 72.03049 19.36104
#
# Poissons Ratio (x) = 0.53521 0.32664
# Poissons Ratio (y) = 0.44493 -0.09755
# Poissons Ratio (z) = 1.01024 -0.36292
#
# Static dielectric constant tensor:
#      x y z
#    x 3.764470 0.000000 0.000000 
#    y 0.000000 3.810680 0.000000 
#    z 0.000000 0.000000 3.464000 
# 
# 
# High freq. dielectric constant tensor:
#      x y z
#    x 1.776550 0.000000 0.000000 
#    y 0.000000 1.777280 0.000000 
#    z 0.000000 0.000000 1.763330 
# 
# From -- ./inp_files/20509.got.cif
#   From: 2010.03.12/outbox.ucp.g09.slc.cvg/sg59_11_cif.got.tgz:20509.got - 2010.05.04 19:30:51.
