data_PCOD8246891
_publ_section_title
;
Structure prediction by ZEFSAII (Michael W. Deem and Ramdas Pophale) SiO2 
 PCOD8246891
Probable space group: P B C N
;
_chemical_formula_sum "Si O2"
_cell_formula_units_Z 56
_cell_length_a 9.998489
_cell_length_b 23.574165
_cell_length_c 11.933249
_cell_angle_alpha 90.000000
_cell_angle_beta 90.000000
_cell_angle_gamma 90.000000
_cell_volume 2812.738740
_symmetry_space_group_name_H-M "P B C N"
_symmetry_group_IT_number 60
_symmetry_cell_setting 'orthorhombic'
loop_
_space_group_symop_operation_xyz
x,y,z
1/2-x,1/2-y,1/2+z
1/2+x,1/2-y,-z
-x,y,1/2-z
-x,-y,-z
1/2+x,1/2+y,1/2-z
1/2-x,1/2+y,z
x,-y,1/2+z
loop_
_atom_site_type_symbol
_atom_site_label
_atom_site_fract_x
_atom_site_fract_y
_atom_site_fract_z
Si Si1 0.298783 0.496284 0.490240
Si Si2 0.988820 0.791980 0.479540
Si Si3 0.325736 0.084825 0.350429
Si Si4 0.520931 0.419419 0.384460
Si Si5 0.112451 0.409011 0.592143
Si Si6 0.733964 0.790912 0.919401
Si Si7 0.369909 0.323387 0.802537
O O1 0.250125 0.526814 0.377661
O O2 0.403726 0.448599 0.455344
O O3 0.349451 0.542946 0.581606
O O4 0.169207 0.465572 0.538391
O O5 0.970137 0.854632 0.427299
O O6 0.896718 0.749150 0.408597
O O7 0.929143 0.781878 0.603872
O O8 0.147393 0.774895 0.490943
O O9 0.365089 0.085411 0.222883
O O10 0.453742 0.094290 0.430901
O O11 0.221774 0.134700 0.373384
O O12 0.500000 0.420831 0.250000
O O13 0.185632 0.353442 0.544711
O O14 0.790353 0.789682 0.792918
O O15 0.500000 0.356093 0.750000
#
# Coordination Sequence:
#
# PCOD8246891 Si02
#       7
#     8   8   8   8   8   8   8
#     4  11  21  39  61  87 128 168 194 262 315 379
#     4  11  22  42  61  89 125 162 207 262 318 366
#     4  10  20  35  63  88 121 162 206 249 308 375
#     4  11  24  38  59  94 123 162 212 257 321 377
#     4  10  21  38  58  95 123 157 212 253 304 379
#     4  10  23  39  64  88 123 164 207 261 309 380
#     4   9  20  39  62  88 118 160 214 255 310 378
#
# _framework density 19.909420000000001
#
# number of rings (size 3 to 8) (size 9 to 14) (size 15 to 20)
#    0.000    1.714    2.857    1.286    2.000    1.714 
#    2.571    0.000    0.000    0.000    0.000    0.000 
#    0.000    0.000    0.000    0.000    0.000    0.000 
#
# Total GULP energy -693844.186460 kJ/mol
# GULP energy per Si atom -12390.074758 kJ/mol
# Density = 1.986410 g / cm^3
# Si number density = 19.909420 Si / 1000 Ang^3
#
#
#
# Elastic Constant Matrix: (Units=GPa)
#
#
# Indices 1 2 3 4 5 6 
#
# 1 134.0576 56.4994 28.6443 0.0000 0.0000 0.0000
# 2 56.4994 102.7258 30.0042 0.0000 0.0000 0.0000
# 3 28.6443 30.0042 50.9069 0.0000 0.0000 0.0000
# 4 0.0000 0.0000 0.0000 22.8597 0.0000 0.0000
# 5 0.0000 0.0000 0.0000 0.0000 26.6476 0.0000
# 6 0.0000 0.0000 0.0000 0.0000 0.0000 35.5850
#
#
#
# Elastic Compliance Matrix: (Units=1/GPa)
#
#
# Indices 1 2 3 4 5 6 
#
# 1 0.010052 -0.004683 -0.002896 0.000000 0.000000 0.000000
# 2 -0.004683 0.013940 -0.005582 0.000000 0.000000 0.000000
# 3 -0.002896 -0.005582 0.024563 0.000000 0.000000 0.000000
# 4 0.000000 0.000000 0.000000 0.043745 0.000000 0.000000
# 5 0.000000 0.000000 0.000000 0.000000 0.037527 0.000000
# 6 0.000000 0.000000 0.000000 0.000000 0.000000 0.028102
#
#
# Mechanical properties :
#
#
# Convention : Reuss Voigt Hill
#
# Bulk Modulus (GPa) = 44.97469 57.55400 51.26434
# Shear Modulus (GPa) = 26.08777 28.52130 27.30453
#
# Velocity S-wave (km/s) = 3.62377 3.78901 3.70731
# Velocity P-wave (km/s) = 6.33621 6.93634 6.64306
#
# Compressibility (1/GPa) = 0.02223473
#
# Stress axis : x y z
#
# Youngs Moduli (GPa) = 99.48457 71.73403 40.71170
#
# Poissons Ratio (x) = 0.33591 0.11790
# Poissons Ratio (y) = 0.46585 0.22723
# Poissons Ratio (z) = 0.28811 0.40039
#
# Static dielectric constant tensor:
#      x y z
#    x 4.334390 0.000000 0.000000 
#    y 0.000000 3.463820 0.000000 
#    z 0.000000 0.000000 3.630620 
# 
# 
# High freq. dielectric constant tensor:
#      x y z
#    x 1.798470 0.000000 0.000000 
#    y 0.000000 1.762450 0.000000 
#    z 0.000000 0.000000 1.762740 
# 
# From -- ./inp_files/11179.got.cif
#   From: 2010.03.12/outbox.cif.g09.slc.cpg/sg60_6_cif.got.tgz:11179.got - 2010.04.10 18:46:24.
