data_PCOD8246585
_publ_section_title
;
Structure prediction by ZEFSAII (Michael W. Deem and Ramdas Pophale) SiO2 
 PCOD8246585
Probable space group: P B C N
;
_chemical_formula_sum "Si O2"
_cell_formula_units_Z 48
_cell_length_a 9.427512
_cell_length_b 13.831488
_cell_length_c 18.457723
_cell_angle_alpha 90.000000
_cell_angle_beta 90.000000
_cell_angle_gamma 90.000000
_cell_volume 2406.822830
_symmetry_space_group_name_H-M "P B C N"
_symmetry_group_IT_number 60
_symmetry_cell_setting 'orthorhombic'
loop_
_space_group_symop_operation_xyz
x,y,z
1/2-x,1/2-y,1/2+z
1/2+x,1/2-y,-z
-x,y,1/2-z
-x,-y,-z
1/2+x,1/2+y,1/2-z
1/2-x,1/2+y,z
x,-y,1/2+z
loop_
_atom_site_type_symbol
_atom_site_label
_atom_site_fract_x
_atom_site_fract_y
_atom_site_fract_z
Si Si1 0.049314 0.349612 0.900558
Si Si2 0.445854 0.045100 0.830151
Si Si3 0.071356 0.971019 0.073800
Si Si4 0.849474 0.636730 0.941974
Si Si5 0.685137 0.644626 0.604234
Si Si6 0.228351 0.154932 0.064655
O O1 0.092759 0.432560 0.843141
O O2 0.137731 0.254268 0.879508
O O3 0.881264 0.329628 0.899373
O O4 0.090156 0.388621 0.979528
O O5 0.500000 0.062873 0.750000
O O6 0.572477 0.070498 0.884347
O O7 0.312052 0.115246 0.842650
O O8 0.182995 0.886120 0.058929
O O9 0.946627 0.926693 0.123437
O O10 0.148796 0.066450 0.105881
O O11 0.000000 0.000000 0.000000
O O12 0.867896 0.750075 0.923683
O O13 0.740012 0.633420 0.521483
#
# Coordination Sequence:
#
# PCOD8246585 Si02
#       6
#     8   8   8   8   8   8
#     4  11  20  39  69  93 125 165 218 269 322 380
#     4  12  26  44  61  91 133 178 214 258 327 391
#     4  10  19  33  59  96 126 155 203 266 323 373
#     4  11  21  37  65  94 125 164 213 273 318 376
#     4  10  22  38  62  98 128 160 210 272 319 381
#     4  10  19  34  66  98 122 159 212 269 330 370
#
# _framework density 19.943303
#
# number of rings (size 3 to 8) (size 9 to 14) (size 15 to 20)
#    0.000    1.333    5.000    2.500    0.000    1.333 
#    3.000    0.833    0.000    0.000    0.000    0.000 
#    0.000    0.000    0.000    0.000    0.000    0.000 
#
# Total GULP energy -595203.748544 kJ/mol
# GULP energy per Si atom -12400.078095 kJ/mol
# Density = 1.989791 g / cm^3
# Si number density = 19.943303 Si / 1000 Ang^3
#
#
#
# Elastic Constant Matrix: (Units=GPa)
#
#
# Indices 1 2 3 4 5 6 
#
# 1 118.6731 48.2221 39.2171 0.0000 0.0000 0.0000
# 2 48.2221 135.9397 40.0501 0.0000 0.0000 0.0000
# 3 39.2171 40.0501 69.7280 0.0000 0.0000 0.0000
# 4 0.0000 0.0000 0.0000 4.8446 0.0000 0.0000
# 5 0.0000 0.0000 0.0000 0.0000 20.2564 0.0000
# 6 0.0000 0.0000 0.0000 0.0000 0.0000 41.8358
#
#
#
# Elastic Compliance Matrix: (Units=1/GPa)
#
#
# Indices 1 2 3 4 5 6 
#
# 1 0.011017 -0.002507 -0.004756 0.000000 0.000000 0.000000
# 2 -0.002507 0.009425 -0.004004 0.000000 0.000000 0.000000
# 3 -0.004756 -0.004004 0.019316 0.000000 0.000000 0.000000
# 4 0.000000 0.000000 0.000000 0.206417 0.000000 0.000000
# 5 0.000000 0.000000 0.000000 0.000000 0.049367 0.000000
# 6 0.000000 0.000000 0.000000 0.000000 0.000000 0.023903
#
#
# Mechanical properties :
#
#
# Convention : Reuss Voigt Hill
#
# Bulk Modulus (GPa) = 58.05681 64.36882 61.21281
# Shear Modulus (GPa) = 14.37940 26.51080 20.44510
#
# Velocity S-wave (km/s) = 2.68808 3.64992 3.20529
# Velocity P-wave (km/s) = 6.22965 7.07874 6.66772
#
# Compressibility (1/GPa) = 0.01722451
#
# Stress axis : x y z
#
# Youngs Moduli (GPa) = 90.76944 106.10140 51.77005
#
# Poissons Ratio (x) = 0.26597 0.24624
# Poissons Ratio (y) = 0.22753 0.20727
# Poissons Ratio (z) = 0.43174 0.42479
#
# Static dielectric constant tensor:
#      x y z
#    x 4.004910 0.000000 0.000000 
#    y 0.000000 4.084740 0.000000 
#    z 0.000000 0.000000 3.085650 
# 
# 
# High freq. dielectric constant tensor:
#      x y z
#    x 1.794140 0.000000 0.000000 
#    y 0.000000 1.801330 0.000000 
#    z 0.000000 0.000000 1.710360 
# 
# From -- ./inp_files/22072.got.cif
#   From: 2010.03.12/outbox.cif.g09.slc.cpg/sg60_12_cif.got.tgz:22072.got - 2010.04.10 18:46:24.
