data_PCOD8246958
_publ_section_title
;
Structure prediction by ZEFSAII (Michael W. Deem and Ramdas Pophale) SiO2 
 PCOD8246958
Probable space group: P B C N
;
_chemical_formula_sum "Si O2"
_cell_formula_units_Z 52
_cell_length_a 15.697244
_cell_length_b 17.883281
_cell_length_c 8.793658
_cell_angle_alpha 90.000000
_cell_angle_beta 90.000000
_cell_angle_gamma 90.000000
_cell_volume 2468.540068
_symmetry_space_group_name_H-M "P B C N"
_symmetry_group_IT_number 60
_symmetry_cell_setting 'orthorhombic'
loop_
_space_group_symop_operation_xyz
x,y,z
1/2-x,1/2-y,1/2+z
1/2+x,1/2-y,-z
-x,y,1/2-z
-x,-y,-z
1/2+x,1/2+y,1/2-z
1/2-x,1/2+y,z
x,-y,1/2+z
loop_
_atom_site_type_symbol
_atom_site_label
_atom_site_fract_x
_atom_site_fract_y
_atom_site_fract_z
Si Si1 0.500000 0.294344 0.250000
Si Si2 0.790310 0.606237 0.584599
Si Si3 0.117615 0.545783 0.495360
Si Si4 0.715318 0.817583 0.417260
Si Si5 0.885872 0.741250 0.501188
Si Si6 0.620318 0.336358 0.997742
Si Si7 0.500000 0.006989 0.250000
Si Si8 0.500000 0.692646 0.250000
O O1 0.455811 0.242015 0.128248
O O2 0.428180 0.341460 0.340035
O O3 0.828578 0.524161 0.570025
O O4 0.784049 0.650027 0.745894
O O5 0.851542 0.657726 0.484885
O O6 0.696540 0.604035 0.508554
O O7 0.179213 0.616012 0.479268
O O8 0.075771 0.540878 0.665565
O O9 0.039880 0.558875 0.379811
O O10 0.811045 0.801612 0.473043
O O11 0.656353 0.745510 0.449775
O O12 0.931952 0.755552 0.661930
O O13 0.552398 0.359837 0.867414
#
# Coordination Sequence:
#
# PCOD8246958 Si02
#       8
#     4   8   8   8   8   8   4   4
#     4  10  20  37  58  96 110 155 190 254 294 349
#     4  11  22  41  58  90 118 161 191 247 282 360
#     4  11  24  40  64  79 130 158 200 231 298 334
#     4  11  22  41  58  90 118 161 191 247 282 360
#     4  10  22  37  65  85 122 148 201 239 301 341
#     4  10  22  37  65  85 122 148 201 239 301 341
#     4  10  24  40  54  96 116 166 196 236 270 370
#     4  10  20  37  60  98 110 155 186 258 292 343
#
# _framework density 21.065080999999999
#
# number of rings (size 3 to 8) (size 9 to 14) (size 15 to 20)
#    0.000    1.538    4.615    0.000    0.000    9.846 
#    0.000    0.000    0.000    5.538    0.000    0.000 
#    0.000    0.000    0.000    0.000    0.000    0.000 
#
# Total GULP energy -644281.648653 kJ/mol
# GULP energy per Si atom -12390.031705 kJ/mol
# Density = 2.101714 g / cm^3
# Si number density = 21.065081 Si / 1000 Ang^3
#
#
#
# Elastic Constant Matrix: (Units=GPa)
#
#
# Indices 1 2 3 4 5 6 
#
# 1 114.7373 33.5631 26.9616 0.0000 0.0000 0.0000
# 2 33.5631 73.8048 12.7497 0.0000 0.0000 0.0000
# 3 26.9616 12.7497 86.0689 0.0000 0.0000 0.0000
# 4 0.0000 0.0000 0.0000 13.0148 0.0000 0.0000
# 5 0.0000 0.0000 0.0000 0.0000 37.1113 0.0000
# 6 0.0000 0.0000 0.0000 0.0000 0.0000 6.1390
#
#
#
# Elastic Compliance Matrix: (Units=1/GPa)
#
#
# Indices 1 2 3 4 5 6 
#
# 1 0.010623 -0.004368 -0.002681 0.000000 0.000000 0.000000
# 2 -0.004368 0.015701 -0.000958 0.000000 0.000000 0.000000
# 3 -0.002681 -0.000958 0.012600 0.000000 0.000000 0.000000
# 4 0.000000 0.000000 0.000000 0.076835 0.000000 0.000000
# 5 0.000000 0.000000 0.000000 0.000000 0.026946 0.000000
# 6 0.000000 0.000000 0.000000 0.000000 0.000000 0.162893
#
#
# Mechanical properties :
#
#
# Convention : Reuss Voigt Hill
#
# Bulk Modulus (GPa) = 43.64525 46.79554 45.22040
# Shear Modulus (GPa) = 15.18610 24.67547 19.93079
#
# Velocity S-wave (km/s) = 2.68790 3.42627 3.07930
# Velocity P-wave (km/s) = 5.51337 6.15755 5.84434
#
# Compressibility (1/GPa) = 0.02291200
#
# Stress axis : x y z
#
# Youngs Moduli (GPa) = 94.13370 63.69027 79.36377
#
# Poissons Ratio (x) = 0.27819 0.21275
# Poissons Ratio (y) = 0.41116 0.07600
# Poissons Ratio (z) = 0.25235 0.06099
#
# Static dielectric constant tensor:
#      x y z
#    x 4.220950 0.000000 0.000000 
#    y 0.000000 3.256720 0.000000 
#    z 0.000000 0.000000 4.131160 
# 
# 
# High freq. dielectric constant tensor:
#      x y z
#    x 1.853130 0.000000 0.000000 
#    y 0.000000 1.766930 0.000000 
#    z 0.000000 0.000000 1.843620 
# 
# From -- ./inp_files/6887.got.cif
#   From: 2010.03.12/outbox.cif.g09.slc.cpg/sg60_4_cif.got.tgz:6887.got - 2010.04.10 18:46:24.
