data_PCOD8246244
_publ_section_title
;
Structure prediction by ZEFSAII (Michael W. Deem and Ramdas Pophale) SiO2 
 PCOD8246244
Probable space group: P M M N
;
_chemical_formula_sum "Si O2"
_cell_formula_units_Z 48
_cell_length_a 10.388969
_cell_length_b 13.478062
_cell_length_c 18.213851
_cell_angle_alpha 90.000000
_cell_angle_beta 90.000000
_cell_angle_gamma 90.000000
_cell_volume 2550.361124
_symmetry_space_group_name_H-M "P M M N"
_symmetry_group_IT_number 59
_space_group.IT_coordinate_system_code '2'
_symmetry_cell_setting 'orthorhombic'
loop_
_space_group_symop_operation_xyz
x,y,z
1/2-x,1/2-y,z
1/2+x,-y,-z
-x,1/2+y,-z
-x,-y,-z
1/2+x,1/2+y,-z
1/2-x,y,z
x,1/2-y,z
loop_
_atom_site_type_symbol
_atom_site_label
_atom_site_fract_x
_atom_site_fract_y
_atom_site_fract_z
Si Si1 0.465250 0.139961 0.452617
Si Si2 0.604790 0.861296 0.992801
Si Si3 0.388639 0.568349 0.413023
Si Si4 0.104043 0.553658 0.095831
Si Si5 0.608183 0.137641 0.307630
Si Si6 0.897858 0.005469 0.741949
O O1 0.400125 0.250000 0.446475
O O2 0.511544 0.126330 0.536395
O O3 0.583138 0.131872 0.395224
O O4 0.371668 0.049048 0.433372
O O5 0.750000 0.875024 0.024678
O O6 0.587311 0.750000 0.961449
O O7 0.500261 0.876924 0.056844
O O8 0.580979 0.938790 0.926957
O O9 0.250000 0.618392 0.424500
O O10 0.429282 0.577392 0.327324
O O11 0.250000 0.586512 0.074672
O O12 0.082613 0.565265 0.182790
O O13 0.750000 0.090756 0.293465
O O14 0.606768 0.250000 0.280145
O O15 0.498163 0.084757 0.260028
O O16 0.750000 0.965891 0.736492
#
# Coordination Sequence:
#
# PCOD8246244 Si02
#       6
#     8   8   8   8   8   8
#     4   9  17  29  45  64  88 121 160 200 239 277
#     4   9  18  33  53  75  97 124 159 195 232 279
#     4   9  17  29  45  66  91 120 156 196 236 279
#     4   9  18  33  52  74 100 128 157 192 235 282
#     4   9  17  28  43  65  91 121 160 202 242 282
#     4   9  18  31  46  67  96 126 155 189 234 285
#
# _framework density 18.820865000000001
#
# number of rings (size 3 to 8) (size 9 to 14) (size 15 to 20)
#    0.000    3.000    0.000    0.500    0.000    3.333 
#    0.000    5.833    0.000    3.000    0.000    0.000 
#    0.000    0.000    0.000    0.000    0.000    0.000 
#
# Total GULP energy -594709.127914 kJ/mol
# GULP energy per Si atom -12389.773498 kJ/mol
# Density = 1.877803 g / cm^3
# Si number density = 18.820865 Si / 1000 Ang^3
#
#
#
# Elastic Constant Matrix: (Units=GPa)
#
#
# Indices 1 2 3 4 5 6 
#
# 1 82.1614 2.6142 19.9363 0.0000 0.0000 0.0000
# 2 2.6142 46.4439 -1.3538 0.0000 0.0000 0.0000
# 3 19.9363 -1.3538 87.1643 0.0000 0.0000 0.0000
# 4 0.0000 0.0000 0.0000 16.0194 0.0000 0.0000
# 5 0.0000 0.0000 0.0000 0.0000 20.6149 0.0000
# 6 0.0000 0.0000 0.0000 0.0000 0.0000 19.0460
#
#
#
# Elastic Compliance Matrix: (Units=1/GPa)
#
#
# Indices 1 2 3 4 5 6 
#
# 1 0.012917 -0.000814 -0.002967 0.000000 0.000000 0.000000
# 2 -0.000814 0.021592 0.000521 0.000000 0.000000 0.000000
# 3 -0.002967 0.000521 0.012159 0.000000 0.000000 0.000000
# 4 0.000000 0.000000 0.000000 0.062424 0.000000 0.000000
# 5 0.000000 0.000000 0.000000 0.000000 0.048509 0.000000
# 6 0.000000 0.000000 0.000000 0.000000 0.000000 0.052505
#
#
# Mechanical properties :
#
#
# Convention : Reuss Voigt Hill
#
# Bulk Modulus (GPa) = 24.90638 28.68478 26.79558
# Shear Modulus (GPa) = 21.73838 24.10758 22.92298
#
# Velocity S-wave (km/s) = 3.40224 3.58284 3.49371
# Velocity P-wave (km/s) = 5.35684 5.69120 5.52655
#
# Compressibility (1/GPa) = 0.04015036
#
# Stress axis : x y z
#
# Youngs Moduli (GPa) = 77.41745 46.31276 82.24155
#
# Poissons Ratio (x) = 0.03768 0.24401
# Poissons Ratio (y) = 0.06298 -0.04288
# Poissons Ratio (z) = 0.22970 -0.02415
#
# Static dielectric constant tensor:
#      x y z
#    x 3.454350 0.000000 0.000000 
#    y 0.000000 3.230150 0.000000 
#    z 0.000000 0.000000 3.363160 
# 
# 
# High freq. dielectric constant tensor:
#      x y z
#    x 1.728420 0.000000 0.000000 
#    y 0.000000 1.704100 0.000000 
#    z 0.000000 0.000000 1.718600 
# 
# From -- ./inp_files/26905.got.cif
#   From: 2010.03.12/outbox.cif.g09.slc.cpg/sg59_14_cif.got.tgz:26905.got - 2010.04.16 16:29:54.
