data_PCOD8246300
_publ_section_title
;
Structure prediction by ZEFSAII (Michael W. Deem and Ramdas Pophale) SiO2 
 PCOD8246300
Probable space group: P B C N
;
_chemical_formula_sum "Si O2"
_cell_formula_units_Z 52
_cell_length_a 10.677238
_cell_length_b 28.984220
_cell_length_c 8.299285
_cell_angle_alpha 90.000000
_cell_angle_beta 90.000000
_cell_angle_gamma 90.000000
_cell_volume 2568.391474
_symmetry_space_group_name_H-M "P B C N"
_symmetry_group_IT_number 60
_symmetry_cell_setting 'orthorhombic'
loop_
_space_group_symop_operation_xyz
x,y,z
1/2-x,1/2-y,1/2+z
1/2+x,1/2-y,-z
-x,y,1/2-z
-x,-y,-z
1/2+x,1/2+y,1/2-z
1/2-x,1/2+y,z
x,-y,1/2+z
loop_
_atom_site_type_symbol
_atom_site_label
_atom_site_fract_x
_atom_site_fract_y
_atom_site_fract_z
Si Si1 0.693704 0.536879 0.552612
Si Si2 0.128852 0.708678 0.847073
Si Si3 0.320956 0.366923 0.023884
Si Si4 0.859398 0.945951 0.705927
Si Si5 0.000000 0.082793 0.750000
Si Si6 0.361394 0.107261 0.762213
Si Si7 0.626814 0.728556 0.855824
O O1 0.721720 0.549892 0.368626
O O2 0.701121 0.481510 0.577287
O O3 0.552542 0.551692 0.603734
O O4 0.789199 0.563869 0.664991
O O5 0.148937 0.653782 0.869262
O O6 0.250290 0.730873 0.757955
O O7 0.000000 0.719493 0.750000
O O8 0.118438 0.726881 0.030057
O O9 0.393059 0.385014 0.181307
O O10 0.178884 0.377527 0.079429
O O11 0.357084 0.313295 0.014145
O O12 0.353220 0.393524 0.859395
O O13 0.000000 0.959892 0.750000
O O14 0.500000 0.088292 0.750000
O O15 0.500000 0.724336 0.750000
#
# Coordination Sequence:
#
# PCOD8246300 Si02
#       7
#     8   8   8   8   4   8   8
#     4  11  21  35  58  85 116 156 196 238 294 358
#     4  10  22  40  61  88 123 164 204 249 314 370
#     4  10  21  35  58  87 121 155 195 241 302 350
#     4  12  22  35  56  92 125 152 193 243 308 364
#     4  10  16  34  54  80 118 150 182 236 286 346
#     4   9  21  42  61  77 113 162 202 245 298 351
#     4  11  22  39  64  93 126 161 204 258 305 364
#
# _framework density 20.246134000000001
#
# number of rings (size 3 to 8) (size 9 to 14) (size 15 to 20)
#    0.000    1.538    3.077    3.231    0.000    1.846 
#    0.000    3.846    0.000    0.000    0.000    0.000 
#    0.000    0.000    0.000    0.000    0.000    0.000 
#
# Total GULP energy -644550.634609 kJ/mol
# GULP energy per Si atom -12395.204512 kJ/mol
# Density = 2.020005 g / cm^3
# Si number density = 20.246134 Si / 1000 Ang^3
#
#
#
# Elastic Constant Matrix: (Units=GPa)
#
#
# Indices 1 2 3 4 5 6 
#
# 1 107.4882 19.7384 19.8006 0.0000 0.0000 0.0000
# 2 19.7384 91.3409 32.3513 0.0000 0.0000 0.0000
# 3 19.8006 32.3513 90.6690 0.0000 0.0000 0.0000
# 4 0.0000 0.0000 0.0000 34.2281 0.0000 0.0000
# 5 0.0000 0.0000 0.0000 0.0000 15.8360 0.0000
# 6 0.0000 0.0000 0.0000 0.0000 0.0000 17.9167
#
#
#
# Elastic Compliance Matrix: (Units=1/GPa)
#
#
# Indices 1 2 3 4 5 6 
#
# 1 0.009886 -0.001570 -0.001599 0.000000 0.000000 0.000000
# 2 -0.001570 0.012781 -0.004217 0.000000 0.000000 0.000000
# 3 -0.001599 -0.004217 0.012883 0.000000 0.000000 0.000000
# 4 0.000000 0.000000 0.000000 0.029216 0.000000 0.000000
# 5 0.000000 0.000000 0.000000 0.000000 0.063147 0.000000
# 6 0.000000 0.000000 0.000000 0.000000 0.000000 0.055814
#
#
# Mechanical properties :
#
#
# Convention : Reuss Voigt Hill
#
# Bulk Modulus (GPa) = 48.12864 48.14205 48.13534
# Shear Modulus (GPa) = 24.33972 28.10336 26.22154
#
# Velocity S-wave (km/s) = 3.47102 3.72974 3.60271
# Velocity P-wave (km/s) = 6.31565 6.50984 6.41348
#
# Compressibility (1/GPa) = 0.02077765
#
# Stress axis : x y z
#
# Youngs Moduli (GPa) = 101.15135 78.24082 77.62114
#
# Poissons Ratio (x) = 0.12285 0.12410
# Poissons Ratio (y) = 0.15882 0.32737
# Poissons Ratio (z) = 0.16172 0.32998
#
# Static dielectric constant tensor:
#      x y z
#    x 3.802860 0.000000 0.000000 
#    y 0.000000 3.636480 0.000000 
#    z 0.000000 0.000000 3.496940 
# 
# 
# High freq. dielectric constant tensor:
#      x y z
#    x 1.783710 0.000000 0.000000 
#    y 0.000000 1.793110 0.000000 
#    z 0.000000 0.000000 1.776800 
# 
# From -- ./inp_files/5279.got.cif
#   From: 2010.03.12/outbox.cif.g09.slc.cpg/sg60_3_cif.got.tgz:5279.got - 2010.04.10 18:46:24.
