data_PCOD8246622
_publ_section_title
;
Structure prediction by ZEFSAII (Michael W. Deem and Ramdas Pophale) SiO2 
 PCOD8246622
Probable space group: P B C N
;
_chemical_formula_sum "Si O2"
_cell_formula_units_Z 40
_cell_length_a 14.968968
_cell_length_b 14.087781
_cell_length_c 9.023532
_cell_angle_alpha 90.000000
_cell_angle_beta 90.000000
_cell_angle_gamma 90.000000
_cell_volume 1902.878304
_symmetry_space_group_name_H-M "P B C N"
_symmetry_group_IT_number 60
_symmetry_cell_setting 'orthorhombic'
loop_
_space_group_symop_operation_xyz
x,y,z
1/2-x,1/2-y,1/2+z
1/2+x,1/2-y,-z
-x,y,1/2-z
-x,-y,-z
1/2+x,1/2+y,1/2-z
1/2-x,1/2+y,z
x,-y,1/2+z
loop_
_atom_site_type_symbol
_atom_site_label
_atom_site_fract_x
_atom_site_fract_y
_atom_site_fract_z
Si Si1 0.193610 0.071054 0.946430
Si Si2 0.574293 0.927160 0.557000
Si Si3 0.052239 0.926857 0.900737
Si Si4 0.192233 0.489757 0.194703
Si Si5 0.531651 0.711643 0.588547
O O1 0.125663 0.159595 0.949822
O O2 0.151828 0.968506 0.896145
O O3 0.264118 0.083787 0.812361
O O4 0.239516 0.061995 0.108969
O O5 0.614466 0.952526 0.718774
O O6 0.533947 0.823352 0.570495
O O7 0.500000 0.000000 0.500000
O O8 0.651620 0.924291 0.434208
O O9 0.000000 0.920990 0.750000
O O10 0.046385 0.823562 0.977015
O O11 0.000000 0.000000 0.000000
O O12 0.500000 0.680179 0.750000
#
# Coordination Sequence:
#
# PCOD8246622 Si02
#       5
#     8   8   8   8   8
#     4  10  19  37  60  91 121 144 189 241 305 357
#     4  11  24  43  60  80 114 161 210 246 292 353
#     4  10  19  34  59  91 125 155 184 232 293 357
#     4  10  22  39  61  81 116 158 190 251 301 345
#     4  11  22  37  62  89 119 158 195 240 290 354
#
# _framework density 21.020788
#
# number of rings (size 3 to 8) (size 9 to 14) (size 15 to 20)
#    0.000    1.600    0.000    7.800    0.000    3.200 
#    0.000    8.000    0.000    0.000    0.000    0.000 
#    0.000    0.000    0.000    0.000    0.000    0.000 
#
# Total GULP energy -495718.356258 kJ/mol
# GULP energy per Si atom -12392.958906 kJ/mol
# Density = 2.097294 g / cm^3
# Si number density = 21.020788 Si / 1000 Ang^3
#
#
#
# Elastic Constant Matrix: (Units=GPa)
#
#
# Indices 1 2 3 4 5 6 
#
# 1 74.8619 33.4440 29.5189 0.0000 0.0000 0.0000
# 2 33.4440 105.3015 37.6204 0.0000 0.0000 0.0000
# 3 29.5189 37.6204 148.4774 0.0000 0.0000 0.0000
# 4 0.0000 0.0000 0.0000 20.9195 0.0000 0.0000
# 5 0.0000 0.0000 0.0000 0.0000 51.3389 0.0000
# 6 0.0000 0.0000 0.0000 0.0000 0.0000 29.0399
#
#
#
# Elastic Compliance Matrix: (Units=1/GPa)
#
#
# Indices 1 2 3 4 5 6 
#
# 1 0.016141 -0.004376 -0.002100 0.000000 0.000000 0.000000
# 2 -0.004376 0.011628 -0.002076 0.000000 0.000000 0.000000
# 3 -0.002100 -0.002076 0.007679 0.000000 0.000000 0.000000
# 4 0.000000 0.000000 0.000000 0.047802 0.000000 0.000000
# 5 0.000000 0.000000 0.000000 0.000000 0.019478 0.000000
# 6 0.000000 0.000000 0.000000 0.000000 0.000000 0.034435
#
#
# Mechanical properties :
#
#
# Convention : Reuss Voigt Hill
#
# Bulk Modulus (GPa) = 54.51761 58.86750 56.69255
# Shear Modulus (GPa) = 31.17529 35.46349 33.31939
#
# Velocity S-wave (km/s) = 3.85524 4.11185 3.98561
# Velocity P-wave (km/s) = 6.76820 7.11395 6.94323
#
# Compressibility (1/GPa) = 0.01834270
#
# Stress axis : x y z
#
# Youngs Moduli (GPa) = 61.95381 85.99802 130.23125
#
# Poissons Ratio (x) = 0.37634 0.27351
# Poissons Ratio (y) = 0.27112 0.27039
# Poissons Ratio (z) = 0.13012 0.17855
#
# Static dielectric constant tensor:
#      x y z
#    x 4.459960 0.000000 0.000000 
#    y 0.000000 3.773580 0.000000 
#    z 0.000000 0.000000 4.536130 
# 
# 
# High freq. dielectric constant tensor:
#      x y z
#    x 1.827380 0.000000 0.000000 
#    y 0.000000 1.790060 0.000000 
#    z 0.000000 0.000000 1.853010 
# 
# From -- ./inp_files/5667.got.cif
#   From: 2010.03.12/outbox.cif.g09.slc.cpg/sg60_3_cif.got.tgz:5667.got - 2010.04.10 18:46:24.
