data_PCOD8246448
_publ_section_title
;
Structure prediction by ZEFSAII (Michael W. Deem and Ramdas Pophale) SiO2 
 PCOD8246448
Probable space group: P B C N
;
_chemical_formula_sum "Si O2"
_cell_formula_units_Z 64
_cell_length_a 22.564761
_cell_length_b 11.776310
_cell_length_c 13.465899
_cell_angle_alpha 90.000000
_cell_angle_beta 90.000000
_cell_angle_gamma 90.000000
_cell_volume 3578.288232
_symmetry_space_group_name_H-M "P B C N"
_symmetry_group_IT_number 60
_symmetry_cell_setting 'orthorhombic'
loop_
_space_group_symop_operation_xyz
x,y,z
1/2-x,1/2-y,1/2+z
1/2+x,1/2-y,-z
-x,y,1/2-z
-x,-y,-z
1/2+x,1/2+y,1/2-z
1/2-x,1/2+y,z
x,-y,1/2+z
loop_
_atom_site_type_symbol
_atom_site_label
_atom_site_fract_x
_atom_site_fract_y
_atom_site_fract_z
Si Si1 0.892628 0.951343 0.783744
Si Si2 0.679731 0.126719 0.189308
Si Si3 0.116224 0.162478 0.846949
Si Si4 0.035520 0.110003 0.026750
Si Si5 0.283371 0.691866 0.183749
Si Si6 0.771437 0.209763 0.547165
Si Si7 0.043813 0.239762 0.332960
Si Si8 0.164478 0.635495 0.835093
O O1 0.916157 0.931882 0.894135
O O2 0.824557 0.913270 0.785052
O O3 0.931147 0.879436 0.706517
O O4 0.896428 0.080990 0.746733
O O5 0.621129 0.207358 0.192479
O O6 0.717194 0.155670 0.287780
O O7 0.660230 0.997645 0.184908
O O8 0.720593 0.163204 0.094005
O O9 0.064678 0.159355 0.927893
O O10 0.179155 0.128747 0.899620
O O11 0.993727 0.210814 0.068559
O O12 0.000000 0.000000 0.000000
O O13 0.284138 0.719114 0.068261
O O14 0.307096 0.804878 0.238637
O O15 0.705802 0.161825 0.569620
O O16 0.097602 0.324187 0.357676
O O17 0.000000 0.294526 0.250000
#
# Coordination Sequence:
#
# PCOD8246448 Si02
#       8
#     8   8   8   8   8   8   8   8
#     4  10  18  35  58  85 114 149 190 243 287 341
#     4   9  21  37  54  83 121 149 184 238 293 345
#     4  10  20  37  56  85 123 147 188 245 297 347
#     4  11  20  36  59  86 114 155 197 244 296 340
#     4  10  19  35  60  86 112 152 192 227 295 356
#     4   9  20  37  57  88 114 154 185 240 293 351
#     4   9  20  35  59  81 105 150 206 237 277 340
#     4  10  20  39  58  83 120 151 196 243 284 355
#
# _framework density 17.885646999999999
#
# number of rings (size 3 to 8) (size 9 to 14) (size 15 to 20)
#    0.750    1.500    2.500    0.750    0.000    1.000 
#    2.250    0.625    2.750    0.000    0.000    0.000 
#    0.000    0.000    0.000    0.000    0.000    0.000 
#
# Total GULP energy -793214.442446 kJ/mol
# GULP energy per Si atom -12393.975663 kJ/mol
# Density = 1.784494 g / cm^3
# Si number density = 17.885647 Si / 1000 Ang^3
#
#
#
# Elastic Constant Matrix: (Units=GPa)
#
#
# Indices 1 2 3 4 5 6 
#
# 1 82.3957 30.9756 1.8727 0.0000 0.0000 0.0000
# 2 30.9756 118.3226 16.5637 0.0000 0.0000 0.0000
# 3 1.8727 16.5637 49.5530 0.0000 0.0000 0.0000
# 4 0.0000 0.0000 0.0000 13.1122 0.0000 0.0000
# 5 0.0000 0.0000 0.0000 0.0000 31.4509 0.0000
# 6 0.0000 0.0000 0.0000 0.0000 0.0000 25.6092
#
#
#
# Elastic Compliance Matrix: (Units=1/GPa)
#
#
# Indices 1 2 3 4 5 6 
#
# 1 0.013485 -0.003629 0.000703 0.000000 0.000000 0.000000
# 2 -0.003629 0.009843 -0.003153 0.000000 0.000000 0.000000
# 3 0.000703 -0.003153 0.021208 0.000000 0.000000 0.000000
# 4 0.000000 0.000000 0.000000 0.076265 0.000000 0.000000
# 5 0.000000 0.000000 0.000000 0.000000 0.031796 0.000000
# 6 0.000000 0.000000 0.000000 0.000000 0.000000 0.039048
#
#
# Mechanical properties :
#
#
# Convention : Reuss Voigt Hill
#
# Bulk Modulus (GPa) = 30.88450 38.78837 34.83644
# Shear Modulus (GPa) = 23.29988 27.42507 25.36248
#
# Velocity S-wave (km/s) = 3.61323 3.92006 3.76977
# Velocity P-wave (km/s) = 5.89173 6.49793 6.20224
#
# Compressibility (1/GPa) = 0.03237870
#
# Stress axis : x y z
#
# Youngs Moduli (GPa) = 74.15809 101.59735 47.15262
#
# Poissons Ratio (x) = 0.36866 -0.03316
# Poissons Ratio (y) = 0.26909 0.14867
# Poissons Ratio (z) = -0.05215 0.32033
#
# Static dielectric constant tensor:
#      x y z
#    x 2.865630 0.000000 0.000000 
#    y 0.000000 3.063830 0.000000 
#    z 0.000000 0.000000 3.136380 
# 
# 
# High freq. dielectric constant tensor:
#      x y z
#    x 1.694850 0.000000 0.000000 
#    y 0.000000 1.668330 0.000000 
#    z 0.000000 0.000000 1.686230 
# 
# From -- ./inp_files/13144.got.cif
#   From: 2010.03.12/outbox.cif.g09.slc.cpg/sg60_7_cif.got.tgz:13144.got - 2010.04.10 18:46:24.
