data_PCOD8246963
_publ_section_title
;
Structure prediction by ZEFSAII (Michael W. Deem and Ramdas Pophale) SiO2 
 PCOD8246963
Probable space group: P B C N
;
_chemical_formula_sum "Si O2"
_cell_formula_units_Z 32
_cell_length_a 11.655578
_cell_length_b 7.876239
_cell_length_c 14.666128
_cell_angle_alpha 90.000000
_cell_angle_beta 90.000000
_cell_angle_gamma 90.000000
_cell_volume 1346.381613
_symmetry_space_group_name_H-M "P B C N"
_symmetry_group_IT_number 60
_symmetry_cell_setting 'orthorhombic'
loop_
_space_group_symop_operation_xyz
x,y,z
1/2-x,1/2-y,1/2+z
1/2+x,1/2-y,-z
-x,y,1/2-z
-x,-y,-z
1/2+x,1/2+y,1/2-z
1/2-x,1/2+y,z
x,-y,1/2+z
loop_
_atom_site_type_symbol
_atom_site_label
_atom_site_fract_x
_atom_site_fract_y
_atom_site_fract_z
Si Si1 0.628872 0.503406 0.381877
Si Si2 0.043328 0.223836 0.966915
Si Si3 0.574140 0.932039 0.113489
Si Si4 0.652893 0.845618 0.297883
O O1 0.516431 0.383325 0.385805
O O2 0.634656 0.604535 0.479338
O O3 0.620293 0.646269 0.303802
O O4 0.736708 0.384856 0.359332
O O5 0.111050 0.386241 0.928015
O O6 0.941202 0.288703 0.035447
O O7 0.668971 0.882504 0.189796
O O8 0.450469 0.957501 0.161977
#
# Coordination Sequence:
#
# PCOD8246963 Si02
#       4
#     8   8   8   8
#     4  10  20  37  61  90 123 162 206 251 303 371
#     4   9  19  39  65  87 120 162 205 257 306 359
#     4   9  19  39  63  87 121 162 202 257 314 362
#     4  10  20  37  59  88 124 159 203 254 311 369
#
# _framework density 23.767406999999999
#
# number of rings (size 3 to 8) (size 9 to 14) (size 15 to 20)
#    0.000    2.500    0.000    1.500    0.000    0.000 
#    0.000   45.000    0.000    3.000    0.000    0.000 
#    0.000    0.000    0.000    0.000    0.000    0.000 
#
# Total GULP energy -396522.673060 kJ/mol
# GULP energy per Si atom -12391.333533 kJ/mol
# Density = 2.371331 g / cm^3
# Si number density = 23.767407 Si / 1000 Ang^3
#
#
#
# Elastic Constant Matrix: (Units=GPa)
#
#
# Indices 1 2 3 4 5 6 
#
# 1 59.4393 22.0687 33.5708 0.0000 0.0000 0.0000
# 2 22.0687 139.0700 57.9939 0.0000 0.0000 0.0000
# 3 33.5708 57.9939 112.3329 0.0000 0.0000 0.0000
# 4 0.0000 0.0000 0.0000 29.3787 0.0000 0.0000
# 5 0.0000 0.0000 0.0000 0.0000 36.4891 0.0000
# 6 0.0000 0.0000 0.0000 0.0000 0.0000 22.5560
#
#
#
# Elastic Compliance Matrix: (Units=1/GPa)
#
#
# Indices 1 2 3 4 5 6 
#
# 1 0.020325 -0.000882 -0.005619 0.000000 0.000000 0.000000
# 2 -0.000882 0.009202 -0.004487 0.000000 0.000000 0.000000
# 3 -0.005619 -0.004487 0.012898 0.000000 0.000000 0.000000
# 4 0.000000 0.000000 0.000000 0.034038 0.000000 0.000000
# 5 0.000000 0.000000 0.000000 0.000000 0.027405 0.000000
# 6 0.000000 0.000000 0.000000 0.000000 0.000000 0.044334
#
#
# Mechanical properties :
#
#
# Convention : Reuss Voigt Hill
#
# Bulk Modulus (GPa) = 48.90292 59.78990 54.34641
# Shear Modulus (GPa) = 28.24958 30.83200 29.54079
#
# Velocity S-wave (km/s) = 3.45133 3.60563 3.52932
# Velocity P-wave (km/s) = 6.04173 6.52265 6.28679
#
# Compressibility (1/GPa) = 0.02044868
#
# Stress axis : x y z
#
# Youngs Moduli (GPa) = 49.20093 108.67538 77.53338
#
# Poissons Ratio (x) = 0.09588 0.43563
# Poissons Ratio (y) = 0.04341 0.34788
# Poissons Ratio (z) = 0.27644 0.48761
#
# Static dielectric constant tensor:
#      x y z
#    x 3.698190 0.000000 0.000000 
#    y 0.000000 4.363210 0.000000 
#    z 0.000000 0.000000 4.451210 
# 
# 
# High freq. dielectric constant tensor:
#      x y z
#    x 1.888010 0.000000 0.000000 
#    y 0.000000 1.955190 0.000000 
#    z 0.000000 0.000000 1.938360 
# 
# From -- ./inp_files/15572.got.cif
#   From: 2010.03.12/outbox.cif.g09.slc.cpg/sg60_8_cif.got.tgz:15572.got - 2010.04.10 18:46:24.
