data_PCOD8246915
_publ_section_title
;
Structure prediction by ZEFSAII (Michael W. Deem and Ramdas Pophale) SiO2 
 PCOD8246915
Probable space group: P B C N
;
_chemical_formula_sum "Si O2"
_cell_formula_units_Z 44
_cell_length_a 9.568377
_cell_length_b 16.973407
_cell_length_c 13.558408
_cell_angle_alpha 90.000000
_cell_angle_beta 90.000000
_cell_angle_gamma 90.000000
_cell_volume 2201.993345
_symmetry_space_group_name_H-M "P B C N"
_symmetry_group_IT_number 60
_symmetry_cell_setting 'orthorhombic'
loop_
_space_group_symop_operation_xyz
x,y,z
1/2-x,1/2-y,1/2+z
1/2+x,1/2-y,-z
-x,y,1/2-z
-x,-y,-z
1/2+x,1/2+y,1/2-z
1/2-x,1/2+y,z
x,-y,1/2+z
loop_
_atom_site_type_symbol
_atom_site_label
_atom_site_fract_x
_atom_site_fract_y
_atom_site_fract_z
Si Si1 0.056221 0.747836 0.447375
Si Si2 0.796112 0.336742 0.948206
Si Si3 0.113875 0.869267 0.171641
Si Si4 0.770205 0.722036 0.239827
Si Si5 0.000000 0.133997 0.250000
Si Si6 0.383124 0.525609 0.077089
O O1 0.175731 0.773182 0.523716
O O2 0.125313 0.709028 0.350807
O O3 0.946639 0.684954 0.497547
O O4 0.963334 0.822925 0.416474
O O5 0.823883 0.330406 0.831174
O O6 0.742294 0.424742 0.975639
O O7 0.228003 0.814401 0.226941
O O8 0.000000 0.899080 0.250000
O O9 0.184514 0.947519 0.126020
O O10 0.618100 0.692646 0.207925
O O11 0.950484 0.081598 0.340803
O O12 0.500000 0.500000 0.000000
#
# Coordination Sequence:
#
# PCOD8246915 Si02
#       6
#     8   8   8   8   4   8
#     4  10  20  36  59  84 119 152 204 245 298 361
#     4  10  21  34  57  89 113 160 200 247 298 357
#     4   9  17  35  56  81 110 155 195 242 294 353
#     4   9  21  36  60  81 115 155 202 252 293 355
#     4  10  22  36  60  92 114 154 210 248 296 368
#     4  11  20  34  58  88 121 153 200 248 303 363
#
# _framework density 19.981895000000002
#
# number of rings (size 3 to 8) (size 9 to 14) (size 15 to 20)
#    0.000    2.182    2.727    1.636    5.091    0.000 
#    0.000    0.000    8.000    7.636    0.000    0.000 
#    0.000    0.000    0.000    0.000    0.000    0.000 
#
# Total GULP energy -545194.219849 kJ/mol
# GULP energy per Si atom -12390.777724 kJ/mol
# Density = 1.993642 g / cm^3
# Si number density = 19.981895 Si / 1000 Ang^3
#
#
#
# Elastic Constant Matrix: (Units=GPa)
#
#
# Indices 1 2 3 4 5 6 
#
# 1 117.6305 67.9249 22.6737 0.0000 0.0000 0.0000
# 2 67.9249 120.6735 27.8879 0.0000 0.0000 0.0000
# 3 22.6737 27.8879 49.6049 0.0000 0.0000 0.0000
# 4 0.0000 0.0000 0.0000 24.5731 0.0000 0.0000
# 5 0.0000 0.0000 0.0000 0.0000 25.9739 0.0000
# 6 0.0000 0.0000 0.0000 0.0000 0.0000 37.3794
#
#
#
# Elastic Compliance Matrix: (Units=1/GPa)
#
#
# Indices 1 2 3 4 5 6 
#
# 1 0.012776 -0.006714 -0.002065 0.000000 0.000000 0.000000
# 2 -0.006714 0.013053 -0.004269 0.000000 0.000000 0.000000
# 3 -0.002065 -0.004269 0.023503 0.000000 0.000000 0.000000
# 4 0.000000 0.000000 0.000000 0.040695 0.000000 0.000000
# 5 0.000000 0.000000 0.000000 0.000000 0.038500 0.000000
# 6 0.000000 0.000000 0.000000 0.000000 0.000000 0.026753
#
#
# Mechanical properties :
#
#
# Convention : Reuss Voigt Hill
#
# Bulk Modulus (GPa) = 43.03815 58.32022 50.67919
# Shear Modulus (GPa) = 26.43781 28.88010 27.65896
#
# Velocity S-wave (km/s) = 3.64137 3.80585 3.72452
# Velocity P-wave (km/s) = 6.26616 6.96869 6.62674
#
# Compressibility (1/GPa) = 0.02323520
#
# Stress axis : x y z
#
# Youngs Moduli (GPa) = 78.26931 76.61165 42.54698
#
# Poissons Ratio (x) = 0.51440 0.08786
# Poissons Ratio (y) = 0.52553 0.18165
# Poissons Ratio (z) = 0.16163 0.32708
#
# Static dielectric constant tensor:
#      x y z
#    x 3.857970 0.000000 0.000000 
#    y 0.000000 3.815870 0.000000 
#    z 0.000000 0.000000 3.598260 
# 
# 
# High freq. dielectric constant tensor:
#      x y z
#    x 1.760800 0.000000 0.000000 
#    y 0.000000 1.766010 0.000000 
#    z 0.000000 0.000000 1.776570 
# 
# From -- ./inp_files/14889.got.cif
#   From: 2010.03.12/outbox.cif.g09.slc.cpg/sg60_8_cif.got.tgz:14889.got - 2010.04.10 18:46:24.
