data_PCOD8246198
_publ_section_title
;
Structure prediction by ZEFSAII (Michael W. Deem and Ramdas Pophale) SiO2 
 PCOD8246198
Probable space group: P M M N
;
_chemical_formula_sum "Si O2"
_cell_formula_units_Z 48
_cell_length_a 9.450475
_cell_length_b 18.817669
_cell_length_c 16.263633
_cell_angle_alpha 90.000000
_cell_angle_beta 90.000000
_cell_angle_gamma 90.000000
_cell_volume 2892.257982
_symmetry_space_group_name_H-M "P M M N"
_symmetry_group_IT_number 59
_space_group.IT_coordinate_system_code '2'
_symmetry_cell_setting 'orthorhombic'
loop_
_space_group_symop_operation_xyz
x,y,z
1/2-x,1/2-y,z
1/2+x,-y,-z
-x,1/2+y,-z
-x,-y,-z
1/2+x,1/2+y,-z
1/2-x,y,z
x,1/2-y,z
loop_
_atom_site_type_symbol
_atom_site_label
_atom_site_fract_x
_atom_site_fract_y
_atom_site_fract_z
Si Si1 0.417864 0.828620 0.838284
Si Si2 0.083587 0.896358 0.670750
Si Si3 0.588628 0.667586 0.526279
Si Si4 0.418810 0.171839 0.658821
Si Si5 0.416806 0.460850 0.754809
Si Si6 0.418307 0.971089 0.922048
O O1 0.250000 0.829116 0.836352
O O2 0.475460 0.750000 0.863606
O O3 0.470642 0.847190 0.746274
O O4 0.465900 0.889397 0.903089
O O5 0.250000 0.886662 0.657575
O O6 0.007072 0.877569 0.586899
O O7 0.042269 0.977279 0.691326
O O8 0.750000 0.641978 0.535423
O O9 0.575023 0.750000 0.548899
O O10 0.532523 0.653875 0.433864
O O11 0.250000 0.172014 0.660156
O O12 0.475032 0.250000 0.685125
O O13 0.482277 0.113410 0.721870
O O14 0.250000 0.454295 0.758821
O O15 0.469701 0.479525 0.846287
O O16 0.250000 0.975763 0.936051
O O17 0.500000 0.000000 0.000000
#
# Coordination Sequence:
#
# PCOD8246198 Si02
#       6
#     8   8   8   8   8   8
#     4   8  14  26  44  63  83 112 147 172 196 246
#     4   9  16  26  43  65  86 110 141 177 212 245
#     4   9  17  27  39  59  87 116 145 176 209 245
#     4   8  14  26  43  60  82 116 151 177 204 243
#     4   8  15  28  44  62  83 109 144 178 206 246
#     4   9  17  30  48  67  87 110 136 172 215 255
#
# _framework density 16.596029999999999
#
# number of rings (size 3 to 8) (size 9 to 14) (size 15 to 20)
#    0.000    3.500    0.000    3.500    0.000    1.667 
#    0.000    4.167    0.000    3.500    0.000    0.000 
#    0.000    0.000    0.000    0.000    0.000    0.000 
#
# Total GULP energy -594761.672036 kJ/mol
# GULP energy per Si atom -12390.868167 kJ/mol
# Density = 1.655826 g / cm^3
# Si number density = 16.596030 Si / 1000 Ang^3
#
#
#
# Elastic Constant Matrix: (Units=GPa)
#
#
# Indices 1 2 3 4 5 6 
#
# 1 25.7162 28.0241 29.6866 0.0000 0.0000 0.0000
# 2 28.0241 147.4183 89.4024 0.0000 0.0000 0.0000
# 3 29.6866 89.4024 115.7397 0.0000 0.0000 0.0000
# 4 0.0000 0.0000 0.0000 27.1670 0.0000 0.0000
# 5 0.0000 0.0000 0.0000 0.0000 24.2412 0.0000
# 6 0.0000 0.0000 0.0000 0.0000 0.0000 15.4048
#
#
#
# Elastic Compliance Matrix: (Units=1/GPa)
#
#
# Indices 1 2 3 4 5 6 
#
# 1 0.056272 -0.003657 -0.011609 0.000000 0.000000 0.000000
# 2 -0.003657 0.012999 -0.009103 0.000000 0.000000 0.000000
# 3 -0.011609 -0.009103 0.018649 0.000000 0.000000 0.000000
# 4 0.000000 0.000000 0.000000 0.036809 0.000000 0.000000
# 5 0.000000 0.000000 0.000000 0.000000 0.041252 0.000000
# 6 0.000000 0.000000 0.000000 0.000000 0.000000 0.064915
#
#
# Mechanical properties :
#
#
# Convention : Reuss Voigt Hill
#
# Bulk Modulus (GPa) = 25.52125 64.78894 45.15509
# Shear Modulus (GPa) = 17.08256 22.81334 19.94795
#
# Velocity S-wave (km/s) = 3.21178 3.71162 3.47071
# Velocity P-wave (km/s) = 5.40049 7.58233 6.58244
#
# Compressibility (1/GPa) = 0.03918303
#
# Stress axis : x y z
#
# Youngs Moduli (GPa) = 17.77070 76.92705 53.62131
#
# Poissons Ratio (x) = 0.28135 0.62246
# Poissons Ratio (y) = 0.06499 0.48812
# Poissons Ratio (z) = 0.20629 0.70028
#
# Static dielectric constant tensor:
#      x y z
#    x 2.601730 0.000000 0.000000 
#    y 0.000000 3.660820 0.000000 
#    z 0.000000 0.000000 3.096130 
# 
# 
# High freq. dielectric constant tensor:
#      x y z
#    x 1.584510 0.000000 0.000000 
#    y 0.000000 1.648160 0.000000 
#    z 0.000000 0.000000 1.631300 
# 
# From -- ./inp_files/17611.got.cif
#   From: 2010.03.12/outbox.cif.g09.slc.cpg/sg59_9_cif.got.tgz:17611.got - 2010.04.16 16:29:54.
