data_PCOD8246103
_publ_section_title
;
Structure prediction by ZEFSAII (Michael W. Deem and Ramdas Pophale) SiO2 
 PCOD8246103
Probable space group: P M M N
;
_chemical_formula_sum "Si O2"
_cell_formula_units_Z 24
_cell_length_a 8.669517
_cell_length_b 14.031625
_cell_length_c 10.016197
_cell_angle_alpha 90.000000
_cell_angle_beta 90.000000
_cell_angle_gamma 90.000000
_cell_volume 1218.444438
_symmetry_space_group_name_H-M "P M M N"
_symmetry_group_IT_number 59
_space_group.IT_coordinate_system_code '2'
_symmetry_cell_setting 'orthorhombic'
loop_
_space_group_symop_operation_xyz
x,y,z
1/2-x,1/2-y,z
1/2+x,-y,-z
-x,1/2+y,-z
-x,-y,-z
1/2+x,1/2+y,-z
1/2-x,y,z
x,1/2-y,z
loop_
_atom_site_type_symbol
_atom_site_label
_atom_site_fract_x
_atom_site_fract_y
_atom_site_fract_z
Si Si1 0.569250 0.250000 0.521446
Si Si2 0.067473 0.250000 0.224940
Si Si3 0.428562 0.063449 0.613339
Si Si4 0.928881 0.443923 0.122795
O O1 0.750000 0.250000 0.494499
O O2 0.491064 0.250000 0.376605
O O3 0.520219 0.161819 0.612501
O O4 0.250000 0.250000 0.227036
O O5 0.010970 0.342979 0.145719
O O6 0.250000 0.082488 0.583143
O O7 0.500000 0.000000 0.500000
O O8 0.455139 0.012098 0.752259
O O9 0.750000 0.423524 0.096941
O O10 0.000000 0.500000 0.000000
#
# Coordination Sequence:
#
# PCOD8246103 Si02
#       4
#     4   4   8   8
#     4  12  24  39  64  97 132 170 218 270 324 385
#     4  12  24  41  68  95 128 172 218 266 328 389
#     4  11  23  40  65  95 128 167 215 267 321 381
#     4  11  25  44  67  96 133 172 217 267 326 389
#
# _framework density 19.697247999999998
#
# number of rings (size 3 to 8) (size 9 to 14) (size 15 to 20)
#    0.000    0.667    3.333    5.000    0.000    5.333 
#    0.000    1.667    0.000    0.000    0.000    0.000 
#    0.000    0.000    0.000    0.000    0.000    0.000 
#
# Total GULP energy -297706.464820 kJ/mol
# GULP energy per Si atom -12404.436034 kJ/mol
# Density = 1.965242 g / cm^3
# Si number density = 19.697248 Si / 1000 Ang^3
#
#
#
# Elastic Constant Matrix: (Units=GPa)
#
#
# Indices 1 2 3 4 5 6 
#
# 1 184.0597 94.4445 86.0020 0.0000 0.0000 0.0000
# 2 94.4445 177.9850 53.2803 0.0000 0.0000 0.0000
# 3 86.0020 53.2803 102.4389 0.0000 0.0000 0.0000
# 4 0.0000 0.0000 0.0000 31.9627 0.0000 0.0000
# 5 0.0000 0.0000 0.0000 0.0000 36.2204 0.0000
# 6 0.0000 0.0000 0.0000 0.0000 0.0000 43.6697
#
#
#
# Elastic Compliance Matrix: (Units=1/GPa)
#
#
# Indices 1 2 3 4 5 6 
#
# 1 0.010481 -0.003467 -0.006996 0.000000 0.000000 0.000000
# 2 -0.003467 0.007802 -0.001147 0.000000 0.000000 0.000000
# 3 -0.006996 -0.001147 0.016232 0.000000 0.000000 0.000000
# 4 0.000000 0.000000 0.000000 0.031286 0.000000 0.000000
# 5 0.000000 0.000000 0.000000 0.000000 0.027609 0.000000
# 6 0.000000 0.000000 0.000000 0.000000 0.000000 0.022899
#
#
# Mechanical properties :
#
#
# Convention : Reuss Voigt Hill
#
# Bulk Modulus (GPa) = 88.53943 103.54858 96.04401
# Shear Modulus (GPa) = 34.89346 37.75435 36.32390
#
# Velocity S-wave (km/s) = 4.21347 4.38280 4.29897
# Velocity P-wave (km/s) = 8.28968 8.84851 8.57365
#
# Compressibility (1/GPa) = 0.01129440
#
# Stress axis : x y z
#
# Youngs Moduli (GPa) = 95.41106 128.17866 61.60784
#
# Poissons Ratio (x) = 0.44443 0.43100
# Poissons Ratio (y) = 0.33082 0.07065
# Poissons Ratio (z) = 0.66748 0.14700
#
# Static dielectric constant tensor:
#      x y z
#    x 3.891380 0.000000 0.000000 
#    y 0.000000 3.850440 0.000000 
#    z 0.000000 0.000000 3.473700 
# 
# 
# High freq. dielectric constant tensor:
#      x y z
#    x 1.790150 0.000000 0.000000 
#    y 0.000000 1.790440 0.000000 
#    z 0.000000 0.000000 1.767110 
# 
# From -- ./inp_files/5003.got.cif
#   From: 2010.03.12/outbox.cif.g09.slc.cpg/sg59_3_cif.got.tgz:5003.got - 2010.04.16 16:29:54.
