data_PCOD8246944
_publ_section_title
;
Structure prediction by ZEFSAII (Michael W. Deem and Ramdas Pophale) SiO2 
 PCOD8246944
Probable space group: P B C N
;
_chemical_formula_sum "Si O2"
_cell_formula_units_Z 60
_cell_length_a 30.523852
_cell_length_b 10.596034
_cell_length_c 9.039213
_cell_angle_alpha 90.000000
_cell_angle_beta 90.000000
_cell_angle_gamma 90.000000
_cell_volume 2923.568693
_symmetry_space_group_name_H-M "P B C N"
_symmetry_group_IT_number 60
_symmetry_cell_setting 'orthorhombic'
loop_
_space_group_symop_operation_xyz
x,y,z
1/2-x,1/2-y,1/2+z
1/2+x,1/2-y,-z
-x,y,1/2-z
-x,-y,-z
1/2+x,1/2+y,1/2-z
1/2-x,1/2+y,z
x,-y,1/2+z
loop_
_atom_site_type_symbol
_atom_site_label
_atom_site_fract_x
_atom_site_fract_y
_atom_site_fract_z
Si Si1 0.000000 0.504625 0.250000
Si Si2 0.674005 0.144491 0.301675
Si Si3 0.766518 0.146900 0.751763
Si Si4 0.555321 0.878859 0.003849
Si Si5 0.641843 0.960317 0.506871
Si Si6 0.375951 0.312773 0.998478
Si Si7 0.187048 0.023481 0.029187
Si Si8 0.828232 0.732636 0.788229
O O1 0.024458 0.599175 0.137621
O O2 0.031324 0.410983 0.342517
O O3 0.719783 0.204107 0.247987
O O4 0.642906 0.262079 0.345554
O O5 0.680134 0.050992 0.440706
O O6 0.650263 0.061548 0.177967
O O7 0.788907 0.076856 0.614522
O O8 0.714233 0.147410 0.749524
O O9 0.782127 0.087112 0.906904
O O10 0.572639 0.731054 0.005805
O O11 0.595548 0.974002 0.982232
O O12 0.642749 0.828686 0.418204
O O13 0.361316 0.460935 0.989468
O O14 0.355409 0.236494 0.861420
O O15 0.182871 0.127766 0.155690
#
# Coordination Sequence:
#
# PCOD8246944 Si02
#       8
#     4   8   8   8   8   8   8   8
#     4  10  20  36  66 102 132 156 188 250 340 388
#     4  10  22  37  56  84 122 163 214 259 314 367
#     4  11  26  41  57  82 124 163 229 273 309 353
#     4  10  20  38  62  98 130 155 194 254 315 402
#     4  11  21  37  60  89 126 164 206 253 325 379
#     4  10  22  41  60  86 125 163 212 254 312 392
#     4  11  24  43  59  84 118 171 223 266 320 360
#     4  12  25  38  61  84 122 174 219 269 321 352
#
# _framework density 20.522862
#
# number of rings (size 3 to 8) (size 9 to 14) (size 15 to 20)
#    0.000    1.333    2.667    4.000    5.600    2.133 
#    0.000    0.000    0.000    0.000    0.000   15.867 
#    0.000    0.000    0.000    0.000    0.000    0.000 
#
# Total GULP energy -743578.153126 kJ/mol
# GULP energy per Si atom -12392.969219 kJ/mol
# Density = 2.047615 g / cm^3
# Si number density = 20.522862 Si / 1000 Ang^3
#
#
#
# Elastic Constant Matrix: (Units=GPa)
#
#
# Indices 1 2 3 4 5 6 
#
# 1 83.6739 33.1776 32.3041 0.0000 0.0000 0.0000
# 2 33.1776 78.6836 28.8763 0.0000 0.0000 0.0000
# 3 32.3041 28.8763 110.7246 0.0000 0.0000 0.0000
# 4 0.0000 0.0000 0.0000 34.4908 0.0000 0.0000
# 5 0.0000 0.0000 0.0000 0.0000 26.9416 0.0000
# 6 0.0000 0.0000 0.0000 0.0000 0.0000 37.2444
#
#
#
# Elastic Compliance Matrix: (Units=1/GPa)
#
#
# Indices 1 2 3 4 5 6 
#
# 1 0.015235 -0.005300 -0.003063 0.000000 0.000000 0.000000
# 2 -0.005300 0.015898 -0.002600 0.000000 0.000000 0.000000
# 3 -0.003063 -0.002600 0.010603 0.000000 0.000000 0.000000
# 4 0.000000 0.000000 0.000000 0.028993 0.000000 0.000000
# 5 0.000000 0.000000 0.000000 0.000000 0.037117 0.000000
# 6 0.000000 0.000000 0.000000 0.000000 0.000000 0.026850
#
#
# Mechanical properties :
#
#
# Convention : Reuss Voigt Hill
#
# Bulk Modulus (GPa) = 50.47677 51.31090 50.89384
# Shear Modulus (GPa) = 30.63255 31.65029 31.14142
#
# Velocity S-wave (km/s) = 3.86762 3.93134 3.89961
# Velocity P-wave (km/s) = 6.67783 6.75747 6.71777
#
# Compressibility (1/GPa) = 0.01981109
#
# Stress axis : x y z
#
# Youngs Moduli (GPa) = 65.63801 62.90082 94.31330
#
# Poissons Ratio (x) = 0.33338 0.28885
# Poissons Ratio (y) = 0.34788 0.24520
# Poissons Ratio (z) = 0.20103 0.16353
#
# Static dielectric constant tensor:
#      x y z
#    x 3.645980 0.000000 0.000000 
#    y 0.000000 3.957770 0.000000 
#    z 0.000000 0.000000 3.905080 
# 
# 
# High freq. dielectric constant tensor:
#      x y z
#    x 1.765290 0.000000 0.000000 
#    y 0.000000 1.799740 0.000000 
#    z 0.000000 0.000000 1.826460 
# 
# From -- ./inp_files/8468.got.cif
#   From: 2010.03.12/outbox.cif.g09.slc.cpg/sg60_5_cif.got.tgz:8468.got - 2010.04.10 18:46:24.
