data_PCOD8246646
_publ_section_title
;
Structure prediction by ZEFSAII (Michael W. Deem and Ramdas Pophale) SiO2 
 PCOD8246646
Probable space group: P B C N
;
_chemical_formula_sum "Si O2"
_cell_formula_units_Z 56
_cell_length_a 15.106745
_cell_length_b 9.387342
_cell_length_c 20.655525
_cell_angle_alpha 90.000000
_cell_angle_beta 90.000000
_cell_angle_gamma 90.000000
_cell_volume 2929.205067
_symmetry_space_group_name_H-M "P B C N"
_symmetry_group_IT_number 60
_symmetry_cell_setting 'orthorhombic'
loop_
_space_group_symop_operation_xyz
x,y,z
1/2-x,1/2-y,1/2+z
1/2+x,1/2-y,-z
-x,y,1/2-z
-x,-y,-z
1/2+x,1/2+y,1/2-z
1/2-x,1/2+y,z
x,-y,1/2+z
loop_
_atom_site_type_symbol
_atom_site_label
_atom_site_fract_x
_atom_site_fract_y
_atom_site_fract_z
Si Si1 0.820107 0.320239 0.502426
Si Si2 0.189619 0.271048 0.323116
Si Si3 0.550321 0.020961 0.688332
Si Si4 0.622789 0.260474 0.140422
Si Si5 0.452866 0.547219 0.319192
Si Si6 0.342435 0.153406 0.969628
Si Si7 0.519129 0.769925 0.414573
O O1 0.848885 0.230522 0.565774
O O2 0.719316 0.263608 0.488956
O O3 0.824072 0.491077 0.508527
O O4 0.882948 0.272835 0.443820
O O5 0.133582 0.387329 0.282587
O O6 0.293843 0.262952 0.309106
O O7 0.145683 0.115448 0.315139
O O8 0.180147 0.333206 0.394855
O O9 0.500000 0.960926 0.750000
O O10 0.575649 0.889238 0.644727
O O11 0.512329 0.115702 0.856987
O O12 0.555623 0.383073 0.161419
O O13 0.500000 0.565717 0.250000
O O14 0.505920 0.618497 0.378739
O O15 0.446981 0.198453 0.972506
#
# Coordination Sequence:
#
# PCOD8246646 Si02
#       7
#     8   8   8   8   8   8   8
#     4  11  21  37  60  86 116 144 193 236 291 334
#     4   9  18  33  56  80 105 143 187 233 275 322
#     4  10  19  35  58  80 108 151 192 222 278 345
#     4  11  20  32  58  89 109 135 190 249 276 324
#     4  10  21  37  57  82 115 146 191 230 279 335
#     4   9  20  34  57  87 109 148 187 236 273 344
#     4  10  21  38  60  79 115 160 181 230 290 343
#
# _framework density 19.117816000000001
#
# number of rings (size 3 to 8) (size 9 to 14) (size 15 to 20)
#    0.000    2.286    2.857    3.429   10.000    0.571 
#    0.000    0.000   12.571    0.000    0.000    0.000 
#    0.000    0.000    0.000    0.000    0.000    0.000 
#
# Total GULP energy -693832.382879 kJ/mol
# GULP energy per Si atom -12389.863980 kJ/mol
# Density = 1.907430 g / cm^3
# Si number density = 19.117816 Si / 1000 Ang^3
#
#
#
# Elastic Constant Matrix: (Units=GPa)
#
#
# Indices 1 2 3 4 5 6 
#
# 1 64.7930 12.1496 32.5808 0.0000 0.0000 0.0000
# 2 12.1496 86.4094 13.9443 0.0000 0.0000 0.0000
# 3 32.5808 13.9443 48.8802 0.0000 0.0000 0.0000
# 4 0.0000 0.0000 0.0000 14.4299 0.0000 0.0000
# 5 0.0000 0.0000 0.0000 0.0000 18.5746 0.0000
# 6 0.0000 0.0000 0.0000 0.0000 0.0000 19.2016
#
#
#
# Elastic Compliance Matrix: (Units=1/GPa)
#
#
# Indices 1 2 3 4 5 6 
#
# 1 0.023268 -0.000806 -0.015279 0.000000 0.000000 0.000000
# 2 -0.000806 0.012159 -0.002932 0.000000 0.000000 0.000000
# 3 -0.015279 -0.002932 0.031479 0.000000 0.000000 0.000000
# 4 0.000000 0.000000 0.000000 0.069301 0.000000 0.000000
# 5 0.000000 0.000000 0.000000 0.000000 0.053837 0.000000
# 6 0.000000 0.000000 0.000000 0.000000 0.000000 0.052079
#
#
# Mechanical properties :
#
#
# Convention : Reuss Voigt Hill
#
# Bulk Modulus (GPa) = 34.63494 35.27021 34.95258
# Shear Modulus (GPa) = 17.25446 19.86840 18.56143
#
# Velocity S-wave (km/s) = 3.00748 3.22725 3.11930
# Velocity P-wave (km/s) = 5.49689 5.68997 5.59427
#
# Compressibility (1/GPa) = 0.02887258
#
# Stress axis : x y z
#
# Youngs Moduli (GPa) = 42.97757 82.24218 31.76749
#
# Poissons Ratio (x) = 0.06628 0.48538
# Poissons Ratio (y) = 0.03464 0.09313
# Poissons Ratio (z) = 0.65666 0.24110
#
# Static dielectric constant tensor:
#      x y z
#    x 4.140270 0.000000 0.000000 
#    y 0.000000 3.504130 0.000000 
#    z 0.000000 0.000000 3.145000 
# 
# 
# High freq. dielectric constant tensor:
#      x y z
#    x 1.738110 0.000000 0.000000 
#    y 0.000000 1.752510 0.000000 
#    z 0.000000 0.000000 1.701750 
# 
# From -- ./inp_files/22933.got.cif
#   From: 2010.03.12/outbox.cif.g09.slc.cpg/sg60_12_cif.got.tgz:22933.got - 2010.04.10 18:46:24.
