data_PCOD8246292
_publ_section_title
;
Structure prediction by ZEFSAII (Michael W. Deem and Ramdas Pophale) SiO2 
 PCOD8246292
Probable space group: P B C N
;
_chemical_formula_sum "Si O2"
_cell_formula_units_Z 32
_cell_length_a 8.244576
_cell_length_b 36.775087
_cell_length_c 5.133623
_cell_angle_alpha 90.000000
_cell_angle_beta 90.000000
_cell_angle_gamma 90.000000
_cell_volume 1556.488824
_symmetry_space_group_name_H-M "P B C N"
_symmetry_group_IT_number 60
_symmetry_cell_setting 'orthorhombic'
loop_
_space_group_symop_operation_xyz
x,y,z
1/2-x,1/2-y,1/2+z
1/2+x,1/2-y,-z
-x,y,1/2-z
-x,-y,-z
1/2+x,1/2+y,1/2-z
1/2-x,1/2+y,z
x,-y,1/2+z
loop_
_atom_site_type_symbol
_atom_site_label
_atom_site_fract_x
_atom_site_fract_y
_atom_site_fract_z
Si Si1 0.680723 0.516092 0.522482
Si Si2 0.173609 0.734637 0.858400
Si Si3 0.606445 0.846425 0.008459
Si Si4 0.106849 0.098102 0.993504
O O1 0.500000 0.500000 0.500000
O O2 0.773084 0.495714 0.759071
O O3 0.682728 0.558993 0.571744
O O4 0.300025 0.743864 0.628343
O O5 0.000000 0.746855 0.750000
O O6 0.184795 0.691941 0.914470
O O7 0.500000 0.841794 0.750000
O O8 0.749595 0.874153 0.949636
O O9 0.500000 0.861164 0.250000
O O10 0.000000 0.094994 0.250000
O O11 0.000000 0.111784 0.750000
#
# Coordination Sequence:
#
# PCOD8246292 Si02
#       4
#     8   8   8   8
#     4  10  16  31  54  86 115 149 190 257 312 339
#     4  11  23  42  67  91 120 163 204 251 302 363
#     4  11  25  45  60  86 133 172 190 238 329 378
#     4  12  22  36  63  96 115 155 215 262 289 355
#
# _framework density 20.559094999999999
#
# number of rings (size 3 to 8) (size 9 to 14) (size 15 to 20)
#    0.000    1.000    5.000    5.250    0.000    3.000 
#    0.000    0.000    0.000    4.500    0.000    0.000 
#    0.000    0.000    0.000    0.000    0.000    0.000 
#
# Total GULP energy -396793.406980 kJ/mol
# GULP energy per Si atom -12399.793968 kJ/mol
# Density = 2.051230 g / cm^3
# Si number density = 20.559095 Si / 1000 Ang^3
#
#
#
# Elastic Constant Matrix: (Units=GPa)
#
#
# Indices 1 2 3 4 5 6 
#
# 1 45.5944 46.6718 14.6639 0.0000 0.0000 0.0000
# 2 46.6718 117.8974 28.5446 0.0000 0.0000 0.0000
# 3 14.6639 28.5446 155.3503 0.0000 0.0000 0.0000
# 4 0.0000 0.0000 0.0000 14.7247 0.0000 0.0000
# 5 0.0000 0.0000 0.0000 0.0000 36.4145 0.0000
# 6 0.0000 0.0000 0.0000 0.0000 0.0000 11.9670
#
#
#
# Elastic Compliance Matrix: (Units=1/GPa)
#
#
# Indices 1 2 3 4 5 6 
#
# 1 0.036979 -0.014436 -0.000838 0.000000 0.000000 0.000000
# 2 -0.014436 0.014512 -0.001304 0.000000 0.000000 0.000000
# 3 -0.000838 -0.001304 0.006756 0.000000 0.000000 0.000000
# 4 0.000000 0.000000 0.000000 0.067913 0.000000 0.000000
# 5 0.000000 0.000000 0.000000 0.000000 0.027462 0.000000
# 6 0.000000 0.000000 0.000000 0.000000 0.000000 0.083563
#
#
# Mechanical properties :
#
#
# Convention : Reuss Voigt Hill
#
# Bulk Modulus (GPa) = 39.85424 55.40031 47.62727
# Shear Modulus (GPa) = 17.94014 27.88537 22.91276
#
# Velocity S-wave (km/s) = 2.95721 3.68686 3.34201
# Velocity P-wave (km/s) = 5.57561 6.71784 6.17320
#
# Compressibility (1/GPa) = 0.02509144
#
# Stress axis : x y z
#
# Youngs Moduli (GPa) = 27.04231 68.90673 148.02201
#
# Poissons Ratio (x) = 0.99473 0.12405
# Poissons Ratio (y) = 0.39038 0.19301
# Poissons Ratio (z) = 0.02266 0.08985
#
# Static dielectric constant tensor:
#      x y z
#    x 3.447360 0.000000 0.000000 
#    y 0.000000 3.706240 0.000000 
#    z 0.000000 0.000000 3.055100 
# 
# 
# High freq. dielectric constant tensor:
#      x y z
#    x 1.765800 0.000000 0.000000 
#    y 0.000000 1.807110 0.000000 
#    z 0.000000 0.000000 1.842610 
# 
# From -- ./inp_files/384.got.cif
#   From: 2010.03.12/outbox.cif.g09.slc.cpg/sg60_1_cif.got.tgz:384.got - 2010.04.10 18:46:24.
