data_PCOD8246783
_publ_section_title
;
Structure prediction by ZEFSAII (Michael W. Deem and Ramdas Pophale) SiO2 
 PCOD8246783
Probable space group: P B C N
;
_chemical_formula_sum "Si O2"
_cell_formula_units_Z 52
_cell_length_a 20.959901
_cell_length_b 7.777151
_cell_length_c 14.019317
_cell_angle_alpha 90.000000
_cell_angle_beta 90.000000
_cell_angle_gamma 90.000000
_cell_volume 2285.265242
_symmetry_space_group_name_H-M "P B C N"
_symmetry_group_IT_number 60
_symmetry_cell_setting 'orthorhombic'
loop_
_space_group_symop_operation_xyz
x,y,z
1/2-x,1/2-y,1/2+z
1/2+x,1/2-y,-z
-x,y,1/2-z
-x,-y,-z
1/2+x,1/2+y,1/2-z
1/2-x,1/2+y,z
x,-y,1/2+z
loop_
_atom_site_type_symbol
_atom_site_label
_atom_site_fract_x
_atom_site_fract_y
_atom_site_fract_z
Si Si1 0.500000 0.312899 0.750000
Si Si2 0.815738 0.557173 0.398956
Si Si3 0.180637 0.327901 0.399844
Si Si4 0.582902 0.873170 0.650478
Si Si5 0.953052 0.495767 0.856261
Si Si6 0.379575 0.496285 0.829346
Si Si7 0.727855 0.648053 0.775762
O O1 0.446218 0.439515 0.786782
O O2 0.470865 0.193230 0.666956
O O3 0.787967 0.634949 0.496994
O O4 0.889711 0.507265 0.421854
O O5 0.810835 0.684294 0.308510
O O6 0.774544 0.394947 0.364068
O O7 0.133968 0.481670 0.372714
O O8 0.142963 0.146123 0.406186
O O9 0.236403 0.311717 0.322763
O O10 0.515220 0.905762 0.594149
O O11 0.565221 0.890916 0.761243
O O12 0.611606 0.685859 0.624276
O O13 0.325492 0.502668 0.745886
#
# Coordination Sequence:
#
# PCOD8246783 Si02
#       7
#     4   8   8   8   8   8   8
#     4  10  20  40  74 100 132 194 230 282 368 416
#     4  12  27  43  72 104 140 186 234 292 354 418
#     4  12  26  48  70 103 142 187 234 286 358 416
#     4  10  21  42  73  99 139 185 229 293 346 415
#     4  10  19  43  67 102 142 180 228 288 358 404
#     4  12  22  42  74  99 136 189 235 281 352 420
#     4  12  25  46  67 101 144 183 233 297 337 422
#
# _framework density 22.754469
#
# number of rings (size 3 to 8) (size 9 to 14) (size 15 to 20)
#    0.000    0.923    7.692    0.923    2.154    0.615 
#    0.000    0.769    0.000    0.000    0.000    0.000 
#    0.000    0.000    0.000    0.000    0.000    0.000 
#
# Total GULP energy -644581.590620 kJ/mol
# GULP energy per Si atom -12395.799820 kJ/mol
# Density = 2.270268 g / cm^3
# Si number density = 22.754469 Si / 1000 Ang^3
#
#
#
# Elastic Constant Matrix: (Units=GPa)
#
#
# Indices 1 2 3 4 5 6 
#
# 1 134.6138 38.1412 22.0115 0.0000 0.0000 0.0000
# 2 38.1412 136.9742 5.1375 0.0000 0.0000 0.0000
# 3 22.0115 5.1375 54.8927 0.0000 0.0000 0.0000
# 4 0.0000 0.0000 0.0000 7.5768 0.0000 0.0000
# 5 0.0000 0.0000 0.0000 0.0000 19.6992 0.0000
# 6 0.0000 0.0000 0.0000 0.0000 0.0000 35.3759
#
#
#
# Elastic Compliance Matrix: (Units=1/GPa)
#
#
# Indices 1 2 3 4 5 6 
#
# 1 0.008602 -0.002274 -0.003237 0.000000 0.000000 0.000000
# 2 -0.002274 0.007927 0.000170 0.000000 0.000000 0.000000
# 3 -0.003237 0.000170 0.019499 0.000000 0.000000 0.000000
# 4 0.000000 0.000000 0.000000 0.131982 0.000000 0.000000
# 5 0.000000 0.000000 0.000000 0.000000 0.050763 0.000000
# 6 0.000000 0.000000 0.000000 0.000000 0.000000 0.028268
#
#
# Mechanical properties :
#
#
# Convention : Reuss Voigt Hill
#
# Bulk Modulus (GPa) = 39.45134 50.78457 45.11796
# Shear Modulus (GPa) = 18.78480 29.94308 24.36394
#
# Velocity S-wave (km/s) = 2.87634 3.63150 3.27575
# Velocity P-wave (km/s) = 5.32979 6.32065 5.84625
#
# Compressibility (1/GPa) = 0.02534768
#
# Stress axis : x y z
#
# Youngs Moduli (GPa) = 116.24955 126.14377 51.28387
#
# Poissons Ratio (x) = 0.28684 0.16598
# Poissons Ratio (y) = 0.26434 -0.00871
# Poissons Ratio (z) = 0.37625 -0.02143
#
# Static dielectric constant tensor:
#      x y z
#    x 4.678720 0.000000 0.000000 
#    y 0.000000 4.093960 0.000000 
#    z 0.000000 0.000000 3.801200 
# 
# 
# High freq. dielectric constant tensor:
#      x y z
#    x 1.925460 0.000000 0.000000 
#    y 0.000000 1.900260 0.000000 
#    z 0.000000 0.000000 1.857890 
# 
# From -- ./inp_files/17671.got.cif
#   From: 2010.03.12/outbox.cif.g09.slc.cpg/sg60_9_cif.got.tgz:17671.got - 2010.04.10 18:46:24.
