data_PCOD8246841
_publ_section_title
;
Structure prediction by ZEFSAII (Michael W. Deem and Ramdas Pophale) SiO2 
 PCOD8246841
Probable space group: P B C N
;
_chemical_formula_sum "Si O2"
_cell_formula_units_Z 60
_cell_length_a 22.086663
_cell_length_b 14.410535
_cell_length_c 8.888435
_cell_angle_alpha 90.000000
_cell_angle_beta 90.000000
_cell_angle_gamma 90.000000
_cell_volume 2829.016693
_symmetry_space_group_name_H-M "P B C N"
_symmetry_group_IT_number 60
_symmetry_cell_setting 'orthorhombic'
loop_
_space_group_symop_operation_xyz
x,y,z
1/2-x,1/2-y,1/2+z
1/2+x,1/2-y,-z
-x,y,1/2-z
-x,-y,-z
1/2+x,1/2+y,1/2-z
1/2-x,1/2+y,z
x,-y,1/2+z
loop_
_atom_site_type_symbol
_atom_site_label
_atom_site_fract_x
_atom_site_fract_y
_atom_site_fract_z
Si Si1 0.086645 0.530801 0.265533
Si Si2 0.680507 0.768329 0.411411
Si Si3 0.441343 0.124954 0.547174
Si Si4 0.000000 0.231025 0.250000
Si Si5 0.878392 0.797067 0.624158
Si Si6 0.220118 0.902198 0.423299
Si Si7 0.206674 0.096607 0.581156
Si Si8 0.644916 0.889971 0.011220
O O1 0.047632 0.464331 0.156203
O O2 0.044484 0.597498 0.372106
O O3 0.134716 0.588160 0.164886
O O4 0.126417 0.475631 0.385890
O O5 0.628032 0.842366 0.441902
O O6 0.675766 0.678794 0.519033
O O7 0.742262 0.824861 0.436101
O O8 0.674328 0.723497 0.245788
O O9 0.484605 0.206462 0.603666
O O10 0.058536 0.168603 0.296436
O O11 0.854930 0.869271 0.499897
O O12 0.896211 0.699176 0.547648
O O13 0.197012 0.922503 0.256387
O O14 0.287152 0.861551 0.445652
O O15 0.222421 0.997843 0.512987
#
# Coordination Sequence:
#
# PCOD8246841 Si02
#       8
#     8   8   8   4   8   8   8   8
#     4  10  20  34  58  88 125 168 217 253 313 387
#     4  11  21  39  60  92 129 165 206 263 323 390
#     4  10  21  37  59  87 128 168 221 264 318 382
#     4  10  22  44  64  86 130 184 222 276 322 382
#     4  11  23  42  64  89 129 176 216 262 332 382
#     4  12  24  36  65  94 133 166 211 262 338 398
#     4  12  23  40  61  96 127 167 210 268 328 393
#     4  11  19  37  56  92 130 171 201 261 322 397
#
# _framework density 21.208784000000001
#
# number of rings (size 3 to 8) (size 9 to 14) (size 15 to 20)
#    0.000    1.067    5.333    3.200    1.867    1.600 
#    0.000    0.000    0.000    7.200    0.000    0.000 
#    0.000    0.000    0.000    0.000    0.000    0.000 
#
# Total GULP energy -743665.967412 kJ/mol
# GULP energy per Si atom -12394.432790 kJ/mol
# Density = 2.116051 g / cm^3
# Si number density = 21.208784 Si / 1000 Ang^3
#
#
#
# Elastic Constant Matrix: (Units=GPa)
#
#
# Indices 1 2 3 4 5 6 
#
# 1 68.0123 13.9417 20.2206 0.0000 0.0000 0.0000
# 2 13.9417 62.3505 41.5717 0.0000 0.0000 0.0000
# 3 20.2206 41.5717 152.2826 0.0000 0.0000 0.0000
# 4 0.0000 0.0000 0.0000 36.4900 0.0000 0.0000
# 5 0.0000 0.0000 0.0000 0.0000 26.5920 0.0000
# 6 0.0000 0.0000 0.0000 0.0000 0.0000 18.2751
#
#
#
# Elastic Compliance Matrix: (Units=1/GPa)
#
#
# Indices 1 2 3 4 5 6 
#
# 1 0.015640 -0.002583 -0.001372 0.000000 0.000000 0.000000
# 2 -0.002583 0.020034 -0.005126 0.000000 0.000000 0.000000
# 3 -0.001372 -0.005126 0.008148 0.000000 0.000000 0.000000
# 4 0.000000 0.000000 0.000000 0.027405 0.000000 0.000000
# 5 0.000000 0.000000 0.000000 0.000000 0.037605 0.000000
# 6 0.000000 0.000000 0.000000 0.000000 0.000000 0.054719
#
#
# Mechanical properties :
#
#
# Convention : Reuss Voigt Hill
#
# Bulk Modulus (GPa) = 38.96898 48.23482 43.60190
# Shear Modulus (GPa) = 26.27896 30.06551 28.17223
#
# Velocity S-wave (km/s) = 3.52385 3.76918 3.64858
# Velocity P-wave (km/s) = 5.91359 6.46023 6.19294
#
# Compressibility (1/GPa) = 0.02566144
#
# Stress axis : x y z
#
# Youngs Moduli (GPa) = 63.93671 49.91612 122.72579
#
# Poissons Ratio (x) = 0.12891 0.16835
# Poissons Ratio (y) = 0.16512 0.62910
# Poissons Ratio (z) = 0.08771 0.25587
#
# Static dielectric constant tensor:
#      x y z
#    x 3.756950 0.000000 0.000000 
#    y 0.000000 3.664940 0.000000 
#    z 0.000000 0.000000 4.169450 
# 
# 
# High freq. dielectric constant tensor:
#      x y z
#    x 1.813430 0.000000 0.000000 
#    y 0.000000 1.811420 0.000000 
#    z 0.000000 0.000000 1.846010 
# 
# From -- ./inp_files/7939.got.cif
#   From: 2010.03.12/outbox.cif.g09.slc.cpg/sg60_4_cif.got.tgz:7939.got - 2010.04.10 18:46:24.
