data_PCOD8246155
_publ_section_title
;
Structure prediction by ZEFSAII (Michael W. Deem and Ramdas Pophale) SiO2 
 PCOD8246155
Probable space group: P M M N
;
_chemical_formula_sum "Si O2"
_cell_formula_units_Z 64
_cell_length_a 9.361798
_cell_length_b 19.289594
_cell_length_c 20.823200
_cell_angle_alpha 90.000000
_cell_angle_beta 90.000000
_cell_angle_gamma 90.000000
_cell_volume 3760.363455
_symmetry_space_group_name_H-M "P M M N"
_symmetry_group_IT_number 59
_space_group.IT_coordinate_system_code '2'
_symmetry_cell_setting 'orthorhombic'
loop_
_space_group_symop_operation_xyz
x,y,z
1/2-x,1/2-y,z
1/2+x,-y,-z
-x,1/2+y,-z
-x,-y,-z
1/2+x,1/2+y,-z
1/2-x,y,z
x,1/2-y,z
loop_
_atom_site_type_symbol
_atom_site_label
_atom_site_fract_x
_atom_site_fract_y
_atom_site_fract_z
Si Si1 0.581087 0.329506 0.753290
Si Si2 0.410928 0.167504 0.490717
Si Si3 0.910163 0.832333 0.367812
Si Si4 0.410663 0.667364 0.627834
Si Si5 0.082397 0.928475 0.993167
Si Si6 0.084785 0.924169 0.134015
Si Si7 0.415210 0.169918 0.249627
Si Si8 0.918624 0.918862 0.873537
O O1 0.750000 0.336060 0.747219
O O2 0.534907 0.250000 0.764584
O O3 0.514570 0.360375 0.687637
O O4 0.515803 0.373715 0.812669
O O5 0.250000 0.141775 0.476970
O O6 0.414999 0.250000 0.488106
O O7 0.460990 0.141650 0.561528
O O8 0.514746 0.136585 0.436111
O O9 0.750000 0.859148 0.354022
O O10 0.912646 0.750000 0.368029
O O11 0.250000 0.638592 0.630499
O O12 0.413452 0.750000 0.625967
O O13 0.494310 0.641084 0.690630
O O14 0.250000 0.939903 0.978404
O O15 0.062375 0.891237 0.062639
O O16 0.005603 0.887391 0.934835
O O17 0.000000 0.000000 0.000000
O O18 0.250000 0.929056 0.150608
O O19 0.025227 0.002735 0.138866
O O20 0.250000 0.158849 0.266864
O O21 0.449154 0.250000 0.235420
O O22 0.460170 0.127212 0.187149
O O23 0.750000 0.916446 0.888863
#
# Coordination Sequence:
#
# PCOD8246155 Si02
#       8
#     8   8   8   8   8   8   8   8
#     4   9  16  26  41  60  83 111 139 166 199 243
#     4   8  13  22  36  53  76 108 141 169 200 242
#     4   8  14  24  37  55  81 110 138 170 207 243
#     4   9  16  24  36  57  84 110 136 170 209 246
#     4   9  16  28  46  65  85 109 139 176 213 248
#     4   8  15  28  44  62  83 107 136 168 203 244
#     4   9  17  29  44  61  83 112 142 171 209 257
#     4   9  17  30  47  64  83 109 141 176 211 250
#
# _framework density 17.019631
#
# number of rings (size 3 to 8) (size 9 to 14) (size 15 to 20)
#    0.000    3.375    0.000    2.250    0.000    2.500 
#    0.000    6.250    0.000    0.750    0.000    0.875 
#    0.000    0.000    0.000    0.000    0.000    0.000 
#
# Total GULP energy -793006.794704 kJ/mol
# GULP energy per Si atom -12390.731167 kJ/mol
# Density = 1.698089 g / cm^3
# Si number density = 17.019631 Si / 1000 Ang^3
#
#
#
# Elastic Constant Matrix: (Units=GPa)
#
#
# Indices 1 2 3 4 5 6 
#
# 1 77.0158 19.6760 76.6616 0.0000 0.0000 0.0000
# 2 19.6760 31.4408 44.1659 0.0000 0.0000 0.0000
# 3 76.6616 44.1659 186.3563 0.0000 0.0000 0.0000
# 4 0.0000 0.0000 0.0000 6.8249 0.0000 0.0000
# 5 0.0000 0.0000 0.0000 0.0000 35.8218 0.0000
# 6 0.0000 0.0000 0.0000 0.0000 0.0000 9.7580
#
#
#
# Elastic Compliance Matrix: (Units=1/GPa)
#
#
# Indices 1 2 3 4 5 6 
#
# 1 0.022040 -0.001584 -0.008691 0.000000 0.000000 0.000000
# 2 -0.001584 0.047793 -0.010675 0.000000 0.000000 0.000000
# 3 -0.008691 -0.010675 0.011471 0.000000 0.000000 0.000000
# 4 0.000000 0.000000 0.000000 0.146521 0.000000 0.000000
# 5 0.000000 0.000000 0.000000 0.000000 0.027916 0.000000
# 6 0.000000 0.000000 0.000000 0.000000 0.000000 0.102480
#
#
# Mechanical properties :
#
#
# Convention : Reuss Voigt Hill
#
# Bulk Modulus (GPa) = 25.37845 63.97999 44.67922
# Shear Modulus (GPa) = 12.09897 20.76822 16.43360
#
# Velocity S-wave (km/s) = 2.66913 3.49700 3.11073
# Velocity P-wave (km/s) = 4.94395 7.34703 6.26185
#
# Compressibility (1/GPa) = 0.03940351
#
# Stress axis : x y z
#
# Youngs Moduli (GPa) = 45.37109 20.92364 87.17318
#
# Poissons Ratio (x) = 0.03315 0.75766
# Poissons Ratio (y) = 0.07187 0.93058
# Poissons Ratio (z) = 0.39434 0.22336
#
# Static dielectric constant tensor:
#      x y z
#    x 3.214250 0.000000 0.000000 
#    y 0.000000 2.750800 0.000000 
#    z 0.000000 0.000000 3.762700 
# 
# 
# High freq. dielectric constant tensor:
#      x y z
#    x 1.646170 0.000000 0.000000 
#    y 0.000000 1.590290 0.000000 
#    z 0.000000 0.000000 1.677500 
# 
# From -- ./inp_files/29724.got.cif
#   From: 2010.03.12/outbox.cif.g09.slc.cpg/sg59_15_cif.got.tgz:29724.got - 2010.04.16 16:29:54.
