data_PCOD8246247
_publ_section_title
;
Structure prediction by ZEFSAII (Michael W. Deem and Ramdas Pophale) SiO2 
 PCOD8246247
Probable space group: P M M N
;
_chemical_formula_sum "Si O2"
_cell_formula_units_Z 64
_cell_length_a 30.000000
_cell_length_b 9.000000
_cell_length_c 15.000000
_cell_angle_alpha 90.000000
_cell_angle_beta 90.000000
_cell_angle_gamma 90.000000
_cell_volume 4050.000000
_symmetry_space_group_name_H-M "P M M N"
_symmetry_group_IT_number 59
_space_group.IT_coordinate_system_code '2'
_symmetry_cell_setting 'orthorhombic'
loop_
_space_group_symop_operation_xyz
x,y,z
1/2-x,1/2-y,z
1/2+x,-y,-z
-x,1/2+y,-z
-x,-y,-z
1/2+x,1/2+y,-z
1/2-x,y,z
x,1/2-y,z
loop_
_atom_site_type_symbol
_atom_site_label
_atom_site_fract_x
_atom_site_fract_y
_atom_site_fract_z
Si Si1 0.201321 0.426602 0.842141
Si Si2 0.801206 0.577072 0.361051
Si Si3 0.425373 0.585528 0.754623
Si Si4 0.039600 0.072535 0.057269
Si Si5 0.529175 0.914331 0.745077
Si Si6 0.383177 0.926321 0.570406
Si Si7 0.388580 0.075412 0.919212
Si Si8 0.956947 0.929488 0.548503
O O1 0.250000 0.489238 0.872380
O O2 0.203434 0.250000 0.843599
O O3 0.190814 0.477604 0.740976
O O4 0.162285 0.486950 0.908586
O O5 0.750000 0.548493 0.388212
O O6 0.813398 0.750000 0.370309
O O7 0.831948 0.482638 0.429234
O O8 0.407673 0.750000 0.779382
O O9 0.476819 0.590913 0.732388
O O10 0.401504 0.525145 0.666705
O O11 0.418191 0.478005 0.837149
O O12 0.031192 0.250000 0.057996
O O13 0.041210 0.007914 0.159259
O O14 0.087086 0.029333 0.011399
O O15 0.000000 0.000000 0.000000
O O16 0.549775 0.750000 0.751292
O O17 0.546810 0.986214 0.652292
O O18 0.386135 0.750000 0.553479
O O19 0.411610 0.012749 0.496301
O O20 0.386630 0.250000 0.911968
O O21 0.960814 0.750000 0.543801
O O22 0.000000 0.000000 0.500000
#
# Coordination Sequence:
#
# PCOD8246247 Si02
#       8
#     8   8   8   8   8   8   8   8
#     4   8  14  25  41  63  92 119 144 181 224 263
#     4   9  17  30  48  69  94 125 157 189 231 282
#     4  10  18  29  44  62  92 128 153 182 229 275
#     4  10  19  30  45  66  90 118 152 187 222 271
#     4   9  18  33  46  60  90 125 154 186 233 277
#     4  11  21  32  46  69  96 125 160 195 234 280
#     4  10  18  27  44  69  89 115 158 190 216 262
#     4  11  21  34  50  67  90 124 162 199 240 284
#
# _framework density 15.802469
#
# number of rings (size 3 to 8) (size 9 to 14) (size 15 to 20)
#    0.000    2.250    3.750    1.500    0.000    0.750 
#    0.000    1.250    0.000    0.375    0.000    0.875 
#    0.000    5.000    0.000    0.000    0.000    0.125 
#
# Total GULP energy -792966.447981 kJ/mol
# GULP energy per Si atom -12390.100750 kJ/mol
# Density = 1.576650 g / cm^3
# Si number density = 15.802469 Si / 1000 Ang^3
#
#
#
# Elastic Constant Matrix: (Units=GPa)
#
#
# Indices 1 2 3 4 5 6 
#
# 1 104.6841 29.6396 57.7386 0.0000 0.0000 0.0000
# 2 29.6396 33.9533 27.9134 0.0000 0.0000 0.0000
# 3 57.7386 27.9134 124.2530 0.0000 0.0000 0.0000
# 4 0.0000 0.0000 0.0000 18.1785 0.0000 0.0000
# 5 0.0000 0.0000 0.0000 0.0000 24.4018 0.0000
# 6 0.0000 0.0000 0.0000 0.0000 0.0000 21.0207
#
#
#
# Elastic Compliance Matrix: (Units=1/GPa)
#
#
# Indices 1 2 3 4 5 6 
#
# 1 0.014746 -0.008879 -0.004857 0.000000 0.000000 0.000000
# 2 -0.008879 0.041470 -0.005190 0.000000 0.000000 0.000000
# 3 -0.004857 -0.005190 0.011471 0.000000 0.000000 0.000000
# 4 0.000000 0.000000 0.000000 0.055010 0.000000 0.000000
# 5 0.000000 0.000000 0.000000 0.000000 0.040981 0.000000
# 6 0.000000 0.000000 0.000000 0.000000 0.000000 0.047572
#
#
# Mechanical properties :
#
#
# Convention : Reuss Voigt Hill
#
# Bulk Modulus (GPa) = 33.51916 54.83040 44.17478
# Shear Modulus (GPa) = 19.30148 22.56012 20.93080
#
# Velocity S-wave (km/s) = 3.49868 3.78250 3.64335
# Velocity P-wave (km/s) = 6.13012 7.33820 6.76119
#
# Compressibility (1/GPa) = 0.02983369
#
# Stress axis : x y z
#
# Youngs Moduli (GPa) = 67.81703 24.11377 87.17412
#
# Poissons Ratio (x) = 0.21410 0.42344
# Poissons Ratio (y) = 0.60214 0.45247
# Poissons Ratio (z) = 0.32942 0.12516
#
# Static dielectric constant tensor:
#      x y z
#    x 3.272590 0.000000 0.000000 
#    y 0.000000 2.912750 0.000000 
#    z 0.000000 0.000000 3.140310 
# 
# 
# High freq. dielectric constant tensor:
#      x y z
#    x 1.604540 0.000000 0.000000 
#    y 0.000000 1.590320 0.000000 
#    z 0.000000 0.000000 1.592390 
# 
# From -- ./inp_files/25028.got.cif
#   From: 2010.03.12/outbox.ucp.g09.slc.cvg/sg59_13_cif.got.tgz:25028.got - 2010.05.04 19:30:51.
