data_PCOD8246614
_publ_section_title
;
Structure prediction by ZEFSAII (Michael W. Deem and Ramdas Pophale) SiO2 
 PCOD8246614
Probable space group: P B C N
;
_chemical_formula_sum "Si O2"
_cell_formula_units_Z 64
_cell_length_a 27.507180
_cell_length_b 5.442094
_cell_length_c 21.658252
_cell_angle_alpha 90.000000
_cell_angle_beta 90.000000
_cell_angle_gamma 90.000000
_cell_volume 3242.167969
_symmetry_space_group_name_H-M "P B C N"
_symmetry_group_IT_number 60
_symmetry_cell_setting 'orthorhombic'
loop_
_space_group_symop_operation_xyz
x,y,z
1/2-x,1/2-y,1/2+z
1/2+x,1/2-y,-z
-x,y,1/2-z
-x,-y,-z
1/2+x,1/2+y,1/2-z
1/2-x,1/2+y,z
x,-y,1/2+z
loop_
_atom_site_type_symbol
_atom_site_label
_atom_site_fract_x
_atom_site_fract_y
_atom_site_fract_z
Si Si1 0.457320 0.200695 0.000015
Si Si2 0.442084 0.448813 0.599088
Si Si3 0.621377 0.253959 0.315560
Si Si4 0.735432 0.069491 0.969350
Si Si5 0.036701 0.758706 0.862586
Si Si6 0.226230 0.076345 0.668319
Si Si7 0.372502 0.943068 0.071206
Si Si8 0.450560 0.763390 0.789266
O O1 0.440845 0.274129 0.931347
O O2 0.473956 0.428890 0.043594
O O3 0.500000 0.000000 0.000000
O O4 0.408059 0.122667 0.034742
O O5 0.425778 0.627751 0.652763
O O6 0.477926 0.251388 0.630824
O O7 0.394437 0.328221 0.569467
O O8 0.669204 0.426106 0.313432
O O9 0.599890 0.197176 0.248277
O O10 0.635307 0.016498 0.356712
O O11 0.748855 0.321193 0.005900
O O12 0.766607 0.076996 0.905637
O O13 0.678365 0.062117 0.961905
O O14 0.051217 0.499344 0.833637
O O15 0.053032 0.002058 0.824939
O O16 0.250883 0.324888 0.696357
O O17 0.500000 0.770959 0.750000
#
# Coordination Sequence:
#
# PCOD8246614 Si02
#       8
#     8   8   8   8   8   8   8   8
#     4  11  24  40  59  91 120 171 216 258 306 364
#     4  11  22  37  62  85 122 164 208 257 305 369
#     4  11  23  37  59  94 124 165 203 248 322 378
#     4  10  19  35  54  89 128 149 184 248 326 378
#     4  12  25  43  58  82 128 164 213 257 288 366
#     4  10  19  34  57  86 128 148 189 253 316 380
#     4  11  22  35  64  90 125 161 201 255 317 387
#     4  12  26  41  60  85 122 173 208 256 300 364
#
# _framework density 19.739878000000001
#
# number of rings (size 3 to 8) (size 9 to 14) (size 15 to 20)
#    0.000    1.000    5.000    3.750    5.250    0.000 
#    0.000    0.000    0.000    0.000    0.000    5.250 
#    0.000    0.000    0.000    0.000    0.000    0.000 
#
# Total GULP energy -793073.595698 kJ/mol
# GULP energy per Si atom -12391.774933 kJ/mol
# Density = 1.969495 g / cm^3
# Si number density = 19.739878 Si / 1000 Ang^3
#
#
#
# Elastic Constant Matrix: (Units=GPa)
#
#
# Indices 1 2 3 4 5 6 
#
# 1 79.6754 13.4918 23.4757 0.0000 0.0000 0.0000
# 2 13.4918 126.8753 28.1643 0.0000 0.0000 0.0000
# 3 23.4757 28.1643 75.0640 0.0000 0.0000 0.0000
# 4 0.0000 0.0000 0.0000 22.0424 0.0000 0.0000
# 5 0.0000 0.0000 0.0000 0.0000 16.8833 0.0000
# 6 0.0000 0.0000 0.0000 0.0000 0.0000 27.9464
#
#
#
# Elastic Compliance Matrix: (Units=1/GPa)
#
#
# Indices 1 2 3 4 5 6 
#
# 1 0.013861 -0.000558 -0.004126 0.000000 0.000000 0.000000
# 2 -0.000558 0.008620 -0.003060 0.000000 0.000000 0.000000
# 3 -0.004126 -0.003060 0.015760 0.000000 0.000000 0.000000
# 4 0.000000 0.000000 0.000000 0.045367 0.000000 0.000000
# 5 0.000000 0.000000 0.000000 0.000000 0.059230 0.000000
# 6 0.000000 0.000000 0.000000 0.000000 0.000000 0.035783
#
#
# Mechanical properties :
#
#
# Convention : Reuss Voigt Hill
#
# Bulk Modulus (GPa) = 43.94718 45.76428 44.85573
# Shear Modulus (GPa) = 24.79012 27.80663 26.29837
#
# Velocity S-wave (km/s) = 3.54763 3.75727 3.65395
# Velocity P-wave (km/s) = 6.25239 6.48512 6.36982
#
# Compressibility (1/GPa) = 0.02275459
#
# Stress axis : x y z
#
# Youngs Moduli (GPa) = 72.14493 116.00469 63.45075
#
# Poissons Ratio (x) = 0.06475 0.26177
# Poissons Ratio (y) = 0.04027 0.19415
# Poissons Ratio (z) = 0.29763 0.35495
#
# Static dielectric constant tensor:
#      x y z
#    x 3.547780 0.000000 0.000000 
#    y 0.000000 4.192920 0.000000 
#    z 0.000000 0.000000 3.388640 
# 
# 
# High freq. dielectric constant tensor:
#      x y z
#    x 1.767250 0.000000 0.000000 
#    y 0.000000 1.794130 0.000000 
#    z 0.000000 0.000000 1.718510 
# 
# From -- ./inp_files/23348.got.cif
#   From: 2010.03.12/outbox.cif.g09.slc.cpg/sg60_12_cif.got.tgz:23348.got - 2010.04.10 18:46:24.
