data_PCOD8246676
_publ_section_title
;
Structure prediction by ZEFSAII (Michael W. Deem and Ramdas Pophale) SiO2 
 PCOD8246676
Probable space group: P B C N
;
_chemical_formula_sum "Si O2"
_cell_formula_units_Z 64
_cell_length_a 5.341729
_cell_length_b 31.712728
_cell_length_c 16.857403
_cell_angle_alpha 90.000000
_cell_angle_beta 90.000000
_cell_angle_gamma 90.000000
_cell_volume 2855.657534
_symmetry_space_group_name_H-M "P B C N"
_symmetry_group_IT_number 60
_symmetry_cell_setting 'orthorhombic'
loop_
_space_group_symop_operation_xyz
x,y,z
1/2-x,1/2-y,1/2+z
1/2+x,1/2-y,-z
-x,y,1/2-z
-x,-y,-z
1/2+x,1/2+y,1/2-z
1/2-x,1/2+y,z
x,-y,1/2+z
loop_
_atom_site_type_symbol
_atom_site_label
_atom_site_fract_x
_atom_site_fract_y
_atom_site_fract_z
Si Si1 0.222098 0.260055 0.955138
Si Si2 0.750068 0.173383 0.251894
Si Si3 0.250064 0.392241 0.300366
Si Si4 0.749597 0.529985 0.590448
Si Si5 0.750155 0.203929 0.699844
Si Si6 0.749422 0.981471 0.903716
Si Si7 0.252706 0.356779 0.917741
Si Si8 0.247827 0.389502 0.603082
O O1 0.252265 0.235991 0.872961
O O2 0.268675 0.309242 0.945668
O O3 0.438281 0.244793 0.014551
O O4 0.500000 0.202596 0.250000
O O5 0.747472 0.141042 0.178465
O O6 0.751572 0.146099 0.330217
O O7 0.000000 0.202506 0.250000
O O8 0.500000 0.401298 0.250000
O O9 0.251035 0.422709 0.376458
O O10 0.250035 0.344213 0.332035
O O11 0.000000 0.401338 0.250000
O O12 0.749777 0.531339 0.495994
O O13 0.499669 0.506306 0.621307
O O14 0.001118 0.506823 0.621150
O O15 0.500000 0.212074 0.750000
O O16 0.000000 0.212073 0.750000
O O17 0.745213 0.936300 0.859495
O O18 0.498091 0.382167 0.948628
O O19 0.003410 0.380814 0.949393
#
# Coordination Sequence:
#
# PCOD8246676 Si02
#       8
#     8   8   8   8   8   8   8   8
#     4  12  26  43  64  99 136 166 215 273 328 391
#     4   8  16  30  49  74 105 143 186 227 269 333
#     4  10  21  40  63  90 119 158 215 266 316 371
#     4  10  21  38  58  85 119 157 196 246 306 365
#     4  10  23  44  70  96 127 170 219 272 329 392
#     4  10  21  37  59  87 121 156 196 243 302 370
#     4  10  21  36  56  81 119 161 194 238 301 363
#     4  10  19  36  57  84 114 153 203 243 285 361
#
# _framework density 22.411652
#
# number of rings (size 3 to 8) (size 9 to 14) (size 15 to 20)
#    0.000    2.000    0.000    3.000    0.000    5.000 
#    0.000   11.250    0.000    0.000    0.000    0.000 
#    0.000    0.000    0.000    0.000    0.000    0.000 
#
# Total GULP energy -792918.188467 kJ/mol
# GULP energy per Si atom -12389.346695 kJ/mol
# Density = 2.236064 g / cm^3
# Si number density = 22.411652 Si / 1000 Ang^3
#
#
#
# Elastic Constant Matrix: (Units=GPa)
#
#
# Indices 1 2 3 4 5 6 
#
# 1 250.9541 27.2737 14.8038 0.0000 0.0000 0.0000
# 2 27.2737 91.3394 4.3796 0.0000 0.0000 0.0000
# 3 14.8038 4.3796 32.4727 0.0000 0.0000 0.0000
# 4 0.0000 0.0000 0.0000 17.2136 0.0000 0.0000
# 5 0.0000 0.0000 0.0000 0.0000 19.4654 0.0000
# 6 0.0000 0.0000 0.0000 0.0000 0.0000 47.3914
#
#
#
# Elastic Compliance Matrix: (Units=1/GPa)
#
#
# Indices 1 2 3 4 5 6 
#
# 1 0.004216 -0.001174 -0.001764 0.000000 0.000000 0.000000
# 2 -0.001174 0.011347 -0.000995 0.000000 0.000000 0.000000
# 3 -0.001764 -0.000995 0.031733 0.000000 0.000000 0.000000
# 4 0.000000 0.000000 0.000000 0.058094 0.000000 0.000000
# 5 0.000000 0.000000 0.000000 0.000000 0.051373 0.000000
# 6 0.000000 0.000000 0.000000 0.000000 0.000000 0.021101
#
#
# Mechanical properties :
#
#
# Convention : Reuss Voigt Hill
#
# Bulk Modulus (GPa) = 25.36135 51.96448 38.66291
# Shear Modulus (GPa) = 25.14154 38.70134 31.92144
#
# Velocity S-wave (km/s) = 3.35297 4.16003 3.77812
# Velocity P-wave (km/s) = 5.13134 6.80523 6.02668
#
# Compressibility (1/GPa) = 0.03943008
#
# Stress axis : x y z
#
# Youngs Moduli (GPa) = 237.16461 88.13235 31.51254
#
# Poissons Ratio (x) = 0.10351 0.05558
# Poissons Ratio (y) = 0.27854 0.03135
# Poissons Ratio (z) = 0.41832 0.08768
#
# Static dielectric constant tensor:
#      x y z
#    x 5.826700 0.000000 0.000000 
#    y 0.000000 4.058180 0.000000 
#    z 0.000000 0.000000 3.655160 
# 
# 
# High freq. dielectric constant tensor:
#      x y z
#    x 1.928150 0.000000 0.000000 
#    y 0.000000 1.883890 0.000000 
#    z 0.000000 0.000000 1.843760 
# 
# From -- ./inp_files/18865.got.cif
#   From: 2010.03.12/outbox.cif.g09.slc.cpg/sg60_10_cif.got.tgz:18865.got - 2010.04.10 18:46:24.
