data_PCOD8246882
_publ_section_title
;
Structure prediction by ZEFSAII (Michael W. Deem and Ramdas Pophale) SiO2 
 PCOD8246882
Probable space group: P B C N
;
_chemical_formula_sum "Si O2"
_cell_formula_units_Z 48
_cell_length_a 22.791627
_cell_length_b 22.037667
_cell_length_c 5.120581
_cell_angle_alpha 90.000000
_cell_angle_beta 90.000000
_cell_angle_gamma 90.000000
_cell_volume 2571.936167
_symmetry_space_group_name_H-M "P B C N"
_symmetry_group_IT_number 60
_symmetry_cell_setting 'orthorhombic'
loop_
_space_group_symop_operation_xyz
x,y,z
1/2-x,1/2-y,1/2+z
1/2+x,1/2-y,-z
-x,y,1/2-z
-x,-y,-z
1/2+x,1/2+y,1/2-z
1/2-x,1/2+y,z
x,-y,1/2+z
loop_
_atom_site_type_symbol
_atom_site_label
_atom_site_fract_x
_atom_site_fract_y
_atom_site_fract_z
Si Si1 0.378116 0.759818 0.876125
Si Si2 0.785414 0.338644 0.830086
Si Si3 0.268830 0.538249 0.152145
Si Si4 0.000000 0.218747 0.750000
Si Si5 0.596230 0.539675 0.366170
Si Si6 0.181469 0.227764 0.390476
Si Si7 0.000000 0.138004 0.250000
O O1 0.346187 0.825434 0.830855
O O2 0.447477 0.764114 0.831265
O O3 0.352168 0.712718 0.660029
O O4 0.365807 0.732147 0.159206
O O5 0.777873 0.408362 0.909817
O O6 0.729415 0.323811 0.649581
O O7 0.784835 0.293405 0.081517
O O8 0.256364 0.513609 0.440928
O O9 0.336061 0.561214 0.137598
O O10 0.016969 0.177901 0.501258
O O11 0.581686 0.509591 0.643959
O O12 0.556519 0.598439 0.326222
#
# Coordination Sequence:
#
# PCOD8246882 Si02
#       7
#     8   8   8   4   8   8   4
#     4  10  22  37  53  85 114 148 181 236 286 348
#     4  10  21  36  61  83 115 148 189 236 298 354
#     4  10  24  36  55  85 117 149 189 244 289 342
#     4  12  26  37  54  88 120 139 200 234 294 342
#     4  10  21  39  53  74 106 150 202 241 275 321
#     4  10  20  35  60  86 107 149 189 232 290 354
#     4  12  24  37  58  76 106 163 190 248 272 340
#
# _framework density 18.662983000000001
#
# number of rings (size 3 to 8) (size 9 to 14) (size 15 to 20)
#    1.000    0.667    1.667    2.500    7.000    0.000 
#    0.000    0.000    0.000    0.000    0.000    1.167 
#    0.000    0.000    0.000    0.000    0.000    0.000 
#
# Total GULP energy -594927.283207 kJ/mol
# GULP energy per Si atom -12394.318400 kJ/mol
# Density = 1.862051 g / cm^3
# Si number density = 18.662983 Si / 1000 Ang^3
#
#
#
# Elastic Constant Matrix: (Units=GPa)
#
#
# Indices 1 2 3 4 5 6 
#
# 1 68.4979 23.8973 -0.2574 0.0000 0.0000 0.0000
# 2 23.8973 58.5120 -0.5610 0.0000 0.0000 0.0000
# 3 -0.2574 -0.5610 86.1620 0.0000 0.0000 0.0000
# 4 0.0000 0.0000 0.0000 20.0126 0.0000 0.0000
# 5 0.0000 0.0000 0.0000 0.0000 23.0572 0.0000
# 6 0.0000 0.0000 0.0000 0.0000 0.0000 23.5492
#
#
#
# Elastic Compliance Matrix: (Units=1/GPa)
#
#
# Indices 1 2 3 4 5 6 
#
# 1 0.017025 -0.006953 0.000006 0.000000 0.000000 0.000000
# 2 -0.006953 0.019931 0.000109 0.000000 0.000000 0.000000
# 3 0.000006 0.000109 0.011607 0.000000 0.000000 0.000000
# 4 0.000000 0.000000 0.000000 0.049969 0.000000 0.000000
# 5 0.000000 0.000000 0.000000 0.000000 0.043370 0.000000
# 6 0.000000 0.000000 0.000000 0.000000 0.000000 0.042464
#
#
# Mechanical properties :
#
#
# Convention : Reuss Voigt Hill
#
# Bulk Modulus (GPa) = 28.66499 28.81441 28.73970
# Shear Modulus (GPa) = 23.84677 25.99666 24.92171
#
# Velocity S-wave (km/s) = 3.57845 3.73628 3.65822
# Velocity P-wave (km/s) = 5.69793 5.83831 5.76855
#
# Compressibility (1/GPa) = 0.03488577
#
# Stress axis : x y z
#
# Youngs Moduli (GPa) = 58.73779 50.17223 86.15662
#
# Poissons Ratio (x) = 0.34886 -0.00048
# Poissons Ratio (y) = 0.40841 -0.00939
# Poissons Ratio (z) = -0.00033 -0.00547
#
# Static dielectric constant tensor:
#      x y z
#    x 3.365740 0.000000 0.000000 
#    y 0.000000 3.031950 0.000000 
#    z 0.000000 0.000000 3.570020 
# 
# 
# High freq. dielectric constant tensor:
#      x y z
#    x 1.711590 0.000000 0.000000 
#    y 0.000000 1.681880 0.000000 
#    z 0.000000 0.000000 1.743740 
# 
# From -- ./inp_files/2071.got.cif
#   From: 2010.03.12/outbox.cif.g09.slc.cpg/sg60_2_cif.got.tgz:2071.got - 2010.04.10 18:46:24.
