data_PCOD8246743
_publ_section_title
;
Structure prediction by ZEFSAII (Michael W. Deem and Ramdas Pophale) SiO2 
 PCOD8246743
Probable space group: P B C N
;
_chemical_formula_sum "Si O2"
_cell_formula_units_Z 64
_cell_length_a 10.906349
_cell_length_b 7.952917
_cell_length_c 32.607853
_cell_angle_alpha 90.000000
_cell_angle_beta 90.000000
_cell_angle_gamma 90.000000
_cell_volume 2828.316749
_symmetry_space_group_name_H-M "P B C N"
_symmetry_group_IT_number 60
_symmetry_cell_setting 'orthorhombic'
loop_
_space_group_symop_operation_xyz
x,y,z
1/2-x,1/2-y,1/2+z
1/2+x,1/2-y,-z
-x,y,1/2-z
-x,-y,-z
1/2+x,1/2+y,1/2-z
1/2-x,1/2+y,z
x,-y,1/2+z
loop_
_atom_site_type_symbol
_atom_site_label
_atom_site_fract_x
_atom_site_fract_y
_atom_site_fract_z
Si Si1 0.345670 0.745665 0.850505
Si Si2 0.619632 0.221820 0.850309
Si Si3 0.104097 0.238013 0.401444
Si Si4 0.255818 0.983590 0.598341
Si Si5 0.500594 0.613431 0.917203
Si Si6 0.504209 0.959877 0.952676
Si Si7 0.626933 0.323301 0.758324
Si Si8 0.306668 0.027432 0.792833
O O1 0.243973 0.774478 0.886283
O O2 0.467758 0.671786 0.870777
O O3 0.304062 0.614528 0.816564
O O4 0.380287 0.917838 0.826547
O O5 0.474753 0.242406 0.859326
O O6 0.674380 0.037934 0.859311
O O7 0.687082 0.315229 0.888345
O O8 0.652395 0.284195 0.805497
O O9 0.081159 0.403140 0.429336
O O10 0.067782 0.065479 0.426135
O O11 0.147623 0.103644 0.580831
O O12 0.355565 0.966337 0.562509
O O13 0.455579 0.767247 0.946516
O O14 0.500000 0.000000 0.000000
O O15 0.500000 0.425461 0.750000
O O16 0.604454 0.156980 0.730010
O O17 0.746689 0.417927 0.743236
#
# Coordination Sequence:
#
# PCOD8246743 Si02
#       8
#     8   8   8   8   8   8   8   8
#     4  11  20  42  65  94 130 172 233 280 327 419
#     4  10  19  38  64  86 132 173 227 277 324 414
#     4  10  23  42  71  99 127 181 233 273 338 418
#     4  10  21  41  67  96 125 177 229 271 337 418
#     4  11  23  42  72 102 129 184 229 277 347 404
#     4  11  25  47  69 103 140 172 219 288 352 417
#     4  11  23  38  57  93 133 176 223 290 356 387
#     4  10  22  38  59  94 132 173 223 287 345 396
#
# _framework density 22.628301
#
# number of rings (size 3 to 8) (size 9 to 14) (size 15 to 20)
#    0.000    1.500    2.500    3.000    1.750    1.500 
#    4.500    1.250    0.000    0.000    0.000    0.000 
#    0.000    0.000    0.000    0.000    0.000    0.000 
#
# Total GULP energy -793107.526818 kJ/mol
# GULP energy per Si atom -12392.305107 kJ/mol
# Density = 2.257680 g / cm^3
# Si number density = 22.628301 Si / 1000 Ang^3
#
#
#
# Elastic Constant Matrix: (Units=GPa)
#
#
# Indices 1 2 3 4 5 6 
#
# 1 60.3314 2.5128 18.5863 0.0000 0.0000 0.0000
# 2 2.5128 94.9408 16.1716 0.0000 0.0000 0.0000
# 3 18.5863 16.1716 115.9002 0.0000 0.0000 0.0000
# 4 0.0000 0.0000 0.0000 25.0291 0.0000 0.0000
# 5 0.0000 0.0000 0.0000 0.0000 21.6328 0.0000
# 6 0.0000 0.0000 0.0000 0.0000 0.0000 18.0459
#
#
#
# Elastic Compliance Matrix: (Units=1/GPa)
#
#
# Indices 1 2 3 4 5 6 
#
# 1 0.017437 0.000015 -0.002798 0.000000 0.000000 0.000000
# 2 0.000015 0.010789 -0.001508 0.000000 0.000000 0.000000
# 3 -0.002798 -0.001508 0.009287 0.000000 0.000000 0.000000
# 4 0.000000 0.000000 0.000000 0.039953 0.000000 0.000000
# 5 0.000000 0.000000 0.000000 0.000000 0.046226 0.000000
# 6 0.000000 0.000000 0.000000 0.000000 0.000000 0.055414
#
#
# Mechanical properties :
#
#
# Convention : Reuss Voigt Hill
#
# Bulk Modulus (GPa) = 34.56490 38.41263 36.48876
# Shear Modulus (GPa) = 25.33791 28.53500 26.93645
#
# Velocity S-wave (km/s) = 3.34989 3.55495 3.45394
# Velocity P-wave (km/s) = 5.50187 5.81916 5.66274
#
# Compressibility (1/GPa) = 0.02893109
#
# Stress axis : x y z
#
# Youngs Moduli (GPa) = 57.35071 92.68425 107.67438
#
# Poissons Ratio (x) = -0.00141 0.30131
# Poissons Ratio (y) = -0.00087 0.16236
# Poissons Ratio (z) = 0.16049 0.13976
#
# Static dielectric constant tensor:
#      x y z
#    x 4.032560 0.000000 0.000000 
#    y 0.000000 4.541250 0.000000 
#    z 0.000000 0.000000 3.727520 
# 
# 
# High freq. dielectric constant tensor:
#      x y z
#    x 1.888490 0.000000 0.000000 
#    y 0.000000 1.908350 0.000000 
#    z 0.000000 0.000000 1.866140 
# 
# From -- ./inp_files/26112.got.cif
#   From: 2010.03.12/outbox.cif.g09.slc.cpg/sg60_14_cif.got.tgz:26112.got - 2010.04.10 18:46:24.
