data_PCOD8246393
_publ_section_title
;
Structure prediction by ZEFSAII (Michael W. Deem and Ramdas Pophale) SiO2 
 PCOD8246393
Probable space group: P B C N
;
_chemical_formula_sum "Si O2"
_cell_formula_units_Z 60
_cell_length_a 10.748842
_cell_length_b 21.504808
_cell_length_c 13.817976
_cell_angle_alpha 90.000000
_cell_angle_beta 90.000000
_cell_angle_gamma 90.000000
_cell_volume 3194.049796
_symmetry_space_group_name_H-M "P B C N"
_symmetry_group_IT_number 60
_symmetry_cell_setting 'orthorhombic'
loop_
_space_group_symop_operation_xyz
x,y,z
1/2-x,1/2-y,1/2+z
1/2+x,1/2-y,-z
-x,y,1/2-z
-x,-y,-z
1/2+x,1/2+y,1/2-z
1/2-x,1/2+y,z
x,-y,1/2+z
loop_
_atom_site_type_symbol
_atom_site_label
_atom_site_fract_x
_atom_site_fract_y
_atom_site_fract_z
Si Si1 0.298256 0.849248 0.581531
Si Si2 0.000000 0.391254 0.250000
Si Si3 0.389148 0.285974 0.116697
Si Si4 0.141804 0.149847 0.261157
Si Si5 0.502665 0.929689 0.032210
Si Si6 0.153366 0.213002 0.934287
Si Si7 0.277394 0.847634 0.963297
Si Si8 0.809518 0.710494 0.735332
O O1 0.379525 0.786539 0.588073
O O2 0.243208 0.876310 0.682910
O O3 0.380666 0.899352 0.524277
O O4 0.169214 0.830240 0.527824
O O5 0.022133 0.429145 0.349782
O O6 0.112642 0.345839 0.222005
O O7 0.531348 0.307354 0.123422
O O8 0.328063 0.293375 0.220674
O O9 0.327181 0.333607 0.041982
O O10 0.204776 0.134028 0.364375
O O11 0.126809 0.223744 0.242199
O O12 0.000000 0.122120 0.250000
O O13 0.370829 0.901247 0.998586
O O14 0.500000 0.000000 0.000000
O O15 0.138181 0.286113 0.955103
O O16 0.284517 0.202685 0.878333
#
# Coordination Sequence:
#
# PCOD8246393 Si02
#       8
#     8   4   8   8   8   8   8   8
#     4  10  21  34  55  88 122 161 204 249 306 366
#     4  12  22  42  62  88 126 152 210 252 298 374
#     4  10  18  31  55  87 128 151 191 257 317 366
#     4  10  20  33  57  91 128 166 195 253 317 377
#     4  12  26  44  64  88 122 172 212 254 299 357
#     4  10  18  31  55  87 128 151 191 257 317 366
#     4  10  21  34  55  88 122 161 204 249 306 366
#     4  10  19  30  56  89 125 160 194 243 319 383
#
# _framework density 18.784929000000002
#
# number of rings (size 3 to 8) (size 9 to 14) (size 15 to 20)
#    0.000    1.600    4.667    1.200    0.000    1.600 
#    0.000    0.000    0.000    3.200    0.000    0.000 
#    0.000    0.000    0.000    0.000    0.000    0.000 
#
# Total GULP energy -743297.891187 kJ/mol
# GULP energy per Si atom -12388.298186 kJ/mol
# Density = 1.874217 g / cm^3
# Si number density = 18.784929 Si / 1000 Ang^3
#
#
#
# Elastic Constant Matrix: (Units=GPa)
#
#
# Indices 1 2 3 4 5 6 
#
# 1 100.3984 28.0015 30.7616 0.0000 0.0000 0.0000
# 2 28.0015 79.9265 33.5774 0.0000 0.0000 0.0000
# 3 30.7616 33.5774 105.4873 0.0000 0.0000 0.0000
# 4 0.0000 0.0000 0.0000 16.7879 0.0000 0.0000
# 5 0.0000 0.0000 0.0000 0.0000 20.7485 0.0000
# 6 0.0000 0.0000 0.0000 0.0000 0.0000 -19.6924
#
#
#
# Elastic Compliance Matrix: (Units=1/GPa)
#
#
# Indices 1 2 3 4 5 6 
#
# 1 0.011542 -0.003036 -0.002400 0.000000 0.000000 0.000000
# 2 -0.003036 0.015241 -0.003966 0.000000 0.000000 0.000000
# 3 -0.002400 -0.003966 0.011442 0.000000 0.000000 0.000000
# 4 0.000000 0.000000 0.000000 0.059567 0.000000 0.000000
# 5 0.000000 0.000000 0.000000 0.000000 0.048196 0.000000
# 6 0.000000 0.000000 0.000000 0.000000 0.000000 -0.050781
#
#
# Mechanical properties :
#
#
# Convention : Reuss Voigt Hill
#
# Bulk Modulus (GPa) = 51.48626 52.27701 51.88164
# Shear Modulus (GPa) = 41.49921 16.46692 28.98307
#
# Velocity S-wave (km/s) = 4.70529 2.96396 3.93222
# Velocity P-wave (km/s) = 7.54900 6.29310 6.94948
#
# Compressibility (1/GPa) = 0.01942266
#
# Stress axis : x y z
#
# Youngs Moduli (GPa) = 86.63868 65.61170 87.39701
#
# Poissons Ratio (x) = 0.19917 0.20972
# Poissons Ratio (y) = 0.26300 0.34663
# Poissons Ratio (z) = 0.20790 0.26023
#
# Static dielectric constant tensor:
#      x y z
#    x 3.382000 0.000000 0.000000 
#    y 0.000000 2.908640 0.000000 
#    z 0.000000 0.000000 3.699200 
# 
# 
# High freq. dielectric constant tensor:
#      x y z
#    x 1.739480 0.000000 0.000000 
#    y 0.000000 1.663050 0.000000 
#    z 0.000000 0.000000 1.752010 
# 
# From -- ./inp_files/16428.got.cif
#   From: 2010.03.12/outbox.cif.g09.slc.cpg/sg60_9_cif.got.tgz:16428.got - 2010.04.10 18:46:24.
