data_PCOD8246974
_publ_section_title
;
Structure prediction by ZEFSAII (Michael W. Deem and Ramdas Pophale) SiO2 
 PCOD8246974
Probable space group: P B C N
;
_chemical_formula_sum "Si O2"
_cell_formula_units_Z 64
_cell_length_a 17.314062
_cell_length_b 19.941238
_cell_length_c 9.257151
_cell_angle_alpha 90.000000
_cell_angle_beta 90.000000
_cell_angle_gamma 90.000000
_cell_volume 3196.159419
_symmetry_space_group_name_H-M "P B C N"
_symmetry_group_IT_number 60
_symmetry_cell_setting 'orthorhombic'
loop_
_space_group_symop_operation_xyz
x,y,z
1/2-x,1/2-y,1/2+z
1/2+x,1/2-y,-z
-x,y,1/2-z
-x,-y,-z
1/2+x,1/2+y,1/2-z
1/2-x,1/2+y,z
x,-y,1/2+z
loop_
_atom_site_type_symbol
_atom_site_label
_atom_site_fract_x
_atom_site_fract_y
_atom_site_fract_z
Si Si1 0.072450 0.269963 0.152095
Si Si2 0.966631 0.267687 0.899941
Si Si3 0.965696 0.110661 0.899373
Si Si4 0.928368 0.882697 0.848989
Si Si5 0.201021 0.682331 0.075153
Si Si6 0.228980 0.060077 0.236367
Si Si7 0.767004 0.693119 0.758153
Si Si8 0.796803 0.930266 0.428908
O O1 0.101169 0.193465 0.166184
O O2 0.143614 0.316510 0.197225
O O3 0.000000 0.285676 0.250000
O O4 0.041843 0.285327 0.993603
O O5 0.943847 0.189391 0.907002
O O6 0.890793 0.308803 0.946110
O O7 0.000000 0.291735 0.750000
O O8 0.890451 0.066991 0.942591
O O9 0.000000 0.086318 0.750000
O O10 0.041531 0.097373 0.994389
O O11 0.859547 0.929261 0.802712
O O12 0.000000 0.896746 0.750000
O O13 0.215722 0.610467 0.148776
O O14 0.234578 0.735812 0.188431
O O15 0.242008 0.687419 0.916692
O O16 0.240459 0.065546 0.410003
O O17 0.243541 0.986036 0.172542
O O18 0.719133 0.638349 0.844916
#
# Coordination Sequence:
#
# PCOD8246974 Si02
#       8
#     8   8   8   8   8   8   8   8
#     4  10  20  38  64  94 129 166 203 262 325 378
#     4  10  22  38  64  98 132 162 211 267 321 380
#     4  10  22  37  61  92 131 170 217 259 311 386
#     4  10  20  37  61  89 128 171 212 253 313 383
#     4  12  25  41  67 100 130 171 218 268 323 381
#     4  12  27  44  64  90 131 178 220 270 323 387
#     4  12  25  40  68  98 132 170 218 267 324 383
#     4  12  27  45  63  91 132 177 222 266 327 382
#
# _framework density 20.024031999999998
#
# number of rings (size 3 to 8) (size 9 to 14) (size 15 to 20)
#    0.000    1.000    5.000    1.500    7.000    1.000 
#    0.000    0.000    0.000    1.500    0.000    0.000 
#    0.000    0.000    0.000    0.000    0.000    0.000 
#
# Total GULP energy -793339.527768 kJ/mol
# GULP energy per Si atom -12395.930121 kJ/mol
# Density = 1.997846 g / cm^3
# Si number density = 20.024032 Si / 1000 Ang^3
#
#
#
# Elastic Constant Matrix: (Units=GPa)
#
#
# Indices 1 2 3 4 5 6 
#
# 1 55.3618 11.3761 1.6241 0.0000 0.0000 0.0000
# 2 11.3761 60.7015 17.9753 0.0000 0.0000 0.0000
# 3 1.6241 17.9753 145.1736 0.0000 0.0000 0.0000
# 4 0.0000 0.0000 0.0000 28.7516 0.0000 0.0000
# 5 0.0000 0.0000 0.0000 0.0000 37.4580 0.0000
# 6 0.0000 0.0000 0.0000 0.0000 0.0000 23.8255
#
#
#
# Elastic Compliance Matrix: (Units=1/GPa)
#
#
# Indices 1 2 3 4 5 6 
#
# 1 0.018794 -0.003592 0.000234 0.000000 0.000000 0.000000
# 2 -0.003592 0.017787 -0.002162 0.000000 0.000000 0.000000
# 3 0.000234 -0.002162 0.007153 0.000000 0.000000 0.000000
# 4 0.000000 0.000000 0.000000 0.034781 0.000000 0.000000
# 5 0.000000 0.000000 0.000000 0.000000 0.026697 0.000000
# 6 0.000000 0.000000 0.000000 0.000000 0.000000 0.041972
#
#
# Mechanical properties :
#
#
# Convention : Reuss Voigt Hill
#
# Bulk Modulus (GPa) = 30.58463 35.90975 33.24719
# Shear Modulus (GPa) = 29.56452 33.35779 31.46115
#
# Velocity S-wave (km/s) = 3.84663 4.08596 3.96810
# Velocity P-wave (km/s) = 5.91911 6.34289 6.13466
#
# Compressibility (1/GPa) = 0.03269616
#
# Stress axis : x y z
#
# Youngs Moduli (GPa) = 53.20804 56.21937 139.79347
#
# Poissons Ratio (x) = 0.20192 -0.03278
# Poissons Ratio (y) = 0.19110 0.30227
# Poissons Ratio (z) = -0.01247 0.12156
#
# Static dielectric constant tensor:
#      x y z
#    x 3.092800 0.000000 0.000000 
#    y 0.000000 3.415170 0.000000 
#    z 0.000000 0.000000 3.785080 
# 
# 
# High freq. dielectric constant tensor:
#      x y z
#    x 1.776500 0.000000 0.000000 
#    y 0.000000 1.750550 0.000000 
#    z 0.000000 0.000000 1.805100 
# 
# From -- ./inp_files/7025.got.cif
#   From: 2010.03.12/outbox.cif.g09.slc.cpg/sg60_4_cif.got.tgz:7025.got - 2010.04.10 18:46:24.
