data_PCOD8246249
_publ_section_title
;
Structure prediction by ZEFSAII (Michael W. Deem and Ramdas Pophale) SiO2 
 PCOD8246249
Probable space group: P M M N
;
_chemical_formula_sum "Si O2"
_cell_formula_units_Z 64
_cell_length_a 21.000000
_cell_length_b 9.000000
_cell_length_c 18.000000
_cell_angle_alpha 90.000000
_cell_angle_beta 90.000000
_cell_angle_gamma 90.000000
_cell_volume 3402.000000
_symmetry_space_group_name_H-M "P M M N"
_symmetry_group_IT_number 59
_space_group.IT_coordinate_system_code '2'
_symmetry_cell_setting 'orthorhombic'
loop_
_space_group_symop_operation_xyz
x,y,z
1/2-x,1/2-y,z
1/2+x,-y,-z
-x,1/2+y,-z
-x,-y,-z
1/2+x,1/2+y,-z
1/2-x,y,z
x,1/2-y,z
loop_
_atom_site_type_symbol
_atom_site_label
_atom_site_fract_x
_atom_site_fract_y
_atom_site_fract_z
Si Si1 0.857260 0.912908 0.917388
Si Si2 0.001080 0.086962 0.076032
Si Si3 0.435475 0.074921 0.658067
Si Si4 0.583073 0.420999 0.650803
Si Si5 0.179689 0.424348 0.239359
Si Si6 0.680798 0.422967 0.059371
Si Si7 0.566704 0.423377 0.487430
Si Si8 0.596038 0.076361 0.193586
O O1 0.827770 0.750000 0.934501
O O2 0.929341 0.897034 0.891054
O O3 0.823326 0.987922 0.845660
O O4 0.859641 0.007153 0.992808
O O5 0.970489 0.250000 0.060337
O O6 0.961148 0.012301 0.142427
O O7 0.000000 0.000000 0.000000
O O8 0.426745 0.250000 0.651260
O O9 0.509791 0.028381 0.661917
O O10 0.402018 0.000200 0.585283
O O11 0.399177 0.016248 0.730808
O O12 0.589731 0.250000 0.672553
O O13 0.627992 0.510683 0.705336
O O14 0.605436 0.446846 0.564782
O O15 0.250000 0.460676 0.270813
O O16 0.166666 0.250000 0.234259
O O17 0.750000 0.495058 0.053013
O O18 0.681736 0.250000 0.043830
O O19 0.657623 0.455279 0.142920
O O20 0.500000 0.500000 0.500000
O O21 0.556905 0.250000 0.471421
O O22 0.587801 0.250000 0.213557
#
# Coordination Sequence:
#
# PCOD8246249 Si02
#       8
#     8   8   8   8   8   8   8   8
#     4  10  20  34  52  73  99 132 171 213 259 306
#     4  10  19  31  49  73  99 130 167 208 258 311
#     4  10  20  33  52  81 109 134 169 210 258 312
#     4   9  19  34  52  77 106 135 167 205 251 304
#     4  10  21  35  51  73 102 138 179 218 254 300
#     4  10  21  36  53  72  95 129 174 217 257 305
#     4   9  17  31  52  79 109 136 164 199 245 301
#     4  10  20  34  51  73 102 135 170 210 260 308
#
# _framework density 18.812463000000001
#
# number of rings (size 3 to 8) (size 9 to 14) (size 15 to 20)
#    0.000    2.250    1.250    2.625    0.000    6.500 
#    0.000    0.000    0.000    0.750    0.000    1.750 
#    0.000    0.000    0.000    0.000    0.000    0.000 
#
# Total GULP energy -792993.408410 kJ/mol
# GULP energy per Si atom -12390.522006 kJ/mol
# Density = 1.876965 g / cm^3
# Si number density = 18.812463 Si / 1000 Ang^3
#
#
#
# Elastic Constant Matrix: (Units=GPa)
#
#
# Indices 1 2 3 4 5 6 
#
# 1 44.4009 14.6283 11.1277 0.0000 0.0000 0.0000
# 2 14.6283 65.1479 53.1920 0.0000 0.0000 0.0000
# 3 11.1277 53.1920 140.5363 0.0000 0.0000 0.0000
# 4 0.0000 0.0000 0.0000 36.7302 0.0000 0.0000
# 5 0.0000 0.0000 0.0000 0.0000 14.3793 0.0000
# 6 0.0000 0.0000 0.0000 0.0000 0.0000 14.5244
#
#
#
# Elastic Compliance Matrix: (Units=1/GPa)
#
#
# Indices 1 2 3 4 5 6 
#
# 1 0.024325 -0.005629 0.000204 0.000000 0.000000 0.000000
# 2 -0.005629 0.023517 -0.008455 0.000000 0.000000 0.000000
# 3 0.000204 -0.008455 0.010300 0.000000 0.000000 0.000000
# 4 0.000000 0.000000 0.000000 0.027226 0.000000 0.000000
# 5 0.000000 0.000000 0.000000 0.000000 0.069544 0.000000
# 6 0.000000 0.000000 0.000000 0.000000 0.000000 0.068850
#
#
# Mechanical properties :
#
#
# Convention : Reuss Voigt Hill
#
# Bulk Modulus (GPa) = 32.91363 45.33120 39.12242
# Shear Modulus (GPa) = 19.10955 24.53593 21.82274
#
# Velocity S-wave (km/s) = 3.19061 3.61534 3.40959
# Velocity P-wave (km/s) = 5.57736 6.44797 6.02840
#
# Compressibility (1/GPa) = 0.03038255
#
# Stress axis : x y z
#
# Youngs Moduli (GPa) = 41.10937 42.52186 97.08985
#
# Poissons Ratio (x) = 0.23935 -0.01985
# Poissons Ratio (y) = 0.23140 0.82094
# Poissons Ratio (z) = -0.00840 0.35954
#
# Static dielectric constant tensor:
#      x y z
#    x 3.416700 0.000000 0.000000 
#    y 0.000000 2.849910 0.000000 
#    z 0.000000 0.000000 3.756410 
# 
# 
# High freq. dielectric constant tensor:
#      x y z
#    x 1.696060 0.000000 0.000000 
#    y 0.000000 1.719110 0.000000 
#    z 0.000000 0.000000 1.742260 
# 
# From -- ./inp_files/28188.got.cif
#   From: 2010.03.12/outbox.ucp.g09.slc.cvg/sg59_15_cif.got.tgz:28188.got - 2010.05.04 19:30:51.
