data_PCOD8246559
_publ_section_title
;
Structure prediction by ZEFSAII (Michael W. Deem and Ramdas Pophale) SiO2 
 PCOD8246559
Probable space group: P B C N
;
_chemical_formula_sum "Si O2"
_cell_formula_units_Z 52
_cell_length_a 9.460727
_cell_length_b 24.672039
_cell_length_c 11.869098
_cell_angle_alpha 90.000000
_cell_angle_beta 90.000000
_cell_angle_gamma 90.000000
_cell_volume 2770.430560
_symmetry_space_group_name_H-M "P B C N"
_symmetry_group_IT_number 60
_symmetry_cell_setting 'orthorhombic'
loop_
_space_group_symop_operation_xyz
x,y,z
1/2-x,1/2-y,1/2+z
1/2+x,1/2-y,-z
-x,y,1/2-z
-x,-y,-z
1/2+x,1/2+y,1/2-z
1/2-x,1/2+y,z
x,-y,1/2+z
loop_
_atom_site_type_symbol
_atom_site_label
_atom_site_fract_x
_atom_site_fract_y
_atom_site_fract_z
Si Si1 0.610876 0.726173 0.977585
Si Si2 0.500000 0.261630 0.250000
Si Si3 0.839271 0.436671 0.753710
Si Si4 0.152822 0.197488 0.090305
Si Si5 0.771559 0.679558 0.174261
Si Si6 0.372571 0.576536 0.053520
Si Si7 0.403466 0.498297 0.345596
O O1 0.575455 0.703438 0.850040
O O2 0.696859 0.782236 0.958996
O O3 0.469627 0.739188 0.050638
O O4 0.699968 0.683009 0.050942
O O5 0.393379 0.224110 0.320056
O O6 0.834836 0.380090 0.686790
O O7 0.775267 0.430698 0.879327
O O8 0.749374 0.482564 0.692863
O O9 0.000000 0.457213 0.750000
O O10 0.158453 0.191333 0.225690
O O11 0.107381 0.140434 0.033895
O O12 0.507751 0.551604 0.117663
O O13 0.365960 0.546651 0.935732
O O14 0.500000 0.469664 0.250000
#
# Coordination Sequence:
#
# PCOD8246559 Si02
#       7
#     8   4   8   8   8   8   8
#     4  11  20  35  54  78 113 148 188 231 282 332
#     4  10  20  34  48  82 112 144 182 236 276 330
#     4  10  19  32  59  86 109 140 186 246 288 333
#     4  10  21  34  56  81 109 150 191 235 277 333
#     4  10  19  35  56  78 111 145 193 229 282 337
#     4   9  19  36  54  80 111 144 194 229 275 344
#     4   9  18  35  56  79 110 147 186 232 285 339
#
# _framework density 18.769646000000002
#
# number of rings (size 3 to 8) (size 9 to 14) (size 15 to 20)
#    0.000    2.154    2.308    1.385    0.000    3.077 
#    1.385    0.000    0.000    1.846    0.000    0.000 
#    0.000    0.000    0.000    0.000    0.000    0.000 
#
# Total GULP energy -644379.276861 kJ/mol
# GULP energy per Si atom -12391.909170 kJ/mol
# Density = 1.872693 g / cm^3
# Si number density = 18.769646 Si / 1000 Ang^3
#
#
#
# Elastic Constant Matrix: (Units=GPa)
#
#
# Indices 1 2 3 4 5 6 
#
# 1 124.1303 29.0496 55.3370 0.0000 0.0000 0.0000
# 2 29.0496 64.1038 49.3520 0.0000 0.0000 0.0000
# 3 55.3370 49.3520 131.8122 0.0000 0.0000 0.0000
# 4 0.0000 0.0000 0.0000 18.8768 0.0000 0.0000
# 5 0.0000 0.0000 0.0000 0.0000 29.6191 0.0000
# 6 0.0000 0.0000 0.0000 0.0000 0.0000 13.3338
#
#
#
# Elastic Compliance Matrix: (Units=1/GPa)
#
#
# Indices 1 2 3 4 5 6 
#
# 1 0.010063 -0.001837 -0.003537 0.000000 0.000000 0.000000
# 2 -0.001837 0.022253 -0.007560 0.000000 0.000000 0.000000
# 3 -0.003537 -0.007560 0.011902 0.000000 0.000000 0.000000
# 4 0.000000 0.000000 0.000000 0.052975 0.000000 0.000000
# 5 0.000000 0.000000 0.000000 0.000000 0.033762 0.000000
# 6 0.000000 0.000000 0.000000 0.000000 0.000000 0.074997
#
#
# Mechanical properties :
#
#
# Convention : Reuss Voigt Hill
#
# Bulk Modulus (GPa) = 54.49913 65.28038 59.88976
# Shear Modulus (GPa) = 21.01400 24.78645 22.90023
#
# Velocity S-wave (km/s) = 3.34963 3.63789 3.49674
# Velocity P-wave (km/s) = 6.63769 7.24575 6.94838
#
# Compressibility (1/GPa) = 0.01834892
#
# Stress axis : x y z
#
# Youngs Moduli (GPa) = 99.37781 44.93808 84.01989
#
# Poissons Ratio (x) = 0.08257 0.29714
# Poissons Ratio (y) = 0.18259 0.63522
# Poissons Ratio (z) = 0.35145 0.33975
#
# Static dielectric constant tensor:
#      x y z
#    x 3.572010 0.000000 0.000000 
#    y 0.000000 3.108830 0.000000 
#    z 0.000000 0.000000 3.621840 
# 
# 
# High freq. dielectric constant tensor:
#      x y z
#    x 1.738750 0.000000 0.000000 
#    y 0.000000 1.691510 0.000000 
#    z 0.000000 0.000000 1.732930 
# 
# From -- ./inp_files/10251.got.cif
#   From: 2010.03.12/outbox.cif.g09.slc.cpg/sg60_6_cif.got.tgz:10251.got - 2010.04.10 18:46:24.
