data_PCOD8246357
_publ_section_title
;
Structure prediction by ZEFSAII (Michael W. Deem and Ramdas Pophale) SiO2 
 PCOD8246357
Probable space group: P B C N
;
_chemical_formula_sum "Si O2"
_cell_formula_units_Z 52
_cell_length_a 21.511289
_cell_length_b 25.352868
_cell_length_c 5.442336
_cell_angle_alpha 90.000000
_cell_angle_beta 90.000000
_cell_angle_gamma 90.000000
_cell_volume 2968.102407
_symmetry_space_group_name_H-M "P B C N"
_symmetry_group_IT_number 60
_symmetry_cell_setting 'orthorhombic'
loop_
_space_group_symop_operation_xyz
x,y,z
1/2-x,1/2-y,1/2+z
1/2+x,1/2-y,-z
-x,y,1/2-z
-x,-y,-z
1/2+x,1/2+y,1/2-z
1/2-x,1/2+y,z
x,-y,1/2+z
loop_
_atom_site_type_symbol
_atom_site_label
_atom_site_fract_x
_atom_site_fract_y
_atom_site_fract_z
Si Si1 0.197475 0.866374 0.815254
Si Si2 0.772800 0.724083 0.988388
Si Si3 0.089509 0.023395 0.837856
Si Si4 0.618706 0.288711 0.986683
Si Si5 0.228257 0.017970 0.276502
Si Si6 0.081105 0.132347 0.639294
Si Si7 0.500000 0.324030 0.750000
O O1 0.250341 0.836011 0.974088
O O2 0.173470 0.828464 0.599724
O O3 0.225845 0.920103 0.710034
O O4 0.138030 0.885121 0.969534
O O5 0.746875 0.759343 0.213737
O O6 0.848539 0.731186 0.004747
O O7 0.075359 0.086149 0.841332
O O8 0.058746 0.999364 0.588810
O O9 0.162532 0.010298 0.837564
O O10 0.595503 0.310145 0.247726
O O11 0.560019 0.287371 0.802312
O O12 0.262904 0.009207 0.541512
O O13 0.016948 0.139093 0.484325
#
# Coordination Sequence:
#
# PCOD8246357 Si02
#       7
#     8   8   8   8   8   8   4
#     4  10  19  30  51  73  97 125 163 205 249 305
#     4  10  20  33  52  78  98 123 156 207 261 302
#     4  10  19  30  48  66  88 123 162 205 249 282
#     4  10  20  35  51  69  97 125 167 207 255 302
#     4  10  18  28  45  70  95 128 160 191 247 295
#     4  11  19  34  51  64  94 126 169 209 244 298
#     4  10  24  34  50  68  88 134 172 208 252 286
#
# _framework density 17.519611000000001
#
# number of rings (size 3 to 8) (size 9 to 14) (size 15 to 20)
#    0.000    1.846    4.615    2.308    2.154    0.000 
#    0.000    0.769    0.000    0.000    0.000    0.000 
#    0.000    0.000    0.000    1.385    0.000    0.154 
#
# Total GULP energy -644254.635421 kJ/mol
# GULP energy per Si atom -12389.512220 kJ/mol
# Density = 1.747974 g / cm^3
# Si number density = 17.519611 Si / 1000 Ang^3
#
#
#
# Elastic Constant Matrix: (Units=GPa)
#
#
# Indices 1 2 3 4 5 6 
#
# 1 53.3271 34.8346 9.5213 0.0000 0.0000 0.0000
# 2 34.8346 53.2003 3.9285 0.0000 0.0000 0.0000
# 3 9.5213 3.9285 99.8260 0.0000 0.0000 0.0000
# 4 0.0000 0.0000 0.0000 21.4016 0.0000 0.0000
# 5 0.0000 0.0000 0.0000 0.0000 18.7091 0.0000
# 6 0.0000 0.0000 0.0000 0.0000 0.0000 13.3156
#
#
#
# Elastic Compliance Matrix: (Units=1/GPa)
#
#
# Indices 1 2 3 4 5 6 
#
# 1 0.033297 -0.021631 -0.002325 0.000000 0.000000 0.000000
# 2 -0.021631 0.032903 0.000768 0.000000 0.000000 0.000000
# 3 -0.002325 0.000768 0.010209 0.000000 0.000000 0.000000
# 4 0.000000 0.000000 0.000000 0.046725 0.000000 0.000000
# 5 0.000000 0.000000 0.000000 0.000000 0.053450 0.000000
# 6 0.000000 0.000000 0.000000 0.000000 0.000000 0.075100
#
#
# Mechanical properties :
#
#
# Convention : Reuss Voigt Hill
#
# Bulk Modulus (GPa) = 33.29400 33.65803 33.47602
# Shear Modulus (GPa) = 16.23007 21.22319 18.72663
#
# Velocity S-wave (km/s) = 3.04697 3.48429 3.27294
# Velocity P-wave (km/s) = 5.60570 5.95318 5.78205
#
# Compressibility (1/GPa) = 0.03003544
#
# Stress axis : x y z
#
# Youngs Moduli (GPa) = 30.03285 30.39197 97.95362
#
# Poissons Ratio (x) = 0.65739 0.22770
# Poissons Ratio (y) = 0.64963 -0.07525
# Poissons Ratio (z) = 0.06981 -0.02335
#
# Static dielectric constant tensor:
#      x y z
#    x 3.096400 0.000000 0.000000 
#    y 0.000000 3.171980 0.000000 
#    z 0.000000 0.000000 3.830920 
# 
# 
# High freq. dielectric constant tensor:
#      x y z
#    x 1.618960 0.000000 0.000000 
#    y 0.000000 1.643510 0.000000 
#    z 0.000000 0.000000 1.708510 
# 
# From -- ./inp_files/1816.got.cif
#   From: 2010.03.12/outbox.cif.g09.slc.cpg/sg60_1_cif.got.tgz:1816.got - 2010.04.10 18:46:24.
