data_PCOD8246817
_publ_section_title
;
Structure prediction by ZEFSAII (Michael W. Deem and Ramdas Pophale) SiO2 
 PCOD8246817
Probable space group: P B C N
;
_chemical_formula_sum "Si O2"
_cell_formula_units_Z 56
_cell_length_a 21.040238
_cell_length_b 17.213753
_cell_length_c 9.443554
_cell_angle_alpha 90.000000
_cell_angle_beta 90.000000
_cell_angle_gamma 90.000000
_cell_volume 3420.280175
_symmetry_space_group_name_H-M "P B C N"
_symmetry_group_IT_number 60
_symmetry_cell_setting 'orthorhombic'
loop_
_space_group_symop_operation_xyz
x,y,z
1/2-x,1/2-y,1/2+z
1/2+x,1/2-y,-z
-x,y,1/2-z
-x,-y,-z
1/2+x,1/2+y,1/2-z
1/2-x,1/2+y,z
x,-y,1/2+z
loop_
_atom_site_type_symbol
_atom_site_label
_atom_site_fract_x
_atom_site_fract_y
_atom_site_fract_z
Si Si1 0.045721 0.514222 0.627906
Si Si2 0.810882 0.230072 0.301713
Si Si3 0.182920 0.244716 0.527398
Si Si4 0.779380 0.936935 0.781698
Si Si5 0.645232 0.139091 0.970374
Si Si6 0.640318 0.121848 0.300230
Si Si7 0.284353 0.420897 0.036536
O O1 0.093959 0.581240 0.589770
O O2 0.082246 0.436015 0.672598
O O3 0.000000 0.544870 0.750000
O O4 0.000000 0.500000 0.500000
O O5 0.744379 0.238803 0.379643
O O6 0.825115 0.137749 0.305936
O O7 0.863868 0.278026 0.389850
O O8 0.806303 0.261190 0.139635
O O9 0.130683 0.303764 0.594044
O O10 0.166991 0.152636 0.545760
O O11 0.706953 0.921167 0.832887
O O12 0.780560 0.958642 0.617647
O O13 0.808225 0.011244 0.860817
O O14 0.713984 0.108021 0.923128
O O15 0.639349 0.151364 0.138325
#
# Coordination Sequence:
#
# PCOD8246817 Si02
#       7
#     8   8   8   8   8   8   8
#     4  12  24  36  50  72  98 132 176 214 244 287
#     4   9  18  30  46  68  93 125 161 197 243 298
#     4   9  18  30  46  68  93 125 161 197 243 297
#     4   9  17  28  45  69  95 123 157 192 238 294
#     4  10  20  34  47  66  95 128 166 206 246 287
#     4  10  20  34  47  66  95 128 166 206 246 288
#     4   9  17  28  45  69  95 123 157 192 238 293
#
# _framework density 16.372927000000001
#
# number of rings (size 3 to 8) (size 9 to 14) (size 15 to 20)
#    0.000    2.286    2.857    2.571    2.000    5.714 
#    0.000    0.000    0.000    0.000    0.000    0.000 
#    0.000    2.286    0.000    0.143    0.000    0.143 
#
# Total GULP energy -693922.525684 kJ/mol
# GULP energy per Si atom -12391.473673 kJ/mol
# Density = 1.633566 g / cm^3
# Si number density = 16.372927 Si / 1000 Ang^3
#
#
#
# Elastic Constant Matrix: (Units=GPa)
#
#
# Indices 1 2 3 4 5 6 
#
# 1 33.9480 23.2892 17.9023 0.0000 0.0000 0.0000
# 2 23.2892 88.7585 42.0422 0.0000 0.0000 0.0000
# 3 17.9023 42.0422 92.0027 0.0000 0.0000 0.0000
# 4 0.0000 0.0000 0.0000 36.3954 0.0000 0.0000
# 5 0.0000 0.0000 0.0000 0.0000 23.1642 0.0000
# 6 0.0000 0.0000 0.0000 0.0000 0.0000 17.1057
#
#
#
# Elastic Compliance Matrix: (Units=1/GPa)
#
#
# Indices 1 2 3 4 5 6 
#
# 1 0.036789 -0.007992 -0.003506 0.000000 0.000000 0.000000
# 2 -0.007992 0.016115 -0.005809 0.000000 0.000000 0.000000
# 3 -0.003506 -0.005809 0.014206 0.000000 0.000000 0.000000
# 4 0.000000 0.000000 0.000000 0.027476 0.000000 0.000000
# 5 0.000000 0.000000 0.000000 0.000000 0.043170 0.000000
# 6 0.000000 0.000000 0.000000 0.000000 0.000000 0.058460
#
#
# Mechanical properties :
#
#
# Convention : Reuss Voigt Hill
#
# Bulk Modulus (GPa) = 30.77397 42.35296 36.56347
# Shear Modulus (GPa) = 20.69004 24.09809 22.39406
#
# Velocity S-wave (km/s) = 3.55868 3.84060 3.70232
# Velocity P-wave (km/s) = 5.97679 6.75209 6.37624
#
# Compressibility (1/GPa) = 0.03249499
#
# Stress axis : x y z
#
# Youngs Moduli (GPa) = 27.18230 62.05379 70.39262
#
# Poissons Ratio (x) = 0.49594 0.24683
# Poissons Ratio (y) = 0.21724 0.40891
# Poissons Ratio (z) = 0.09531 0.36047
#
# Static dielectric constant tensor:
#      x y z
#    x 2.658600 0.000000 0.000000 
#    y 0.000000 3.427490 0.000000 
#    z 0.000000 0.000000 3.259140 
# 
# 
# High freq. dielectric constant tensor:
#      x y z
#    x 1.563110 0.000000 0.000000 
#    y 0.000000 1.638700 0.000000 
#    z 0.000000 0.000000 1.650390 
# 
# From -- ./inp_files/7517.got.cif
#   From: 2010.03.12/outbox.cif.g09.slc.cpg/sg60_4_cif.got.tgz:7517.got - 2010.04.10 18:46:24.
