data_PCOD8246983
_publ_section_title
;
Structure prediction by ZEFSAII (Michael W. Deem and Ramdas Pophale) SiO2 
 PCOD8246983
Probable space group: P B C N
;
_chemical_formula_sum "Si O2"
_cell_formula_units_Z 56
_cell_length_a 15.221318
_cell_length_b 8.953808
_cell_length_c 19.958207
_cell_angle_alpha 90.000000
_cell_angle_beta 90.000000
_cell_angle_gamma 90.000000
_cell_volume 2720.079261
_symmetry_space_group_name_H-M "P B C N"
_symmetry_group_IT_number 60
_symmetry_cell_setting 'orthorhombic'
loop_
_space_group_symop_operation_xyz
x,y,z
1/2-x,1/2-y,1/2+z
1/2+x,1/2-y,-z
-x,y,1/2-z
-x,-y,-z
1/2+x,1/2+y,1/2-z
1/2-x,1/2+y,z
x,-y,1/2+z
loop_
_atom_site_type_symbol
_atom_site_label
_atom_site_fract_x
_atom_site_fract_y
_atom_site_fract_z
Si Si1 0.824290 0.048559 0.845604
Si Si2 0.154827 0.115624 0.807769
Si Si3 0.483534 0.261516 0.524019
Si Si4 0.670703 0.138361 0.529219
Si Si5 0.302011 0.255469 0.585843
Si Si6 0.265773 0.123480 0.384966
Si Si7 0.493495 0.558143 0.899299
O O1 0.835092 0.109793 0.771317
O O2 0.737291 0.110531 0.879860
O O3 0.906080 0.106204 0.889340
O O4 0.821339 0.869703 0.852777
O O5 0.170212 0.282196 0.836566
O O6 0.056603 0.068728 0.828704
O O7 0.221431 0.998276 0.838430
O O8 0.565540 0.147949 0.514626
O O9 0.393252 0.194454 0.553910
O O10 0.517572 0.392476 0.572265
O O11 0.452398 0.326977 0.452573
O O12 0.735421 0.164603 0.466141
O O13 0.694482 0.265156 0.583356
O O14 0.684454 0.969273 0.556420
#
# Coordination Sequence:
#
# PCOD8246983 Si02
#       7
#     8   8   8   8   8   8   8
#     4  11  23  40  60  85 126 161 205 254 297 379
#     4  11  21  40  59  89 119 167 207 241 303 376
#     4  10  20  37  63  89 126 151 201 259 314 367
#     4  11  20  40  60  95 124 154 204 269 308 372
#     4  11  23  39  62  92 120 165 202 255 323 355
#     4  10  22  35  64  87 121 159 205 254 312 359
#     4  10  20  37  62  91 114 160 203 252 307 366
#
# _framework density 20.587634000000001
#
# number of rings (size 3 to 8) (size 9 to 14) (size 15 to 20)
#    0.000    1.429    2.857    3.857    2.000    0.000 
#    2.571    2.143    0.000    0.000    0.000    0.000 
#    0.000    0.000    0.000    0.000    0.000    0.000 
#
# Total GULP energy -694193.676845 kJ/mol
# GULP energy per Si atom -12396.315658 kJ/mol
# Density = 2.054078 g / cm^3
# Si number density = 20.587634 Si / 1000 Ang^3
#
#
#
# Elastic Constant Matrix: (Units=GPa)
#
#
# Indices 1 2 3 4 5 6 
#
# 1 118.3724 18.4025 23.6116 0.0000 0.0000 0.0000
# 2 18.4025 64.3048 16.1091 0.0000 0.0000 0.0000
# 3 23.6116 16.1091 74.0131 0.0000 0.0000 0.0000
# 4 0.0000 0.0000 0.0000 28.2263 0.0000 0.0000
# 5 0.0000 0.0000 0.0000 0.0000 26.2255 0.0000
# 6 0.0000 0.0000 0.0000 0.0000 0.0000 24.6267
#
#
#
# Elastic Compliance Matrix: (Units=1/GPa)
#
#
# Indices 1 2 3 4 5 6 
#
# 1 0.009264 -0.002021 -0.002515 0.000000 0.000000 0.000000
# 2 -0.002021 0.016889 -0.003031 0.000000 0.000000 0.000000
# 3 -0.002515 -0.003031 0.014973 0.000000 0.000000 0.000000
# 4 0.000000 0.000000 0.000000 0.035428 0.000000 0.000000
# 5 0.000000 0.000000 0.000000 0.000000 0.038131 0.000000
# 6 0.000000 0.000000 0.000000 0.000000 0.000000 0.040606
#
#
# Mechanical properties :
#
#
# Convention : Reuss Voigt Hill
#
# Bulk Modulus (GPa) = 38.47526 41.43740 39.95633
# Shear Modulus (GPa) = 27.91898 29.05350 28.48624
#
# Velocity S-wave (km/s) = 3.68653 3.76068 3.72379
# Velocity P-wave (km/s) = 6.07040 6.24724 6.15945
#
# Compressibility (1/GPa) = 0.02599073
#
# Stress axis : x y z
#
# Youngs Moduli (GPa) = 107.94634 59.21146 66.78541
#
# Poissons Ratio (x) = 0.11966 0.16800
# Poissons Ratio (y) = 0.21815 0.20243
# Poissons Ratio (z) = 0.27154 0.17948
#
# Static dielectric constant tensor:
#      x y z
#    x 3.745660 0.000000 0.000000 
#    y 0.000000 3.649670 0.000000 
#    z 0.000000 0.000000 3.653820 
# 
# 
# High freq. dielectric constant tensor:
#      x y z
#    x 1.811610 0.000000 0.000000 
#    y 0.000000 1.800440 0.000000 
#    z 0.000000 0.000000 1.796840 
# 
# From -- ./inp_files/22906.got.cif
#   From: 2010.03.12/outbox.cif.g09.slc.cpg/sg60_12_cif.got.tgz:22906.got - 2010.04.10 18:46:24.
