data_PCOD8246715
_publ_section_title
;
Structure prediction by ZEFSAII (Michael W. Deem and Ramdas Pophale) SiO2 
 PCOD8246715
Probable space group: P B C N
;
_chemical_formula_sum "Si O2"
_cell_formula_units_Z 48
_cell_length_a 18.946287
_cell_length_b 8.538225
_cell_length_c 13.255335
_cell_angle_alpha 90.000000
_cell_angle_beta 90.000000
_cell_angle_gamma 90.000000
_cell_volume 2144.284543
_symmetry_space_group_name_H-M "P B C N"
_symmetry_group_IT_number 60
_symmetry_cell_setting 'orthorhombic'
loop_
_space_group_symop_operation_xyz
x,y,z
1/2-x,1/2-y,1/2+z
1/2+x,1/2-y,-z
-x,y,1/2-z
-x,-y,-z
1/2+x,1/2+y,1/2-z
1/2-x,1/2+y,z
x,-y,1/2+z
loop_
_atom_site_type_symbol
_atom_site_label
_atom_site_fract_x
_atom_site_fract_y
_atom_site_fract_z
Si Si1 0.313045 0.593991 0.757321
Si Si2 0.422686 0.520435 0.395777
Si Si3 0.896839 0.539478 0.479277
Si Si4 0.698969 0.900604 0.628135
Si Si5 0.525758 0.250250 0.968524
Si Si6 0.191857 0.180131 0.536153
O O1 0.384906 0.500573 0.787338
O O2 0.322375 0.772873 0.790044
O O3 0.247307 0.527999 0.818327
O O4 0.299019 0.580639 0.638473
O O5 0.440277 0.350597 0.441046
O O6 0.492578 0.630482 0.385204
O O7 0.370638 0.605268 0.472623
O O8 0.871955 0.488961 0.592120
O O9 0.916611 0.373674 0.422172
O O10 0.831119 0.640511 0.434040
O O11 0.965580 0.646270 0.479677
O O12 0.736400 0.822867 0.528914
#
# Coordination Sequence:
#
# PCOD8246715 Si02
#       6
#     8   8   8   8   8   8
#     4  11  23  38  63  88 124 160 199 255 309 363
#     4   9  19  39  63  90 117 160 203 246 310 360
#     4  10  19  37  62  89 117 161 203 244 306 355
#     4  11  22  39  59  92 124 159 199 250 305 364
#     4   9  18  36  66  81 119 166 193 250 307 355
#     4  10  23  39  62  91 121 159 204 250 304 368
#
# _framework density 22.385089000000001
#
# number of rings (size 3 to 8) (size 9 to 14) (size 15 to 20)
#    0.000    2.000    3.333    0.000    2.333    0.000 
#    0.000    7.500    3.667    0.000    0.000    0.000 
#    0.000    0.000    0.000    0.000    0.000    0.000 
#
# Total GULP energy -594700.170370 kJ/mol
# GULP energy per Si atom -12389.586883 kJ/mol
# Density = 2.233414 g / cm^3
# Si number density = 22.385089 Si / 1000 Ang^3
#
#
#
# Elastic Constant Matrix: (Units=GPa)
#
#
# Indices 1 2 3 4 5 6 
#
# 1 36.8935 7.4694 -0.9812 0.0000 0.0000 0.0000
# 2 7.4694 97.9866 1.8538 0.0000 0.0000 0.0000
# 3 -0.9812 1.8538 78.0919 0.0000 0.0000 0.0000
# 4 0.0000 0.0000 0.0000 20.1888 0.0000 0.0000
# 5 0.0000 0.0000 0.0000 0.0000 8.7594 0.0000
# 6 0.0000 0.0000 0.0000 0.0000 0.0000 33.9008
#
#
#
# Elastic Compliance Matrix: (Units=1/GPa)
#
#
# Indices 1 2 3 4 5 6 
#
# 1 0.027542 -0.002107 0.000396 0.000000 0.000000 0.000000
# 2 -0.002107 0.010371 -0.000273 0.000000 0.000000 0.000000
# 3 0.000396 -0.000273 0.012817 0.000000 0.000000 0.000000
# 4 0.000000 0.000000 0.000000 0.049532 0.000000 0.000000
# 5 0.000000 0.000000 0.000000 0.000000 0.114163 0.000000
# 6 0.000000 0.000000 0.000000 0.000000 0.000000 0.029498
#
#
# Mechanical properties :
#
#
# Convention : Reuss Voigt Hill
#
# Bulk Modulus (GPa) = 21.38438 25.51733 23.45086
# Shear Modulus (GPa) = 18.97686 26.21179 22.59432
#
# Velocity S-wave (km/s) = 2.91477 3.42562 3.18047
# Velocity P-wave (km/s) = 4.57182 5.20294 4.89755
#
# Compressibility (1/GPa) = 0.04676310
#
# Stress axis : x y z
#
# Youngs Moduli (GPa) = 36.30801 96.42036 78.02214
#
# Poissons Ratio (x) = 0.20316 -0.03090
# Poissons Ratio (y) = 0.07650 0.02128
# Poissons Ratio (z) = -0.01438 0.02629
#
# Static dielectric constant tensor:
#      x y z
#    x 4.329220 0.000000 0.000000 
#    y 0.000000 4.609790 0.000000 
#    z 0.000000 0.000000 3.474770 
# 
# 
# High freq. dielectric constant tensor:
#      x y z
#    x 1.888190 0.000000 0.000000 
#    y 0.000000 1.907430 0.000000 
#    z 0.000000 0.000000 1.824290 
# 
# From -- ./inp_files/17875.got.cif
#   From: 2010.03.12/outbox.cif.g09.slc.cpg/sg60_9_cif.got.tgz:17875.got - 2010.04.10 18:46:24.
