data_PCOD8246419
_publ_section_title
;
Structure prediction by ZEFSAII (Michael W. Deem and Ramdas Pophale) SiO2 
 PCOD8246419
Probable space group: P B C N
;
_chemical_formula_sum "Si O2"
_cell_formula_units_Z 48
_cell_length_a 13.723208
_cell_length_b 11.209033
_cell_length_c 13.497611
_cell_angle_alpha 90.000000
_cell_angle_beta 90.000000
_cell_angle_gamma 90.000000
_cell_volume 2076.255048
_symmetry_space_group_name_H-M "P B C N"
_symmetry_group_IT_number 60
_symmetry_cell_setting 'orthorhombic'
loop_
_space_group_symop_operation_xyz
x,y,z
1/2-x,1/2-y,1/2+z
1/2+x,1/2-y,-z
-x,y,1/2-z
-x,-y,-z
1/2+x,1/2+y,1/2-z
1/2-x,1/2+y,z
x,-y,1/2+z
loop_
_atom_site_type_symbol
_atom_site_label
_atom_site_fract_x
_atom_site_fract_y
_atom_site_fract_z
Si Si1 0.164937 0.130772 0.583599
Si Si2 0.160927 0.125143 0.100144
Si Si3 0.429957 0.991238 0.865688
Si Si4 0.792119 0.302072 0.076371
Si Si5 0.892811 0.377690 0.424685
Si Si6 0.181361 0.309854 0.748001
O O1 0.150002 0.191099 0.475599
O O2 0.279914 0.101836 0.600795
O O3 0.129605 0.219439 0.670624
O O4 0.107818 0.004357 0.592949
O O5 0.085130 0.235421 0.090809
O O6 0.220197 0.133296 0.203103
O O7 0.238819 0.127789 0.011299
O O8 0.398167 0.911254 0.772488
O O9 0.364763 0.109832 0.869069
O O10 0.540753 0.040388 0.852448
O O11 0.420002 0.911385 0.963612
O O12 0.710852 0.256509 0.151574
#
# Coordination Sequence:
#
# PCOD8246419 Si02
#       6
#     8   8   8   8   8   8
#     4  10  20  36  58  86 120 167 206 249 311 377
#     4  10  19  37  55  83 124 158 206 251 312 372
#     4  11  18  35  59  89 121 153 211 257 308 361
#     4  10  18  33  56  83 118 159 205 253 306 373
#     4   9  20  33  59  88 118 156 199 260 307 351
#     4  10  19  32  56  89 115 162 204 255 303 368
#
# _framework density 23.118547
#
# number of rings (size 3 to 8) (size 9 to 14) (size 15 to 20)
#    0.000    2.333    5.000    1.000    0.000    0.000 
#    0.000    8.333    0.000    0.000    8.667    0.000 
#    0.000    0.000    0.000    0.000    0.000    0.000 
#
# Total GULP energy -594935.893407 kJ/mol
# GULP energy per Si atom -12394.497779 kJ/mol
# Density = 2.306593 g / cm^3
# Si number density = 23.118547 Si / 1000 Ang^3
#
#
#
# Elastic Constant Matrix: (Units=GPa)
#
#
# Indices 1 2 3 4 5 6 
#
# 1 61.2027 24.5746 18.6306 0.0000 0.0000 0.0000
# 2 24.5746 184.9080 39.1219 0.0000 0.0000 0.0000
# 3 18.6306 39.1219 58.9383 0.0000 0.0000 0.0000
# 4 0.0000 0.0000 0.0000 44.3302 0.0000 0.0000
# 5 0.0000 0.0000 0.0000 0.0000 22.8408 0.0000
# 6 0.0000 0.0000 0.0000 0.0000 0.0000 36.0469
#
#
#
# Elastic Compliance Matrix: (Units=1/GPa)
#
#
# Indices 1 2 3 4 5 6 
#
# 1 0.018391 -0.001413 -0.004876 0.000000 0.000000 0.000000
# 2 -0.001413 0.006400 -0.003802 0.000000 0.000000 0.000000
# 3 -0.004876 -0.003802 0.021032 0.000000 0.000000 0.000000
# 4 0.000000 0.000000 0.000000 0.022558 0.000000 0.000000
# 5 0.000000 0.000000 0.000000 0.000000 0.043781 0.000000
# 6 0.000000 0.000000 0.000000 0.000000 0.000000 0.027742
#
#
# Mechanical properties :
#
#
# Convention : Reuss Voigt Hill
#
# Bulk Modulus (GPa) = 38.99804 52.18924 45.59364
# Shear Modulus (GPa) = 29.65058 35.49171 32.57114
#
# Velocity S-wave (km/s) = 3.58515 3.92242 3.75757
# Velocity P-wave (km/s) = 5.83464 6.56791 6.21211
#
# Compressibility (1/GPa) = 0.02564231
#
# Stress axis : x y z
#
# Youngs Moduli (GPa) = 54.37579 156.24540 47.54741
#
# Poissons Ratio (x) = 0.22071 0.23183
# Poissons Ratio (y) = 0.07681 0.18076
# Poissons Ratio (z) = 0.26512 0.59401
#
# Static dielectric constant tensor:
#      x y z
#    x 3.695750 0.000000 0.000000 
#    y 0.000000 4.729770 0.000000 
#    z 0.000000 0.000000 4.157730 
# 
# 
# High freq. dielectric constant tensor:
#      x y z
#    x 1.856850 0.000000 0.000000 
#    y 0.000000 1.934600 0.000000 
#    z 0.000000 0.000000 1.920760 
# 
# From -- ./inp_files/16792.got.cif
#   From: 2010.03.12/outbox.cif.g09.slc.cpg/sg60_9_cif.got.tgz:16792.got - 2010.04.10 18:46:24.
