data_PCOD8246078
_publ_section_title
;
Structure prediction by ZEFSAII (Michael W. Deem and Ramdas Pophale) SiO2 
 PCOD8246078
Probable space group: P M M N
;
_chemical_formula_sum "Si O2"
_cell_formula_units_Z 56
_cell_length_a 13.949673
_cell_length_b 9.643523
_cell_length_c 21.179048
_cell_angle_alpha 90.000000
_cell_angle_beta 90.000000
_cell_angle_gamma 90.000000
_cell_volume 2849.090093
_symmetry_space_group_name_H-M "P M M N"
_symmetry_group_IT_number 59
_space_group.IT_coordinate_system_code '2'
_symmetry_cell_setting 'orthorhombic'
loop_
_space_group_symop_operation_xyz
x,y,z
1/2-x,1/2-y,z
1/2+x,-y,-z
-x,1/2+y,-z
-x,-y,-z
1/2+x,1/2+y,-z
1/2-x,y,z
x,1/2-y,z
loop_
_atom_site_type_symbol
_atom_site_label
_atom_site_fract_x
_atom_site_fract_y
_atom_site_fract_z
Si Si1 0.360586 0.089066 0.219533
Si Si2 0.363081 0.906812 0.969037
Si Si3 0.640027 0.588164 0.527339
Si Si4 0.487320 0.092311 0.589868
Si Si5 0.864181 0.903197 0.921680
Si Si6 0.136346 0.592485 0.828529
Si Si7 0.021293 0.410814 0.732184
O O1 0.250000 0.050770 0.227234
O O2 0.378081 0.250000 0.236917
O O3 0.399234 0.058079 0.148650
O O4 0.418558 0.986466 0.264608
O O5 0.250000 0.931804 0.968319
O O6 0.387795 0.750000 0.986412
O O7 0.403328 0.943586 0.899126
O O8 0.410100 0.999407 0.024504
O O9 0.750000 0.538615 0.529283
O O10 0.631658 0.750000 0.543492
O O11 0.598247 0.553887 0.458002
O O12 0.579513 0.505172 0.579517
O O13 0.521888 0.250000 0.579256
O O14 0.444352 0.073285 0.659949
O O15 0.750000 0.910039 0.920603
O O16 0.899885 0.750000 0.939104
O O17 0.250000 0.579965 0.828455
O O18 0.105505 0.750000 0.810968
O O19 0.096523 0.485446 0.777738
O O20 0.012170 0.250000 0.751801
#
# Coordination Sequence:
#
# PCOD8246078 Si02
#       7
#     8   8   8   8   8   8   8
#     4   9  19  36  55  74 101 140 182 223 269 320
#     4   8  14  26  46  71  97 127 165 213 270 322
#     4   9  18  35  60  85 107 136 174 211 249 299
#     4   9  20  37  54  78 113 144 170 209 258 302
#     4   8  14  26  46  71  96 125 166 217 271 321
#     4   9  19  36  55  75 103 140 180 221 266 318
#     4  11  23  36  53  79 110 144 179 216 260 309
#
# _framework density 19.655398999999999
#
# number of rings (size 3 to 8) (size 9 to 14) (size 15 to 20)
#    0.000    3.000    0.000    2.143    0.000    4.286 
#    0.000    7.857    0.000    0.000    0.000    0.000 
#    0.000    0.000    0.000    0.000    0.000    0.000 
#
# Total GULP energy -694222.796282 kJ/mol
# GULP energy per Si atom -12396.835648 kJ/mol
# Density = 1.961066 g / cm^3
# Si number density = 19.655399 Si / 1000 Ang^3
#
#
#
# Elastic Constant Matrix: (Units=GPa)
#
#
# Indices 1 2 3 4 5 6 
#
# 1 15.9616 9.5355 -7.1812 0.0000 0.0000 0.0000
# 2 9.5355 85.2600 45.2805 0.0000 0.0000 0.0000
# 3 -7.1812 45.2805 84.8382 0.0000 0.0000 0.0000
# 4 0.0000 0.0000 0.0000 35.1177 0.0000 0.0000
# 5 0.0000 0.0000 0.0000 0.0000 25.8849 0.0000
# 6 0.0000 0.0000 0.0000 0.0000 0.0000 25.9277
#
#
#
# Elastic Compliance Matrix: (Units=1/GPa)
#
#
# Indices 1 2 3 4 5 6 
#
# 1 0.080460 -0.017606 0.016208 0.000000 0.000000 0.000000
# 2 -0.017606 0.020221 -0.012283 0.000000 0.000000 0.000000
# 3 0.016208 -0.012283 0.019715 0.000000 0.000000 0.000000
# 4 0.000000 0.000000 0.000000 0.028476 0.000000 0.000000
# 5 0.000000 0.000000 0.000000 0.000000 0.038633 0.000000
# 6 0.000000 0.000000 0.000000 0.000000 0.000000 0.038569
#
#
# Mechanical properties :
#
#
# Convention : Reuss Voigt Hill
#
# Bulk Modulus (GPa) = 10.74887 31.25881 21.00384
# Shear Modulus (GPa) = 17.57793 26.61440 22.09617
#
# Velocity S-wave (km/s) = 2.99374 3.68373 3.35651
# Velocity P-wave (km/s) = 4.17498 5.83362 5.07256
#
# Compressibility (1/GPa) = 0.09303300
#
# Stress axis : x y z
#
# Youngs Moduli (GPa) = 12.42849 49.45294 50.72335
#
# Poissons Ratio (x) = 0.87069 -0.82211
# Poissons Ratio (y) = 0.21882 0.62303
# Poissons Ratio (z) = -0.20144 0.60743
#
# Static dielectric constant tensor:
#      x y z
#    x 3.414850 0.000000 0.000000 
#    y 0.000000 3.613940 0.000000 
#    z 0.000000 0.000000 3.797030 
# 
# 
# High freq. dielectric constant tensor:
#      x y z
#    x 1.763610 0.000000 0.000000 
#    y 0.000000 1.758730 0.000000 
#    z 0.000000 0.000000 1.763980 
# 
# From -- ./inp_files/30397.got.cif
#   From: 2010.03.12/outbox.cif.g09.slc.cpg/sg59_16_cif.got.tgz:30397.got - 2010.04.16 16:29:54.
