data_PCOD8246826
_publ_section_title
;
Structure prediction by ZEFSAII (Michael W. Deem and Ramdas Pophale) SiO2 
 PCOD8246826
Probable space group: P B C N
;
_chemical_formula_sum "Si O2"
_cell_formula_units_Z 40
_cell_length_a 8.948210
_cell_length_b 23.998059
_cell_length_c 9.081929
_cell_angle_alpha 90.000000
_cell_angle_beta 90.000000
_cell_angle_gamma 90.000000
_cell_volume 1950.250450
_symmetry_space_group_name_H-M "P B C N"
_symmetry_group_IT_number 60
_symmetry_cell_setting 'orthorhombic'
loop_
_space_group_symop_operation_xyz
x,y,z
1/2-x,1/2-y,1/2+z
1/2+x,1/2-y,-z
-x,y,1/2-z
-x,-y,-z
1/2+x,1/2+y,1/2-z
1/2-x,1/2+y,z
x,-y,1/2+z
loop_
_atom_site_type_symbol
_atom_site_label
_atom_site_fract_x
_atom_site_fract_y
_atom_site_fract_z
Si Si1 0.655031 0.274881 0.327843
Si Si2 0.825894 0.382476 0.272202
Si Si3 0.649456 0.305940 0.664452
Si Si4 0.117653 0.955083 0.379882
Si Si5 0.342474 0.573513 0.449421
O O1 0.500000 0.292294 0.250000
O O2 0.784023 0.318055 0.284030
O O3 0.638742 0.275606 0.504811
O O4 0.709714 0.216012 0.260724
O O5 0.745427 0.408376 0.129919
O O6 0.764582 0.416923 0.411457
O O7 0.000000 0.389141 0.250000
O O8 0.500000 0.290492 0.750000
O O9 0.671042 0.372578 0.654405
O O10 0.000000 0.951483 0.250000
O O11 0.019756 0.938346 0.522173
O O12 0.205182 0.014601 0.378301
#
# Coordination Sequence:
#
# PCOD8246826 Si02
#       5
#     8   8   8   8   8
#     4  11  23  40  60  85 116 158 204 247 304 368
#     4  10  20  34  53  79 113 151 194 249 305 354
#     4  11  22  39  61  87 119 155 202 256 305 362
#     4   9  17  34  58  83 115 154 200 247 300 364
#     4   9  19  35  57  84 112 154 201 245 300 367
#
# _framework density 20.510186999999998
#
# number of rings (size 3 to 8) (size 9 to 14) (size 15 to 20)
#    0.000    2.000    0.000    5.400    0.000    2.400 
#    0.000    1.000    0.000    0.000    0.000    0.000 
#    0.000    0.000    0.000    0.000    0.000    0.000 
#
# Total GULP energy -495726.609120 kJ/mol
# GULP energy per Si atom -12393.165228 kJ/mol
# Density = 2.046350 g / cm^3
# Si number density = 20.510187 Si / 1000 Ang^3
#
#
#
# Elastic Constant Matrix: (Units=GPa)
#
#
# Indices 1 2 3 4 5 6 
#
# 1 125.2712 43.8562 33.2479 0.0000 0.0000 0.0000
# 2 43.8562 126.9284 41.2600 0.0000 0.0000 0.0000
# 3 33.2479 41.2600 77.6566 0.0000 0.0000 0.0000
# 4 0.0000 0.0000 0.0000 31.0414 0.0000 0.0000
# 5 0.0000 0.0000 0.0000 0.0000 26.3356 0.0000
# 6 0.0000 0.0000 0.0000 0.0000 0.0000 35.1333
#
#
#
# Elastic Compliance Matrix: (Units=1/GPa)
#
#
# Indices 1 2 3 4 5 6 
#
# 1 0.009569 -0.002387 -0.002829 0.000000 0.000000 0.000000
# 2 -0.002387 0.010119 -0.004354 0.000000 0.000000 0.000000
# 3 -0.002829 -0.004354 0.016402 0.000000 0.000000 0.000000
# 4 0.000000 0.000000 0.000000 0.032215 0.000000 0.000000
# 5 0.000000 0.000000 0.000000 0.000000 0.037971 0.000000
# 6 0.000000 0.000000 0.000000 0.000000 0.000000 0.028463
#
#
# Mechanical properties :
#
#
# Convention : Reuss Voigt Hill
#
# Bulk Modulus (GPa) = 58.99772 62.95383 60.97578
# Shear Modulus (GPa) = 31.34240 32.60154 31.97197
#
# Velocity S-wave (km/s) = 3.91338 3.99122 3.95249
# Velocity P-wave (km/s) = 7.01762 7.21112 7.11503
#
# Compressibility (1/GPa) = 0.01694981
#
# Stress axis : x y z
#
# Youngs Moduli (GPa) = 104.50375 98.82857 60.96898
#
# Poissons Ratio (x) = 0.23588 0.17247
# Poissons Ratio (y) = 0.24942 0.26547
# Poissons Ratio (z) = 0.29562 0.43032
#
# Static dielectric constant tensor:
#      x y z
#    x 3.627160 0.000000 0.000000 
#    y 0.000000 3.870750 0.000000 
#    z 0.000000 0.000000 3.823350 
# 
# 
# High freq. dielectric constant tensor:
#      x y z
#    x 1.784790 0.000000 0.000000 
#    y 0.000000 1.813590 0.000000 
#    z 0.000000 0.000000 1.793420 
# 
# From -- ./inp_files/3794.got.cif
#   From: 2010.03.12/outbox.cif.g09.slc.cpg/sg60_2_cif.got.tgz:3794.got - 2010.04.10 18:46:24.
