data_PCOD8246356
_publ_section_title
;
Structure prediction by ZEFSAII (Michael W. Deem and Ramdas Pophale) SiO2 
 PCOD8246356
Probable space group: P B C N
;
_chemical_formula_sum "Si O2"
_cell_formula_units_Z 64
_cell_length_a 31.407897
_cell_length_b 13.096801
_cell_length_c 9.489931
_cell_angle_alpha 90.000000
_cell_angle_beta 90.000000
_cell_angle_gamma 90.000000
_cell_volume 3903.616468
_symmetry_space_group_name_H-M "P B C N"
_symmetry_group_IT_number 60
_symmetry_cell_setting 'orthorhombic'
loop_
_space_group_symop_operation_xyz
x,y,z
1/2-x,1/2-y,1/2+z
1/2+x,1/2-y,-z
-x,y,1/2-z
-x,-y,-z
1/2+x,1/2+y,1/2-z
1/2-x,1/2+y,z
x,-y,1/2+z
loop_
_atom_site_type_symbol
_atom_site_label
_atom_site_fract_x
_atom_site_fract_y
_atom_site_fract_z
Si Si1 0.237667 0.904048 0.574355
Si Si2 0.954410 0.609410 0.726592
Si Si3 0.688141 0.196320 0.597996
Si Si4 0.735539 0.403487 0.597667
Si Si5 0.546934 0.125494 0.231739
Si Si6 0.602626 0.882508 0.975886
Si Si7 0.309147 0.802747 0.075383
Si Si8 0.102636 0.617977 0.532613
O O1 0.281844 0.872062 0.500930
O O2 0.245692 0.930216 0.739043
O O3 0.203133 0.815020 0.561832
O O4 0.217930 0.998670 0.487369
O O5 0.958515 0.492198 0.776041
O O6 0.940482 0.621494 0.566976
O O7 0.000000 0.663900 0.750000
O O8 0.917047 0.657306 0.820890
O O9 0.700364 0.315111 0.585540
O O10 0.640360 0.184788 0.540607
O O11 0.692071 0.160352 0.761025
O O12 0.778586 0.371868 0.518800
O O13 0.500000 0.178211 0.250000
O O14 0.585254 0.167669 0.331244
O O15 0.564595 0.139825 0.075794
O O16 0.618011 0.999941 0.963991
O O17 0.355704 0.814161 0.007015
#
# Coordination Sequence:
#
# PCOD8246356 Si02
#       8
#     8   8   8   8   8   8   8   8
#     4  10  21  35  52  70  96 128 158 199 242 283
#     4   9  16  28  44  61  89 129 159 187 232 278
#     4  10  20  34  50  72  97 125 164 200 234 281
#     4  10  21  35  52  70  96 128 158 199 242 283
#     4   9  18  28  40  65  97 129 161 187 230 284
#     4  10  18  28  45  67  96 128 158 197 229 275
#     4  10  20  34  50  72  97 125 164 200 234 281
#     4  10  18  28  45  67  96 128 158 197 229 275
#
# _framework density 16.395053000000001
#
# number of rings (size 3 to 8) (size 9 to 14) (size 15 to 20)
#    0.000    2.250    1.250    2.250    1.750    4.000 
#    0.000    0.000    0.000    0.000    0.000    0.000 
#    0.000    6.000    0.000    0.000    0.000    0.000 
#
# Total GULP energy -793267.681705 kJ/mol
# GULP energy per Si atom -12394.807527 kJ/mol
# Density = 1.635774 g / cm^3
# Si number density = 16.395053 Si / 1000 Ang^3
#
#
#
# Elastic Constant Matrix: (Units=GPa)
#
#
# Indices 1 2 3 4 5 6 
#
# 1 101.9109 27.5204 26.4452 0.0000 0.0000 0.0000
# 2 27.5204 51.6446 31.0462 0.0000 0.0000 0.0000
# 3 26.4452 31.0462 93.9470 0.0000 0.0000 0.0000
# 4 0.0000 0.0000 0.0000 22.0107 0.0000 0.0000
# 5 0.0000 0.0000 0.0000 0.0000 27.3846 0.0000
# 6 0.0000 0.0000 0.0000 0.0000 0.0000 15.4749
#
#
#
# Elastic Compliance Matrix: (Units=1/GPa)
#
#
# Indices 1 2 3 4 5 6 
#
# 1 0.011636 -0.005280 -0.001530 0.000000 0.000000 0.000000
# 2 -0.005280 0.026560 -0.007291 0.000000 0.000000 0.000000
# 3 -0.001530 -0.007291 0.013484 0.000000 0.000000 0.000000
# 4 0.000000 0.000000 0.000000 0.045432 0.000000 0.000000
# 5 0.000000 0.000000 0.000000 0.000000 0.036517 0.000000
# 6 0.000000 0.000000 0.000000 0.000000 0.000000 0.064621
#
#
# Mechanical properties :
#
#
# Convention : Reuss Voigt Hill
#
# Bulk Modulus (GPa) = 42.59511 46.39177 44.49344
# Shear Modulus (GPa) = 21.34219 23.80678 22.57448
#
# Velocity S-wave (km/s) = 3.61189 3.81474 3.71470
# Velocity P-wave (km/s) = 6.59023 6.91090 6.75247
#
# Compressibility (1/GPa) = 0.02347688
#
# Stress axis : x y z
#
# Youngs Moduli (GPa) = 85.94363 37.65104 74.15991
#
# Poissons Ratio (x) = 0.19881 0.11349
# Poissons Ratio (y) = 0.45382 0.54067
# Poissons Ratio (z) = 0.13152 0.27450
#
# Static dielectric constant tensor:
#      x y z
#    x 3.051420 0.000000 0.000000 
#    y 0.000000 2.753590 0.000000 
#    z 0.000000 0.000000 3.273590 
# 
# 
# High freq. dielectric constant tensor:
#      x y z
#    x 1.633500 0.000000 0.000000 
#    y 0.000000 1.572070 0.000000 
#    z 0.000000 0.000000 1.653600 
# 
# From -- ./inp_files/8547.got.cif
#   From: 2010.03.12/outbox.cif.g09.slc.cpg/sg60_5_cif.got.tgz:8547.got - 2010.04.10 18:46:24.
