data_PCOD8246146
_publ_section_title
;
Structure prediction by ZEFSAII (Michael W. Deem and Ramdas Pophale) SiO2 
 PCOD8246146
Probable space group: P M M N
;
_chemical_formula_sum "Si O2"
_cell_formula_units_Z 64
_cell_length_a 9.664904
_cell_length_b 19.046866
_cell_length_c 20.545942
_cell_angle_alpha 90.000000
_cell_angle_beta 90.000000
_cell_angle_gamma 90.000000
_cell_volume 3782.222979
_symmetry_space_group_name_H-M "P M M N"
_symmetry_group_IT_number 59
_space_group.IT_coordinate_system_code '2'
_symmetry_cell_setting 'orthorhombic'
loop_
_space_group_symop_operation_xyz
x,y,z
1/2-x,1/2-y,z
1/2+x,-y,-z
-x,1/2+y,-z
-x,-y,-z
1/2+x,1/2+y,-z
1/2-x,y,z
x,1/2-y,z
loop_
_atom_site_type_symbol
_atom_site_label
_atom_site_fract_x
_atom_site_fract_y
_atom_site_fract_z
Si Si1 0.413584 0.329934 0.770022
Si Si2 0.594885 0.166434 0.512505
Si Si3 0.903176 0.833513 0.374703
Si Si4 0.405261 0.666564 0.631102
Si Si5 0.089108 0.930569 0.991010
Si Si6 0.095199 0.919352 0.134732
Si Si7 0.409603 0.168547 0.252156
Si Si8 0.910177 0.916123 0.875449
O O1 0.250000 0.336954 0.778312
O O2 0.460754 0.250000 0.782688
O O3 0.457712 0.353995 0.697211
O O4 0.485832 0.379797 0.821416
O O5 0.750000 0.139432 0.524738
O O6 0.590417 0.250000 0.516228
O O7 0.499724 0.133491 0.569154
O O8 0.544348 0.141576 0.440716
O O9 0.750000 0.864379 0.385768
O O10 0.898077 0.750000 0.379553
O O11 0.250000 0.639090 0.644401
O O12 0.407536 0.750000 0.632718
O O13 0.505670 0.636831 0.686879
O O14 0.250000 0.946621 0.972970
O O15 0.011811 0.888165 0.933142
O O16 0.082938 0.890617 0.060388
O O17 0.000000 0.000000 0.000000
O O18 0.250000 0.904782 0.160911
O O19 0.063462 0.002055 0.137926
O O20 0.250000 0.156825 0.268980
O O21 0.443777 0.250000 0.240044
O O22 0.453579 0.126796 0.188094
O O23 0.750000 0.902432 0.894848
#
# Coordination Sequence:
#
# PCOD8246146 Si02
#       8
#     8   8   8   8   8   8   8   8
#     4   9  18  31  45  64  91 119 146 179 219 261
#     4   8  13  21  34  54  80 110 143 176 211 253
#     4   8  14  24  37  55  81 110 139 174 214 253
#     4   8  14  24  37  56  85 116 144 178 217 255
#     4   9  17  30  48  69  90 113 145 183 221 259
#     4   9  18  31  47  67  89 114 144 179 218 259
#     4   9  17  29  45  65  90 120 150 179 216 262
#     4   9  18  32  48  68  93 116 144 184 221 256
#
# _framework density 16.921264999999998
#
# number of rings (size 3 to 8) (size 9 to 14) (size 15 to 20)
#    0.000    3.375    0.000    2.625    0.000    4.250 
#    0.000    4.375    0.000    2.250    0.000    0.875 
#    0.000    0.000    0.000    0.000    0.000    0.000 
#
# Total GULP energy -793057.711080 kJ/mol
# GULP energy per Si atom -12391.526736 kJ/mol
# Density = 1.688275 g / cm^3
# Si number density = 16.921265 Si / 1000 Ang^3
#
#
#
# Elastic Constant Matrix: (Units=GPa)
#
#
# Indices 1 2 3 4 5 6 
#
# 1 88.9168 21.9314 84.2803 0.0000 0.0000 0.0000
# 2 21.9314 25.1162 35.6311 0.0000 0.0000 0.0000
# 3 84.2803 35.6311 159.0181 0.0000 0.0000 0.0000
# 4 0.0000 0.0000 0.0000 -11.1075 0.0000 0.0000
# 5 0.0000 0.0000 0.0000 0.0000 41.3470 0.0000
# 6 0.0000 0.0000 0.0000 0.0000 0.0000 17.2451
#
#
#
# Elastic Compliance Matrix: (Units=1/GPa)
#
#
# Indices 1 2 3 4 5 6 
#
# 1 0.022880 -0.004069 -0.011215 0.000000 0.000000 0.000000
# 2 -0.004069 0.059093 -0.011084 0.000000 0.000000 0.000000
# 3 -0.011215 -0.011084 0.014716 0.000000 0.000000 0.000000
# 4 0.000000 0.000000 0.000000 -0.090029 0.000000 0.000000
# 5 0.000000 0.000000 0.000000 0.000000 0.024186 0.000000
# 6 0.000000 0.000000 0.000000 0.000000 0.000000 0.057988
#
#
# Mechanical properties :
#
#
# Convention : Reuss Voigt Hill
#
# Bulk Modulus (GPa) = 22.75170 61.85965 42.30567
# Shear Modulus (GPa) = 32.00619 18.24414 25.12516
#
# Velocity S-wave (km/s) = 4.35383 3.28712 3.85753
# Velocity P-wave (km/s) = 6.22489 7.14448 6.70048
#
# Compressibility (1/GPa) = 0.04395276
#
# Stress axis : x y z
#
# Youngs Moduli (GPa) = 43.70600 16.92260 67.95239
#
# Poissons Ratio (x) = 0.06886 0.76208
# Poissons Ratio (y) = 0.17783 0.75321
# Poissons Ratio (z) = 0.49016 0.18758
#
# Static dielectric constant tensor:
#      x y z
#    x 3.367020 0.000000 0.000000 
#    y 0.000000 2.633670 0.000000 
#    z 0.000000 0.000000 3.641410 
# 
# 
# High freq. dielectric constant tensor:
#      x y z
#    x 1.656290 0.000000 0.000000 
#    y 0.000000 1.587690 0.000000 
#    z 0.000000 0.000000 1.667840 
# 
# From -- ./inp_files/29723.got.cif
#   From: 2010.03.12/outbox.cif.g09.slc.cpg/sg59_15_cif.got.tgz:29723.got - 2010.04.16 16:29:54.
