data_PCOD8246242
_publ_section_title
;
Structure prediction by ZEFSAII (Michael W. Deem and Ramdas Pophale) SiO2 
 PCOD8246242
Probable space group: P M M N
;
_chemical_formula_sum "Si O2"
_cell_formula_units_Z 56
_cell_length_a 10.187105
_cell_length_b 13.399257
_cell_length_c 23.327949
_cell_angle_alpha 90.000000
_cell_angle_beta 90.000000
_cell_angle_gamma 90.000000
_cell_volume 3184.256593
_symmetry_space_group_name_H-M "P M M N"
_symmetry_group_IT_number 59
_space_group.IT_coordinate_system_code '2'
_symmetry_cell_setting 'orthorhombic'
loop_
_space_group_symop_operation_xyz
x,y,z
1/2-x,1/2-y,z
1/2+x,-y,-z
-x,1/2+y,-z
-x,-y,-z
1/2+x,1/2+y,-z
1/2-x,y,z
x,1/2-y,z
loop_
_atom_site_type_symbol
_atom_site_label
_atom_site_fract_x
_atom_site_fract_y
_atom_site_fract_z
Si Si1 0.904791 0.638888 0.301499
Si Si2 0.895695 0.863002 0.845968
Si Si3 0.963509 0.139700 0.039890
Si Si4 0.901843 0.556005 0.422303
Si Si5 0.101627 0.638254 0.511729
Si Si6 0.594871 0.520478 0.190982
Si Si7 0.109125 0.071794 0.932643
O O1 0.750000 0.647957 0.297362
O O2 0.966435 0.750000 0.305507
O O3 0.945367 0.574480 0.356994
O O4 0.956386 0.584201 0.244718
O O5 0.750000 0.906877 0.833962
O O6 0.904358 0.750000 0.824038
O O7 0.917190 0.867956 0.914757
O O8 0.007721 0.920694 0.810624
O O9 0.895820 0.250000 0.045154
O O10 0.009902 0.127564 0.974352
O O11 0.869714 0.046792 0.053803
O O12 0.750000 0.588501 0.432351
O O13 0.922715 0.439048 0.436333
O O14 0.995687 0.622355 0.461932
O O15 0.250000 0.623504 0.487278
O O16 0.084023 0.750000 0.536308
O O17 0.750000 0.492971 0.194939
O O18 0.564153 0.584101 0.133396
O O19 0.250000 0.123251 0.940726
#
# Coordination Sequence:
#
# PCOD8246242 Si02
#       7
#     8   8   8   8   8   8   8
#     4   9  17  30  48  69  93 122 156 190 222 261
#     4   9  17  30  48  67  87 114 147 184 229 279
#     4   9  17  28  43  63  85 111 144 180 222 275
#     4   9  17  30  49  71  95 126 161 190 220 266
#     4   9  17  29  46  71 101 126 150 188 234 270
#     4   9  18  31  46  66  91 118 150 188 226 263
#     4   9  17  28  42  62  87 112 141 181 226 268
#
# _framework density 17.586523
#
# number of rings (size 3 to 8) (size 9 to 14) (size 15 to 20)
#    0.000    3.000    0.000    0.857    0.000    2.857 
#    0.000    5.714    0.000    3.857    0.000    0.000 
#    0.000    0.000    0.000    0.000    0.000    0.000 
#
# Total GULP energy -693864.222105 kJ/mol
# GULP energy per Si atom -12390.432538 kJ/mol
# Density = 1.754650 g / cm^3
# Si number density = 17.586523 Si / 1000 Ang^3
#
#
#
# Elastic Constant Matrix: (Units=GPa)
#
#
# Indices 1 2 3 4 5 6 
#
# 1 65.7225 29.3262 35.5094 0.0000 0.0000 0.0000
# 2 29.3262 96.7661 54.1702 0.0000 0.0000 0.0000
# 3 35.5094 54.1702 133.1828 0.0000 0.0000 0.0000
# 4 0.0000 0.0000 0.0000 21.1766 0.0000 0.0000
# 5 0.0000 0.0000 0.0000 0.0000 16.6435 0.0000
# 6 0.0000 0.0000 0.0000 0.0000 0.0000 14.1084
#
#
#
# Elastic Compliance Matrix: (Units=1/GPa)
#
#
# Indices 1 2 3 4 5 6 
#
# 1 0.018765 -0.003737 -0.003483 0.000000 0.000000 0.000000
# 2 -0.003737 0.014125 -0.004749 0.000000 0.000000 0.000000
# 3 -0.003483 -0.004749 0.010369 0.000000 0.000000 0.000000
# 4 0.000000 0.000000 0.000000 0.047222 0.000000 0.000000
# 5 0.000000 0.000000 0.000000 0.000000 0.060083 0.000000
# 6 0.000000 0.000000 0.000000 0.000000 0.000000 0.070880
#
#
# Mechanical properties :
#
#
# Convention : Reuss Voigt Hill
#
# Bulk Modulus (GPa) = 51.75790 59.29809 55.52799
# Shear Modulus (GPa) = 19.85525 22.16339 21.00932
#
# Velocity S-wave (km/s) = 3.36371 3.55385 3.46009
# Velocity P-wave (km/s) = 6.67685 7.11554 6.89968
#
# Compressibility (1/GPa) = 0.01932072
#
# Stress axis : x y z
#
# Youngs Moduli (GPa) = 53.29092 70.79551 96.44431
#
# Poissons Ratio (x) = 0.26457 0.33593
# Poissons Ratio (y) = 0.19915 0.45800
# Poissons Ratio (z) = 0.18562 0.33620
#
# Static dielectric constant tensor:
#      x y z
#    x 3.094000 0.000000 0.000000 
#    y 0.000000 3.347500 0.000000 
#    z 0.000000 0.000000 3.211080 
# 
# 
# High freq. dielectric constant tensor:
#      x y z
#    x 1.658510 0.000000 0.000000 
#    y 0.000000 1.679410 0.000000 
#    z 0.000000 0.000000 1.662150 
# 
# From -- ./inp_files/31921.got.cif
#   From: 2010.03.12/outbox.cif.g09.slc.cpg/sg59_16_cif.got.tgz:31921.got - 2010.04.16 16:29:54.
