data_PCOD8246500
_publ_section_title
;
Structure prediction by ZEFSAII (Michael W. Deem and Ramdas Pophale) SiO2 
 PCOD8246500
Probable space group: P B C N
;
_chemical_formula_sum "Si O2"
_cell_formula_units_Z 64
_cell_length_a 9.059104
_cell_length_b 20.652808
_cell_length_c 15.520446
_cell_angle_alpha 90.000000
_cell_angle_beta 90.000000
_cell_angle_gamma 90.000000
_cell_volume 2903.812365
_symmetry_space_group_name_H-M "P B C N"
_symmetry_group_IT_number 60
_symmetry_cell_setting 'orthorhombic'
loop_
_space_group_symop_operation_xyz
x,y,z
1/2-x,1/2-y,1/2+z
1/2+x,1/2-y,-z
-x,y,1/2-z
-x,-y,-z
1/2+x,1/2+y,1/2-z
1/2-x,1/2+y,z
x,-y,1/2+z
loop_
_atom_site_type_symbol
_atom_site_label
_atom_site_fract_x
_atom_site_fract_y
_atom_site_fract_z
Si Si1 0.754187 0.792728 0.951741
Si Si2 0.336870 0.831834 0.364404
Si Si3 0.893532 0.421758 0.395081
Si Si4 0.041988 0.194716 0.343977
Si Si5 0.497630 0.832036 0.844801
Si Si6 0.176522 0.064809 0.759321
Si Si7 0.089477 0.520732 0.332856
Si Si8 0.264633 0.836288 0.967494
O O1 0.915336 0.791198 0.912316
O O2 0.663041 0.830344 0.878394
O O3 0.732537 0.832503 0.039690
O O4 0.703852 0.717514 0.965149
O O5 0.498128 0.865404 0.360127
O O6 0.362224 0.759635 0.328610
O O7 0.216761 0.867115 0.304519
O O8 0.752323 0.435005 0.334517
O O9 0.824477 0.401089 0.487235
O O10 0.998505 0.484859 0.409725
O O11 0.000000 0.166379 0.250000
O O12 0.143995 0.143098 0.395474
O O13 0.500000 0.800242 0.750000
O O14 0.420474 0.902652 0.840792
O O15 0.395890 0.796783 0.916120
O O16 0.000000 0.056546 0.750000
O O17 0.243173 0.006090 0.818972
O O18 0.000000 0.495134 0.250000
#
# Coordination Sequence:
#
# PCOD8246500 Si02
#       8
#     8   8   8   8   8   8   8   8
#     4  11  22  39  59  88 129 161 220 269 311 394
#     4  10  20  38  60  89 123 171 210 263 334 390
#     4  10  18  39  62  92 130 163 210 271 336 376
#     4  11  22  37  55  82 126 174 205 262 329 383
#     4  11  22  43  67  95 120 173 226 259 317 400
#     4  10  21  37  64  99 128 167 215 273 332 401
#     4   8  19  39  67  93 128 168 218 270 322 389
#     4  11  22  38  59  91 127 167 207 271 326 381
#
# _framework density 22.039991000000001
#
# number of rings (size 3 to 8) (size 9 to 14) (size 15 to 20)
#    0.000    1.750    2.500    3.375    1.750    0.500 
#    0.000    4.375    0.000    1.500    0.000    0.000 
#    0.000    0.000    0.000    0.000    0.000    0.000 
#
# Total GULP energy -792944.417984 kJ/mol
# GULP energy per Si atom -12389.756531 kJ/mol
# Density = 2.198983 g / cm^3
# Si number density = 22.039991 Si / 1000 Ang^3
#
#
#
# Elastic Constant Matrix: (Units=GPa)
#
#
# Indices 1 2 3 4 5 6 
#
# 1 133.2375 31.7738 43.4249 0.0000 0.0000 0.0000
# 2 31.7738 42.1751 5.9404 0.0000 0.0000 0.0000
# 3 43.4249 5.9404 104.1351 0.0000 0.0000 0.0000
# 4 0.0000 0.0000 0.0000 18.0019 0.0000 0.0000
# 5 0.0000 0.0000 0.0000 0.0000 42.8720 0.0000
# 6 0.0000 0.0000 0.0000 0.0000 0.0000 20.2642
#
#
#
# Elastic Compliance Matrix: (Units=1/GPa)
#
#
# Indices 1 2 3 4 5 6 
#
# 1 0.010569 -0.007401 -0.003985 0.000000 0.000000 0.000000
# 2 -0.007401 0.029086 0.001427 0.000000 0.000000 0.000000
# 3 -0.003985 0.001427 0.011183 0.000000 0.000000 0.000000
# 4 0.000000 0.000000 0.000000 0.055550 0.000000 0.000000
# 5 0.000000 0.000000 0.000000 0.000000 0.023325 0.000000
# 6 0.000000 0.000000 0.000000 0.000000 0.000000 0.049348
#
#
# Mechanical properties :
#
#
# Convention : Reuss Voigt Hill
#
# Bulk Modulus (GPa) = 32.34201 49.09176 40.71689
# Shear Modulus (GPa) = 23.89070 29.45487 26.67278
#
# Velocity S-wave (km/s) = 3.29594 3.65969 3.48257
# Velocity P-wave (km/s) = 5.40281 6.33877 5.88942
#
# Compressibility (1/GPa) = 0.03091954
#
# Stress axis : x y z
#
# Youngs Moduli (GPa) = 94.61361 34.38121 89.41848
#
# Poissons Ratio (x) = 0.25447 0.35635
# Poissons Ratio (y) = 0.70027 -0.12762
# Poissons Ratio (z) = 0.37706 -0.04907
#
# Static dielectric constant tensor:
#      x y z
#    x 4.046410 0.000000 0.000000 
#    y 0.000000 3.695460 0.000000 
#    z 0.000000 0.000000 4.209180 
# 
# 
# High freq. dielectric constant tensor:
#      x y z
#    x 1.866510 0.000000 0.000000 
#    y 0.000000 1.836560 0.000000 
#    z 0.000000 0.000000 1.876840 
# 
# From -- ./inp_files/15391.got.cif
#   From: 2010.03.12/outbox.cif.g09.slc.cpg/sg60_8_cif.got.tgz:15391.got - 2010.04.10 18:46:24.
