data_PCOD8246766
_publ_section_title
;
Structure prediction by ZEFSAII (Michael W. Deem and Ramdas Pophale) SiO2 
 PCOD8246766
Probable space group: P B C N
;
_chemical_formula_sum "Si O2"
_cell_formula_units_Z 48
_cell_length_a 10.219699
_cell_length_b 15.075052
_cell_length_c 15.890765
_cell_angle_alpha 90.000000
_cell_angle_beta 90.000000
_cell_angle_gamma 90.000000
_cell_volume 2448.170885
_symmetry_space_group_name_H-M "P B C N"
_symmetry_group_IT_number 60
_symmetry_cell_setting 'orthorhombic'
loop_
_space_group_symop_operation_xyz
x,y,z
1/2-x,1/2-y,1/2+z
1/2+x,1/2-y,-z
-x,y,1/2-z
-x,-y,-z
1/2+x,1/2+y,1/2-z
1/2-x,1/2+y,z
x,-y,1/2+z
loop_
_atom_site_type_symbol
_atom_site_label
_atom_site_fract_x
_atom_site_fract_y
_atom_site_fract_z
Si Si1 0.791329 0.872335 0.716245
Si Si2 0.000000 0.271514 0.250000
Si Si3 0.834125 0.359549 0.382111
Si Si4 0.949748 0.810602 0.337930
Si Si5 0.594689 0.838320 0.574080
Si Si6 0.591548 0.043933 0.326816
Si Si7 0.500000 0.519566 0.750000
O O1 0.724527 0.862032 0.625904
O O2 0.684408 0.878161 0.790620
O O3 0.875308 0.785377 0.726237
O O4 0.876976 0.961258 0.722277
O O5 0.961683 0.329756 0.330232
O O6 0.705773 0.303973 0.354787
O O7 0.864319 0.341463 0.478329
O O8 0.820138 0.464339 0.363428
O O9 0.000000 0.765288 0.250000
O O10 0.034325 0.760093 0.408936
O O11 0.978070 0.916662 0.331683
O O12 0.487515 0.913111 0.596068
O O13 0.500000 0.009958 0.250000
#
# Coordination Sequence:
#
# PCOD8246766 Si02
#       7
#     8   4   8   8   8   8   4
#     4  10  21  42  64  91 119 166 212 249 311 374
#     4  11  24  38  61  90 120 162 207 256 306 383
#     4  12  23  39  63  92 126 164 208 261 314 369
#     4  10  21  43  65  90 121 173 204 247 320 378
#     4  11  24  37  62  94 129 156 207 265 310 368
#     4  10  19  40  62  87 123 168 205 250 306 374
#     4   9  20  40  71  84 120 166 215 250 302 389
#
# _framework density 19.606473999999999
#
# number of rings (size 3 to 8) (size 9 to 14) (size 15 to 20)
#    0.500    1.000    2.500    4.000    2.333    0.000 
#    0.000    4.167    0.000    0.000    0.000    0.000 
#    0.000    0.000    0.000    0.000    0.000    0.000 
#
# Total GULP energy -594944.014979 kJ/mol
# GULP energy per Si atom -12394.666979 kJ/mol
# Density = 1.956185 g / cm^3
# Si number density = 19.606474 Si / 1000 Ang^3
#
#
#
# Elastic Constant Matrix: (Units=GPa)
#
#
# Indices 1 2 3 4 5 6 
#
# 1 121.7096 39.0512 69.9343 0.0000 0.0000 0.0000
# 2 39.0512 87.9885 43.5569 0.0000 0.0000 0.0000
# 3 69.9343 43.5569 145.9740 0.0000 0.0000 0.0000
# 4 0.0000 0.0000 0.0000 5.8770 0.0000 0.0000
# 5 0.0000 0.0000 0.0000 0.0000 27.3320 0.0000
# 6 0.0000 0.0000 0.0000 0.0000 0.0000 4.4978
#
#
#
# Elastic Compliance Matrix: (Units=1/GPa)
#
#
# Indices 1 2 3 4 5 6 
#
# 1 0.011934 -0.002894 -0.004854 0.000000 0.000000 0.000000
# 2 -0.002894 0.014036 -0.002802 0.000000 0.000000 0.000000
# 3 -0.004854 -0.002802 0.010012 0.000000 0.000000 0.000000
# 4 0.000000 0.000000 0.000000 0.170154 0.000000 0.000000
# 5 0.000000 0.000000 0.000000 0.000000 0.036587 0.000000
# 6 0.000000 0.000000 0.000000 0.000000 0.000000 0.222329
#
#
# Mechanical properties :
#
#
# Convention : Reuss Voigt Hill
#
# Bulk Modulus (GPa) = 67.18983 73.41743 70.30363
# Shear Modulus (GPa) = 10.18096 21.08336 15.63216
#
# Velocity S-wave (km/s) = 2.28121 3.28277 2.82671
# Velocity P-wave (km/s) = 6.42512 7.20386 6.82561
#
# Compressibility (1/GPa) = 0.01488321
#
# Stress axis : x y z
#
# Youngs Moduli (GPa) = 83.79592 71.24305 99.87964
#
# Poissons Ratio (x) = 0.20615 0.48480
# Poissons Ratio (y) = 0.24248 0.27986
# Poissons Ratio (z) = 0.40674 0.19962
#
# Static dielectric constant tensor:
#      x y z
#    x 3.706850 0.000000 0.000000 
#    y 0.000000 3.571050 0.000000 
#    z 0.000000 0.000000 3.247510 
# 
# 
# High freq. dielectric constant tensor:
#      x y z
#    x 1.774800 0.000000 0.000000 
#    y 0.000000 1.775890 0.000000 
#    z 0.000000 0.000000 1.737420 
# 
# From -- ./inp_files/16120.got.cif
#   From: 2010.03.12/outbox.cif.g09.slc.cpg/sg60_9_cif.got.tgz:16120.got - 2010.04.10 18:46:24.
