data_PCOD8246348
_publ_section_title
;
Structure prediction by ZEFSAII (Michael W. Deem and Ramdas Pophale) SiO2 
 PCOD8246348
Probable space group: P B C N
;
_chemical_formula_sum "Si O2"
_cell_formula_units_Z 44
_cell_length_a 8.851964
_cell_length_b 16.423775
_cell_length_c 15.536456
_cell_angle_alpha 90.000000
_cell_angle_beta 90.000000
_cell_angle_gamma 90.000000
_cell_volume 2258.731379
_symmetry_space_group_name_H-M "P B C N"
_symmetry_group_IT_number 60
_symmetry_cell_setting 'orthorhombic'
loop_
_space_group_symop_operation_xyz
x,y,z
1/2-x,1/2-y,1/2+z
1/2+x,1/2-y,-z
-x,y,1/2-z
-x,-y,-z
1/2+x,1/2+y,1/2-z
1/2-x,1/2+y,z
x,-y,1/2+z
loop_
_atom_site_type_symbol
_atom_site_label
_atom_site_fract_x
_atom_site_fract_y
_atom_site_fract_z
Si Si1 0.070807 0.191025 0.124693
Si Si2 0.278134 0.633369 0.288721
Si Si3 0.000000 0.726879 0.250000
Si Si4 0.013537 0.910077 0.462162
Si Si5 0.723977 0.662192 0.849915
Si Si6 0.159667 0.953833 0.293438
O O1 0.176243 0.138154 0.188095
O O2 0.128018 0.285199 0.124957
O O3 0.897562 0.185646 0.155667
O O4 0.083047 0.152885 0.030314
O O5 0.263456 0.539620 0.316148
O O6 0.114721 0.671716 0.304881
O O7 0.912293 0.780946 0.318563
O O8 0.130572 0.906690 0.382503
O O9 0.843357 0.884478 0.432958
O O10 0.000000 0.000000 0.500000
O O11 0.763092 0.599792 0.771503
O O12 0.000000 0.974458 0.250000
#
# Coordination Sequence:
#
# PCOD8246348 Si02
#       6
#     8   8   4   8   8   8
#     4  10  20  35  58  91 114 150 200 258 294 355
#     4  10  19  37  60  82 116 152 201 236 306 363
#     4  10  20  36  60  82 114 158 190 240 300 362
#     4  11  19  34  60  92 116 162 205 243 300 372
#     4  10  21  37  59  84 122 154 201 250 301 363
#     4  10  17  36  60  84 112 164 196 235 299 377
#
# _framework density 19.479960999999999
#
# number of rings (size 3 to 8) (size 9 to 14) (size 15 to 20)
#    0.000    1.818    6.364    1.091    0.000    1.455 
#    3.273    3.636    0.000    2.182    0.000    0.000 
#    0.000    0.000    0.000    0.000    0.000    0.000 
#
# Total GULP energy -545497.936030 kJ/mol
# GULP energy per Si atom -12397.680364 kJ/mol
# Density = 1.943562 g / cm^3
# Si number density = 19.479961 Si / 1000 Ang^3
#
#
#
# Elastic Constant Matrix: (Units=GPa)
#
#
# Indices 1 2 3 4 5 6 
#
# 1 83.4276 57.4430 19.7696 0.0000 0.0000 0.0000
# 2 57.4430 136.0259 38.1180 0.0000 0.0000 0.0000
# 3 19.7696 38.1180 96.8290 0.0000 0.0000 0.0000
# 4 0.0000 0.0000 0.0000 35.4490 0.0000 0.0000
# 5 0.0000 0.0000 0.0000 0.0000 16.9694 0.0000
# 6 0.0000 0.0000 0.0000 0.0000 0.0000 35.3754
#
#
#
# Elastic Compliance Matrix: (Units=1/GPa)
#
#
# Indices 1 2 3 4 5 6 
#
# 1 0.016945 -0.006953 -0.000722 0.000000 0.000000 0.000000
# 2 -0.006953 0.011116 -0.002956 0.000000 0.000000 0.000000
# 3 -0.000722 -0.002956 0.011639 0.000000 0.000000 0.000000
# 4 0.000000 0.000000 0.000000 0.028210 0.000000 0.000000
# 5 0.000000 0.000000 0.000000 0.000000 0.058930 0.000000
# 6 0.000000 0.000000 0.000000 0.000000 0.000000 0.028268
#
#
# Mechanical properties :
#
#
# Convention : Reuss Voigt Hill
#
# Bulk Modulus (GPa) = 54.24186 60.77153 57.50670
# Shear Modulus (GPa) = 27.39453 30.95554 29.17504
#
# Velocity S-wave (km/s) = 3.75413 3.99067 3.87420
# Velocity P-wave (km/s) = 6.83350 7.24559 7.04256
#
# Compressibility (1/GPa) = 0.01843594
#
# Stress axis : x y z
#
# Youngs Moduli (GPa) = 59.01318 89.95692 85.91937
#
# Poissons Ratio (x) = 0.62552 0.06207
# Poissons Ratio (y) = 0.41035 0.25401
# Poissons Ratio (z) = 0.04263 0.26595
#
# Static dielectric constant tensor:
#      x y z
#    x 3.447680 0.000000 0.000000 
#    y 0.000000 3.809310 0.000000 
#    z 0.000000 0.000000 3.672280 
# 
# 
# High freq. dielectric constant tensor:
#      x y z
#    x 1.718700 0.000000 0.000000 
#    y 0.000000 1.768260 0.000000 
#    z 0.000000 0.000000 1.754070 
# 
# From -- ./inp_files/14924.got.cif
#   From: 2010.03.12/outbox.cif.g09.slc.cpg/sg60_8_cif.got.tgz:14924.got - 2010.04.10 18:46:24.
