data_PCOD8246520
_publ_section_title
;
Structure prediction by ZEFSAII (Michael W. Deem and Ramdas Pophale) SiO2 
 PCOD8246520
Probable space group: P B C N
;
_chemical_formula_sum "Si O2"
_cell_formula_units_Z 48
_cell_length_a 4.908783
_cell_length_b 24.914862
_cell_length_c 21.418418
_cell_angle_alpha 90.000000
_cell_angle_beta 90.000000
_cell_angle_gamma 90.000000
_cell_volume 2619.507884
_symmetry_space_group_name_H-M "P B C N"
_symmetry_group_IT_number 60
_symmetry_cell_setting 'orthorhombic'
loop_
_space_group_symop_operation_xyz
x,y,z
1/2-x,1/2-y,1/2+z
1/2+x,1/2-y,-z
-x,y,1/2-z
-x,-y,-z
1/2+x,1/2+y,1/2-z
1/2-x,1/2+y,z
x,-y,1/2+z
loop_
_atom_site_type_symbol
_atom_site_label
_atom_site_fract_x
_atom_site_fract_y
_atom_site_fract_z
Si Si1 0.733301 0.563084 0.038376
Si Si2 0.991166 0.932405 0.321749
Si Si3 0.113410 0.292573 0.434055
Si Si4 0.619863 0.318989 0.513374
Si Si5 0.724289 0.001949 0.422032
Si Si6 0.007531 0.362888 0.322216
O O1 0.427031 0.542843 0.044556
O O2 0.941539 0.535080 0.088099
O O3 0.714489 0.626852 0.047705
O O4 0.834719 0.548637 0.967965
O O5 0.798537 0.881466 0.337381
O O6 0.000000 0.949768 0.250000
O O7 0.298577 0.914318 0.338280
O O8 0.872926 0.983308 0.358835
O O9 0.321194 0.322053 0.481845
O O10 0.151444 0.228162 0.435023
O O11 0.121443 0.313287 0.362782
O O12 0.811802 0.306358 0.455551
O O13 0.000000 0.345179 0.250000
#
# Coordination Sequence:
#
# PCOD8246520 Si02
#       6
#     8   8   8   8   8   8
#     4  10  19  30  46  70  97 125 159 195 238 287
#     4  10  20  33  50  73  99 128 161 200 246 294
#     4  10  19  32  50  72  99 129 159 199 248 293
#     4  10  20  32  49  72  99 130 162 199 244 295
#     4  10  19  30  47  69  95 127 157 196 240 283
#     4  10  19  31  50  74  98 125 159 201 248 294
#
# _framework density 18.324051999999998
#
# number of rings (size 3 to 8) (size 9 to 14) (size 15 to 20)
#    0.000    2.000    0.000    5.000    0.000    2.667 
#    0.000    0.000    0.000    1.000    0.000    7.000 
#    0.000    0.000    0.000    0.000    0.000    0.000 
#
# Total GULP energy -594909.358775 kJ/mol
# GULP energy per Si atom -12393.944974 kJ/mol
# Density = 1.828235 g / cm^3
# Si number density = 18.324052 Si / 1000 Ang^3
#
#
#
# Elastic Constant Matrix: (Units=GPa)
#
#
# Indices 1 2 3 4 5 6 
#
# 1 72.0224 13.4612 14.6831 0.0000 0.0000 0.0000
# 2 13.4612 111.9241 43.8496 0.0000 0.0000 0.0000
# 3 14.6831 43.8496 78.3822 0.0000 0.0000 0.0000
# 4 0.0000 0.0000 0.0000 17.2698 0.0000 0.0000
# 5 0.0000 0.0000 0.0000 0.0000 23.0269 0.0000
# 6 0.0000 0.0000 0.0000 0.0000 0.0000 20.4948
#
#
#
# Elastic Compliance Matrix: (Units=1/GPa)
#
#
# Indices 1 2 3 4 5 6 
#
# 1 0.014502 -0.000871 -0.002229 0.000000 0.000000 0.000000
# 2 -0.000871 0.011495 -0.006267 0.000000 0.000000 0.000000
# 3 -0.002229 -0.006267 0.016682 0.000000 0.000000 0.000000
# 4 0.000000 0.000000 0.000000 0.057904 0.000000 0.000000
# 5 0.000000 0.000000 0.000000 0.000000 0.043428 0.000000
# 6 0.000000 0.000000 0.000000 0.000000 0.000000 0.048793
#
#
# Mechanical properties :
#
#
# Convention : Reuss Voigt Hill
#
# Bulk Modulus (GPa) = 41.76547 45.14626 43.45587
# Shear Modulus (GPa) = 22.77699 24.84729 23.81214
#
# Velocity S-wave (km/s) = 3.52946 3.68638 3.60877
# Velocity P-wave (km/s) = 6.28105 6.54296 6.41335
#
# Compressibility (1/GPa) = 0.02394322
#
# Stress axis : x y z
#
# Youngs Moduli (GPa) = 68.95689 86.99570 59.94524
#
# Poissons Ratio (x) = 0.07574 0.13365
# Poissons Ratio (y) = 0.06004 0.37571
# Poissons Ratio (z) = 0.15374 0.54524
#
# Static dielectric constant tensor:
#      x y z
#    x 3.649520 0.000000 0.000000 
#    y 0.000000 3.314590 0.000000 
#    z 0.000000 0.000000 3.161660 
# 
# 
# High freq. dielectric constant tensor:
#      x y z
#    x 1.738780 0.000000 0.000000 
#    y 0.000000 1.689850 0.000000 
#    z 0.000000 0.000000 1.675820 
# 
# From -- ./inp_files/21591.got.cif
#   From: 2010.03.12/outbox.cif.g09.slc.cpg/sg60_11_cif.got.tgz:21591.got - 2010.04.10 18:46:24.
