data_PCOD8246454
_publ_section_title
;
Structure prediction by ZEFSAII (Michael W. Deem and Ramdas Pophale) SiO2 
 PCOD8246454
Probable space group: P B C N
;
_chemical_formula_sum "Si O2"
_cell_formula_units_Z 44
_cell_length_a 8.265359
_cell_length_b 27.218420
_cell_length_c 9.585393
_cell_angle_alpha 90.000000
_cell_angle_beta 90.000000
_cell_angle_gamma 90.000000
_cell_volume 2156.425985
_symmetry_space_group_name_H-M "P B C N"
_symmetry_group_IT_number 60
_symmetry_cell_setting 'orthorhombic'
loop_
_space_group_symop_operation_xyz
x,y,z
1/2-x,1/2-y,1/2+z
1/2+x,1/2-y,-z
-x,y,1/2-z
-x,-y,-z
1/2+x,1/2+y,1/2-z
1/2-x,1/2+y,z
x,-y,1/2+z
loop_
_atom_site_type_symbol
_atom_site_label
_atom_site_fract_x
_atom_site_fract_y
_atom_site_fract_z
Si Si1 0.359344 0.965871 0.560749
Si Si2 0.881610 0.718955 0.632231
Si Si3 0.320639 0.647761 0.702536
Si Si4 0.309004 0.952515 0.261376
Si Si5 0.000000 0.617665 0.250000
Si Si6 0.661016 0.192472 0.061341
O O1 0.251065 0.954433 0.424055
O O2 0.424297 0.915622 0.627750
O O3 0.500000 0.000000 0.500000
O O4 0.266630 0.996484 0.681482
O O5 0.803779 0.667736 0.681820
O O6 0.739149 0.757941 0.617567
O O7 0.000000 0.740650 0.750000
O O8 0.981978 0.706721 0.493214
O O9 0.500000 0.661046 0.750000
O O10 0.294418 0.589623 0.687159
O O11 0.283321 0.672043 0.554235
O O12 0.500000 0.940627 0.250000
O O13 0.860700 0.652053 0.182882
#
# Coordination Sequence:
#
# PCOD8246454 Si02
#       6
#     8   8   8   8   4   8
#     4  10  18  35  61  93 126 160 213 270 323 388
#     4  10  23  42  63  90 127 172 212 273 323 392
#     4  11  23  41  63  89 127 171 217 265 328 395
#     4  10  19  36  64  88 122 161 214 268 323 380
#     4  12  22  34  66 102 124 166 220 272 322 400
#     4  11  24  39  67  93 131 167 224 263 341 386
#
# _framework density 20.404133000000002
#
# number of rings (size 3 to 8) (size 9 to 14) (size 15 to 20)
#    0.000    1.455    2.727    6.000    6.364    0.000 
#    3.273    0.909    0.000    0.000    0.000    0.000 
#    0.000    0.000    0.000    0.000    0.000    0.000 
#
# Total GULP energy -545559.253134 kJ/mol
# GULP energy per Si atom -12399.073935 kJ/mol
# Density = 2.035769 g / cm^3
# Si number density = 20.404133 Si / 1000 Ang^3
#
#
#
# Elastic Constant Matrix: (Units=GPa)
#
#
# Indices 1 2 3 4 5 6 
#
# 1 73.8537 22.6684 25.0017 0.0000 0.0000 0.0000
# 2 22.6684 101.9219 35.8898 0.0000 0.0000 0.0000
# 3 25.0017 35.8898 105.6564 0.0000 0.0000 0.0000
# 4 0.0000 0.0000 0.0000 28.0562 0.0000 0.0000
# 5 0.0000 0.0000 0.0000 0.0000 23.8704 0.0000
# 6 0.0000 0.0000 0.0000 0.0000 0.0000 23.8158
#
#
#
# Elastic Compliance Matrix: (Units=1/GPa)
#
#
# Indices 1 2 3 4 5 6 
#
# 1 0.015221 -0.002405 -0.002785 0.000000 0.000000 0.000000
# 2 -0.002405 0.011524 -0.003346 0.000000 0.000000 0.000000
# 3 -0.002785 -0.003346 0.011260 0.000000 0.000000 0.000000
# 4 0.000000 0.000000 0.000000 0.035643 0.000000 0.000000
# 5 0.000000 0.000000 0.000000 0.000000 0.041893 0.000000
# 6 0.000000 0.000000 0.000000 0.000000 0.000000 0.041989
#
#
# Mechanical properties :
#
#
# Convention : Reuss Voigt Hill
#
# Bulk Modulus (GPa) = 47.76667 49.83908 48.80287
# Shear Modulus (GPa) = 27.53622 28.33996 27.93809
#
# Velocity S-wave (km/s) = 3.67760 3.73088 3.70433
# Velocity P-wave (km/s) = 6.44159 6.56036 6.50124
#
# Compressibility (1/GPa) = 0.02093510
#
# Stress axis : x y z
#
# Youngs Moduli (GPa) = 65.69801 86.77276 88.80898
#
# Poissons Ratio (x) = 0.20866 0.24733
# Poissons Ratio (y) = 0.15798 0.29712
# Poissons Ratio (z) = 0.18297 0.29031
#
# Static dielectric constant tensor:
#      x y z
#    x 3.397000 0.000000 0.000000 
#    y 0.000000 3.791590 0.000000 
#    z 0.000000 0.000000 4.269350 
# 
# 
# High freq. dielectric constant tensor:
#      x y z
#    x 1.754650 0.000000 0.000000 
#    y 0.000000 1.810120 0.000000 
#    z 0.000000 0.000000 1.811200 
# 
# From -- ./inp_files/4128.got.cif
#   From: 2010.03.12/outbox.cif.g09.slc.cpg/sg60_3_cif.got.tgz:4128.got - 2010.04.10 18:46:24.
