data_PCOD8246702
_publ_section_title
;
Structure prediction by ZEFSAII (Michael W. Deem and Ramdas Pophale) SiO2 
 PCOD8246702
Probable space group: P B C N
;
_chemical_formula_sum "Si O2"
_cell_formula_units_Z 64
_cell_length_a 14.081516
_cell_length_b 23.003514
_cell_length_c 9.235631
_cell_angle_alpha 90.000000
_cell_angle_beta 90.000000
_cell_angle_gamma 90.000000
_cell_volume 2991.645773
_symmetry_space_group_name_H-M "P B C N"
_symmetry_group_IT_number 60
_symmetry_cell_setting 'orthorhombic'
loop_
_space_group_symop_operation_xyz
x,y,z
1/2-x,1/2-y,1/2+z
1/2+x,1/2-y,-z
-x,y,1/2-z
-x,-y,-z
1/2+x,1/2+y,1/2-z
1/2-x,1/2+y,z
x,-y,1/2+z
loop_
_atom_site_type_symbol
_atom_site_label
_atom_site_fract_x
_atom_site_fract_y
_atom_site_fract_z
Si Si1 0.817267 0.857163 0.077313
Si Si2 0.175180 0.161784 0.601530
Si Si3 0.011244 0.680043 0.002651
Si Si4 0.492930 0.690680 0.084770
Si Si5 0.395195 0.025245 0.212925
Si Si6 0.136742 0.574529 0.913681
Si Si7 0.682192 0.129816 0.123976
Si Si8 0.799535 0.711579 0.372858
O O1 0.852167 0.863715 0.242774
O O2 0.747588 0.911987 0.053592
O O3 0.750170 0.803746 0.026148
O O4 0.910140 0.850229 0.979290
O O5 0.085850 0.172544 0.501299
O O6 0.251561 0.122175 0.517415
O O7 0.225863 0.221650 0.648784
O O8 0.977125 0.739154 0.920863
O O9 0.067575 0.631389 0.905990
O O10 0.086873 0.700120 0.123884
O O11 0.921157 0.651390 0.077094
O O12 0.500000 0.671688 0.250000
O O13 0.500000 0.045916 0.250000
O O14 0.322731 0.068808 0.292595
O O15 0.375122 0.958893 0.261241
O O16 0.389931 0.029219 0.039751
O O17 0.735295 0.175041 0.233219
#
# Coordination Sequence:
#
# PCOD8246702 Si02
#       8
#     8   8   8   8   8   8   8   8
#     4  11  23  42  60  92 130 169 214 281 326 395
#     4  11  24  35  61  94 125 172 216 269 333 400
#     4  10  21  37  60  97 135 172 215 264 321 396
#     4  11  24  42  66  94 129 175 217 268 337 402
#     4  12  24  44  65  95 130 179 220 275 325 384
#     4  11  26  42  67  96 132 174 228 273 325 388
#     4  12  21  37  63  90 131 177 217 269 331 393
#     4  10  19  37  57  89 131 172 218 261 325 399
#
# _framework density 21.392906
#
# number of rings (size 3 to 8) (size 9 to 14) (size 15 to 20)
#    0.000    1.000    3.750    4.125    1.750    7.500 
#    0.000    0.000    0.000    0.750    0.000    0.000 
#    0.000    0.000    0.000    0.000    0.000    0.000 
#
# Total GULP energy -792951.097909 kJ/mol
# GULP energy per Si atom -12389.860905 kJ/mol
# Density = 2.134421 g / cm^3
# Si number density = 21.392906 Si / 1000 Ang^3
#
#
#
# Elastic Constant Matrix: (Units=GPa)
#
#
# Indices 1 2 3 4 5 6 
#
# 1 83.0292 20.4996 37.5809 0.0000 0.0000 0.0000
# 2 20.4996 50.7203 7.9401 0.0000 0.0000 0.0000
# 3 37.5809 7.9401 113.4539 0.0000 0.0000 0.0000
# 4 0.0000 0.0000 0.0000 27.7775 0.0000 0.0000
# 5 0.0000 0.0000 0.0000 0.0000 33.9667 0.0000
# 6 0.0000 0.0000 0.0000 0.0000 0.0000 16.0616
#
#
#
# Elastic Compliance Matrix: (Units=1/GPa)
#
#
# Indices 1 2 3 4 5 6 
#
# 1 0.015573 -0.005547 -0.004770 0.000000 0.000000 0.000000
# 2 -0.005547 0.021910 0.000304 0.000000 0.000000 0.000000
# 3 -0.004770 0.000304 0.010373 0.000000 0.000000 0.000000
# 4 0.000000 0.000000 0.000000 0.036000 0.000000 0.000000
# 5 0.000000 0.000000 0.000000 0.000000 0.029441 0.000000
# 6 0.000000 0.000000 0.000000 0.000000 0.000000 0.062260
#
#
# Mechanical properties :
#
#
# Convention : Reuss Voigt Hill
#
# Bulk Modulus (GPa) = 35.93319 42.13830 39.03575
# Shear Modulus (GPa) = 24.40686 27.64000 26.02343
#
# Velocity S-wave (km/s) = 3.38136 3.59836 3.49155
# Velocity P-wave (km/s) = 5.66375 6.08312 5.87718
#
# Compressibility (1/GPa) = 0.02782943
#
# Stress axis : x y z
#
# Youngs Moduli (GPa) = 64.21530 45.64039 96.40462
#
# Poissons Ratio (x) = 0.25318 0.45986
# Poissons Ratio (y) = 0.35622 -0.02931
# Poissons Ratio (z) = 0.30631 -0.01388
#
# Static dielectric constant tensor:
#      x y z
#    x 3.952290 0.000000 0.000000 
#    y 0.000000 3.698090 0.000000 
#    z 0.000000 0.000000 3.982270 
# 
# 
# High freq. dielectric constant tensor:
#      x y z
#    x 1.833850 0.000000 0.000000 
#    y 0.000000 1.807610 0.000000 
#    z 0.000000 0.000000 1.849330 
# 
# From -- ./inp_files/6317.got.cif
#   From: 2010.03.12/outbox.cif.g09.slc.cpg/sg60_4_cif.got.tgz:6317.got - 2010.04.10 18:46:24.
