data_PCOD8246587
_publ_section_title
;
Structure prediction by ZEFSAII (Michael W. Deem and Ramdas Pophale) SiO2 
 PCOD8246587
Probable space group: P B C N
;
_chemical_formula_sum "Si O2"
_cell_formula_units_Z 56
_cell_length_a 8.674661
_cell_length_b 22.650481
_cell_length_c 14.303606
_cell_angle_alpha 90.000000
_cell_angle_beta 90.000000
_cell_angle_gamma 90.000000
_cell_volume 2810.447517
_symmetry_space_group_name_H-M "P B C N"
_symmetry_group_IT_number 60
_symmetry_cell_setting 'orthorhombic'
loop_
_space_group_symop_operation_xyz
x,y,z
1/2-x,1/2-y,1/2+z
1/2+x,1/2-y,-z
-x,y,1/2-z
-x,-y,-z
1/2+x,1/2+y,1/2-z
1/2-x,1/2+y,z
x,-y,1/2+z
loop_
_atom_site_type_symbol
_atom_site_label
_atom_site_fract_x
_atom_site_fract_y
_atom_site_fract_z
Si Si1 0.645141 0.305798 0.946350
Si Si2 0.188501 0.938867 0.500247
Si Si3 0.825524 0.749073 0.283460
Si Si4 0.254344 0.119790 0.697736
Si Si5 0.155071 0.257133 0.405875
Si Si6 0.544992 0.515123 0.850293
Si Si7 0.571678 0.113883 0.611196
O O1 0.763863 0.298683 0.858886
O O2 0.467547 0.293795 0.924491
O O3 0.634786 0.371643 0.986464
O O4 0.698924 0.258365 0.024779
O O5 0.367323 0.932629 0.466982
O O6 0.098350 0.974676 0.419392
O O7 0.170320 0.973157 0.598370
O O8 0.806427 0.814684 0.326191
O O9 0.709617 0.744868 0.197973
O O10 0.000000 0.735604 0.250000
O O11 0.112886 0.078597 0.673647
O O12 0.398030 0.097654 0.635910
O O13 0.304403 0.112458 0.804719
O O14 0.066649 0.318772 0.422793
O O15 0.500000 0.485353 0.750000
#
# Coordination Sequence:
#
# PCOD8246587 Si02
#       7
#     8   8   8   8   8   8   8
#     4  11  22  38  59  89 126 159 197 255 306 375
#     4  10  24  39  60  89 123 158 209 256 313 366
#     4  11  22  36  59  89 122 163 205 249 309 374
#     4  10  19  33  63  86 117 153 200 250 303 354
#     4  10  21  35  56  88 123 156 195 241 308 368
#     4  11  22  40  62  87 116 164 212 259 302 372
#     4   9  18  36  56  90 116 148 196 255 297 360
#
# _framework density 19.925653000000001
#
# number of rings (size 3 to 8) (size 9 to 14) (size 15 to 20)
#    0.000    1.714    2.857    1.714    6.000    1.714 
#    0.000    0.000    3.143    0.000    0.000    0.000 
#    0.000    0.000    0.000    0.000    0.000    0.000 
#
# Total GULP energy -694056.788592 kJ/mol
# GULP energy per Si atom -12393.871225 kJ/mol
# Density = 1.988030 g / cm^3
# Si number density = 19.925653 Si / 1000 Ang^3
#
#
#
# Elastic Constant Matrix: (Units=GPa)
#
#
# Indices 1 2 3 4 5 6 
#
# 1 44.8026 15.3675 8.3103 0.0000 0.0000 0.0000
# 2 15.3675 44.5110 24.5179 0.0000 0.0000 0.0000
# 3 8.3103 24.5179 96.0365 0.0000 0.0000 0.0000
# 4 0.0000 0.0000 0.0000 27.8347 0.0000 0.0000
# 5 0.0000 0.0000 0.0000 0.0000 31.4024 0.0000
# 6 0.0000 0.0000 0.0000 0.0000 0.0000 24.1088
#
#
#
# Elastic Compliance Matrix: (Units=1/GPa)
#
#
# Indices 1 2 3 4 5 6 
#
# 1 0.025319 -0.008767 0.000047 0.000000 0.000000 0.000000
# 2 -0.008767 0.029179 -0.006691 0.000000 0.000000 0.000000
# 3 0.000047 -0.006691 0.012117 0.000000 0.000000 0.000000
# 4 0.000000 0.000000 0.000000 0.035926 0.000000 0.000000
# 5 0.000000 0.000000 0.000000 0.000000 0.031845 0.000000
# 6 0.000000 0.000000 0.000000 0.000000 0.000000 0.041479
#
#
# Mechanical properties :
#
#
# Convention : Reuss Voigt Hill
#
# Bulk Modulus (GPa) = 27.93856 31.30461 29.62158
# Shear Modulus (GPa) = 22.87117 25.81281 24.34199
#
# Velocity S-wave (km/s) = 3.39163 3.60315 3.49899
# Velocity P-wave (km/s) = 5.42120 5.74935 5.58769
#
# Compressibility (1/GPa) = 0.03579283
#
# Stress axis : x y z
#
# Youngs Moduli (GPa) = 39.49661 34.27156 82.53080
#
# Poissons Ratio (x) = 0.30047 -0.00391
# Poissons Ratio (y) = 0.34628 0.55218
# Poissons Ratio (z) = -0.00187 0.22930
#
# Static dielectric constant tensor:
#      x y z
#    x 3.590940 0.000000 0.000000 
#    y 0.000000 3.372820 0.000000 
#    z 0.000000 0.000000 3.921390 
# 
# 
# High freq. dielectric constant tensor:
#      x y z
#    x 1.778670 0.000000 0.000000 
#    y 0.000000 1.746970 0.000000 
#    z 0.000000 0.000000 1.785480 
# 
# From -- ./inp_files/15258.got.cif
#   From: 2010.03.12/outbox.cif.g09.slc.cpg/sg60_8_cif.got.tgz:15258.got - 2010.04.10 18:46:24.
