data_PCOD8246142
_publ_section_title
;
Structure prediction by ZEFSAII (Michael W. Deem and Ramdas Pophale) SiO2 
 PCOD8246142
Probable space group: P M M N
;
_chemical_formula_sum "Si O2"
_cell_formula_units_Z 64
_cell_length_a 9.348178
_cell_length_b 21.443935
_cell_length_c 21.830704
_cell_angle_alpha 90.000000
_cell_angle_beta 90.000000
_cell_angle_gamma 90.000000
_cell_volume 4376.220503
_symmetry_space_group_name_H-M "P M M N"
_symmetry_group_IT_number 59
_space_group.IT_coordinate_system_code '2'
_symmetry_cell_setting 'orthorhombic'
loop_
_space_group_symop_operation_xyz
x,y,z
1/2-x,1/2-y,z
1/2+x,-y,-z
-x,1/2+y,-z
-x,-y,-z
1/2+x,1/2+y,-z
1/2-x,y,z
x,1/2-y,z
loop_
_atom_site_type_symbol
_atom_site_label
_atom_site_fract_x
_atom_site_fract_y
_atom_site_fract_z
Si Si1 0.592059 0.091152 0.009393
Si Si2 0.079697 0.919074 0.186223
Si Si3 0.092021 0.015929 0.091366
Si Si4 0.084728 0.821875 0.422479
Si Si5 0.911891 0.595278 0.509245
Si Si6 0.421206 0.819374 0.091852
Si Si7 0.082345 0.925499 0.324739
Si Si8 0.088008 0.987834 0.590987
O O1 0.750000 0.107703 0.033233
O O2 0.501117 0.075026 0.069926
O O3 0.599381 0.033614 0.963096
O O4 0.525472 0.149579 0.971931
O O5 0.250000 0.918677 0.183189
O O6 0.025931 0.982150 0.151802
O O7 0.020874 0.858406 0.150185
O O8 0.025689 0.915963 0.255788
O O9 0.250000 0.041463 0.106094
O O10 0.250000 0.830752 0.441397
O O11 0.048961 0.750000 0.407894
O O12 0.050053 0.861942 0.361757
O O13 0.987898 0.844842 0.478958
O O14 0.750000 0.613152 0.528744
O O15 0.908714 0.538759 0.462039
O O16 0.003109 0.573647 0.568342
O O17 0.250000 0.819609 0.092092
O O18 0.484450 0.750000 0.096570
O O19 0.250000 0.942014 0.327258
O O20 0.995382 0.983925 0.351196
O O21 0.250000 0.969242 0.609461
#
# Coordination Sequence:
#
# PCOD8246142 Si02
#       8
#     8   8   8   8   8   8   8   8
#     4   8  13  21  34  52  70  89 118 155 192 228
#     4   8  14  23  35  52  74 101 132 161 187 219
#     4   8  13  22  35  50  69  93 120 152 191 228
#     4   9  17  27  38  55  80 107 132 158 188 221
#     4   9  16  26  41  58  74  96 127 161 196 231
#     4   8  13  21  34  53  76 100 127 160 193 222
#     4   9  16  26  39  55  77 104 133 162 188 220
#     4   9  16  26  40  57  76  97 123 158 199 237
#
# _framework density 14.624491000000001
#
# number of rings (size 3 to 8) (size 9 to 14) (size 15 to 20)
#    0.000    3.500    0.000    2.250    0.000    3.750 
#    0.000    3.125    0.000    1.125    0.000    0.000 
#    0.000    1.000    0.000    8.000    0.000    3.125 
#
# Total GULP energy -793099.864768 kJ/mol
# GULP energy per Si atom -12392.185387 kJ/mol
# Density = 1.459121 g / cm^3
# Si number density = 14.624491 Si / 1000 Ang^3
#
#
#
# Elastic Constant Matrix: (Units=GPa)
#
#
# Indices 1 2 3 4 5 6 
#
# 1 63.2741 35.6270 40.0052 0.0000 0.0000 0.0000
# 2 35.6270 64.6359 70.1051 0.0000 0.0000 0.0000
# 3 40.0052 70.1051 84.4661 0.0000 0.0000 0.0000
# 4 0.0000 0.0000 0.0000 16.2489 0.0000 0.0000
# 5 0.0000 0.0000 0.0000 0.0000 17.1905 0.0000
# 6 0.0000 0.0000 0.0000 0.0000 0.0000 16.7554
#
#
#
# Elastic Compliance Matrix: (Units=1/GPa)
#
#
# Indices 1 2 3 4 5 6 
#
# 1 0.023033 -0.008654 -0.003726 0.000000 0.000000 0.000000
# 2 -0.008654 0.158289 -0.127278 0.000000 0.000000 0.000000
# 3 -0.003726 -0.127278 0.119242 0.000000 0.000000 0.000000
# 4 0.000000 0.000000 0.000000 0.061543 0.000000 0.000000
# 5 0.000000 0.000000 0.000000 0.000000 0.058172 0.000000
# 6 0.000000 0.000000 0.000000 0.000000 0.000000 0.059682
#
#
# Mechanical properties :
#
#
# Convention : Reuss Voigt Hill
#
# Bulk Modulus (GPa) = 47.06442 55.98342 51.52392
# Shear Modulus (GPa) = 6.52436 14.48155 10.50295
#
# Velocity S-wave (km/s) = 2.11446 3.15020 2.68279
# Velocity P-wave (km/s) = 6.18167 7.18299 6.70106
#
# Compressibility (1/GPa) = 0.02124747
#
# Stress axis : x y z
#
# Youngs Moduli (GPa) = 43.41603 6.31756 8.38634
#
# Poissons Ratio (x) = 0.05467 0.03125
# Poissons Ratio (y) = 0.37574 1.06739
# Poissons Ratio (z) = 0.16177 0.80408
#
# Static dielectric constant tensor:
#      x y z
#    x 2.854080 0.000000 0.000000 
#    y 0.000000 2.779580 0.000000 
#    z 0.000000 0.000000 2.824550 
# 
# 
# High freq. dielectric constant tensor:
#      x y z
#    x 1.543160 0.000000 0.000000 
#    y 0.000000 1.531510 0.000000 
#    z 0.000000 0.000000 1.534830 
# 
# From -- ./inp_files/29827.got.cif
#   From: 2010.03.12/outbox.cif.g09.slc.cpg/sg59_15_cif.got.tgz:29827.got - 2010.04.16 16:29:54.
