data_PCOD8246867
_publ_section_title
;
Structure prediction by ZEFSAII (Michael W. Deem and Ramdas Pophale) SiO2 
 PCOD8246867
Probable space group: P B C N
;
_chemical_formula_sum "Si O2"
_cell_formula_units_Z 40
_cell_length_a 8.974065
_cell_length_b 13.678901
_cell_length_c 16.930350
_cell_angle_alpha 90.000000
_cell_angle_beta 90.000000
_cell_angle_gamma 90.000000
_cell_volume 2078.290984
_symmetry_space_group_name_H-M "P B C N"
_symmetry_group_IT_number 60
_symmetry_cell_setting 'orthorhombic'
loop_
_space_group_symop_operation_xyz
x,y,z
1/2-x,1/2-y,1/2+z
1/2+x,1/2-y,-z
-x,y,1/2-z
-x,-y,-z
1/2+x,1/2+y,1/2-z
1/2-x,1/2+y,z
x,-y,1/2+z
loop_
_atom_site_type_symbol
_atom_site_label
_atom_site_fract_x
_atom_site_fract_y
_atom_site_fract_z
Si Si1 0.281741 0.834902 0.536115
Si Si2 0.557325 0.644053 0.000088
Si Si3 0.984869 0.354532 0.662857
Si Si4 0.770917 0.497421 0.080620
Si Si5 0.066391 0.864852 0.333284
O O1 0.338096 0.738497 0.490592
O O2 0.351932 0.839499 0.623962
O O3 0.102911 0.831589 0.538771
O O4 0.339135 0.929346 0.487783
O O5 0.543959 0.615930 0.907276
O O6 0.627627 0.553706 0.046250
O O7 0.000000 0.399839 0.750000
O O8 0.894595 0.428167 0.608742
O O9 0.897834 0.251155 0.669368
O O10 0.716344 0.427343 0.152282
O O11 0.000000 0.900586 0.250000
#
# Coordination Sequence:
#
# PCOD8246867 Si02
#       5
#     8   8   8   8   8
#     4  10  20  36  55  80 109 142 181 225 270 322
#     4  10  20  35  57  81 109 145 183 222 268 323
#     4  10  22  38  55  78 112 144 177 226 277 319
#     4  11  20  34  58  82 105 140 186 225 265 322
#     4   9  19  35  53  77 109 141 171 216 272 320
#
# _framework density 19.246585
#
# number of rings (size 3 to 8) (size 9 to 14) (size 15 to 20)
#    0.000    2.000    0.000    6.600    0.000    3.200 
#    0.000    4.000    0.000    2.400    0.000    0.000 
#    0.000    0.000    0.000    0.000    0.000    0.000 
#
# Total GULP energy -495878.121925 kJ/mol
# GULP energy per Si atom -12396.953048 kJ/mol
# Density = 1.920278 g / cm^3
# Si number density = 19.246585 Si / 1000 Ang^3
#
#
#
# Elastic Constant Matrix: (Units=GPa)
#
#
# Indices 1 2 3 4 5 6 
#
# 1 65.3289 24.9571 43.5364 0.0000 0.0000 0.0000
# 2 24.9571 86.9048 30.1540 0.0000 0.0000 0.0000
# 3 43.5364 30.1540 102.3539 0.0000 0.0000 0.0000
# 4 0.0000 0.0000 0.0000 25.0284 0.0000 0.0000
# 5 0.0000 0.0000 0.0000 0.0000 25.0620 0.0000
# 6 0.0000 0.0000 0.0000 0.0000 0.0000 28.9866
#
#
#
# Elastic Compliance Matrix: (Units=1/GPa)
#
#
# Indices 1 2 3 4 5 6 
#
# 1 0.022260 -0.003461 -0.008449 0.000000 0.000000 0.000000
# 2 -0.003461 0.013355 -0.002462 0.000000 0.000000 0.000000
# 3 -0.008449 -0.002462 0.014089 0.000000 0.000000 0.000000
# 4 0.000000 0.000000 0.000000 0.039955 0.000000 0.000000
# 5 0.000000 0.000000 0.000000 0.000000 0.039901 0.000000
# 6 0.000000 0.000000 0.000000 0.000000 0.000000 0.034499
#
#
# Mechanical properties :
#
#
# Convention : Reuss Voigt Hill
#
# Bulk Modulus (GPa) = 47.70990 50.20919 48.95954
# Shear Modulus (GPa) = 25.02646 26.21141 25.61893
#
# Velocity S-wave (km/s) = 3.60989 3.69436 3.65237
# Velocity P-wave (km/s) = 6.49751 6.65896 6.57873
#
# Compressibility (1/GPa) = 0.02096001
#
# Stress axis : x y z
#
# Youngs Moduli (GPa) = 44.92448 74.87747 70.97721
#
# Poissons Ratio (x) = 0.25915 0.59965
# Poissons Ratio (y) = 0.15548 0.17477
# Poissons Ratio (z) = 0.37954 0.18438
#
# Static dielectric constant tensor:
#      x y z
#    x 3.251200 0.000000 0.000000 
#    y 0.000000 3.765330 0.000000 
#    z 0.000000 0.000000 3.553500 
# 
# 
# High freq. dielectric constant tensor:
#      x y z
#    x 1.728630 0.000000 0.000000 
#    y 0.000000 1.768790 0.000000 
#    z 0.000000 0.000000 1.741190 
# 
# From -- ./inp_files/18999.got.cif
#   From: 2010.03.12/outbox.cif.g09.slc.cpg/sg60_10_cif.got.tgz:18999.got - 2010.04.10 18:46:24.
