data_PCOD8246218
_publ_section_title
;
Structure prediction by ZEFSAII (Michael W. Deem and Ramdas Pophale) SiO2 
 PCOD8246218
Probable space group: P M M N
;
_chemical_formula_sum "Si O2"
_cell_formula_units_Z 56
_cell_length_a 19.302055
_cell_length_b 9.128214
_cell_length_c 18.242949
_cell_angle_alpha 90.000000
_cell_angle_beta 90.000000
_cell_angle_gamma 90.000000
_cell_volume 3214.285180
_symmetry_space_group_name_H-M "P M M N"
_symmetry_group_IT_number 59
_space_group.IT_coordinate_system_code '2'
_symmetry_cell_setting 'orthorhombic'
loop_
_space_group_symop_operation_xyz
x,y,z
1/2-x,1/2-y,z
1/2+x,-y,-z
-x,1/2+y,-z
-x,-y,-z
1/2+x,1/2+y,-z
1/2-x,y,z
x,1/2-y,z
loop_
_atom_site_type_symbol
_atom_site_label
_atom_site_fract_x
_atom_site_fract_y
_atom_site_fract_z
Si Si1 0.927111 0.078381 0.006694
Si Si2 0.329965 0.079543 0.714016
Si Si3 0.670344 0.076877 0.716620
Si Si4 0.923900 0.079589 0.846262
Si Si5 0.332467 0.084715 0.428683
Si Si6 0.419156 0.076777 0.853005
Si Si7 0.332526 0.915261 0.569903
O O1 0.936803 0.250000 0.022197
O O2 0.886924 0.002826 0.074657
O O3 0.890638 0.052439 0.927337
O O4 0.000000 0.000000 0.000000
O O5 0.250000 0.042975 0.729816
O O6 0.340711 0.250000 0.697130
O O7 0.373221 0.028615 0.784316
O O8 0.358782 0.991694 0.644194
O O9 0.750000 0.035461 0.731633
O O10 0.661654 0.250000 0.706232
O O11 0.626132 0.011272 0.784559
O O12 0.641776 0.999677 0.643531
O O13 0.928615 0.250000 0.829831
O O14 0.002409 0.018259 0.840243
O O15 0.250000 0.083846 0.431720
O O16 0.361297 0.250000 0.427631
O O17 0.362634 0.002630 0.500119
O O18 0.416654 0.250000 0.866666
O O19 0.250000 0.917833 0.567743
O O20 0.360993 0.750000 0.567434
#
# Coordination Sequence:
#
# PCOD8246218 Si02
#       7
#     8   8   8   8   8   8   8
#     4   9  16  28  46  66  87 113 148 185 218 256
#     4   9  17  29  45  65  89 116 145 179 221 264
#     4   9  16  27  44  64  86 112 142 176 214 256
#     4   8  15  28  45  64  85 111 143 177 214 255
#     4   9  16  26  41  62  88 115 143 176 213 253
#     4   9  17  30  47  65  87 116 148 181 218 262
#     4   9  16  26  42  64  88 114 145 179 214 254
#
# _framework density 17.422225999999998
#
# number of rings (size 3 to 8) (size 9 to 14) (size 15 to 20)
#    0.000    3.143    0.000    2.143    0.000    4.000 
#    0.000    4.286    0.000    1.714    0.000    0.000 
#    0.000    0.000    0.000    0.000    0.000    0.000 
#
# Total GULP energy -694049.674165 kJ/mol
# GULP energy per Si atom -12393.744182 kJ/mol
# Density = 1.738257 g / cm^3
# Si number density = 17.422226 Si / 1000 Ang^3
#
#
#
# Elastic Constant Matrix: (Units=GPa)
#
#
# Indices 1 2 3 4 5 6 
#
# 1 38.6595 21.5301 52.3661 0.0000 0.0000 0.0000
# 2 21.5301 79.8473 73.1051 0.0000 0.0000 0.0000
# 3 52.3661 73.1051 198.3372 0.0000 0.0000 0.0000
# 4 0.0000 0.0000 0.0000 35.1430 0.0000 0.0000
# 5 0.0000 0.0000 0.0000 0.0000 16.9395 0.0000
# 6 0.0000 0.0000 0.0000 0.0000 0.0000 11.0048
#
#
#
# Elastic Compliance Matrix: (Units=1/GPa)
#
#
# Indices 1 2 3 4 5 6 
#
# 1 0.040421 -0.001703 -0.010045 0.000000 0.000000 0.000000
# 2 -0.001703 0.018975 -0.006544 0.000000 0.000000 0.000000
# 3 -0.010045 -0.006544 0.010106 0.000000 0.000000 0.000000
# 4 0.000000 0.000000 0.000000 0.028455 0.000000 0.000000
# 5 0.000000 0.000000 0.000000 0.000000 0.059033 0.000000
# 6 0.000000 0.000000 0.000000 0.000000 0.000000 0.090870
#
#
# Mechanical properties :
#
#
# Convention : Reuss Voigt Hill
#
# Bulk Modulus (GPa) = 30.37798 67.87183 49.12490
# Shear Modulus (GPa) = 16.92527 23.94032 20.43280
#
# Velocity S-wave (km/s) = 3.12023 3.71094 3.42833
# Velocity P-wave (km/s) = 5.51863 7.57648 6.62791
#
# Compressibility (1/GPa) = 0.03291859
#
# Stress axis : x y z
#
# Youngs Moduli (GPa) = 24.73962 52.70151 98.95004
#
# Poissons Ratio (x) = 0.08974 0.99391
# Poissons Ratio (y) = 0.04213 0.64756
# Poissons Ratio (z) = 0.24850 0.34490
#
# Static dielectric constant tensor:
#      x y z
#    x 2.949680 0.000000 0.000000 
#    y 0.000000 3.251160 0.000000 
#    z 0.000000 0.000000 3.796370 
# 
# 
# High freq. dielectric constant tensor:
#      x y z
#    x 1.614110 0.000000 0.000000 
#    y 0.000000 1.664670 0.000000 
#    z 0.000000 0.000000 1.694240 
# 
# From -- ./inp_files/28019.got.cif
#   From: 2010.03.12/outbox.cif.g09.slc.cpg/sg59_15_cif.got.tgz:28019.got - 2010.04.16 16:29:54.
