data_PCOD8246876
_publ_section_title
;
Structure prediction by ZEFSAII (Michael W. Deem and Ramdas Pophale) SiO2 
 PCOD8246876
Probable space group: P B C N
;
_chemical_formula_sum "Si O2"
_cell_formula_units_Z 56
_cell_length_a 9.373819
_cell_length_b 13.784965
_cell_length_c 22.125410
_cell_angle_alpha 90.000000
_cell_angle_beta 90.000000
_cell_angle_gamma 90.000000
_cell_volume 2858.996070
_symmetry_space_group_name_H-M "P B C N"
_symmetry_group_IT_number 60
_symmetry_cell_setting 'orthorhombic'
loop_
_space_group_symop_operation_xyz
x,y,z
1/2-x,1/2-y,1/2+z
1/2+x,1/2-y,-z
-x,y,1/2-z
-x,-y,-z
1/2+x,1/2+y,1/2-z
1/2-x,1/2+y,z
x,-y,1/2+z
loop_
_atom_site_type_symbol
_atom_site_label
_atom_site_fract_x
_atom_site_fract_y
_atom_site_fract_z
Si Si1 0.822867 0.383871 0.808928
Si Si2 0.855825 0.220211 0.100988
Si Si3 0.135532 0.441571 0.422334
Si Si4 0.091676 0.273634 0.188601
Si Si5 0.824262 0.553578 0.892568
Si Si6 0.354690 0.559259 0.497876
Si Si7 0.648252 0.905430 0.676204
O O1 0.738976 0.283232 0.805352
O O2 0.768319 0.453846 0.862459
O O3 0.796996 0.431219 0.743111
O O4 0.988437 0.364171 0.821570
O O5 0.818999 0.329437 0.081315
O O6 0.731675 0.180955 0.143615
O O7 0.001461 0.216073 0.138543
O O8 0.874864 0.155611 0.041269
O O9 0.228946 0.489622 0.474533
O O10 0.168835 0.493513 0.358645
O O11 0.966365 0.456471 0.434485
O O12 0.134227 0.378787 0.163943
O O13 0.000000 0.284097 0.250000
O O14 0.695471 0.591939 0.934849
O O15 0.500000 0.500000 0.500000
#
# Coordination Sequence:
#
# PCOD8246876 Si02
#       7
#     8   8   8   8   8   8   8
#     4  10  20  35  59  83 121 154 192 244 297 355
#     4  10  21  38  61  87 117 161 197 255 301 357
#     4   9  21  38  61  82 114 158 204 238 296 365
#     4  11  22  38  62  93 122 156 205 248 308 372
#     4  10  23  38  61  88 116 161 204 246 299 367
#     4  11  23  40  59  88 126 156 206 256 309 356
#     4   9  19  35  56  86 115 152 194 240 297 356
#
# _framework density 19.587295000000001
#
# number of rings (size 3 to 8) (size 9 to 14) (size 15 to 20)
#    0.000    2.000    1.429    1.286    6.000    4.571 
#    0.000    1.429    3.143    0.000    0.000    0.000 
#    0.000    0.000    0.000    0.000    0.000    0.000 
#
# Total GULP energy -694210.903002 kJ/mol
# GULP energy per Si atom -12396.623268 kJ/mol
# Density = 1.954271 g / cm^3
# Si number density = 19.587295 Si / 1000 Ang^3
#
#
#
# Elastic Constant Matrix: (Units=GPa)
#
#
# Indices 1 2 3 4 5 6 
#
# 1 70.9490 38.4016 36.4287 0.0000 0.0000 0.0000
# 2 38.4016 97.8233 28.0374 0.0000 0.0000 0.0000
# 3 36.4287 28.0374 87.7100 0.0000 0.0000 0.0000
# 4 0.0000 0.0000 0.0000 18.8336 0.0000 0.0000
# 5 0.0000 0.0000 0.0000 0.0000 34.8124 0.0000
# 6 0.0000 0.0000 0.0000 0.0000 0.0000 32.2158
#
#
#
# Elastic Compliance Matrix: (Units=1/GPa)
#
#
# Indices 1 2 3 4 5 6 
#
# 1 0.020937 -0.006304 -0.006681 0.000000 0.000000 0.000000
# 2 -0.006304 0.013152 -0.001586 0.000000 0.000000 0.000000
# 3 -0.006681 -0.001586 0.014683 0.000000 0.000000 0.000000
# 4 0.000000 0.000000 0.000000 0.053096 0.000000 0.000000
# 5 0.000000 0.000000 0.000000 0.000000 0.028725 0.000000
# 6 0.000000 0.000000 0.000000 0.000000 0.000000 0.031041
#
#
# Mechanical properties :
#
#
# Convention : Reuss Voigt Hill
#
# Bulk Modulus (GPa) = 50.94147 51.35752 51.14950
# Shear Modulus (GPa) = 25.33970 27.41334 26.37652
#
# Velocity S-wave (km/s) = 3.60068 3.74511 3.67360
# Velocity P-wave (km/s) = 6.58410 6.70655 6.64561
#
# Compressibility (1/GPa) = 0.01963037
#
# Stress axis : x y z
#
# Youngs Moduli (GPa) = 47.76235 76.03501 68.10710
#
# Poissons Ratio (x) = 0.47935 0.45499
# Poissons Ratio (y) = 0.30111 0.10800
# Poissons Ratio (z) = 0.31908 0.12057
#
# Static dielectric constant tensor:
#      x y z
#    x 3.684150 0.000000 0.000000 
#    y 0.000000 3.411510 0.000000 
#    z 0.000000 0.000000 3.716900 
# 
# 
# High freq. dielectric constant tensor:
#      x y z
#    x 1.761210 0.000000 0.000000 
#    y 0.000000 1.755120 0.000000 
#    z 0.000000 0.000000 1.775410 
# 
# From -- ./inp_files/22203.got.cif
#   From: 2010.03.12/outbox.cif.g09.slc.cpg/sg60_12_cif.got.tgz:22203.got - 2010.04.10 18:46:24.
