data_PCOD8246647
_publ_section_title
;
Structure prediction by ZEFSAII (Michael W. Deem and Ramdas Pophale) SiO2 
 PCOD8246647
Probable space group: P B C N
;
_chemical_formula_sum "Si O2"
_cell_formula_units_Z 64
_cell_length_a 8.835384
_cell_length_b 20.104446
_cell_length_c 17.325690
_cell_angle_alpha 90.000000
_cell_angle_beta 90.000000
_cell_angle_gamma 90.000000
_cell_volume 3077.570987
_symmetry_space_group_name_H-M "P B C N"
_symmetry_group_IT_number 60
_symmetry_cell_setting 'orthorhombic'
loop_
_space_group_symop_operation_xyz
x,y,z
1/2-x,1/2-y,1/2+z
1/2+x,1/2-y,-z
-x,y,1/2-z
-x,-y,-z
1/2+x,1/2+y,1/2-z
1/2-x,1/2+y,z
x,-y,1/2+z
loop_
_atom_site_type_symbol
_atom_site_label
_atom_site_fract_x
_atom_site_fract_y
_atom_site_fract_z
Si Si1 0.206243 0.880131 0.528732
Si Si2 0.670964 0.037621 0.271589
Si Si3 0.239119 0.520530 0.566426
Si Si4 0.152893 0.839829 0.703365
Si Si5 0.208308 0.306459 0.166522
Si Si6 0.518278 0.370046 0.399274
Si Si7 0.982936 0.623330 0.565676
Si Si8 0.246903 0.408429 0.301108
O O1 0.148978 0.859426 0.613152
O O2 0.079448 0.848574 0.473131
O O3 0.375131 0.852616 0.505584
O O4 0.213850 0.960074 0.509470
O O5 0.500000 0.029944 0.250000
O O6 0.725761 0.112770 0.254459
O O7 0.684283 0.021592 0.360956
O O8 0.768960 0.985070 0.222800
O O9 0.385904 0.563919 0.583835
O O10 0.101556 0.566910 0.535926
O O11 0.197154 0.762821 0.711567
O O12 0.000000 0.852764 0.750000
O O13 0.369854 0.309825 0.123335
O O14 0.076231 0.314632 0.101995
O O15 0.190030 0.366731 0.226996
O O16 0.409682 0.381997 0.326583
O O17 0.875499 0.594061 0.631605
#
# Coordination Sequence:
#
# PCOD8246647 Si02
#       8
#     8   8   8   8   8   8   8   8
#     4  10  23  39  56  92 125 159 210 252 319 376
#     4  11  21  37  60  94 126 160 203 252 316 377
#     4  10  19  35  58  88 127 160 197 252 313 365
#     4  11  27  44  62  85 128 169 203 262 322 378
#     4  11  22  40  63  92 121 165 215 254 313 368
#     4  10  22  35  64  93 121 165 205 266 299 370
#     4  10  19  36  63  88 118 166 207 261 299 368
#     4  11  19  35  65  95 122 155 213 259 304 363
#
# _framework density 20.79562
#
# number of rings (size 3 to 8) (size 9 to 14) (size 15 to 20)
#    0.000    1.500    3.750    2.250    3.500    2.000 
#    0.000    2.500    0.000    0.000    0.000    0.000 
#    0.000    0.000    0.000    0.000    0.000    0.000 
#
# Total GULP energy -793309.489506 kJ/mol
# GULP energy per Si atom -12395.460774 kJ/mol
# Density = 2.074829 g / cm^3
# Si number density = 20.795620 Si / 1000 Ang^3
#
#
#
# Elastic Constant Matrix: (Units=GPa)
#
#
# Indices 1 2 3 4 5 6 
#
# 1 111.4701 23.5122 42.2843 0.0000 0.0000 0.0000
# 2 23.5122 94.5151 13.5514 0.0000 0.0000 0.0000
# 3 42.2843 13.5514 80.4375 0.0000 0.0000 0.0000
# 4 0.0000 0.0000 0.0000 20.2185 0.0000 0.0000
# 5 0.0000 0.0000 0.0000 0.0000 35.1114 0.0000
# 6 0.0000 0.0000 0.0000 0.0000 0.0000 23.8699
#
#
#
# Elastic Compliance Matrix: (Units=1/GPa)
#
#
# Indices 1 2 3 4 5 6 
#
# 1 0.011583 -0.002058 -0.005742 0.000000 0.000000 0.000000
# 2 -0.002058 0.011208 -0.000806 0.000000 0.000000 0.000000
# 3 -0.005742 -0.000806 0.015587 0.000000 0.000000 0.000000
# 4 0.000000 0.000000 0.000000 0.049460 0.000000 0.000000
# 5 0.000000 0.000000 0.000000 0.000000 0.028481 0.000000
# 6 0.000000 0.000000 0.000000 0.000000 0.000000 0.041894
#
#
# Mechanical properties :
#
#
# Convention : Reuss Voigt Hill
#
# Bulk Modulus (GPa) = 47.24982 49.45761 48.35371
# Shear Modulus (GPa) = 27.40018 29.64496 28.52257
#
# Velocity S-wave (km/s) = 3.63381 3.77973 3.70748
# Velocity P-wave (km/s) = 6.35424 6.54849 6.45210
#
# Compressibility (1/GPa) = 0.02116410
#
# Stress axis : x y z
#
# Youngs Moduli (GPa) = 86.33007 89.22244 64.15802
#
# Poissons Ratio (x) = 0.18364 0.36842
# Poissons Ratio (y) = 0.17769 0.05173
# Poissons Ratio (z) = 0.49574 0.07193
#
# Static dielectric constant tensor:
#      x y z
#    x 4.119950 0.000000 0.000000 
#    y 0.000000 3.712480 0.000000 
#    z 0.000000 0.000000 5.725020 
# 
# 
# High freq. dielectric constant tensor:
#      x y z
#    x 1.827010 0.000000 0.000000 
#    y 0.000000 1.797380 0.000000 
#    z 0.000000 0.000000 1.806240 
# 
# From -- ./inp_files/19668.got.cif
#   From: 2010.03.12/outbox.cif.g09.slc.cpg/sg60_10_cif.got.tgz:19668.got - 2010.04.10 18:46:24.
