data_PCOD8246563
_publ_section_title
;
Structure prediction by ZEFSAII (Michael W. Deem and Ramdas Pophale) SiO2 
 PCOD8246563
Probable space group: P B C N
;
_chemical_formula_sum "Si O2"
_cell_formula_units_Z 52
_cell_length_a 8.252710
_cell_length_b 18.576780
_cell_length_c 17.512784
_cell_angle_alpha 90.000000
_cell_angle_beta 90.000000
_cell_angle_gamma 90.000000
_cell_volume 2684.863516
_symmetry_space_group_name_H-M "P B C N"
_symmetry_group_IT_number 60
_symmetry_cell_setting 'orthorhombic'
loop_
_space_group_symop_operation_xyz
x,y,z
1/2-x,1/2-y,1/2+z
1/2+x,1/2-y,-z
-x,y,1/2-z
-x,-y,-z
1/2+x,1/2+y,1/2-z
1/2-x,1/2+y,z
x,-y,1/2+z
loop_
_atom_site_type_symbol
_atom_site_label
_atom_site_fract_x
_atom_site_fract_y
_atom_site_fract_z
Si Si1 0.220964 0.532541 0.139924
Si Si2 0.500000 0.889316 0.750000
Si Si3 0.296515 0.315301 0.821614
Si Si4 0.500000 0.568629 0.250000
Si Si5 0.000000 0.692467 0.750000
Si Si6 0.861712 0.280924 0.525779
Si Si7 0.580702 0.115224 0.900918
Si Si8 0.684208 0.146551 0.486404
O O1 0.058627 0.558612 0.182358
O O2 0.367446 0.522673 0.201952
O O3 0.182410 0.458211 0.097770
O O4 0.258591 0.590849 0.074183
O O5 0.638094 0.835280 0.724644
O O6 0.421728 0.380686 0.814330
O O7 0.360061 0.241180 0.786219
O O8 0.265807 0.305375 0.910664
O O9 0.929529 0.640369 0.814125
O O10 0.819183 0.325002 0.448565
O O11 0.836376 0.195608 0.512245
O O12 0.047133 0.299707 0.550753
O O13 0.402524 0.105653 0.941560
#
# Coordination Sequence:
#
# PCOD8246563 Si02
#       8
#     8   4   8   4   4   8   8   8
#     4  11  21  41  59  90 121 169 204 251 315 370
#     4  10  19  32  64  84 117 160 204 248 299 382
#     4  10  19  37  57  90 116 157 208 248 311 362
#     4   9  24  34  66  82 125 162 202 258 307 374
#     4  11  21  38  62  90 124 156 200 268 318 356
#     4  10  21  38  58  92 118 160 203 253 303 370
#     4  10  23  37  63  86 125 158 207 255 309 375
#     4  10  22  36  65  85 122 159 207 257 303 379
#
# _framework density 19.367837999999999
#
# number of rings (size 3 to 8) (size 9 to 14) (size 15 to 20)
#    0.923    0.923    3.077    0.923    8.615    0.000 
#    0.000    3.077    3.385    0.000    0.000    0.000 
#    0.000    0.000    0.000    0.000    0.000    0.000 
#
# Total GULP energy -644479.459833 kJ/mol
# GULP energy per Si atom -12393.835766 kJ/mol
# Density = 1.932376 g / cm^3
# Si number density = 19.367838 Si / 1000 Ang^3
#
#
#
# Elastic Constant Matrix: (Units=GPa)
#
#
# Indices 1 2 3 4 5 6 
#
# 1 63.0048 25.4985 12.0083 0.0000 0.0000 0.0000
# 2 25.4985 88.1031 26.2792 0.0000 0.0000 0.0000
# 3 12.0083 26.2792 104.6666 0.0000 0.0000 0.0000
# 4 0.0000 0.0000 0.0000 22.2907 0.0000 0.0000
# 5 0.0000 0.0000 0.0000 0.0000 32.0937 0.0000
# 6 0.0000 0.0000 0.0000 0.0000 0.0000 13.3610
#
#
#
# Elastic Compliance Matrix: (Units=1/GPa)
#
#
# Indices 1 2 3 4 5 6 
#
# 1 0.018042 -0.004977 -0.000820 0.000000 0.000000 0.000000
# 2 -0.004977 0.013642 -0.002854 0.000000 0.000000 0.000000
# 3 -0.000820 -0.002854 0.010365 0.000000 0.000000 0.000000
# 4 0.000000 0.000000 0.000000 0.044862 0.000000 0.000000
# 5 0.000000 0.000000 0.000000 0.000000 0.031159 0.000000
# 6 0.000000 0.000000 0.000000 0.000000 0.000000 0.074845
#
#
# Mechanical properties :
#
#
# Convention : Reuss Voigt Hill
#
# Bulk Modulus (GPa) = 40.41028 42.59404 41.50216
# Shear Modulus (GPa) = 22.88681 26.34833 24.61757
#
# Velocity S-wave (km/s) = 3.44130 3.69238 3.56905
# Velocity P-wave (km/s) = 6.05805 6.34178 6.20154
#
# Compressibility (1/GPa) = 0.02474618
#
# Stress axis : x y z
#
# Youngs Moduli (GPa) = 55.42487 73.30237 96.47965
#
# Poissons Ratio (x) = 0.36483 0.07915
# Poissons Ratio (y) = 0.27585 0.27537
# Poissons Ratio (z) = 0.04547 0.20922
#
# Static dielectric constant tensor:
#      x y z
#    x 4.402740 0.000000 0.000000 
#    y 0.000000 3.349660 0.000000 
#    z 0.000000 0.000000 3.550610 
# 
# 
# High freq. dielectric constant tensor:
#      x y z
#    x 1.738330 0.000000 0.000000 
#    y 0.000000 1.740700 0.000000 
#    z 0.000000 0.000000 1.760590 
# 
# From -- ./inp_files/19550.got.cif
#   From: 2010.03.12/outbox.cif.g09.slc.cpg/sg60_10_cif.got.tgz:19550.got - 2010.04.10 18:46:24.
