data_PCOD8246268
_publ_section_title
;
Structure prediction by ZEFSAII (Michael W. Deem and Ramdas Pophale) SiO2 
 PCOD8246268
Probable space group: P B C N
;
_chemical_formula_sum "Si O2"
_cell_formula_units_Z 64
_cell_length_a 11.639444
_cell_length_b 16.646180
_cell_length_c 18.447794
_cell_angle_alpha 90.000000
_cell_angle_beta 90.000000
_cell_angle_gamma 90.000000
_cell_volume 3574.302147
_symmetry_space_group_name_H-M "P B C N"
_symmetry_group_IT_number 60
_symmetry_cell_setting 'orthorhombic'
loop_
_space_group_symop_operation_xyz
x,y,z
1/2-x,1/2-y,1/2+z
1/2+x,1/2-y,-z
-x,y,1/2-z
-x,-y,-z
1/2+x,1/2+y,1/2-z
1/2-x,1/2+y,z
x,-y,1/2+z
loop_
_atom_site_type_symbol
_atom_site_label
_atom_site_fract_x
_atom_site_fract_y
_atom_site_fract_z
Si Si1 0.898823 0.648753 0.412078
Si Si2 0.171561 0.793432 0.538116
Si Si3 0.167211 0.063778 0.464538
Si Si4 0.985957 0.321600 0.073340
Si Si5 0.273711 0.274755 0.896009
Si Si6 0.546552 0.592898 0.559112
Si Si7 0.051092 0.764944 0.327032
Si Si8 0.101478 0.476104 0.051723
O O1 0.775945 0.691818 0.407508
O O2 0.877636 0.553739 0.397226
O O3 0.955108 0.666302 0.489559
O O4 0.978464 0.687890 0.351902
O O5 0.072678 0.751628 0.584274
O O6 0.206235 0.736826 0.471208
O O7 0.124939 0.877166 0.507404
O O8 0.175182 0.135449 0.404926
O O9 0.289654 0.045189 0.501401
O O10 0.083489 0.083473 0.531716
O O11 0.110477 0.990018 0.418914
O O12 0.053038 0.401767 0.100754
O O13 0.870558 0.294908 0.115843
O O14 0.184572 0.264661 0.828917
O O15 0.540520 0.655521 0.624464
O O16 0.000000 0.790179 0.250000
O O17 0.000000 0.500000 0.000000
#
# Coordination Sequence:
#
# PCOD8246268 Si02
#       8
#     8   8   8   8   8   8   8   8
#     4  10  18  31  50  76 106 135 180 218 270 324
#     4  10  15  28  50  82 113 134 166 223 277 330
#     4  11  18  31  56  89 122 133 171 234 301 332
#     4  10  17  28  51  84 113 137 164 227 293 327
#     4  10  18  31  52  80 112 145 182 223 268 329
#     4  10  20  32  55  89 112 143 179 229 288 338
#     4  11  23  40  57  71 105 157 201 218 257 339
#     4  10  19  27  46  84 116 138 157 213 290 334
#
# _framework density 17.905594000000001
#
# number of rings (size 3 to 8) (size 9 to 14) (size 15 to 20)
#    0.000    1.750    6.250    1.500    1.750    0.000 
#    0.000    0.000    2.750    0.750    0.000    0.000 
#    0.000    0.000    0.000    0.000    0.000    0.000 
#
# Total GULP energy -792976.954581 kJ/mol
# GULP energy per Si atom -12390.264915 kJ/mol
# Density = 1.786484 g / cm^3
# Si number density = 17.905594 Si / 1000 Ang^3
#
#
#
# Elastic Constant Matrix: (Units=GPa)
#
#
# Indices 1 2 3 4 5 6 
#
# 1 123.6150 45.2431 28.7113 0.0000 0.0000 0.0000
# 2 45.2431 123.3443 32.7788 0.0000 0.0000 0.0000
# 3 28.7113 32.7788 35.9923 0.0000 0.0000 0.0000
# 4 0.0000 0.0000 0.0000 11.5798 0.0000 0.0000
# 5 0.0000 0.0000 0.0000 0.0000 15.9575 0.0000
# 6 0.0000 0.0000 0.0000 0.0000 0.0000 34.8793
#
#
#
# Elastic Compliance Matrix: (Units=1/GPa)
#
#
# Indices 1 2 3 4 5 6 
#
# 1 0.010329 -0.002110 -0.006318 0.000000 0.000000 0.000000
# 2 -0.002110 0.011127 -0.008451 0.000000 0.000000 0.000000
# 3 -0.006318 -0.008451 0.040520 0.000000 0.000000 0.000000
# 4 0.000000 0.000000 0.000000 0.086358 0.000000 0.000000
# 5 0.000000 0.000000 0.000000 0.000000 0.062667 0.000000
# 6 0.000000 0.000000 0.000000 0.000000 0.000000 0.028670
#
#
# Mechanical properties :
#
#
# Convention : Reuss Voigt Hill
#
# Bulk Modulus (GPa) = 35.43721 55.15755 45.29738
# Shear Modulus (GPa) = 17.67817 24.23121 20.95469
#
# Velocity S-wave (km/s) = 3.14554 3.68268 3.42466
# Velocity P-wave (km/s) = 5.74688 6.99674 6.40238
#
# Compressibility (1/GPa) = 0.02821893
#
# Stress axis : x y z
#
# Youngs Moduli (GPa) = 96.81177 89.87155 24.67910
#
# Poissons Ratio (x) = 0.18960 0.15593
# Poissons Ratio (y) = 0.20424 0.20855
# Poissons Ratio (z) = 0.61170 0.75947
#
# Static dielectric constant tensor:
#      x y z
#    x 3.607090 0.000000 0.000000 
#    y 0.000000 4.094730 0.000000 
#    z 0.000000 0.000000 2.584510 
# 
# 
# High freq. dielectric constant tensor:
#      x y z
#    x 1.721910 0.000000 0.000000 
#    y 0.000000 1.716040 0.000000 
#    z 0.000000 0.000000 1.594530 
# 
# From -- ./inp_files/22742.got.cif
#   From: 2010.03.12/outbox.cif.g09.slc.cpg/sg60_12_cif.got.tgz:22742.got - 2010.04.10 18:46:24.
