data_PCOD8246208
_publ_section_title
;
Structure prediction by ZEFSAII (Michael W. Deem and Ramdas Pophale) SiO2 
 PCOD8246208
Probable space group: P M M N
;
_chemical_formula_sum "Si O2"
_cell_formula_units_Z 64
_cell_length_a 9.296888
_cell_length_b 17.847823
_cell_length_c 22.838515
_cell_angle_alpha 90.000000
_cell_angle_beta 90.000000
_cell_angle_gamma 90.000000
_cell_volume 3789.576785
_symmetry_space_group_name_H-M "P M M N"
_symmetry_group_IT_number 59
_space_group.IT_coordinate_system_code '2'
_symmetry_cell_setting 'orthorhombic'
loop_
_space_group_symop_operation_xyz
x,y,z
1/2-x,1/2-y,z
1/2+x,-y,-z
-x,1/2+y,-z
-x,-y,-z
1/2+x,1/2+y,-z
1/2-x,y,z
x,1/2-y,z
loop_
_atom_site_type_symbol
_atom_site_label
_atom_site_fract_x
_atom_site_fract_y
_atom_site_fract_z
Si Si1 0.081195 0.058318 0.540284
Si Si2 0.582337 0.834092 0.201676
Si Si3 0.917460 0.666825 0.557954
Si Si4 0.918762 0.975828 0.630361
Si Si5 0.420561 0.331377 0.045501
Si Si6 0.918376 0.895661 0.076520
Si Si7 0.418803 0.032658 0.120155
Si Si8 0.416444 0.527985 0.243201
O O1 0.250000 0.039839 0.545102
O O2 0.057269 0.139431 0.509480
O O3 0.000000 0.000000 0.500000
O O4 0.005168 0.047375 0.603259
O O5 0.750000 0.846242 0.212953
O O6 0.535052 0.750000 0.219206
O O7 0.545050 0.845529 0.133252
O O8 0.500448 0.893334 0.242674
O O9 0.750000 0.674919 0.570426
O O10 0.988963 0.750000 0.566290
O O11 0.976274 0.603962 0.604052
O O12 0.750000 0.985475 0.615780
O O13 0.950624 0.978776 0.699431
O O14 0.250000 0.328112 0.042693
O O15 0.485153 0.250000 0.060613
O O16 0.470568 0.386448 0.097389
O O17 0.476946 0.354958 0.981417
O O18 0.750000 0.912850 0.072448
O O19 0.000903 0.973565 0.079730
O O20 0.250000 0.021075 0.110955
O O21 0.462638 0.023376 0.188139
O O22 0.250000 0.549526 0.240252
#
# Coordination Sequence:
#
# PCOD8246208 Si02
#       8
#     8   8   8   8   8   8   8   8
#     4   9  16  27  46  69  92 117 143 174 214 258
#     4   9  17  29  45  65  86 109 144 188 227 266
#     4   8  14  26  45  68  90 111 138 174 213 247
#     4   9  17  30  47  65  88 119 153 184 212 252
#     4   9  16  26  42  64  88 113 142 180 227 274
#     4   9  16  27  45  65  84 109 142 181 226 275
#     4   9  17  29  44  62  86 115 146 181 221 267
#     4   9  18  31  45  63  89 120 151 182 219 260
#
# _framework density 16.888428999999999
#
# number of rings (size 3 to 8) (size 9 to 14) (size 15 to 20)
#    0.000    3.125    0.000    1.875    0.000    2.250 
#    0.000    1.250    0.000   17.625    0.000    0.000 
#    0.000    5.000    0.000    0.000    0.000    0.000 
#
# Total GULP energy -793035.418174 kJ/mol
# GULP energy per Si atom -12391.178409 kJ/mol
# Density = 1.684999 g / cm^3
# Si number density = 16.888429 Si / 1000 Ang^3
#
#
#
# Elastic Constant Matrix: (Units=GPa)
#
#
# Indices 1 2 3 4 5 6 
#
# 1 33.2050 31.5235 23.3865 0.0000 0.0000 0.0000
# 2 31.5235 142.6939 66.0347 0.0000 0.0000 0.0000
# 3 23.3865 66.0347 88.1556 0.0000 0.0000 0.0000
# 4 0.0000 0.0000 0.0000 20.7793 0.0000 0.0000
# 5 0.0000 0.0000 0.0000 0.0000 20.1128 0.0000
# 6 0.0000 0.0000 0.0000 0.0000 0.0000 19.5083
#
#
#
# Elastic Compliance Matrix: (Units=1/GPa)
#
#
# Indices 1 2 3 4 5 6 
#
# 1 0.040166 -0.006034 -0.006136 0.000000 0.000000 0.000000
# 2 -0.006034 0.011633 -0.007113 0.000000 0.000000 0.000000
# 3 -0.006136 -0.007113 0.018299 0.000000 0.000000 0.000000
# 4 0.000000 0.000000 0.000000 0.048125 0.000000 0.000000
# 5 0.000000 0.000000 0.000000 0.000000 0.049719 0.000000
# 6 0.000000 0.000000 0.000000 0.000000 0.000000 0.051260
#
#
# Mechanical properties :
#
#
# Convention : Reuss Voigt Hill
#
# Bulk Modulus (GPa) = 31.71304 56.21599 43.96452
# Shear Modulus (GPa) = 18.63738 21.62075 20.12906
#
# Velocity S-wave (km/s) = 3.32559 3.58188 3.45611
# Velocity P-wave (km/s) = 5.79351 7.10391 6.48191
#
# Compressibility (1/GPa) = 0.03153277
#
# Stress axis : x y z
#
# Youngs Moduli (GPa) = 24.89690 85.96471 54.64670
#
# Poissons Ratio (x) = 0.51870 0.33529
# Poissons Ratio (y) = 0.15023 0.38870
# Poissons Ratio (z) = 0.15276 0.61146
#
# Static dielectric constant tensor:
#      x y z
#    x 3.072370 0.000000 0.000000 
#    y 0.000000 3.517560 0.000000 
#    z 0.000000 0.000000 3.651890 
# 
# 
# High freq. dielectric constant tensor:
#      x y z
#    x 1.625150 0.000000 0.000000 
#    y 0.000000 1.644000 0.000000 
#    z 0.000000 0.000000 1.644790 
# 
# From -- ./inp_files/31730.got.cif
#   From: 2010.03.12/outbox.cif.g09.slc.cpg/sg59_16_cif.got.tgz:31730.got - 2010.04.16 16:29:54.
