data_PCOD8246465
_publ_section_title
;
Structure prediction by ZEFSAII (Michael W. Deem and Ramdas Pophale) SiO2 
 PCOD8246465
Probable space group: P B C N
;
_chemical_formula_sum "Si O2"
_cell_formula_units_Z 48
_cell_length_a 15.464160
_cell_length_b 8.658522
_cell_length_c 18.759939
_cell_angle_alpha 90.000000
_cell_angle_beta 90.000000
_cell_angle_gamma 90.000000
_cell_volume 2511.895229
_symmetry_space_group_name_H-M "P B C N"
_symmetry_group_IT_number 60
_symmetry_cell_setting 'orthorhombic'
loop_
_space_group_symop_operation_xyz
x,y,z
1/2-x,1/2-y,1/2+z
1/2+x,1/2-y,-z
-x,y,1/2-z
-x,-y,-z
1/2+x,1/2+y,1/2-z
1/2-x,1/2+y,z
x,-y,1/2+z
loop_
_atom_site_type_symbol
_atom_site_label
_atom_site_fract_x
_atom_site_fract_y
_atom_site_fract_z
Si Si1 0.558011 0.872006 0.915506
Si Si2 0.304129 0.872918 0.835473
Si Si3 0.102929 0.572483 0.935862
Si Si4 0.460518 0.649186 0.824538
Si Si5 0.591155 0.959476 0.277866
Si Si6 0.604997 0.308966 0.682951
O O1 0.533552 0.704969 0.881721
O O2 0.468451 0.940813 0.942591
O O3 0.603544 0.991252 0.860007
O O4 0.619780 0.853848 0.985417
O O5 0.366968 0.724520 0.839611
O O6 0.206343 0.823178 0.830640
O O7 0.312742 0.984671 0.904873
O O8 0.329032 0.969913 0.765517
O O9 0.068143 0.698546 0.879316
O O10 0.500000 0.703267 0.750000
O O11 0.448067 0.465805 0.823947
O O12 0.500000 0.030730 0.250000
O O13 0.590555 0.773828 0.260691
#
# Coordination Sequence:
#
# PCOD8246465 Si02
#       6
#     8   8   8   8   8   8
#     4  10  18  36  58  78 107 146 194 228 277 335
#     4  10  19  37  55  80 111 152 186 219 289 351
#     4   9  20  35  57  78 106 155 186 221 281 351
#     4  11  19  32  57  85 109 139 190 245 274 322
#     4  11  17  37  58  81 108 147 194 231 275 343
#     4  11  22  32  57  86 114 143 189 239 289 331
#
# _framework density 19.109078
#
# number of rings (size 3 to 8) (size 9 to 14) (size 15 to 20)
#    0.000    1.667    6.667    2.500    0.000    0.667 
#    0.000    1.667    0.000    0.000    0.000    0.000 
#    0.000    0.000    0.000    0.000    0.000    0.000 
#
# Total GULP energy -594698.341818 kJ/mol
# GULP energy per Si atom -12389.548788 kJ/mol
# Density = 1.906559 g / cm^3
# Si number density = 19.109078 Si / 1000 Ang^3
#
#
#
# Elastic Constant Matrix: (Units=GPa)
#
#
# Indices 1 2 3 4 5 6 
#
# 1 41.8092 3.8781 10.1339 0.0000 0.0000 0.0000
# 2 3.8781 116.8502 27.5328 0.0000 0.0000 0.0000
# 3 10.1339 27.5328 110.0329 0.0000 0.0000 0.0000
# 4 0.0000 0.0000 0.0000 13.5541 0.0000 0.0000
# 5 0.0000 0.0000 0.0000 0.0000 15.4965 0.0000
# 6 0.0000 0.0000 0.0000 0.0000 0.0000 24.1241
#
#
#
# Elastic Compliance Matrix: (Units=1/GPa)
#
#
# Indices 1 2 3 4 5 6 
#
# 1 0.024474 -0.000299 -0.002179 0.000000 0.000000 0.000000
# 2 -0.000299 0.009098 -0.002249 0.000000 0.000000 0.000000
# 3 -0.002179 -0.002249 0.009852 0.000000 0.000000 0.000000
# 4 0.000000 0.000000 0.000000 0.073778 0.000000 0.000000
# 5 0.000000 0.000000 0.000000 0.000000 0.064531 0.000000
# 6 0.000000 0.000000 0.000000 0.000000 0.000000 0.041452
#
#
# Mechanical properties :
#
#
# Convention : Reuss Voigt Hill
#
# Bulk Modulus (GPa) = 29.43814 39.08687 34.26251
# Shear Modulus (GPa) = 20.49500 25.77813 23.13657
#
# Velocity S-wave (km/s) = 3.27850 3.67686 3.48338
# Velocity P-wave (km/s) = 5.45620 6.20683 5.84358
#
# Compressibility (1/GPa) = 0.03396954
#
# Stress axis : x y z
#
# Youngs Moduli (GPa) = 40.85947 109.91683 101.50594
#
# Poissons Ratio (x) = 0.03284 0.22121
# Poissons Ratio (y) = 0.01221 0.22828
# Poissons Ratio (z) = 0.08904 0.24720
#
# Static dielectric constant tensor:
#      x y z
#    x 3.233380 0.000000 0.000000 
#    y 0.000000 3.603650 0.000000 
#    z 0.000000 0.000000 4.040180 
# 
# 
# High freq. dielectric constant tensor:
#      x y z
#    x 1.713920 0.000000 0.000000 
#    y 0.000000 1.749220 0.000000 
#    z 0.000000 0.000000 1.730880 
# 
# From -- ./inp_files/20820.got.cif
#   From: 2010.03.12/outbox.cif.g09.slc.cpg/sg60_11_cif.got.tgz:20820.got - 2010.04.10 18:46:24.
