data_PCOD8246213
_publ_section_title
;
Structure prediction by ZEFSAII (Michael W. Deem and Ramdas Pophale) SiO2 
 PCOD8246213
Probable space group: P M M N
;
_chemical_formula_sum "Si O2"
_cell_formula_units_Z 48
_cell_length_a 20.197381
_cell_length_b 9.149022
_cell_length_c 16.583924
_cell_angle_alpha 90.000000
_cell_angle_beta 90.000000
_cell_angle_gamma 90.000000
_cell_volume 3064.481675
_symmetry_space_group_name_H-M "P M M N"
_symmetry_group_IT_number 59
_space_group.IT_coordinate_system_code '2'
_symmetry_cell_setting 'orthorhombic'
loop_
_space_group_symop_operation_xyz
x,y,z
1/2-x,1/2-y,z
1/2+x,-y,-z
-x,1/2+y,-z
-x,-y,-z
1/2+x,1/2+y,-z
1/2-x,y,z
x,1/2-y,z
loop_
_atom_site_type_symbol
_atom_site_label
_atom_site_fract_x
_atom_site_fract_y
_atom_site_fract_z
Si Si1 0.671347 0.088609 0.501810
Si Si2 0.325945 0.577649 0.319680
Si Si3 0.438180 0.415354 0.233638
Si Si4 0.013440 0.915650 0.918440
Si Si5 0.824703 0.921406 0.346985
Si Si6 0.935456 0.576433 0.223035
O O1 0.750000 0.094715 0.502667
O O2 0.642382 0.250000 0.486017
O O3 0.649181 0.032669 0.590354
O O4 0.645699 0.985496 0.430180
O O5 0.250000 0.531475 0.305997
O O6 0.334683 0.750000 0.306764
O O7 0.369033 0.490137 0.255070
O O8 0.440701 0.250000 0.267776
O O9 0.446236 0.413755 0.135833
O O10 0.500023 0.509918 0.269385
O O11 0.037283 0.750000 0.936613
O O12 0.069570 0.002081 0.866036
O O13 0.000000 0.000000 0.000000
O O14 0.750000 0.978323 0.330219
O O15 0.825568 0.750000 0.358443
O O16 0.870121 0.969213 0.272255
O O17 0.942905 0.750000 0.214727
#
# Coordination Sequence:
#
# PCOD8246213 Si02
#       6
#     8   8   8   8   8   8
#     4   8  15  27  43  64  90 122 158 192 226 268
#     4   9  17  30  48  69  93 123 158 192 230 275
#     4   9  19  31  46  70  95 118 153 192 228 274
#     4   9  18  31  50  73  93 116 150 187 225 277
#     4   9  17  29  46  69  94 122 157 193 230 271
#     4   9  17  30  48  68  94 123 152 188 231 275
#
# _framework density 15.663334000000001
#
# number of rings (size 3 to 8) (size 9 to 14) (size 15 to 20)
#    1.000    2.167    0.000    2.000    0.000    2.333 
#    0.000    2.500    0.000    1.000    0.000    2.333 
#    0.000    0.000    0.000    0.000    0.000    0.000 
#
# Total GULP energy -594634.361089 kJ/mol
# GULP energy per Si atom -12388.215856 kJ/mol
# Density = 1.562768 g / cm^3
# Si number density = 15.663334 Si / 1000 Ang^3
#
#
#
# Elastic Constant Matrix: (Units=GPa)
#
#
# Indices 1 2 3 4 5 6 
#
# 1 68.7692 41.4642 41.8514 0.0000 0.0000 0.0000
# 2 41.4642 81.4712 45.9757 0.0000 0.0000 0.0000
# 3 41.8514 45.9757 92.2309 0.0000 0.0000 0.0000
# 4 0.0000 0.0000 0.0000 30.9751 0.0000 0.0000
# 5 0.0000 0.0000 0.0000 0.0000 23.1478 0.0000
# 6 0.0000 0.0000 0.0000 0.0000 0.0000 20.9326
#
#
#
# Elastic Compliance Matrix: (Units=1/GPa)
#
#
# Indices 1 2 3 4 5 6 
#
# 1 0.023513 -0.008273 -0.006545 0.000000 0.000000 0.000000
# 2 -0.008273 0.019989 -0.006210 0.000000 0.000000 0.000000
# 3 -0.006545 -0.006210 0.016908 0.000000 0.000000 0.000000
# 4 0.000000 0.000000 0.000000 0.032284 0.000000 0.000000
# 5 0.000000 0.000000 0.000000 0.000000 0.043201 0.000000
# 6 0.000000 0.000000 0.000000 0.000000 0.000000 0.047772
#
#
# Mechanical properties :
#
#
# Convention : Reuss Voigt Hill
#
# Bulk Modulus (GPa) = 54.48729 55.67267 55.07998
# Shear Modulus (GPa) = 21.56629 22.55642 22.06136
#
# Velocity S-wave (km/s) = 3.71464 3.79895 3.75703
# Velocity P-wave (km/s) = 7.29795 7.40697 7.35266
#
# Compressibility (1/GPa) = 0.01835290
#
# Stress axis : x y z
#
# Youngs Moduli (GPa) = 42.52959 50.02643 59.14279
#
# Poissons Ratio (x) = 0.41387 0.38712
# Poissons Ratio (y) = 0.35185 0.36730
# Poissons Ratio (z) = 0.27837 0.31068
#
# Static dielectric constant tensor:
#      x y z
#    x 2.764710 0.000000 0.000000 
#    y 0.000000 3.058330 0.000000 
#    z 0.000000 0.000000 2.917800 
# 
# 
# High freq. dielectric constant tensor:
#      x y z
#    x 1.567590 0.000000 0.000000 
#    y 0.000000 1.611620 0.000000 
#    z 0.000000 0.000000 1.588200 
# 
# From -- ./inp_files/28010.got.cif
#   From: 2010.03.12/outbox.cif.g09.slc.cpg/sg59_15_cif.got.tgz:28010.got - 2010.04.16 16:29:54.
