data_PCOD8246075
_publ_section_title
;
Structure prediction by ZEFSAII (Michael W. Deem and Ramdas Pophale) SiO2 
 PCOD8246075
Probable space group: P M M N
;
_chemical_formula_sum "Si O2"
_cell_formula_units_Z 48
_cell_length_a 7.934295
_cell_length_b 18.490349
_cell_length_c 17.303264
_cell_angle_alpha 90.000000
_cell_angle_beta 90.000000
_cell_angle_gamma 90.000000
_cell_volume 2538.525241
_symmetry_space_group_name_H-M "P M M N"
_symmetry_group_IT_number 59
_space_group.IT_coordinate_system_code '2'
_symmetry_cell_setting 'orthorhombic'
loop_
_space_group_symop_operation_xyz
x,y,z
1/2-x,1/2-y,z
1/2+x,-y,-z
-x,1/2+y,-z
-x,-y,-z
1/2+x,1/2+y,-z
1/2-x,y,z
x,1/2-y,z
loop_
_atom_site_type_symbol
_atom_site_label
_atom_site_fract_x
_atom_site_fract_y
_atom_site_fract_z
Si Si1 0.250000 0.335724 0.748605
Si Si2 0.062711 0.164035 0.180258
Si Si3 0.750000 0.663523 0.077741
Si Si4 0.443012 0.835196 0.356993
Si Si5 0.445733 0.170701 0.346383
Si Si6 0.565439 0.336028 0.019610
Si Si7 0.945499 0.081583 0.489374
O O1 0.250000 0.250000 0.750544
O O2 0.250000 0.367213 0.835112
O O3 0.422499 0.362155 0.706892
O O4 0.250000 0.131281 0.170719
O O5 0.071330 0.250000 0.177425
O O6 0.979905 0.142168 0.263702
O O7 0.954644 0.135116 0.107655
O O8 0.750000 0.750000 0.077542
O O9 0.582543 0.633156 0.035258
O O10 0.250000 0.856456 0.333266
O O11 0.456639 0.750000 0.370290
O O12 0.499803 0.872652 0.436280
O O13 0.250000 0.181102 0.330348
O O14 0.522827 0.250000 0.368856
O O15 0.468694 0.112877 0.413295
O O16 0.750000 0.361323 0.989354
O O17 0.553747 0.250000 0.018784
O O18 0.750000 0.087490 0.475131
O O19 0.000000 0.000000 0.500000
#
# Coordination Sequence:
#
# PCOD8246075 Si02
#       7
#     4   8   4   8   8   8   8
#     4   9  18  30  50  71  93 133 168 205 254 297
#     4   8  13  24  40  60  91 129 164 197 234 287
#     4   9  16  26  38  61  95 125 161 201 242 293
#     4   9  19  35  53  74  99 130 171 213 255 304
#     4   9  18  31  50  74 100 135 173 206 247 302
#     4   9  15  22  36  58  89 130 163 192 238 291
#     4  11  23  36  51  72 100 133 166 216 259 302
#
# _framework density 18.908617
#
# number of rings (size 3 to 8) (size 9 to 14) (size 15 to 20)
#    0.000    2.833    0.833    2.000    2.333    2.333 
#    0.000    5.000    0.000    0.000    0.000    0.000 
#    0.000    1.333    0.667    0.000    0.000    0.000 
#
# Total GULP energy -594758.241965 kJ/mol
# GULP energy per Si atom -12390.796708 kJ/mol
# Density = 1.886558 g / cm^3
# Si number density = 18.908617 Si / 1000 Ang^3
#
#
#
# Elastic Constant Matrix: (Units=GPa)
#
#
# Indices 1 2 3 4 5 6 
#
# 1 113.3384 15.7466 78.5609 0.0000 0.0000 0.0000
# 2 15.7466 30.8731 26.9706 0.0000 0.0000 0.0000
# 3 78.5609 26.9706 167.7616 0.0000 0.0000 0.0000
# 4 0.0000 0.0000 0.0000 0.8185 0.0000 0.0000
# 5 0.0000 0.0000 0.0000 0.0000 22.3619 0.0000
# 6 0.0000 0.0000 0.0000 0.0000 0.0000 13.1039
#
#
#
# Elastic Compliance Matrix: (Units=1/GPa)
#
#
# Indices 1 2 3 4 5 6 
#
# 1 0.013126 -0.001542 -0.005899 0.000000 0.000000 0.000000
# 2 -0.001542 0.037864 -0.005365 0.000000 0.000000 0.000000
# 3 -0.005899 -0.005365 0.009586 0.000000 0.000000 0.000000
# 4 0.000000 0.000000 0.000000 1.221685 0.000000 0.000000
# 5 0.000000 0.000000 0.000000 0.000000 0.044719 0.000000
# 6 0.000000 0.000000 0.000000 0.000000 0.000000 0.076313
#
#
# Mechanical properties :
#
#
# Convention : Reuss Voigt Hill
#
# Bulk Modulus (GPa) = 28.60071 61.61438 45.10754
# Shear Modulus (GPa) = 3.47087 19.96986 11.72037
#
# Velocity S-wave (km/s) = 1.35631 3.25333 2.49237
# Velocity P-wave (km/s) = 4.19659 6.83874 5.67361
#
# Compressibility (1/GPa) = 0.03496417
#
# Stress axis : x y z
#
# Youngs Moduli (GPa) = 76.18316 26.41024 104.32008
#
# Poissons Ratio (x) = 0.04071 0.61539
# Poissons Ratio (y) = 0.11744 0.55972
# Poissons Ratio (z) = 0.44941 0.14170
#
# Static dielectric constant tensor:
#      x y z
#    x 3.664240 0.000000 0.000000 
#    y 0.000000 2.812510 0.000000 
#    z 0.000000 0.000000 3.761190 
# 
# 
# High freq. dielectric constant tensor:
#      x y z
#    x 1.740450 0.000000 0.000000 
#    y 0.000000 1.660850 0.000000 
#    z 0.000000 0.000000 1.745170 
# 
# From -- ./inp_files/20512.got.cif
#   From: 2010.03.12/outbox.cif.g09.slc.cpg/sg59_11_cif.got.tgz:20512.got - 2010.04.16 16:29:54.
