data_PCOD8246215
_publ_section_title
;
Structure prediction by ZEFSAII (Michael W. Deem and Ramdas Pophale) SiO2 
 PCOD8246215
Probable space group: P M M N
;
_chemical_formula_sum "Si O2"
_cell_formula_units_Z 40
_cell_length_a 18.532115
_cell_length_b 13.404333
_cell_length_c 10.294808
_cell_angle_alpha 90.000000
_cell_angle_beta 90.000000
_cell_angle_gamma 90.000000
_cell_volume 2557.339851
_symmetry_space_group_name_H-M "P M M N"
_symmetry_group_IT_number 59
_space_group.IT_coordinate_system_code '2'
_symmetry_cell_setting 'orthorhombic'
loop_
_space_group_symop_operation_xyz
x,y,z
1/2-x,1/2-y,z
1/2+x,-y,-z
-x,1/2+y,-z
-x,-y,-z
1/2+x,1/2+y,-z
1/2-x,y,z
x,1/2-y,z
loop_
_atom_site_type_symbol
_atom_site_label
_atom_site_fract_x
_atom_site_fract_y
_atom_site_fract_z
Si Si1 0.084969 0.948095 0.883314
Si Si2 0.334717 0.997351 0.123858
Si Si3 0.835645 0.139986 0.643582
Si Si4 0.166919 0.866564 0.646909
Si Si5 0.056119 0.362970 0.021755
O O1 0.119444 0.933186 0.742994
O O2 0.019412 0.870823 0.901780
O O3 0.145126 0.930754 0.996618
O O4 0.054758 0.062447 0.896446
O O5 0.250000 0.019276 0.128161
O O6 0.378335 0.102070 0.116894
O O7 0.363070 0.939413 0.251305
O O8 0.750000 0.146302 0.646939
O O9 0.866915 0.250000 0.677010
O O10 0.860062 0.108321 0.498783
O O11 0.250000 0.897297 0.664474
O O12 0.156571 0.750000 0.678098
O O13 0.069449 0.250000 0.976096
#
# Coordination Sequence:
#
# PCOD8246215 Si02
#       5
#     8   8   8   8   8
#     4   9  18  31  48  69  88 121 154 192 225 270
#     4   9  17  30  47  71  91 117 156 189 223 269
#     4   8  15  27  43  67  98 122 142 182 238 278
#     4   9  16  27  46  71  96 121 148 186 236 277
#     4   9  19  33  47  65  94 125 151 187 235 270
#
# _framework density 15.641254
#
# number of rings (size 3 to 8) (size 9 to 14) (size 15 to 20)
#    1.200    2.000    0.000    2.400    0.000    2.000 
#    0.000    3.000    0.000    1.200    0.000    2.800 
#    0.000    0.000    0.000    0.000    0.000    0.000 
#
# Total GULP energy -495557.334671 kJ/mol
# GULP energy per Si atom -12388.933367 kJ/mol
# Density = 1.560565 g / cm^3
# Si number density = 15.641254 Si / 1000 Ang^3
#
#
#
# Elastic Constant Matrix: (Units=GPa)
#
#
# Indices 1 2 3 4 5 6 
#
# 1 58.5279 22.8922 17.2298 0.0000 0.0000 0.0000
# 2 22.8922 84.5909 34.8196 0.0000 0.0000 0.0000
# 3 17.2298 34.8196 75.9699 0.0000 0.0000 0.0000
# 4 0.0000 0.0000 0.0000 23.5246 0.0000 0.0000
# 5 0.0000 0.0000 0.0000 0.0000 9.7679 0.0000
# 6 0.0000 0.0000 0.0000 0.0000 0.0000 18.5285
#
#
#
# Elastic Compliance Matrix: (Units=1/GPa)
#
#
# Indices 1 2 3 4 5 6 
#
# 1 0.019476 -0.004255 -0.002467 0.000000 0.000000 0.000000
# 2 -0.004255 0.015500 -0.006139 0.000000 0.000000 0.000000
# 3 -0.002467 -0.006139 0.016536 0.000000 0.000000 0.000000
# 4 0.000000 0.000000 0.000000 0.042509 0.000000 0.000000
# 5 0.000000 0.000000 0.000000 0.000000 0.102376 0.000000
# 6 0.000000 0.000000 0.000000 0.000000 0.000000 0.053971
#
#
# Mechanical properties :
#
#
# Convention : Reuss Voigt Hill
#
# Bulk Modulus (GPa) = 38.77422 40.99686 39.88554
# Shear Modulus (GPa) = 17.56306 19.97400 18.76853
#
# Velocity S-wave (km/s) = 3.35456 3.57740 3.46777
# Velocity P-wave (km/s) = 6.31250 6.58266 6.44899
#
# Compressibility (1/GPa) = 0.02579033
#
# Stress axis : x y z
#
# Youngs Moduli (GPa) = 51.34396 64.51515 60.47275
#
# Poissons Ratio (x) = 0.27454 0.14918
# Poissons Ratio (y) = 0.21849 0.37125
# Poissons Ratio (z) = 0.12666 0.39607
#
# Static dielectric constant tensor:
#      x y z
#    x 2.818580 0.000000 0.000000 
#    y 0.000000 2.775550 0.000000 
#    z 0.000000 0.000000 2.935300 
# 
# 
# High freq. dielectric constant tensor:
#      x y z
#    x 1.590380 0.000000 0.000000 
#    y 0.000000 1.577580 0.000000 
#    z 0.000000 0.000000 1.588000 
# 
# From -- ./inp_files/11215.got.cif
#   From: 2010.03.12/outbox.cif.g09.slc.cpg/sg59_6_cif.got.tgz:11215.got - 2010.04.16 16:29:54.
