data_PCOD8246176
_publ_section_title
;
Structure prediction by ZEFSAII (Michael W. Deem and Ramdas Pophale) SiO2 
 PCOD8246176
Probable space group: P M M N
;
_chemical_formula_sum "Si O2"
_cell_formula_units_Z 56
_cell_length_a 13.553038
_cell_length_b 9.742264
_cell_length_c 28.996551
_cell_angle_alpha 90.000000
_cell_angle_beta 90.000000
_cell_angle_gamma 90.000000
_cell_volume 3828.625555
_symmetry_space_group_name_H-M "P M M N"
_symmetry_group_IT_number 59
_space_group.IT_coordinate_system_code '2'
_symmetry_cell_setting 'orthorhombic'
loop_
_space_group_symop_operation_xyz
x,y,z
1/2-x,1/2-y,z
1/2+x,-y,-z
-x,1/2+y,-z
-x,-y,-z
1/2+x,1/2+y,-z
1/2-x,y,z
x,1/2-y,z
loop_
_atom_site_type_symbol
_atom_site_label
_atom_site_fract_x
_atom_site_fract_y
_atom_site_fract_z
Si Si1 0.864810 0.908318 0.161771
Si Si2 0.017983 0.909328 0.568574
Si Si3 0.136211 0.592437 0.476802
Si Si4 0.640326 0.413011 0.345150
Si Si5 0.132539 0.597199 0.756196
Si Si6 0.639788 0.093395 0.987727
Si Si7 0.947165 0.909021 0.064478
O O1 0.750000 0.939760 0.152249
O O2 0.881363 0.750000 0.174099
O O3 0.926951 0.952635 0.116956
O O4 0.907347 0.995169 0.204572
O O5 0.988224 0.750000 0.572588
O O6 0.096947 0.933502 0.528214
O O7 0.066397 0.966941 0.615595
O O8 0.919748 0.996649 0.559699
O O9 0.250000 0.550597 0.475995
O O10 0.120166 0.750000 0.462210
O O11 0.750000 0.475531 0.353047
O O12 0.648419 0.250000 0.348228
O O13 0.598443 0.454691 0.294553
O O14 0.250000 0.600101 0.756241
O O15 0.091382 0.750000 0.766331
O O16 0.750000 0.067847 0.968296
O O17 0.626766 0.250000 0.004611
O O18 0.561968 0.060757 0.947016
O O19 0.622827 0.996593 0.031428
O O20 0.919434 0.750000 0.057046
#
# Coordination Sequence:
#
# PCOD8246176 Si02
#       7
#     8   8   8   8   8   8   8
#     4   9  16  25  37  54  77 103 128 154 186 226
#     4   9  16  26  42  61  78 101 135 166 191 226
#     4   9  17  28  40  56  81 109 132 158 195 234
#     4   8  13  23  40  60  80 102 129 160 193 230
#     4   8  14  24  38  56  77 100 125 154 189 228
#     4   9  17  28  41  58  79 101 128 163 195 222
#     4   9  17  28  41  57  78 105 133 157 188 230
#
# _framework density 14.626658000000001
#
# number of rings (size 3 to 8) (size 9 to 14) (size 15 to 20)
#    0.000    3.286    0.000    1.714    0.000    3.429 
#    0.000    2.143    0.000    2.143    0.000    1.000 
#    0.000    3.429    0.000    0.000    0.000    0.000 
#
# Total GULP energy -694186.707630 kJ/mol
# GULP energy per Si atom -12396.191208 kJ/mol
# Density = 1.459337 g / cm^3
# Si number density = 14.626658 Si / 1000 Ang^3
#
#
#
# Elastic Constant Matrix: (Units=GPa)
#
#
# Indices 1 2 3 4 5 6 
#
# 1 82.7412 37.3986 50.6784 0.0000 0.0000 0.0000
# 2 37.3986 52.0678 52.1330 0.0000 0.0000 0.0000
# 3 50.6784 52.1330 125.3869 0.0000 0.0000 0.0000
# 4 0.0000 0.0000 0.0000 23.6323 0.0000 0.0000
# 5 0.0000 0.0000 0.0000 0.0000 21.0037 0.0000
# 6 0.0000 0.0000 0.0000 0.0000 0.0000 18.4901
#
#
#
# Elastic Compliance Matrix: (Units=1/GPa)
#
#
# Indices 1 2 3 4 5 6 
#
# 1 0.018696 -0.010044 -0.003380 0.000000 0.000000 0.000000
# 2 -0.010044 0.038299 -0.011864 0.000000 0.000000 0.000000
# 3 -0.003380 -0.011864 0.014275 0.000000 0.000000 0.000000
# 4 0.000000 0.000000 0.000000 0.042315 0.000000 0.000000
# 5 0.000000 0.000000 0.000000 0.000000 0.047611 0.000000
# 6 0.000000 0.000000 0.000000 0.000000 0.000000 0.054083
#
#
# Mechanical properties :
#
#
# Convention : Reuss Voigt Hill
#
# Bulk Modulus (GPa) = 48.32754 60.06844 54.19799
# Shear Modulus (GPa) = 18.33149 20.62427 19.47788
#
# Velocity S-wave (km/s) = 3.54403 3.75913 3.65316
# Velocity P-wave (km/s) = 7.06111 7.74586 7.41140
#
# Compressibility (1/GPa) = 0.02069213
#
# Stress axis : x y z
#
# Youngs Moduli (GPa) = 53.48641 26.11002 70.05480
#
# Poissons Ratio (x) = 0.26226 0.23682
# Poissons Ratio (y) = 0.53723 0.83116
# Poissons Ratio (z) = 0.18081 0.30978
#
# Static dielectric constant tensor:
#      x y z
#    x 2.722700 0.000000 0.000000 
#    y 0.000000 2.825650 0.000000 
#    z 0.000000 0.000000 2.979810 
# 
# 
# High freq. dielectric constant tensor:
#      x y z
#    x 1.531970 0.000000 0.000000 
#    y 0.000000 1.550530 0.000000 
#    z 0.000000 0.000000 1.553580 
# 
# From -- ./inp_files/33181.got.cif
#   From: 2010.03.12/outbox.cif.g09.slc.cpg/sg59_17_cif.got.tgz:33181.got - 2010.04.16 16:29:54.
