data_PCOD8246721
_publ_section_title
;
Structure prediction by ZEFSAII (Michael W. Deem and Ramdas Pophale) SiO2 
 PCOD8246721
Probable space group: P B C N
;
_chemical_formula_sum "Si O2"
_cell_formula_units_Z 56
_cell_length_a 21.818341
_cell_length_b 8.123185
_cell_length_c 15.950710
_cell_angle_alpha 90.000000
_cell_angle_beta 90.000000
_cell_angle_gamma 90.000000
_cell_volume 2827.014841
_symmetry_space_group_name_H-M "P B C N"
_symmetry_group_IT_number 60
_symmetry_cell_setting 'orthorhombic'
loop_
_space_group_symop_operation_xyz
x,y,z
1/2-x,1/2-y,1/2+z
1/2+x,1/2-y,-z
-x,y,1/2-z
-x,-y,-z
1/2+x,1/2+y,1/2-z
1/2-x,1/2+y,z
x,-y,1/2+z
loop_
_atom_site_type_symbol
_atom_site_label
_atom_site_fract_x
_atom_site_fract_y
_atom_site_fract_z
Si Si1 0.385757 0.146881 0.598508
Si Si2 0.774408 0.103949 0.660889
Si Si3 0.819816 0.597018 0.066312
Si Si4 0.580348 0.152128 0.621263
Si Si5 0.502375 0.304902 0.002956
Si Si6 0.018338 0.591565 0.161167
Si Si7 0.167191 0.189961 0.257998
O O1 0.331031 0.102332 0.533615
O O2 0.438505 0.239727 0.546522
O O3 0.354316 0.271612 0.663909
O O4 0.412207 0.979422 0.644044
O O5 0.819716 0.224933 0.610916
O O6 0.723163 0.193622 0.715849
O O7 0.744846 0.989912 0.587860
O O8 0.812826 0.999057 0.728994
O O9 0.874258 0.497533 0.107814
O O10 0.561677 0.241243 0.535388
O O11 0.608540 0.285928 0.682893
O O12 0.519387 0.077620 0.660320
O O13 0.503067 0.229889 0.095809
O O14 0.500000 0.500000 0.000000
O O15 0.000000 0.673861 0.250000
#
# Coordination Sequence:
#
# PCOD8246721 Si02
#       7
#     8   8   8   8   8   8   8
#     4  11  21  38  65  87 122 162 202 244 317 372
#     4   9  22  39  59  88 121 154 215 256 304 360
#     4  10  19  39  63  85 115 168 200 256 307 363
#     4  10  19  37  65  82 123 160 199 238 310 368
#     4  11  24  40  56  95 129 156 208 256 299 390
#     4  11  20  40  63  92 118 162 201 246 304 392
#     4  10  21  38  61  89 118 162 201 259 306 362
#
# _framework density 19.808881
#
# number of rings (size 3 to 8) (size 9 to 14) (size 15 to 20)
#    0.000    1.714    4.286    0.857    2.000    1.143 
#    5.143    0.000    0.000    0.000    0.000    0.000 
#    0.000    0.000    0.000    0.000    0.000    0.000 
#
# Total GULP energy -694033.011900 kJ/mol
# GULP energy per Si atom -12393.446641 kJ/mol
# Density = 1.976379 g / cm^3
# Si number density = 19.808881 Si / 1000 Ang^3
#
#
#
# Elastic Constant Matrix: (Units=GPa)
#
#
# Indices 1 2 3 4 5 6 
#
# 1 63.0020 35.7428 41.6094 0.0000 0.0000 0.0000
# 2 35.7428 110.6817 46.6623 0.0000 0.0000 0.0000
# 3 41.6094 46.6623 146.9552 0.0000 0.0000 0.0000
# 4 0.0000 0.0000 0.0000 22.0410 0.0000 0.0000
# 5 0.0000 0.0000 0.0000 0.0000 33.4902 0.0000
# 6 0.0000 0.0000 0.0000 0.0000 0.0000 24.4002
#
#
#
# Elastic Compliance Matrix: (Units=1/GPa)
#
#
# Indices 1 2 3 4 5 6 
#
# 1 0.021774 -0.005118 -0.004540 0.000000 0.000000 0.000000
# 2 -0.005118 0.011634 -0.002245 0.000000 0.000000 0.000000
# 3 -0.004540 -0.002245 0.008803 0.000000 0.000000 0.000000
# 4 0.000000 0.000000 0.000000 0.045370 0.000000 0.000000
# 5 0.000000 0.000000 0.000000 0.000000 0.029860 0.000000
# 6 0.000000 0.000000 0.000000 0.000000 0.000000 0.040983
#
#
# Mechanical properties :
#
#
# Convention : Reuss Voigt Hill
#
# Bulk Modulus (GPa) = 54.33082 63.18534 58.75808
# Shear Modulus (GPa) = 26.54410 29.09457 27.81934
#
# Velocity S-wave (km/s) = 3.66459 3.83660 3.75158
# Velocity P-wave (km/s) = 6.73741 7.18281 6.96367
#
# Compressibility (1/GPa) = 0.01840576
#
# Stress axis : x y z
#
# Youngs Moduli (GPa) = 45.92533 85.95449 113.59433
#
# Poissons Ratio (x) = 0.43988 0.51576
# Poissons Ratio (y) = 0.23502 0.25503
# Poissons Ratio (z) = 0.20852 0.19298
#
# Static dielectric constant tensor:
#      x y z
#    x 3.878300 0.000000 0.000000 
#    y 0.000000 3.576660 0.000000 
#    z 0.000000 0.000000 3.758400 
# 
# 
# High freq. dielectric constant tensor:
#      x y z
#    x 1.771090 0.000000 0.000000 
#    y 0.000000 1.762030 0.000000 
#    z 0.000000 0.000000 1.771540 
# 
# From -- ./inp_files/17741.got.cif
#   From: 2010.03.12/outbox.cif.g09.slc.cpg/sg60_9_cif.got.tgz:17741.got - 2010.04.10 18:46:24.
