data_PCOD8246481
_publ_section_title
;
Structure prediction by ZEFSAII (Michael W. Deem and Ramdas Pophale) SiO2 
 PCOD8246481
Probable space group: P B C N
;
_chemical_formula_sum "Si O2"
_cell_formula_units_Z 64
_cell_length_a 8.023399
_cell_length_b 16.573315
_cell_length_c 21.859060
_cell_angle_alpha 90.000000
_cell_angle_beta 90.000000
_cell_angle_gamma 90.000000
_cell_volume 2906.693617
_symmetry_space_group_name_H-M "P B C N"
_symmetry_group_IT_number 60
_symmetry_cell_setting 'orthorhombic'
loop_
_space_group_symop_operation_xyz
x,y,z
1/2-x,1/2-y,1/2+z
1/2+x,1/2-y,-z
-x,y,1/2-z
-x,-y,-z
1/2+x,1/2+y,1/2-z
1/2-x,1/2+y,z
x,-y,1/2+z
loop_
_atom_site_type_symbol
_atom_site_label
_atom_site_fract_x
_atom_site_fract_y
_atom_site_fract_z
Si Si1 0.730687 0.350936 0.510968
Si Si2 0.035458 0.626694 0.853277
Si Si3 0.128449 0.907770 0.294587
Si Si4 0.150383 0.495735 0.712227
Si Si5 0.574480 0.734686 0.433758
Si Si6 0.513384 0.557187 0.921141
Si Si7 0.838578 0.478333 0.039827
Si Si8 0.260586 0.077209 0.083940
O O1 0.601083 0.307606 0.555086
O O2 0.876524 0.288793 0.492468
O O3 0.642163 0.377134 0.447343
O O4 0.809278 0.425961 0.548297
O O5 0.215859 0.642808 0.821441
O O6 0.045210 0.561778 0.909039
O O7 0.908100 0.586013 0.806421
O O8 0.956219 0.710588 0.874020
O O9 0.194129 0.988097 0.258002
O O10 0.000000 0.858842 0.250000
O O11 0.007482 0.935179 0.348942
O O12 0.184999 0.441136 0.653046
O O13 0.000000 0.453072 0.750000
O O14 0.725127 0.672309 0.420715
O O15 0.339161 0.567111 0.955624
O O16 0.589409 0.468651 0.932992
O O17 0.896928 0.454266 0.969136
#
# Coordination Sequence:
#
# PCOD8246481 Si02
#       8
#     8   8   8   8   8   8   8   8
#     4  11  23  37  61  92 137 161 203 245 325 398
#     4  10  23  39  64  97 130 159 211 269 324 369
#     4  10  20  37  72  88 111 163 231 257 299 362
#     4  10  22  41  65  91 119 162 225 270 297 369
#     4  12  24  37  58  98 133 167 189 265 335 385
#     4  10  18  37  64  94 110 161 214 252 295 386
#     4  10  19  38  64  95 117 165 209 248 305 400
#     4  11  19  36  64  85 129 157 205 253 319 377
#
# _framework density 22.018145000000001
#
# number of rings (size 3 to 8) (size 9 to 14) (size 15 to 20)
#    0.000    1.500    3.750    3.000    1.750    3.000 
#    0.000    0.000   11.000    0.000    0.000    0.000 
#    0.000    0.000    0.000    0.000    0.000    0.000 
#
# Total GULP energy -793287.798789 kJ/mol
# GULP energy per Si atom -12395.121856 kJ/mol
# Density = 2.196803 g / cm^3
# Si number density = 22.018145 Si / 1000 Ang^3
#
#
#
# Elastic Constant Matrix: (Units=GPa)
#
#
# Indices 1 2 3 4 5 6 
#
# 1 28.5679 5.5295 -6.4737 0.0000 0.0000 0.0000
# 2 5.5295 102.2736 17.8795 0.0000 0.0000 0.0000
# 3 -6.4737 17.8795 96.7088 0.0000 0.0000 0.0000
# 4 0.0000 0.0000 0.0000 23.4491 0.0000 0.0000
# 5 0.0000 0.0000 0.0000 0.0000 49.5113 0.0000
# 6 0.0000 0.0000 0.0000 0.0000 0.0000 8.5247
#
#
#
# Elastic Compliance Matrix: (Units=1/GPa)
#
#
# Indices 1 2 3 4 5 6 
#
# 1 0.036131 -0.002456 0.002873 0.000000 0.000000 0.000000
# 2 -0.002456 0.010271 -0.002063 0.000000 0.000000 0.000000
# 3 0.002873 -0.002063 0.010914 0.000000 0.000000 0.000000
# 4 0.000000 0.000000 0.000000 0.042646 0.000000 0.000000
# 5 0.000000 0.000000 0.000000 0.000000 0.020197 0.000000
# 6 0.000000 0.000000 0.000000 0.000000 0.000000 0.117306
#
#
# Mechanical properties :
#
#
# Convention : Reuss Voigt Hill
#
# Bulk Modulus (GPa) = 18.51061 29.04678 23.77869
# Shear Modulus (GPa) = 19.32255 30.33803 24.83029
#
# Velocity S-wave (km/s) = 2.96560 3.71599 3.36180
# Velocity P-wave (km/s) = 4.48906 5.62426 5.08841
#
# Compressibility (1/GPa) = 0.05402307
#
# Stress axis : x y z
#
# Youngs Moduli (GPa) = 27.67742 97.35992 91.62477
#
# Poissons Ratio (x) = 0.23908 -0.26320
# Poissons Ratio (y) = 0.06797 0.18905
# Poissons Ratio (z) = -0.07951 0.20088
#
# Static dielectric constant tensor:
#      x y z
#    x 4.246270 0.000000 0.000000 
#    y 0.000000 3.634180 0.000000 
#    z 0.000000 0.000000 4.311140 
# 
# 
# High freq. dielectric constant tensor:
#      x y z
#    x 1.893030 0.000000 0.000000 
#    y 0.000000 1.820440 0.000000 
#    z 0.000000 0.000000 1.874300 
# 
# From -- ./inp_files/22379.got.cif
#   From: 2010.03.12/outbox.cif.g09.slc.cpg/sg60_12_cif.got.tgz:22379.got - 2010.04.10 18:46:24.
