data_PCOD8246586
_publ_section_title
;
Structure prediction by ZEFSAII (Michael W. Deem and Ramdas Pophale) SiO2 
 PCOD8246586
Probable space group: P B C N
;
_chemical_formula_sum "Si O2"
_cell_formula_units_Z 52
_cell_length_a 17.328895
_cell_length_b 16.945190
_cell_length_c 8.378418
_cell_angle_alpha 90.000000
_cell_angle_beta 90.000000
_cell_angle_gamma 90.000000
_cell_volume 2460.250544
_symmetry_space_group_name_H-M "P B C N"
_symmetry_group_IT_number 60
_symmetry_cell_setting 'orthorhombic'
loop_
_space_group_symop_operation_xyz
x,y,z
1/2-x,1/2-y,1/2+z
1/2+x,1/2-y,-z
-x,y,1/2-z
-x,-y,-z
1/2+x,1/2+y,1/2-z
1/2-x,1/2+y,z
x,-y,1/2+z
loop_
_atom_site_type_symbol
_atom_site_label
_atom_site_fract_x
_atom_site_fract_y
_atom_site_fract_z
Si Si1 0.719587 0.891930 0.254000
Si Si2 0.500000 0.520062 0.250000
Si Si3 0.832346 0.540036 0.441738
Si Si4 0.563586 0.820642 0.363887
Si Si5 0.925872 0.428530 0.654675
Si Si6 0.485356 0.339257 0.514755
Si Si7 0.607062 0.374250 0.273999
O O1 0.650022 0.831539 0.294654
O O2 0.802674 0.858686 0.301970
O O3 0.714804 0.969251 0.362967
O O4 0.719869 0.909481 0.063366
O O5 0.499329 0.576528 0.403382
O O6 0.576470 0.465355 0.267978
O O7 0.901520 0.503443 0.548167
O O8 0.863404 0.592792 0.293806
O O9 0.500000 0.864077 0.250000
O O10 0.559065 0.852885 0.544437
O O11 0.536228 0.729778 0.362787
O O12 0.000000 0.456943 0.750000
O O13 0.563105 0.324336 0.411470
O O14 0.411759 0.340166 0.399292
#
# Coordination Sequence:
#
# PCOD8246586 Si02
#       7
#     8   4   8   8   8   8   8
#     4  10  22  39  63  98 130 169 214 270 329 386
#     4  10  20  40  72 100 118 162 212 276 332 376
#     4   9  20  36  55  94 126 158 214 270 316 366
#     4  11  23  42  60  90 133 179 217 257 322 399
#     4  10  19  33  60  82 119 169 216 259 314 372
#     4  10  22  42  63  94 128 168 211 265 326 398
#     4  10  22  40  68  95 126 158 220 271 328 382
#
# _framework density 21.136058999999999
#
# number of rings (size 3 to 8) (size 9 to 14) (size 15 to 20)
#    0.000    2.154    0.769    3.231    6.462    4.308 
#    2.769    0.000    0.000    0.000    0.000    0.000 
#    0.000    0.000    0.000    0.000    0.000    0.000 
#
# Total GULP energy -644285.758908 kJ/mol
# GULP energy per Si atom -12390.110748 kJ/mol
# Density = 2.108795 g / cm^3
# Si number density = 21.136059 Si / 1000 Ang^3
#
#
#
# Elastic Constant Matrix: (Units=GPa)
#
#
# Indices 1 2 3 4 5 6 
#
# 1 171.3011 32.1290 52.7576 0.0000 0.0000 0.0000
# 2 32.1290 70.5232 26.7272 0.0000 0.0000 0.0000
# 3 52.7576 26.7272 125.7244 0.0000 0.0000 0.0000
# 4 0.0000 0.0000 0.0000 28.6157 0.0000 0.0000
# 5 0.0000 0.0000 0.0000 0.0000 16.6474 0.0000
# 6 0.0000 0.0000 0.0000 0.0000 0.0000 12.1611
#
#
#
# Elastic Compliance Matrix: (Units=1/GPa)
#
#
# Indices 1 2 3 4 5 6 
#
# 1 0.007022 -0.002265 -0.002465 0.000000 0.000000 0.000000
# 2 -0.002265 0.016153 -0.002483 0.000000 0.000000 0.000000
# 3 -0.002465 -0.002483 0.009516 0.000000 0.000000 0.000000
# 4 0.000000 0.000000 0.000000 0.034946 0.000000 0.000000
# 5 0.000000 0.000000 0.000000 0.000000 0.060069 0.000000
# 6 0.000000 0.000000 0.000000 0.000000 0.000000 0.082230
#
#
# Mechanical properties :
#
#
# Convention : Reuss Voigt Hill
#
# Bulk Modulus (GPa) = 54.75221 65.64182 60.19702
# Shear Modulus (GPa) = 21.69668 28.54716 25.12192
#
# Velocity S-wave (km/s) = 3.20742 3.67909 3.45132
# Velocity P-wave (km/s) = 6.29901 7.01226 6.66519
#
# Compressibility (1/GPa) = 0.01826410
#
# Stress axis : x y z
#
# Youngs Moduli (GPa) = 142.41718 61.90921 105.08327
#
# Poissons Ratio (x) = 0.14021 0.25903
# Poissons Ratio (y) = 0.32253 0.26097
# Poissons Ratio (z) = 0.35106 0.15375
#
# Static dielectric constant tensor:
#      x y z
#    x 3.604940 0.000000 0.000000 
#    y 0.000000 3.448980 0.000000 
#    z 0.000000 0.000000 4.310020 
# 
# 
# High freq. dielectric constant tensor:
#      x y z
#    x 1.809970 0.000000 0.000000 
#    y 0.000000 1.795300 0.000000 
#    z 0.000000 0.000000 1.858780 
# 
# From -- ./inp_files/6873.got.cif
#   From: 2010.03.12/outbox.cif.g09.slc.cpg/sg60_4_cif.got.tgz:6873.got - 2010.04.10 18:46:24.
