data_PCOD8246575
_publ_section_title
;
Structure prediction by ZEFSAII (Michael W. Deem and Ramdas Pophale) SiO2 
 PCOD8246575
Probable space group: P B C N
;
_chemical_formula_sum "Si O2"
_cell_formula_units_Z 40
_cell_length_a 9.008283
_cell_length_b 16.480895
_cell_length_c 10.409432
_cell_angle_alpha 90.000000
_cell_angle_beta 90.000000
_cell_angle_gamma 90.000000
_cell_volume 1545.431807
_symmetry_space_group_name_H-M "P B C N"
_symmetry_group_IT_number 60
_symmetry_cell_setting 'orthorhombic'
loop_
_space_group_symop_operation_xyz
x,y,z
1/2-x,1/2-y,1/2+z
1/2+x,1/2-y,-z
-x,y,1/2-z
-x,-y,-z
1/2+x,1/2+y,1/2-z
1/2-x,1/2+y,z
x,-y,1/2+z
loop_
_atom_site_type_symbol
_atom_site_label
_atom_site_fract_x
_atom_site_fract_y
_atom_site_fract_z
Si Si1 0.331851 0.571539 0.415884
Si Si2 0.258820 0.505542 0.662667
Si Si3 0.502886 0.120724 0.389041
Si Si4 0.666432 0.744861 0.025208
Si Si5 0.328388 0.813014 0.221044
O O1 0.368248 0.512442 0.537992
O O2 0.359946 0.534609 0.275026
O O3 0.411190 0.658369 0.437845
O O4 0.154222 0.585838 0.433064
O O5 0.118342 0.452861 0.621571
O O6 0.204149 0.592112 0.712432
O O7 0.500000 0.163717 0.250000
O O8 0.542527 0.187423 0.495404
O O9 0.775433 0.736493 0.903775
O O10 0.755845 0.776322 0.152024
O O11 0.500000 0.794695 0.250000
#
# Coordination Sequence:
#
# PCOD8246575 Si02
#       5
#     8   8   8   8   8
#     4  10  20  33  54  84 110 142 177 225 284 337
#     4  10  19  33  55  82 112 137 174 232 291 335
#     4  10  19  34  55  82 111 142 182 231 281 337
#     4  11  22  35  53  85 118 149 185 222 287 347
#     4  11  22  37  58  87 118 150 186 234 286 338
#
# _framework density 25.882735
#
# number of rings (size 3 to 8) (size 9 to 14) (size 15 to 20)
#    0.000    1.600    0.000    8.400    0.000    0.000 
#    0.000    0.000    0.000    0.000    0.000  187.600 
#    0.000    0.000    0.000    0.000    0.000    0.000 
#
# Total GULP energy -495790.978482 kJ/mol
# GULP energy per Si atom -12394.774462 kJ/mol
# Density = 2.582382 g / cm^3
# Si number density = 25.882735 Si / 1000 Ang^3
#
#
#
# Elastic Constant Matrix: (Units=GPa)
#
#
# Indices 1 2 3 4 5 6 
#
# 1 32.2986 4.6051 19.6724 0.0000 0.0000 0.0000
# 2 4.6051 124.3436 68.4973 0.0000 0.0000 0.0000
# 3 19.6724 68.4973 190.9328 0.0000 0.0000 0.0000
# 4 0.0000 0.0000 0.0000 39.7573 0.0000 0.0000
# 5 0.0000 0.0000 0.0000 0.0000 19.2118 0.0000
# 6 0.0000 0.0000 0.0000 0.0000 0.0000 6.6062
#
#
#
# Elastic Compliance Matrix: (Units=1/GPa)
#
#
# Indices 1 2 3 4 5 6 
#
# 1 0.033100 0.000814 -0.003702 0.000000 0.000000 0.000000
# 2 0.000814 0.010043 -0.003687 0.000000 0.000000 0.000000
# 3 -0.003702 -0.003687 0.006942 0.000000 0.000000 0.000000
# 4 0.000000 0.000000 0.000000 0.025153 0.000000 0.000000
# 5 0.000000 0.000000 0.000000 0.000000 0.052051 0.000000
# 6 0.000000 0.000000 0.000000 0.000000 0.000000 0.151372
#
#
# Mechanical properties :
#
#
# Convention : Reuss Voigt Hill
#
# Bulk Modulus (GPa) = 27.07553 59.23607 43.15580
# Shear Modulus (GPa) = 16.44071 30.10175 23.27123
#
# Velocity S-wave (km/s) = 2.52305 3.41399 3.00176
# Velocity P-wave (km/s) = 4.35560 6.20294 5.35946
#
# Compressibility (1/GPa) = 0.03693371
#
# Stress axis : x y z
#
# Youngs Moduli (GPa) = 30.21145 99.57146 144.06030
#
# Poissons Ratio (x) = -0.08101 0.53335
# Poissons Ratio (y) = -0.02458 0.53112
# Poissons Ratio (z) = 0.11185 0.36710
#
# Static dielectric constant tensor:
#      x y z
#    x 4.178890 0.000000 0.000000 
#    y 0.000000 4.768200 0.000000 
#    z 0.000000 0.000000 5.709230 
# 
# 
# High freq. dielectric constant tensor:
#      x y z
#    x 1.998360 0.000000 0.000000 
#    y 0.000000 2.039130 0.000000 
#    z 0.000000 0.000000 2.079450 
# 
# From -- ./inp_files/10825.got.cif
#   From: 2010.03.12/outbox.cif.g09.slc.cpg/sg60_6_cif.got.tgz:10825.got - 2010.04.10 18:46:24.
