data_PCOD8246940
_publ_section_title
;
Structure prediction by ZEFSAII (Michael W. Deem and Ramdas Pophale) SiO2 
 PCOD8246940
Probable space group: P B C N
;
_chemical_formula_sum "Si O2"
_cell_formula_units_Z 60
_cell_length_a 14.794203
_cell_length_b 8.732148
_cell_length_c 22.908992
_cell_angle_alpha 90.000000
_cell_angle_beta 90.000000
_cell_angle_gamma 90.000000
_cell_volume 2959.502029
_symmetry_space_group_name_H-M "P B C N"
_symmetry_group_IT_number 60
_symmetry_cell_setting 'orthorhombic'
loop_
_space_group_symop_operation_xyz
x,y,z
1/2-x,1/2-y,1/2+z
1/2+x,1/2-y,-z
-x,y,1/2-z
-x,-y,-z
1/2+x,1/2+y,1/2-z
1/2-x,1/2+y,z
x,-y,1/2+z
loop_
_atom_site_type_symbol
_atom_site_label
_atom_site_fract_x
_atom_site_fract_y
_atom_site_fract_z
Si Si1 0.635302 0.802921 0.181217
Si Si2 0.364007 0.691129 0.909493
Si Si3 0.647290 0.622179 0.463069
Si Si4 0.749261 0.931818 0.641147
Si Si5 0.500000 0.042610 0.750000
Si Si6 0.973573 0.703659 0.570557
Si Si7 0.652347 0.262850 0.456984
Si Si8 0.978523 0.609937 0.373931
O O1 0.715859 0.682490 0.192962
O O2 0.581630 0.732145 0.125959
O O3 0.665102 0.975230 0.164941
O O4 0.578871 0.833718 0.238765
O O5 0.284901 0.821471 0.911638
O O6 0.329537 0.540229 0.877892
O O7 0.448953 0.753604 0.874028
O O8 0.394678 0.639508 0.972770
O O9 0.570255 0.708926 0.425981
O O10 0.655384 0.444894 0.445734
O O11 0.745512 0.701674 0.463337
O O12 0.529536 0.945149 0.806654
O O13 0.912558 0.723350 0.512286
O O14 0.991837 0.523701 0.581258
O O15 0.614564 0.180880 0.398503
#
# Coordination Sequence:
#
# PCOD8246940 Si02
#       8
#     8   8   8   8   4   8   8   8
#     4  10  21  39  67  89 129 155 214 268 319 374
#     4  11  20  37  62  96 131 163 206 266 315 389
#     4  12  25  37  63  96 135 171 209 253 332 401
#     4  10  20  36  64  97 119 159 213 268 315 371
#     4  10  22  46  62  90 122 176 216 276 316 384
#     4  11  22  39  63  94 126 169 206 261 329 385
#     4  12  25  41  61  97 133 172 211 269 327 406
#     4  11  24  41  67  86 131 175 217 266 331 384
#
# _framework density 20.273681
#
# number of rings (size 3 to 8) (size 9 to 14) (size 15 to 20)
#    0.000    1.067    4.000    4.800    3.733    0.000 
#    0.000    4.667    0.000    0.000    0.000    0.000 
#    0.000    0.000    0.000    0.000    0.000    0.000 
#
# Total GULP energy -743410.838712 kJ/mol
# GULP energy per Si atom -12390.180645 kJ/mol
# Density = 2.022754 g / cm^3
# Si number density = 20.273681 Si / 1000 Ang^3
#
#
#
# Elastic Constant Matrix: (Units=GPa)
#
#
# Indices 1 2 3 4 5 6 
#
# 1 109.4885 40.7727 41.2662 0.0000 0.0000 0.0000
# 2 40.7727 108.9716 27.1033 0.0000 0.0000 0.0000
# 3 41.2662 27.1033 92.3712 0.0000 0.0000 0.0000
# 4 0.0000 0.0000 0.0000 20.1938 0.0000 0.0000
# 5 0.0000 0.0000 0.0000 0.0000 26.8119 0.0000
# 6 0.0000 0.0000 0.0000 0.0000 0.0000 41.4269
#
#
#
# Elastic Compliance Matrix: (Units=1/GPa)
#
#
# Indices 1 2 3 4 5 6 
#
# 1 0.012060 -0.003422 -0.004384 0.000000 0.000000 0.000000
# 2 -0.003422 0.010870 -0.001661 0.000000 0.000000 0.000000
# 3 -0.004384 -0.001661 0.013272 0.000000 0.000000 0.000000
# 4 0.000000 0.000000 0.000000 0.049520 0.000000 0.000000
# 5 0.000000 0.000000 0.000000 0.000000 0.037297 0.000000
# 6 0.000000 0.000000 0.000000 0.000000 0.000000 0.024139
#
#
# Mechanical properties :
#
#
# Convention : Reuss Voigt Hill
#
# Bulk Modulus (GPa) = 57.90769 58.79061 58.34915
# Shear Modulus (GPa) = 29.09573 31.13245 30.11409
#
# Velocity S-wave (km/s) = 3.79244 3.92294 3.85824
# Velocity P-wave (km/s) = 6.91389 7.04135 6.97791
#
# Compressibility (1/GPa) = 0.01726886
#
# Stress axis : x y z
#
# Youngs Moduli (GPa) = 82.91948 91.99512 75.34939
#
# Poissons Ratio (x) = 0.31481 0.33030
# Poissons Ratio (y) = 0.28375 0.12513
# Poissons Ratio (z) = 0.36348 0.15278
#
# Static dielectric constant tensor:
#      x y z
#    x 3.964160 0.000000 0.000000 
#    y 0.000000 3.897730 0.000000 
#    z 0.000000 0.000000 3.486410 
# 
# 
# High freq. dielectric constant tensor:
#      x y z
#    x 1.808540 0.000000 0.000000 
#    y 0.000000 1.812070 0.000000 
#    z 0.000000 0.000000 1.747410 
# 
# From -- ./inp_files/24396.got.cif
#   From: 2010.03.12/outbox.cif.g09.slc.cpg/sg60_13_cif.got.tgz:24396.got - 2010.04.10 18:46:24.
