data_PCOD8246675
_publ_section_title
;
Structure prediction by ZEFSAII (Michael W. Deem and Ramdas Pophale) SiO2 
 PCOD8246675
Probable space group: P B C N
;
_chemical_formula_sum "Si O2"
_cell_formula_units_Z 52
_cell_length_a 19.915229
_cell_length_b 13.237805
_cell_length_c 8.853485
_cell_angle_alpha 90.000000
_cell_angle_beta 90.000000
_cell_angle_gamma 90.000000
_cell_volume 2334.078939
_symmetry_space_group_name_H-M "P B C N"
_symmetry_group_IT_number 60
_symmetry_cell_setting 'orthorhombic'
loop_
_space_group_symop_operation_xyz
x,y,z
1/2-x,1/2-y,1/2+z
1/2+x,1/2-y,-z
-x,y,1/2-z
-x,-y,-z
1/2+x,1/2+y,1/2-z
1/2-x,1/2+y,z
x,-y,1/2+z
loop_
_atom_site_type_symbol
_atom_site_label
_atom_site_fract_x
_atom_site_fract_y
_atom_site_fract_z
Si Si1 0.417752 0.361019 0.099091
Si Si2 0.313772 0.934381 0.183636
Si Si3 0.283345 0.735710 0.695172
Si Si4 0.631594 0.891157 0.620717
Si Si5 0.000000 0.300000 0.750000
Si Si6 0.618149 0.490278 0.664860
Si Si7 0.208720 0.914054 0.578379
O O1 0.340450 0.324640 0.103945
O O2 0.468949 0.268510 0.115652
O O3 0.430822 0.440019 0.235364
O O4 0.427588 0.417736 0.939639
O O5 0.270378 0.845072 0.263075
O O6 0.349902 0.998887 0.312671
O O7 0.264927 0.000036 0.078276
O O8 0.367648 0.891974 0.061645
O O9 0.316150 0.805664 0.824227
O O10 0.243161 0.804397 0.574552
O O11 0.556282 0.868495 0.673873
O O12 0.662717 0.569646 0.568178
O O13 0.664984 0.421033 0.768732
#
# Coordination Sequence:
#
# PCOD8246675 Si02
#       7
#     8   8   8   8   4   8   8
#     4  10  22  37  62  83 124 165 207 261 313 376
#     4  11  21  38  63  96 127 166 204 265 339 378
#     4  10  21  31  59  94 124 158 194 255 328 382
#     4  10  25  41  65  91 129 175 215 267 313 390
#     4  10  24  48  60  86 124 178 234 252 308 382
#     4  10  19  36  56  89 117 160 192 265 322 371
#     4  10  20  32  55  91 133 144 198 246 326 402
#
# _framework density 22.278596
#
# number of rings (size 3 to 8) (size 9 to 14) (size 15 to 20)
#    0.000    1.846    3.077    1.846    4.308    2.462 
#    2.769    0.000    0.000    1.846    0.000    0.000 
#    0.000    0.000    0.000    0.000    0.000    0.000 
#
# Total GULP energy -644814.149855 kJ/mol
# GULP energy per Si atom -12400.272113 kJ/mol
# Density = 2.222789 g / cm^3
# Si number density = 22.278596 Si / 1000 Ang^3
#
#
#
# Elastic Constant Matrix: (Units=GPa)
#
#
# Indices 1 2 3 4 5 6 
#
# 1 94.0388 40.2329 26.7466 0.0000 0.0000 0.0000
# 2 40.2329 105.5842 23.2469 0.0000 0.0000 0.0000
# 3 26.7466 23.2469 103.4070 0.0000 0.0000 0.0000
# 4 0.0000 0.0000 0.0000 17.4697 0.0000 0.0000
# 5 0.0000 0.0000 0.0000 0.0000 14.2340 0.0000
# 6 0.0000 0.0000 0.0000 0.0000 0.0000 29.4935
#
#
#
# Elastic Compliance Matrix: (Units=1/GPa)
#
#
# Indices 1 2 3 4 5 6 
#
# 1 0.013253 -0.004519 -0.002412 0.000000 0.000000 0.000000
# 2 -0.004519 0.011505 -0.001418 0.000000 0.000000 0.000000
# 3 -0.002412 -0.001418 0.010613 0.000000 0.000000 0.000000
# 4 0.000000 0.000000 0.000000 0.057242 0.000000 0.000000
# 5 0.000000 0.000000 0.000000 0.000000 0.070254 0.000000
# 6 0.000000 0.000000 0.000000 0.000000 0.000000 0.033906
#
#
# Mechanical properties :
#
#
# Convention : Reuss Voigt Hill
#
# Bulk Modulus (GPa) = 53.55008 53.72030 53.63519
# Shear Modulus (GPa) = 22.75872 26.42637 24.59254
#
# Velocity S-wave (km/s) = 3.19964 3.44783 3.32605
# Velocity P-wave (km/s) = 6.14321 6.32577 6.23516
#
# Compressibility (1/GPa) = 0.01867411
#
# Stress axis : x y z
#
# Youngs Moduli (GPa) = 75.45244 86.91687 94.22311
#
# Poissons Ratio (x) = 0.39279 0.22727
# Poissons Ratio (y) = 0.34098 0.13357
# Poissons Ratio (z) = 0.18200 0.12321
#
# Static dielectric constant tensor:
#      x y z
#    x 3.792370 0.000000 0.000000 
#    y 0.000000 4.200540 0.000000 
#    z 0.000000 0.000000 3.794080 
# 
# 
# High freq. dielectric constant tensor:
#      x y z
#    x 1.854720 0.000000 0.000000 
#    y 0.000000 1.885540 0.000000 
#    z 0.000000 0.000000 1.868640 
# 
# From -- ./inp_files/7359.got.cif
#   From: 2010.03.12/outbox.cif.g09.slc.cpg/sg60_4_cif.got.tgz:7359.got - 2010.04.10 18:46:24.
