data_PCOD8246739
_publ_section_title
;
Structure prediction by ZEFSAII (Michael W. Deem and Ramdas Pophale) SiO2 
 PCOD8246739
Probable space group: P B C N
;
_chemical_formula_sum "Si O2"
_cell_formula_units_Z 64
_cell_length_a 9.059240
_cell_length_b 19.090667
_cell_length_c 18.880597
_cell_angle_alpha 90.000000
_cell_angle_beta 90.000000
_cell_angle_gamma 90.000000
_cell_volume 3265.341365
_symmetry_space_group_name_H-M "P B C N"
_symmetry_group_IT_number 60
_symmetry_cell_setting 'orthorhombic'
loop_
_space_group_symop_operation_xyz
x,y,z
1/2-x,1/2-y,1/2+z
1/2+x,1/2-y,-z
-x,y,1/2-z
-x,-y,-z
1/2+x,1/2+y,1/2-z
1/2-x,1/2+y,z
x,-y,1/2+z
loop_
_atom_site_type_symbol
_atom_site_label
_atom_site_fract_x
_atom_site_fract_y
_atom_site_fract_z
Si Si1 0.618131 0.058643 0.100302
Si Si2 0.847346 0.642873 0.787566
Si Si3 0.949377 0.713799 0.063197
Si Si4 0.651938 0.739814 0.709905
Si Si5 0.822111 0.497679 0.851786
Si Si6 0.849196 0.041030 0.983048
Si Si7 0.232985 0.193869 0.560554
Si Si8 0.175824 0.387237 0.756786
O O1 0.540776 0.131228 0.077774
O O2 0.714154 0.070771 0.171338
O O3 0.484231 0.004975 0.112889
O O4 0.727988 0.025034 0.043175
O O5 0.732822 0.668354 0.728537
O O6 0.829898 0.560013 0.794915
O O7 0.811687 0.679083 0.863791
O O8 0.000000 0.663676 0.750000
O O9 0.862607 0.754232 0.125428
O O10 0.114407 0.744051 0.062763
O O11 0.862603 0.723043 0.989764
O O12 0.500000 0.735995 0.750000
O O13 0.740714 0.808482 0.739477
O O14 0.699075 0.507620 0.909880
O O15 0.765635 0.428354 0.811305
O O16 0.853140 0.125538 0.971526
O O17 0.000000 0.000000 0.000000
O O18 0.000000 0.382745 0.750000
#
# Coordination Sequence:
#
# PCOD8246739 Si02
#       8
#     8   8   8   8   8   8   8   8
#     4   9  18  37  64  82 110 156 209 239 290 363
#     4  11  23  38  56  91 130 154 200 259 308 375
#     4  10  21  39  62  89 118 162 208 258 306 364
#     4  10  19  38  62  83 116 159 201 249 312 361
#     4  10  20  38  60  87 116 156 201 243 296 365
#     4  10  22  40  55  87 125 154 194 250 304 360
#     4  10  23  40  59  91 125 160 210 254 307 371
#     4   8  16  33  60  84 102 143 203 244 276 346
#
# _framework density 19.599789000000001
#
# number of rings (size 3 to 8) (size 9 to 14) (size 15 to 20)
#    0.000    2.250    1.250    2.250    1.750    1.000 
#    4.500    0.625    0.000    0.000    0.000    0.000 
#    0.000    0.000    0.000    0.000    0.000    0.000 
#
# Total GULP energy -793092.883883 kJ/mol
# GULP energy per Si atom -12392.076311 kJ/mol
# Density = 1.955518 g / cm^3
# Si number density = 19.599789 Si / 1000 Ang^3
#
#
#
# Elastic Constant Matrix: (Units=GPa)
#
#
# Indices 1 2 3 4 5 6 
#
# 1 76.5790 48.1034 41.1797 0.0000 0.0000 0.0000
# 2 48.1034 71.4062 31.1076 0.0000 0.0000 0.0000
# 3 41.1797 31.1076 87.9755 0.0000 0.0000 0.0000
# 4 0.0000 0.0000 0.0000 27.4965 0.0000 0.0000
# 5 0.0000 0.0000 0.0000 0.0000 26.9698 0.0000
# 6 0.0000 0.0000 0.0000 0.0000 0.0000 32.5938
#
#
#
# Elastic Compliance Matrix: (Units=1/GPa)
#
#
# Indices 1 2 3 4 5 6 
#
# 1 0.025854 -0.014356 -0.007026 0.000000 0.000000 0.000000
# 2 -0.014356 0.024526 -0.001952 0.000000 0.000000 0.000000
# 3 -0.007026 -0.001952 0.015346 0.000000 0.000000 0.000000
# 4 0.000000 0.000000 0.000000 0.036368 0.000000 0.000000
# 5 0.000000 0.000000 0.000000 0.000000 0.037078 0.000000
# 6 0.000000 0.000000 0.000000 0.000000 0.000000 0.030681
#
#
# Mechanical properties :
#
#
# Convention : Reuss Voigt Hill
#
# Bulk Modulus (GPa) = 52.47258 52.97135 52.72196
# Shear Modulus (GPa) = 22.43409 25.11670 23.77540
#
# Velocity S-wave (km/s) = 3.38688 3.58366 3.48666
# Velocity P-wave (km/s) = 6.49036 6.64896 6.57013
#
# Compressibility (1/GPa) = 0.01905757
#
# Stress axis : x y z
#
# Youngs Moduli (GPa) = 38.67809 40.77269 65.16481
#
# Poissons Ratio (x) = 0.58535 0.45783
# Poissons Ratio (y) = 0.55528 0.12722
# Poissons Ratio (z) = 0.27174 0.07960
#
# Static dielectric constant tensor:
#      x y z
#    x 3.219090 0.000000 0.000000 
#    y 0.000000 3.748830 0.000000 
#    z 0.000000 0.000000 3.930840 
# 
# 
# High freq. dielectric constant tensor:
#      x y z
#    x 1.730440 0.000000 0.000000 
#    y 0.000000 1.764150 0.000000 
#    z 0.000000 0.000000 1.782630 
# 
# From -- ./inp_files/19685.got.cif
#   From: 2010.03.12/outbox.cif.g09.slc.cpg/sg60_10_cif.got.tgz:19685.got - 2010.04.10 18:46:24.
