data_PCOD8246747
_publ_section_title
;
Structure prediction by ZEFSAII (Michael W. Deem and Ramdas Pophale) SiO2 
 PCOD8246747
Probable space group: P B C N
;
_chemical_formula_sum "Si O2"
_cell_formula_units_Z 56
_cell_length_a 9.572903
_cell_length_b 18.708170
_cell_length_c 15.599094
_cell_angle_alpha 90.000000
_cell_angle_beta 90.000000
_cell_angle_gamma 90.000000
_cell_volume 2793.665092
_symmetry_space_group_name_H-M "P B C N"
_symmetry_group_IT_number 60
_symmetry_cell_setting 'orthorhombic'
loop_
_space_group_symop_operation_xyz
x,y,z
1/2-x,1/2-y,1/2+z
1/2+x,1/2-y,-z
-x,y,1/2-z
-x,-y,-z
1/2+x,1/2+y,1/2-z
1/2-x,1/2+y,z
x,-y,1/2+z
loop_
_atom_site_type_symbol
_atom_site_label
_atom_site_fract_x
_atom_site_fract_y
_atom_site_fract_z
Si Si1 0.311924 0.840245 0.082620
Si Si2 0.653504 0.278507 0.036982
Si Si3 0.611244 0.811565 0.160796
Si Si4 0.388904 0.993190 0.077831
Si Si5 0.500000 0.677898 0.250000
Si Si6 0.912658 0.245872 0.836271
Si Si7 0.000000 0.565099 0.750000
Si Si8 0.783400 0.130937 0.379133
O O1 0.472778 0.825542 0.105558
O O2 0.292418 0.923688 0.062289
O O3 0.210663 0.813154 0.159351
O O4 0.280003 0.796285 0.995577
O O5 0.754261 0.317640 0.102746
O O6 0.505186 0.265097 0.079617
O O7 0.635792 0.329659 0.955592
O O8 0.606053 0.732218 0.201391
O O9 0.625413 0.877731 0.228989
O O10 0.467837 0.985348 0.169175
O O11 0.278974 0.057256 0.085401
O O12 0.500000 0.000000 0.000000
O O13 0.404473 0.624621 0.193043
O O14 0.846799 0.324684 0.840994
O O15 0.000000 0.235837 0.750000
#
# Coordination Sequence:
#
# PCOD8246747 Si02
#       8
#     8   8   8   8   4   8   4   8
#     4  10  21  41  62  92 127 167 213 263 322 393
#     4  11  21  37  68  96 124 162 216 274 325 382
#     4  10  19  38  67  92 121 168 214 272 321 388
#     4  11  23  44  63  94 132 176 227 268 323 404
#     4  11  20  38  60  90 125 164 210 264 337 386
#     4  11  23  39  62  99 124 158 218 274 322 376
#     4   9  22  38  68  90 125 178 224 258 327 392
#     4  11  24  39  62  94 131 172 213 269 333 393
#
# _framework density 20.045352000000001
#
# number of rings (size 3 to 8) (size 9 to 14) (size 15 to 20)
#    0.000    1.429    2.857    5.143    5.000    0.000 
#    3.857    0.714    0.000    0.000    0.000    0.000 
#    0.000    0.000    0.000    0.000    0.000    0.000 
#
# Total GULP energy -694012.647488 kJ/mol
# GULP energy per Si atom -12393.082991 kJ/mol
# Density = 1.999973 g / cm^3
# Si number density = 20.045352 Si / 1000 Ang^3
#
#
#
# Elastic Constant Matrix: (Units=GPa)
#
#
# Indices 1 2 3 4 5 6 
#
# 1 79.5590 37.4651 31.7092 0.0000 0.0000 0.0000
# 2 37.4651 132.6088 39.6714 0.0000 0.0000 0.0000
# 3 31.7092 39.6714 101.3119 0.0000 0.0000 0.0000
# 4 0.0000 0.0000 0.0000 24.6562 0.0000 0.0000
# 5 0.0000 0.0000 0.0000 0.0000 55.5566 0.0000
# 6 0.0000 0.0000 0.0000 0.0000 0.0000 26.4576
#
#
#
# Elastic Compliance Matrix: (Units=1/GPa)
#
#
# Indices 1 2 3 4 5 6 
#
# 1 0.015558 -0.003329 -0.003566 0.000000 0.000000 0.000000
# 2 -0.003329 0.009254 -0.002582 0.000000 0.000000 0.000000
# 3 -0.003566 -0.002582 0.011998 0.000000 0.000000 0.000000
# 4 0.000000 0.000000 0.000000 0.040558 0.000000 0.000000
# 5 0.000000 0.000000 0.000000 0.000000 0.018000 0.000000
# 6 0.000000 0.000000 0.000000 0.000000 0.000000 0.037796
#
#
# Mechanical properties :
#
#
# Convention : Reuss Voigt Hill
#
# Bulk Modulus (GPa) = 56.00194 59.01900 57.51047
# Shear Modulus (GPa) = 31.63191 34.97634 33.30413
#
# Velocity S-wave (km/s) = 3.97674 4.18168 4.08050
# Velocity P-wave (km/s) = 7.00601 7.26787 7.13814
#
# Compressibility (1/GPa) = 0.01785652
#
# Stress axis : x y z
#
# Youngs Moduli (GPa) = 64.27529 108.06408 83.35028
#
# Poissons Ratio (x) = 0.35971 0.29723
# Poissons Ratio (y) = 0.21395 0.21519
# Poissons Ratio (z) = 0.22921 0.27899
#
# Static dielectric constant tensor:
#      x y z
#    x 3.597740 0.000000 0.000000 
#    y 0.000000 3.742250 0.000000 
#    z 0.000000 0.000000 3.939840 
# 
# 
# High freq. dielectric constant tensor:
#      x y z
#    x 1.771540 0.000000 0.000000 
#    y 0.000000 1.763140 0.000000 
#    z 0.000000 0.000000 1.800240 
# 
# From -- ./inp_files/19664.got.cif
#   From: 2010.03.12/outbox.cif.g09.slc.cpg/sg60_10_cif.got.tgz:19664.got - 2010.04.10 18:46:24.
