data_PCOD8246376
_publ_section_title
;
Structure prediction by ZEFSAII (Michael W. Deem and Ramdas Pophale) SiO2 
 PCOD8246376
Probable space group: P B C N
;
_chemical_formula_sum "Si O2"
_cell_formula_units_Z 64
_cell_length_a 14.222708
_cell_length_b 9.694269
_cell_length_c 26.672953
_cell_angle_alpha 90.000000
_cell_angle_beta 90.000000
_cell_angle_gamma 90.000000
_cell_volume 3677.633612
_symmetry_space_group_name_H-M "P B C N"
_symmetry_group_IT_number 60
_symmetry_cell_setting 'orthorhombic'
loop_
_space_group_symop_operation_xyz
x,y,z
1/2-x,1/2-y,1/2+z
1/2+x,1/2-y,-z
-x,y,1/2-z
-x,-y,-z
1/2+x,1/2+y,1/2-z
1/2-x,1/2+y,z
x,-y,1/2+z
loop_
_atom_site_type_symbol
_atom_site_label
_atom_site_fract_x
_atom_site_fract_y
_atom_site_fract_z
Si Si1 0.495532 0.310118 0.669015
Si Si2 0.486861 0.483169 0.081096
Si Si3 0.230183 0.324227 0.451216
Si Si4 0.892831 0.249573 0.623297
Si Si5 0.148874 0.059525 0.494028
Si Si6 0.608112 0.937239 0.135456
Si Si7 0.349750 0.365198 0.754678
Si Si8 0.726292 0.367039 0.209626
O O1 0.464071 0.405891 0.623528
O O2 0.517392 0.153411 0.651613
O O3 0.411361 0.314074 0.708453
O O4 0.591826 0.365615 0.693396
O O5 0.518146 0.336848 0.103935
O O6 0.569225 0.546438 0.047791
O O7 0.392527 0.459809 0.049439
O O8 0.307731 0.252472 0.416173
O O9 0.192301 0.211228 0.489983
O O10 0.271331 0.446175 0.484947
O O11 0.145298 0.381448 0.417592
O O12 0.926985 0.406091 0.630476
O O13 0.859639 0.183744 0.675480
O O14 0.691495 0.934193 0.176165
O O15 0.262937 0.260994 0.758197
O O16 0.310607 0.520449 0.750096
#
# Coordination Sequence:
#
# PCOD8246376 Si02
#       8
#     8   8   8   8   8   8   8   8
#     4  10  20  35  54  78 113 145 173 221 279 328
#     4  10  20  35  53  79 112 146 177 219 280 328
#     4  10  18  31  53  83 108 136 181 232 266 316
#     4  10  18  30  55  83 105 136 181 232 267 310
#     4  10  20  34  54  81 111 141 182 226 272 322
#     4  10  18  30  55  84 107 134 181 230 270 308
#     4  10  20  34  55  81 109 141 177 223 276 322
#     4  10  18  31  54  82 106 134 182 226 265 316
#
# _framework density 17.402494999999998
#
# number of rings (size 3 to 8) (size 9 to 14) (size 15 to 20)
#    0.000    2.000    5.000    0.000    0.000    0.000 
#    0.000    4.375    2.750    0.000    0.000    0.000 
#    0.000    0.000    0.000    0.000    0.000    0.000 
#
# Total GULP energy -793717.816497 kJ/mol
# GULP energy per Si atom -12401.840883 kJ/mol
# Density = 1.736289 g / cm^3
# Si number density = 17.402495 Si / 1000 Ang^3
#
#
#
# Elastic Constant Matrix: (Units=GPa)
#
#
# Indices 1 2 3 4 5 6 
#
# 1 60.8760 50.5572 44.6104 0.0000 0.0000 0.0000
# 2 50.5572 152.3392 57.4436 0.0000 0.0000 0.0000
# 3 44.6104 57.4436 80.9612 0.0000 0.0000 0.0000
# 4 0.0000 0.0000 0.0000 25.9199 0.0000 0.0000
# 5 0.0000 0.0000 0.0000 0.0000 24.9244 0.0000
# 6 0.0000 0.0000 0.0000 0.0000 0.0000 24.8296
#
#
#
# Elastic Compliance Matrix: (Units=1/GPa)
#
#
# Indices 1 2 3 4 5 6 
#
# 1 0.030219 -0.005120 -0.013018 0.000000 0.000000 0.000000
# 2 -0.005120 0.009829 -0.004153 0.000000 0.000000 0.000000
# 3 -0.013018 -0.004153 0.022471 0.000000 0.000000 0.000000
# 4 0.000000 0.000000 0.000000 0.038580 0.000000 0.000000
# 5 0.000000 0.000000 0.000000 0.000000 0.040121 0.000000
# 6 0.000000 0.000000 0.000000 0.000000 0.000000 0.040275
#
#
# Mechanical properties :
#
#
# Convention : Reuss Voigt Hill
#
# Bulk Modulus (GPa) = 55.74966 66.59988 61.17477
# Shear Modulus (GPa) = 21.54642 24.57246 23.05944
#
# Velocity S-wave (km/s) = 3.52251 3.76175 3.64409
# Velocity P-wave (km/s) = 6.97489 7.56446 7.27565
#
# Compressibility (1/GPa) = 0.01793733
#
# Stress axis : x y z
#
# Youngs Moduli (GPa) = 33.09212 101.73460 44.50103
#
# Poissons Ratio (x) = 0.52087 0.57932
# Poissons Ratio (y) = 0.16943 0.18482
# Poissons Ratio (z) = 0.43080 0.42251
#
# Static dielectric constant tensor:
#      x y z
#    x 2.998250 0.000000 0.000000 
#    y 0.000000 3.269080 0.000000 
#    z 0.000000 0.000000 3.064180 
# 
# 
# High freq. dielectric constant tensor:
#      x y z
#    x 1.643680 0.000000 0.000000 
#    y 0.000000 1.685590 0.000000 
#    z 0.000000 0.000000 1.651660 
# 
# From -- ./inp_files/26182.got.cif
#   From: 2010.03.12/outbox.cif.g09.slc.cpg/sg60_14_cif.got.tgz:26182.got - 2010.04.10 18:46:24.
