data_PCOD8246011
_publ_section_title
;
Structure prediction by ZEFSAII (Michael W. Deem and Ramdas Pophale) SiO2 
 PCOD8246011
Probable space group: P M M N
;
_chemical_formula_sum "Si O2"
_cell_formula_units_Z 48
_cell_length_a 14.718718
_cell_length_b 8.636360
_cell_length_c 19.631123
_cell_angle_alpha 90.000000
_cell_angle_beta 90.000000
_cell_angle_gamma 90.000000
_cell_volume 2495.432725
_symmetry_space_group_name_H-M "P M M N"
_symmetry_group_IT_number 59
_space_group.IT_coordinate_system_code '2'
_symmetry_cell_setting 'orthorhombic'
loop_
_space_group_symop_operation_xyz
x,y,z
1/2-x,1/2-y,z
1/2+x,-y,-z
-x,1/2+y,-z
-x,-y,-z
1/2+x,1/2+y,-z
1/2-x,y,z
x,1/2-y,z
loop_
_atom_site_type_symbol
_atom_site_label
_atom_site_fract_x
_atom_site_fract_y
_atom_site_fract_z
Si Si1 0.250000 0.433506 0.978152
Si Si2 0.945671 0.933058 0.063449
Si Si3 0.750000 0.933872 0.868879
Si Si4 0.149636 0.933929 0.441721
Si Si5 0.511346 0.068579 0.672091
Si Si6 0.558130 0.567773 0.815648
Si Si7 0.644353 0.071558 0.406068
O O1 0.250000 0.250000 0.982914
O O2 0.159250 0.490855 0.939502
O O3 0.250000 0.501726 0.054737
O O4 0.950872 0.750000 0.058613
O O5 0.986599 0.988452 0.134328
O O6 0.000000 0.000000 0.000000
O O7 0.750000 0.750000 0.870063
O O8 0.840063 0.994629 0.830464
O O9 0.250000 0.997311 0.422813
O O10 0.151715 0.750000 0.442399
O O11 0.122387 0.989798 0.517564
O O12 0.078882 0.996141 0.386269
O O13 0.524167 0.250000 0.685954
O O14 0.532117 0.973994 0.739467
O O15 0.409418 0.033677 0.647676
O O16 0.552358 0.750000 0.827368
O O17 0.750000 0.051157 0.389677
O O18 0.614913 0.250000 0.397866
#
# Coordination Sequence:
#
# PCOD8246011 Si02
#       7
#     4   8   4   8   8   8   8
#     4   9  18  36  62  86 112 145 180 225 282 332
#     4  11  21  38  62  88 116 149 188 232 280 335
#     4   9  18  36  60  84 112 149 182 221 282 332
#     4   8  16  32  55  83 114 146 183 230 283 337
#     4  11  22  35  55  84 116 150 185 230 287 339
#     4  11  23  40  59  82 116 153 190 231 276 337
#     4   9  18  36  60  81 106 147 193 235 281 335
#
# _framework density 19.235140000000001
#
# number of rings (size 3 to 8) (size 9 to 14) (size 15 to 20)
#    0.000    2.167    1.667    3.000    1.167    0.333 
#    1.500    4.583    0.000    2.000    0.000    0.000 
#    0.000    0.000    0.000    0.000    0.000    0.000 
#
# Total GULP energy -595208.285155 kJ/mol
# GULP energy per Si atom -12400.172607 kJ/mol
# Density = 1.919136 g / cm^3
# Si number density = 19.235140 Si / 1000 Ang^3
#
#
#
# Elastic Constant Matrix: (Units=GPa)
#
#
# Indices 1 2 3 4 5 6 
#
# 1 151.3610 30.6057 77.9726 0.0000 0.0000 0.0000
# 2 30.6057 40.5164 15.6390 0.0000 0.0000 0.0000
# 3 77.9726 15.6390 118.7767 0.0000 0.0000 0.0000
# 4 0.0000 0.0000 0.0000 25.3860 0.0000 0.0000
# 5 0.0000 0.0000 0.0000 0.0000 25.5881 0.0000
# 6 0.0000 0.0000 0.0000 0.0000 0.0000 24.2430
#
#
#
# Elastic Compliance Matrix: (Units=1/GPa)
#
#
# Indices 1 2 3 4 5 6 
#
# 1 0.011183 -0.005915 -0.006563 0.000000 0.000000 0.000000
# 2 -0.005915 0.029131 0.000047 0.000000 0.000000 0.000000
# 3 -0.006563 0.000047 0.012721 0.000000 0.000000 0.000000
# 4 0.000000 0.000000 0.000000 0.039392 0.000000 0.000000
# 5 0.000000 0.000000 0.000000 0.000000 0.039081 0.000000
# 6 0.000000 0.000000 0.000000 0.000000 0.000000 0.041249
#
#
# Mechanical properties :
#
#
# Convention : Reuss Voigt Hill
#
# Bulk Modulus (GPa) = 35.49234 62.12095 48.80665
# Shear Modulus (GPa) = 24.15351 27.47256 25.81304
#
# Velocity S-wave (km/s) = 3.54743 3.78332 3.66727
# Velocity P-wave (km/s) = 5.93893 7.17289 6.58488
#
# Compressibility (1/GPa) = 0.02817509
#
# Stress axis : x y z
#
# Youngs Moduli (GPa) = 89.41788 34.32768 78.60923
#
# Poissons Ratio (x) = 0.20304 0.51589
# Poissons Ratio (y) = 0.52888 -0.00371
# Poissons Ratio (z) = 0.58683 -0.00162
#
# Static dielectric constant tensor:
#      x y z
#    x 3.873660 0.000000 0.000000 
#    y 0.000000 3.232720 0.000000 
#    z 0.000000 0.000000 3.570470 
# 
# 
# High freq. dielectric constant tensor:
#      x y z
#    x 1.762660 0.000000 0.000000 
#    y 0.000000 1.722280 0.000000 
#    z 0.000000 0.000000 1.746270 
# 
# From -- ./inp_files/27486.got.cif
#   From: 2010.03.12/outbox.cif.g09.slc.cpg/sg59_14_cif.got.tgz:27486.got - 2010.04.16 16:29:54.
