data_PCOD8246831
_publ_section_title
;
Structure prediction by ZEFSAII (Michael W. Deem and Ramdas Pophale) SiO2 
 PCOD8246831
Probable space group: P B C N
;
_chemical_formula_sum "Si O2"
_cell_formula_units_Z 52
_cell_length_a 15.049926
_cell_length_b 19.325746
_cell_length_c 9.533230
_cell_angle_alpha 90.000000
_cell_angle_beta 90.000000
_cell_angle_gamma 90.000000
_cell_volume 2772.749929
_symmetry_space_group_name_H-M "P B C N"
_symmetry_group_IT_number 60
_symmetry_cell_setting 'orthorhombic'
loop_
_space_group_symop_operation_xyz
x,y,z
1/2-x,1/2-y,1/2+z
1/2+x,1/2-y,-z
-x,y,1/2-z
-x,-y,-z
1/2+x,1/2+y,1/2-z
1/2-x,1/2+y,z
x,-y,1/2+z
loop_
_atom_site_type_symbol
_atom_site_label
_atom_site_fract_x
_atom_site_fract_y
_atom_site_fract_z
Si Si1 0.328627 0.205452 0.899326
Si Si2 0.684731 0.301397 0.338214
Si Si3 0.547870 0.369474 0.959343
Si Si4 0.500000 0.479296 0.750000
Si Si5 0.809653 0.959677 0.300564
Si Si6 0.000000 0.179406 0.750000
Si Si7 0.000000 0.752892 0.750000
Si Si8 0.759890 0.074667 0.506703
O O1 0.260738 0.218689 0.771648
O O2 0.426267 0.206448 0.828985
O O3 0.309692 0.266353 0.010096
O O4 0.317709 0.132822 0.984641
O O5 0.690919 0.383606 0.368163
O O6 0.591429 0.277384 0.264641
O O7 0.492124 0.430633 0.886622
O O8 0.543592 0.299077 0.871495
O O9 0.651059 0.383397 0.976678
O O10 0.503306 0.367096 0.110923
O O11 0.588260 0.523859 0.765088
O O12 0.753031 0.014524 0.391478
O O13 0.757840 0.962769 0.155317
#
# Coordination Sequence:
#
# PCOD8246831 Si02
#       8
#     8   8   8   4   8   4   4   8
#     4  11  23  40  57  85 113 157 191 246 278 346
#     4  11  24  37  61  84 124 150 193 232 291 341
#     4  10  20  34  54  85 117 156 185 224 276 359
#     4   9  21  30  52  84 124 155 183 210 279 357
#     4  10  21  33  53  83 115 155 182 228 278 349
#     4  12  19  36  55  90 119 158 183 234 273 360
#     4  11  22  36  61  76 115 153 202 236 296 315
#     4  10  22  36  55  82 117 147 190 231 285 345
#
# _framework density 18.753944000000001
#
# number of rings (size 3 to 8) (size 9 to 14) (size 15 to 20)
#    0.000    1.538    4.615    1.385    2.154    3.692 
#    0.000    0.000    0.000    3.692    0.000    2.154 
#    0.000    0.000    0.000    0.000    0.000    0.000 
#
# Total GULP energy -644386.589212 kJ/mol
# GULP energy per Si atom -12392.049793 kJ/mol
# Density = 1.871126 g / cm^3
# Si number density = 18.753944 Si / 1000 Ang^3
#
#
#
# Elastic Constant Matrix: (Units=GPa)
#
#
# Indices 1 2 3 4 5 6 
#
# 1 75.6587 42.0403 40.0863 0.0000 0.0000 0.0000
# 2 42.0403 100.3128 65.8016 0.0000 0.0000 0.0000
# 3 40.0863 65.8016 124.8426 0.0000 0.0000 0.0000
# 4 0.0000 0.0000 0.0000 30.1968 0.0000 0.0000
# 5 0.0000 0.0000 0.0000 0.0000 28.2838 0.0000
# 6 0.0000 0.0000 0.0000 0.0000 0.0000 10.7573
#
#
#
# Elastic Compliance Matrix: (Units=1/GPa)
#
#
# Indices 1 2 3 4 5 6 
#
# 1 0.017818 -0.005677 -0.002729 0.000000 0.000000 0.000000
# 2 -0.005677 0.017046 -0.007161 0.000000 0.000000 0.000000
# 3 -0.002729 -0.007161 0.012661 0.000000 0.000000 0.000000
# 4 0.000000 0.000000 0.000000 0.033116 0.000000 0.000000
# 5 0.000000 0.000000 0.000000 0.000000 0.035356 0.000000
# 6 0.000000 0.000000 0.000000 0.000000 0.000000 0.092960
#
#
# Mechanical properties :
#
#
# Convention : Reuss Voigt Hill
#
# Bulk Modulus (GPa) = 61.01546 66.29673 63.65610
# Shear Modulus (GPa) = 20.36204 24.03998 22.20101
#
# Velocity S-wave (km/s) = 3.29864 3.58420 3.44438
# Velocity P-wave (km/s) = 6.86392 7.24956 7.05938
#
# Compressibility (1/GPa) = 0.01638929
#
# Stress axis : x y z
#
# Youngs Moduli (GPa) = 56.12413 58.66555 78.98302
#
# Poissons Ratio (x) = 0.33306 0.21553
# Poissons Ratio (y) = 0.31863 0.56564
# Poissons Ratio (z) = 0.15315 0.42013
#
# Static dielectric constant tensor:
#      x y z
#    x 3.981260 0.000000 0.000000 
#    y 0.000000 3.440980 0.000000 
#    z 0.000000 0.000000 3.702970 
# 
# 
# High freq. dielectric constant tensor:
#      x y z
#    x 1.701920 0.000000 0.000000 
#    y 0.000000 1.713960 0.000000 
#    z 0.000000 0.000000 1.751490 
# 
# From -- ./inp_files/6110.got.cif
#   From: 2010.03.12/outbox.cif.g09.slc.cpg/sg60_4_cif.got.tgz:6110.got - 2010.04.10 18:46:24.
