data_PCOD8246296
_publ_section_title
;
Structure prediction by ZEFSAII (Michael W. Deem and Ramdas Pophale) SiO2 
 PCOD8246296
Probable space group: P B C N
;
_chemical_formula_sum "Si O2"
_cell_formula_units_Z 40
_cell_length_a 24.593916
_cell_length_b 12.380529
_cell_length_c 5.276989
_cell_angle_alpha 90.000000
_cell_angle_beta 90.000000
_cell_angle_gamma 90.000000
_cell_volume 1606.767638
_symmetry_space_group_name_H-M "P B C N"
_symmetry_group_IT_number 60
_symmetry_cell_setting 'orthorhombic'
loop_
_space_group_symop_operation_xyz
x,y,z
1/2-x,1/2-y,1/2+z
1/2+x,1/2-y,-z
-x,y,1/2-z
-x,-y,-z
1/2+x,1/2+y,1/2-z
1/2-x,1/2+y,z
x,-y,1/2+z
loop_
_atom_site_type_symbol
_atom_site_label
_atom_site_fract_x
_atom_site_fract_y
_atom_site_fract_z
Si Si1 0.356032 0.935401 0.984929
Si Si2 0.717361 0.749448 0.330475
Si Si3 0.109295 0.127201 0.230910
Si Si4 0.937188 0.890441 0.267744
Si Si5 0.977026 0.622078 0.997302
O O1 0.308124 0.854688 0.044598
O O2 0.351386 0.030417 0.192024
O O3 0.412743 0.875416 0.021299
O O4 0.741916 0.785949 0.057589
O O5 0.673226 0.655276 0.277466
O O6 0.080225 0.176671 0.482029
O O7 0.099786 0.998527 0.230033
O O8 0.079289 0.178269 0.982226
O O9 0.000000 0.924543 0.250000
O O10 0.000000 0.684047 0.250000
O O11 0.000000 0.682779 0.750000
O O12 0.000000 0.500000 0.000000
#
# Coordination Sequence:
#
# PCOD8246296 Si02
#       5
#     8   8   8   8   8
#     4  12  23  43  70  97 126 179 229 268 333 407
#     4  12  28  50  63  92 142 172 233 301 328 375
#     4  10  20  39  64  95 130 177 207 270 341 384
#     4  10  19  38  72 102 138 163 212 268 331 445
#     4  10  16  32  61  90 131 154 202 261 309 383
#
# _framework density 24.894701999999999
#
# number of rings (size 3 to 8) (size 9 to 14) (size 15 to 20)
#    0.000    1.200    4.000    5.400    0.000    0.000 
#   21.600    4.000    0.000    0.000    0.000    0.000 
#    0.000    0.000    0.000    0.000    0.000    0.000 
#
# Total GULP energy -495820.005499 kJ/mol
# GULP energy per Si atom -12395.500137 kJ/mol
# Density = 2.483804 g / cm^3
# Si number density = 24.894702 Si / 1000 Ang^3
#
#
#
# Elastic Constant Matrix: (Units=GPa)
#
#
# Indices 1 2 3 4 5 6 
#
# 1 153.3977 28.1474 63.0387 0.0000 0.0000 0.0000
# 2 28.1474 42.0701 10.5068 0.0000 0.0000 0.0000
# 3 63.0387 10.5068 245.6384 0.0000 0.0000 0.0000
# 4 0.0000 0.0000 0.0000 19.8873 0.0000 0.0000
# 5 0.0000 0.0000 0.0000 0.0000 58.3475 0.0000
# 6 0.0000 0.0000 0.0000 0.0000 0.0000 23.5149
#
#
#
# Elastic Compliance Matrix: (Units=1/GPa)
#
#
# Indices 1 2 3 4 5 6 
#
# 1 0.008220 -0.005026 -0.001894 0.000000 0.000000 0.000000
# 2 -0.005026 0.027100 0.000131 0.000000 0.000000 0.000000
# 3 -0.001894 0.000131 0.004552 0.000000 0.000000 0.000000
# 4 0.000000 0.000000 0.000000 0.050283 0.000000 0.000000
# 5 0.000000 0.000000 0.000000 0.000000 0.017139 0.000000
# 6 0.000000 0.000000 0.000000 0.000000 0.000000 0.042526
#
#
# Mechanical properties :
#
#
# Convention : Reuss Voigt Hill
#
# Bulk Modulus (GPa) = 38.03528 71.61024 54.82276
# Shear Modulus (GPa) = 29.04208 42.97749 36.00979
#
# Velocity S-wave (km/s) = 3.41925 4.15947 3.80739
# Velocity P-wave (km/s) = 5.55878 7.20388 6.43413
#
# Compressibility (1/GPa) = 0.02629138
#
# Stress axis : x y z
#
# Youngs Moduli (GPa) = 121.65662 36.90009 219.70224
#
# Poissons Ratio (x) = 0.18548 0.41622
# Poissons Ratio (y) = 0.61150 -0.02873
# Poissons Ratio (z) = 0.23048 -0.00483
#
# Static dielectric constant tensor:
#      x y z
#    x 3.919870 0.000000 0.000000 
#    y 0.000000 4.921750 0.000000 
#    z 0.000000 0.000000 9.471140 
# 
# 
# High freq. dielectric constant tensor:
#      x y z
#    x 1.984180 0.000000 0.000000 
#    y 0.000000 1.975390 0.000000 
#    z 0.000000 0.000000 2.035750 
# 
# From -- ./inp_files/2305.got.cif
#   From: 2010.03.12/outbox.cif.g09.slc.cpg/sg60_2_cif.got.tgz:2305.got - 2010.04.10 18:46:24.
