data_PCOD8246654
_publ_section_title
;
Structure prediction by ZEFSAII (Michael W. Deem and Ramdas Pophale) SiO2 
 PCOD8246654
Probable space group: P B C N
;
_chemical_formula_sum "Si O2"
_cell_formula_units_Z 52
_cell_length_a 14.284491
_cell_length_b 8.390464
_cell_length_c 22.080241
_cell_angle_alpha 90.000000
_cell_angle_beta 90.000000
_cell_angle_gamma 90.000000
_cell_volume 2646.394330
_symmetry_space_group_name_H-M "P B C N"
_symmetry_group_IT_number 60
_symmetry_cell_setting 'orthorhombic'
loop_
_space_group_symop_operation_xyz
x,y,z
1/2-x,1/2-y,1/2+z
1/2+x,1/2-y,-z
-x,y,1/2-z
-x,-y,-z
1/2+x,1/2+y,1/2-z
1/2-x,1/2+y,z
x,-y,1/2+z
loop_
_atom_site_type_symbol
_atom_site_label
_atom_site_fract_x
_atom_site_fract_y
_atom_site_fract_z
Si Si1 0.359005 0.821108 0.324602
Si Si2 0.878030 0.118856 0.537665
Si Si3 0.808341 0.788182 0.550564
Si Si4 0.000000 0.863967 0.750000
Si Si5 0.205364 0.386422 0.757878
Si Si6 0.350514 0.411243 0.191594
Si Si7 0.414765 0.381901 0.059135
O O1 0.351835 0.823645 0.397386
O O2 0.455522 0.746986 0.301470
O O3 0.355315 0.003333 0.302285
O O4 0.276132 0.711839 0.299282
O O5 0.803115 0.262448 0.538780
O O6 0.975889 0.164878 0.570834
O O7 0.825047 0.971816 0.571495
O O8 0.906776 0.061171 0.469570
O O9 0.865560 0.757341 0.487752
O O10 0.068538 0.974455 0.713046
O O11 0.139587 0.260327 0.723749
O O12 0.253241 0.501648 0.707920
O O13 0.356250 0.380216 0.120416
#
# Coordination Sequence:
#
# PCOD8246654 Si02
#       7
#     8   8   8   4   8   8   8
#     4  10  19  37  55  83 113 146 200 237 289 355
#     4   9  20  36  55  89 111 155 192 235 298 346
#     4  10  19  35  61  81 113 156 189 239 298 346
#     4  10  22  34  58  82 114 158 184 244 308 330
#     4   9  21  35  54  81 107 153 194 236 282 342
#     4  10  20  37  57  80 115 150 195 239 288 357
#     4   9  21  36  59  85 120 150 197 237 305 344
#
# _framework density 19.649377000000001
#
# number of rings (size 3 to 8) (size 9 to 14) (size 15 to 20)
#    0.923    1.538    0.000    1.846    2.154    3.077 
#    0.000    2.308    0.000    0.000    0.000    0.000 
#    0.000    0.000    0.000    0.000    0.000    0.000 
#
# Total GULP energy -644430.003338 kJ/mol
# GULP energy per Si atom -12392.884680 kJ/mol
# Density = 1.960465 g / cm^3
# Si number density = 19.649377 Si / 1000 Ang^3
#
#
#
# Elastic Constant Matrix: (Units=GPa)
#
#
# Indices 1 2 3 4 5 6 
#
# 1 79.9934 18.2213 -1.0144 0.0000 0.0000 0.0000
# 2 18.2213 78.6245 5.5157 0.0000 0.0000 0.0000
# 3 -1.0144 5.5157 70.1315 0.0000 0.0000 0.0000
# 4 0.0000 0.0000 0.0000 16.2315 0.0000 0.0000
# 5 0.0000 0.0000 0.0000 0.0000 19.9915 0.0000
# 6 0.0000 0.0000 0.0000 0.0000 0.0000 25.8626
#
#
#
# Elastic Compliance Matrix: (Units=1/GPa)
#
#
# Indices 1 2 3 4 5 6 
#
# 1 0.013211 -0.003092 0.000434 0.000000 0.000000 0.000000
# 2 -0.003092 0.013513 -0.001107 0.000000 0.000000 0.000000
# 3 0.000434 -0.001107 0.014352 0.000000 0.000000 0.000000
# 4 0.000000 0.000000 0.000000 0.061609 0.000000 0.000000
# 5 0.000000 0.000000 0.000000 0.000000 0.050021 0.000000
# 6 0.000000 0.000000 0.000000 0.000000 0.000000 0.038666
#
#
# Mechanical properties :
#
#
# Convention : Reuss Voigt Hill
#
# Bulk Modulus (GPa) = 29.81022 30.46604 30.13813
# Shear Modulus (GPa) = 23.79999 26.15226 24.97612
#
# Velocity S-wave (km/s) = 3.48405 3.65217 3.56910
# Velocity P-wave (km/s) = 5.60258 5.77261 5.68823
#
# Compressibility (1/GPa) = 0.03354555
#
# Stress axis : x y z
#
# Youngs Moduli (GPa) = 75.69526 74.00296 69.67517
#
# Poissons Ratio (x) = 0.22882 -0.03026
# Poissons Ratio (y) = 0.23406 0.07716
# Poissons Ratio (z) = -0.03287 0.08196
#
# Static dielectric constant tensor:
#      x y z
#    x 3.682470 0.000000 0.000000 
#    y 0.000000 3.469530 0.000000 
#    z 0.000000 0.000000 3.452310 
# 
# 
# High freq. dielectric constant tensor:
#      x y z
#    x 1.758190 0.000000 0.000000 
#    y 0.000000 1.748040 0.000000 
#    z 0.000000 0.000000 1.760490 
# 
# From -- ./inp_files/24385.got.cif
#   From: 2010.03.12/outbox.cif.g09.slc.cpg/sg60_13_cif.got.tgz:24385.got - 2010.04.10 18:46:24.
