data_PCOD8246546
_publ_section_title
;
Structure prediction by ZEFSAII (Michael W. Deem and Ramdas Pophale) SiO2 
 PCOD8246546
Probable space group: P B C N
;
_chemical_formula_sum "Si O2"
_cell_formula_units_Z 48
_cell_length_a 16.049981
_cell_length_b 18.230402
_cell_length_c 8.903553
_cell_angle_alpha 90.000000
_cell_angle_beta 90.000000
_cell_angle_gamma 90.000000
_cell_volume 2605.158290
_symmetry_space_group_name_H-M "P B C N"
_symmetry_group_IT_number 60
_symmetry_cell_setting 'orthorhombic'
loop_
_space_group_symop_operation_xyz
x,y,z
1/2-x,1/2-y,1/2+z
1/2+x,1/2-y,-z
-x,y,1/2-z
-x,-y,-z
1/2+x,1/2+y,1/2-z
1/2-x,1/2+y,z
x,-y,1/2+z
loop_
_atom_site_type_symbol
_atom_site_label
_atom_site_fract_x
_atom_site_fract_y
_atom_site_fract_z
Si Si1 0.229729 0.323511 0.892720
Si Si2 0.336202 0.542548 0.406439
Si Si3 0.908021 0.079274 0.790879
Si Si4 0.403192 0.083552 0.251249
Si Si5 0.750452 0.670047 0.754602
Si Si6 0.326466 0.044825 0.934158
O O1 0.296125 0.384244 0.834808
O O2 0.140255 0.345258 0.824988
O O3 0.260140 0.246183 0.830985
O O4 0.224006 0.321594 0.072543
O O5 0.387520 0.498968 0.282854
O O6 0.401920 0.566423 0.532098
O O7 0.260964 0.494166 0.477354
O O8 0.844300 0.141940 0.737553
O O9 0.000000 0.106475 0.750000
O O10 0.500000 0.101276 0.250000
O O11 0.387113 0.011471 0.350185
O O12 0.369686 0.072872 0.083770
O O13 0.812924 0.612688 0.678014
#
# Coordination Sequence:
#
# PCOD8246546 Si02
#       6
#     8   8   8   8   8   8
#     4  10  20  36  54  77 104 140 182 217 261 319
#     4   9  18  33  53  75 100 134 173 207 250 311
#     4  10  19  32  53  79 105 130 164 213 261 304
#     4  11  21  34  56  82 109 137 174 227 276 318
#     4  10  21  36  56  77 105 143 181 217 259 320
#     4  10  19  35  55  78 105 140 180 217 262 322
#
# _framework density 18.424985
#
# number of rings (size 3 to 8) (size 9 to 14) (size 15 to 20)
#    0.000    2.000    0.000    7.000    0.000    2.000 
#    0.000    0.000    0.000    1.000    0.000    0.000 
#    0.000    0.000    0.000    0.000    0.000    0.000 
#
# Total GULP energy -595323.343526 kJ/mol
# GULP energy per Si atom -12402.569657 kJ/mol
# Density = 1.838305 g / cm^3
# Si number density = 18.424985 Si / 1000 Ang^3
#
#
#
# Elastic Constant Matrix: (Units=GPa)
#
#
# Indices 1 2 3 4 5 6 
#
# 1 79.7212 -0.3248 18.2757 0.0000 0.0000 0.0000
# 2 -0.3248 80.0170 15.8041 0.0000 0.0000 0.0000
# 3 18.2757 15.8041 81.1821 0.0000 0.0000 0.0000
# 4 0.0000 0.0000 0.0000 32.5139 0.0000 0.0000
# 5 0.0000 0.0000 0.0000 0.0000 26.7634 0.0000
# 6 0.0000 0.0000 0.0000 0.0000 0.0000 15.7010
#
#
#
# Elastic Compliance Matrix: (Units=1/GPa)
#
#
# Indices 1 2 3 4 5 6 
#
# 1 0.013261 0.000669 -0.003116 0.000000 0.000000 0.000000
# 2 0.000669 0.013031 -0.002687 0.000000 0.000000 0.000000
# 3 -0.003116 -0.002687 0.013543 0.000000 0.000000 0.000000
# 4 0.000000 0.000000 0.000000 0.030756 0.000000 0.000000
# 5 0.000000 0.000000 0.000000 0.000000 0.037364 0.000000
# 6 0.000000 0.000000 0.000000 0.000000 0.000000 0.063690
#
#
# Mechanical properties :
#
#
# Convention : Reuss Voigt Hill
#
# Bulk Modulus (GPa) = 33.82203 34.27002 34.04603
# Shear Modulus (GPa) = 26.07321 28.80669 27.43995
#
# Velocity S-wave (km/s) = 3.76586 3.95835 3.86330
# Velocity P-wave (km/s) = 6.10782 6.28741 6.19826
#
# Compressibility (1/GPa) = 0.02956652
#
# Stress axis : x y z
#
# Youngs Moduli (GPa) = 75.41108 76.74096 73.84148
#
# Poissons Ratio (x) = -0.05135 0.23005
# Poissons Ratio (y) = -0.05046 0.19844
# Poissons Ratio (z) = 0.23494 0.20624
#
# Static dielectric constant tensor:
#      x y z
#    x 3.269630 0.000000 0.000000 
#    y 0.000000 3.427610 0.000000 
#    z 0.000000 0.000000 3.448730 
# 
# 
# High freq. dielectric constant tensor:
#      x y z
#    x 1.698970 0.000000 0.000000 
#    y 0.000000 1.713110 0.000000 
#    z 0.000000 0.000000 1.725030 
# 
# From -- ./inp_files/5884.got.cif
#   From: 2010.03.12/outbox.cif.g09.slc.cpg/sg60_3_cif.got.tgz:5884.got - 2010.04.10 18:46:24.
