data_PCOD8246522
_publ_section_title
;
Structure prediction by ZEFSAII (Michael W. Deem and Ramdas Pophale) SiO2 
 PCOD8246522
Probable space group: P B C N
;
_chemical_formula_sum "Si O2"
_cell_formula_units_Z 40
_cell_length_a 20.900430
_cell_length_b 21.753577
_cell_length_c 4.968156
_cell_angle_alpha 90.000000
_cell_angle_beta 90.000000
_cell_angle_gamma 90.000000
_cell_volume 2258.817402
_symmetry_space_group_name_H-M "P B C N"
_symmetry_group_IT_number 60
_symmetry_cell_setting 'orthorhombic'
loop_
_space_group_symop_operation_xyz
x,y,z
1/2-x,1/2-y,1/2+z
1/2+x,1/2-y,-z
-x,y,1/2-z
-x,-y,-z
1/2+x,1/2+y,1/2-z
1/2-x,1/2+y,z
x,-y,1/2+z
loop_
_atom_site_type_symbol
_atom_site_label
_atom_site_fract_x
_atom_site_fract_y
_atom_site_fract_z
Si Si1 0.249955 0.830748 0.065749
Si Si2 0.675660 0.789123 0.938528
Si Si3 0.750533 0.462261 0.263982
Si Si4 0.098555 0.537590 0.755396
Si Si5 0.459161 0.161053 0.986979
O O1 0.191374 0.783033 0.093954
O O2 0.306231 0.811728 0.266411
O O3 0.220625 0.897387 0.140302
O O4 0.283214 0.830019 0.772375
O O5 0.599776 0.797524 0.908973
O O6 0.728085 0.515529 0.470922
O O7 0.826027 0.451461 0.249537
O O8 0.077958 0.517438 0.456707
O O9 0.064193 0.599192 0.842569
O O10 0.500000 0.145916 0.250000
O O11 0.500000 0.195351 0.750000
#
# Coordination Sequence:
#
# PCOD8246522 Si02
#       5
#     8   8   8   8   8
#     4  10  19  35  56  73  98 126 165 213 248 313
#     4  10  21  35  53  74  95 130 172 205 259 289
#     4  10  19  30  51  75 101 127 159 206 254 293
#     4  10  21  33  48  65  96 135 173 208 235 275
#     4  12  24  35  50  68 100 133 174 214 237 287
#
# _framework density 17.708383000000001
#
# number of rings (size 3 to 8) (size 9 to 14) (size 15 to 20)
#    0.000    1.600    2.000    3.600    5.600    2.400 
#    0.000    0.000    0.000    0.000    0.000    0.000 
#    0.000    4.800    0.000    0.000    0.000    0.000 
#
# Total GULP energy -495901.238851 kJ/mol
# GULP energy per Si atom -12397.530971 kJ/mol
# Density = 1.766808 g / cm^3
# Si number density = 17.708383 Si / 1000 Ang^3
#
#
#
# Elastic Constant Matrix: (Units=GPa)
#
#
# Indices 1 2 3 4 5 6 
#
# 1 55.7731 36.6310 17.5376 0.0000 0.0000 0.0000
# 2 36.6310 95.9158 15.9054 0.0000 0.0000 0.0000
# 3 17.5376 15.9054 74.9414 0.0000 0.0000 0.0000
# 4 0.0000 0.0000 0.0000 21.7287 0.0000 0.0000
# 5 0.0000 0.0000 0.0000 0.0000 19.6805 0.0000
# 6 0.0000 0.0000 0.0000 0.0000 0.0000 13.3043
#
#
#
# Elastic Compliance Matrix: (Units=1/GPa)
#
#
# Indices 1 2 3 4 5 6 
#
# 1 0.025021 -0.008898 -0.003967 0.000000 0.000000 0.000000
# 2 -0.008898 0.013970 -0.000883 0.000000 0.000000 0.000000
# 3 -0.003967 -0.000883 0.014459 0.000000 0.000000 0.000000
# 4 0.000000 0.000000 0.000000 0.046022 0.000000 0.000000
# 5 0.000000 0.000000 0.000000 0.000000 0.050812 0.000000
# 6 0.000000 0.000000 0.000000 0.000000 0.000000 0.075164
#
#
# Mechanical properties :
#
#
# Convention : Reuss Voigt Hill
#
# Bulk Modulus (GPa) = 38.52710 40.75315 39.64012
# Shear Modulus (GPa) = 19.11345 21.37979 20.24662
#
# Velocity S-wave (km/s) = 3.28890 3.47843 3.38499
# Velocity P-wave (km/s) = 6.01882 6.26068 6.14094
#
# Compressibility (1/GPa) = 0.02595575
#
# Stress axis : x y z
#
# Youngs Moduli (GPa) = 39.96598 71.57984 69.15898
#
# Poissons Ratio (x) = 0.63692 0.27435
# Poissons Ratio (y) = 0.35562 0.06105
# Poissons Ratio (z) = 0.15854 0.06319
#
# Static dielectric constant tensor:
#      x y z
#    x 3.131760 0.000000 0.000000 
#    y 0.000000 3.339290 0.000000 
#    z 0.000000 0.000000 3.649570 
# 
# 
# High freq. dielectric constant tensor:
#      x y z
#    x 1.633180 0.000000 0.000000 
#    y 0.000000 1.670850 0.000000 
#    z 0.000000 0.000000 1.714750 
# 
# From -- ./inp_files/2008.got.cif
#   From: 2010.03.12/outbox.cif.g09.slc.cpg/sg60_2_cif.got.tgz:2008.got - 2010.04.10 18:46:24.
