data_PCOD8246636
_publ_section_title
;
Structure prediction by ZEFSAII (Michael W. Deem and Ramdas Pophale) SiO2 
 PCOD8246636
Probable space group: P B C N
;
_chemical_formula_sum "Si O2"
_cell_formula_units_Z 64
_cell_length_a 13.364096
_cell_length_b 27.780926
_cell_length_c 9.457109
_cell_angle_alpha 90.000000
_cell_angle_beta 90.000000
_cell_angle_gamma 90.000000
_cell_volume 3511.112128
_symmetry_space_group_name_H-M "P B C N"
_symmetry_group_IT_number 60
_symmetry_cell_setting 'orthorhombic'
loop_
_space_group_symop_operation_xyz
x,y,z
1/2-x,1/2-y,1/2+z
1/2+x,1/2-y,-z
-x,y,1/2-z
-x,-y,-z
1/2+x,1/2+y,1/2-z
1/2-x,1/2+y,z
x,-y,1/2+z
loop_
_atom_site_type_symbol
_atom_site_label
_atom_site_fract_x
_atom_site_fract_y
_atom_site_fract_z
Si Si1 0.051861 0.936618 0.387066
Si Si2 0.913978 0.042640 0.141293
Si Si3 0.689924 0.720393 0.722922
Si Si4 0.604475 0.821068 0.825964
Si Si5 0.282979 0.371907 0.778250
Si Si6 0.609332 0.683602 0.003757
Si Si7 0.105921 0.845766 0.509457
Si Si8 0.586995 0.785268 0.136201
O O1 0.134519 0.897706 0.440824
O O2 0.000000 0.914479 0.250000
O O3 0.956826 0.946445 0.487688
O O4 0.112315 0.985851 0.351687
O O5 0.815170 0.073267 0.185985
O O6 0.000000 0.057152 0.250000
O O7 0.661373 0.775159 0.758252
O O8 0.644118 0.701551 0.574361
O O9 0.808730 0.713055 0.720114
O O10 0.642192 0.687677 0.842791
O O11 0.500000 0.826740 0.750000
O O12 0.670061 0.868111 0.782201
O O13 0.590908 0.819911 0.996910
O O14 0.295973 0.339819 0.918559
O O15 0.353123 0.343977 0.666578
O O16 0.570331 0.732764 0.072991
O O17 0.514005 0.649242 0.013132
O O18 0.500000 0.798933 0.250000
#
# Coordination Sequence:
#
# PCOD8246636 Si02
#       8
#     8   8   8   8   8   8   8   8
#     4  10  20  32  54  82 123 149 178 224 291 343
#     4  10  19  35  53  84 117 150 181 228 281 358
#     4  11  23  38  53  82 115 154 198 234 286 336
#     4  11  25  40  56  80 114 155 199 251 284 330
#     4  12  21  36  57  80 112 153 199 228 286 343
#     4  11  22  32  56  80 112 154 190 232 276 342
#     4  12  21  37  55  85 115 156 194 232 278 347
#     4  11  23  38  57  79 111 156 198 244 289 335
#
# _framework density 18.227841999999999
#
# number of rings (size 3 to 8) (size 9 to 14) (size 15 to 20)
#    0.000    1.000    5.000    3.750    1.750    0.000 
#    0.000    0.000    0.000    0.000    0.000    1.750 
#    0.000    0.000    0.000    0.000    0.000    0.000 
#
# Total GULP energy -793244.514204 kJ/mol
# GULP energy per Si atom -12394.445534 kJ/mol
# Density = 1.818635 g / cm^3
# Si number density = 18.227842 Si / 1000 Ang^3
#
#
#
# Elastic Constant Matrix: (Units=GPa)
#
#
# Indices 1 2 3 4 5 6 
#
# 1 113.7764 21.7888 28.3859 0.0000 0.0000 0.0000
# 2 21.7888 59.0154 12.9667 0.0000 0.0000 0.0000
# 3 28.3859 12.9667 72.8915 0.0000 0.0000 0.0000
# 4 0.0000 0.0000 0.0000 13.8558 0.0000 0.0000
# 5 0.0000 0.0000 0.0000 0.0000 30.9488 0.0000
# 6 0.0000 0.0000 0.0000 0.0000 0.0000 18.1884
#
#
#
# Elastic Compliance Matrix: (Units=1/GPa)
#
#
# Indices 1 2 3 4 5 6 
#
# 1 0.010227 -0.003019 -0.003446 0.000000 0.000000 0.000000
# 2 -0.003019 0.018525 -0.002120 0.000000 0.000000 0.000000
# 3 -0.003446 -0.002120 0.015438 0.000000 0.000000 0.000000
# 4 0.000000 0.000000 0.000000 0.072172 0.000000 0.000000
# 5 0.000000 0.000000 0.000000 0.000000 0.032311 0.000000
# 6 0.000000 0.000000 0.000000 0.000000 0.000000 0.054980
#
#
# Mechanical properties :
#
#
# Convention : Reuss Voigt Hill
#
# Bulk Modulus (GPa) = 37.00768 41.32957 39.16862
# Shear Modulus (GPa) = 21.75530 24.76805 23.26168
#
# Velocity S-wave (km/s) = 3.45848 3.69019 3.57622
# Velocity P-wave (km/s) = 6.02454 6.39373 6.21188
#
# Compressibility (1/GPa) = 0.02702142
#
# Stress axis : x y z
#
# Youngs Moduli (GPa) = 97.78118 53.98103 64.77543
#
# Poissons Ratio (x) = 0.16296 0.22319
# Poissons Ratio (y) = 0.29518 0.13731
# Poissons Ratio (z) = 0.33692 0.11443
#
# Static dielectric constant tensor:
#      x y z
#    x 3.186560 0.000000 0.000000 
#    y 0.000000 3.385060 0.000000 
#    z 0.000000 0.000000 3.692300 
# 
# 
# High freq. dielectric constant tensor:
#      x y z
#    x 1.672450 0.000000 0.000000 
#    y 0.000000 1.687120 0.000000 
#    z 0.000000 0.000000 1.731160 
# 
# From -- ./inp_files/5357.got.cif
#   From: 2010.03.12/outbox.cif.g09.slc.cpg/sg60_3_cif.got.tgz:5357.got - 2010.04.10 18:46:24.
