data_PCOD8246312
_publ_section_title
;
Structure prediction by ZEFSAII (Michael W. Deem and Ramdas Pophale) SiO2 
 PCOD8246312
Probable space group: P B C N
;
_chemical_formula_sum "Si O2"
_cell_formula_units_Z 56
_cell_length_a 16.226719
_cell_length_b 20.257582
_cell_length_c 9.606093
_cell_angle_alpha 90.000000
_cell_angle_beta 90.000000
_cell_angle_gamma 90.000000
_cell_volume 3157.658126
_symmetry_space_group_name_H-M "P B C N"
_symmetry_group_IT_number 60
_symmetry_cell_setting 'orthorhombic'
loop_
_space_group_symop_operation_xyz
x,y,z
1/2-x,1/2-y,1/2+z
1/2+x,1/2-y,-z
-x,y,1/2-z
-x,-y,-z
1/2+x,1/2+y,1/2-z
1/2-x,1/2+y,z
x,-y,1/2+z
loop_
_atom_site_type_symbol
_atom_site_label
_atom_site_fract_x
_atom_site_fract_y
_atom_site_fract_z
Si Si1 0.682561 0.804498 0.224222
Si Si2 0.334736 0.785945 0.716790
Si Si3 0.570810 0.724614 0.024541
Si Si4 0.384552 0.764696 0.006786
Si Si5 0.573973 0.425233 0.571913
Si Si6 0.891906 0.962177 0.878015
Si Si7 0.735038 0.638889 0.485687
O O1 0.752593 0.750714 0.239758
O O2 0.609697 0.774088 0.133600
O O3 0.642870 0.818851 0.375974
O O4 0.721129 0.867110 0.139268
O O5 0.395432 0.738757 0.629539
O O6 0.381960 0.803875 0.860135
O O7 0.307653 0.850491 0.629080
O O8 0.599249 0.650823 0.065202
O O9 0.473590 0.734163 0.033830
O O10 0.322937 0.702957 0.011796
O O11 0.608769 0.462709 0.435108
O O12 0.475109 0.427276 0.570319
O O13 0.611897 0.459782 0.710261
O O14 0.814120 0.926588 0.948277
#
# Coordination Sequence:
#
# PCOD8246312 Si02
#       7
#     8   8   8   8   8   8   8
#     4   9  19  29  47  68  94 131 170 201 262 319
#     4   9  19  30  44  70  95 128 169 207 262 312
#     4  11  19  31  49  69  98 138 169 209 258 308
#     4  10  17  29  46  70  95 124 170 209 251 313
#     4  10  21  33  47  70  94 138 185 217 249 287
#     4  10  20  34  48  66  98 137 182 222 245 295
#     4   9  17  33  47  64  96 134 164 215 261 299
#
# _framework density 17.734662
#
# number of rings (size 3 to 8) (size 9 to 14) (size 15 to 20)
#    0.000    2.286    1.429    3.429    2.000    2.286 
#    5.143    0.000    0.000    0.000    0.000    0.000 
#    0.000    0.000    0.000  501.429    0.000    0.000 
#
# Total GULP energy -693914.894402 kJ/mol
# GULP energy per Si atom -12391.337400 kJ/mol
# Density = 1.769430 g / cm^3
# Si number density = 17.734662 Si / 1000 Ang^3
#
#
#
# Elastic Constant Matrix: (Units=GPa)
#
#
# Indices 1 2 3 4 5 6 
#
# 1 55.0983 23.0109 40.6984 0.0000 0.0000 0.0000
# 2 23.0109 36.5245 23.5780 0.0000 0.0000 0.0000
# 3 40.6984 23.5780 140.6904 0.0000 0.0000 0.0000
# 4 0.0000 0.0000 0.0000 12.9321 0.0000 0.0000
# 5 0.0000 0.0000 0.0000 0.0000 40.6784 0.0000
# 6 0.0000 0.0000 0.0000 0.0000 0.0000 22.3458
#
#
#
# Elastic Compliance Matrix: (Units=1/GPa)
#
#
# Indices 1 2 3 4 5 6 
#
# 1 0.028346 -0.014089 -0.005839 0.000000 0.000000 0.000000
# 2 -0.014089 0.037703 -0.002243 0.000000 0.000000 0.000000
# 3 -0.005839 -0.002243 0.009173 0.000000 0.000000 0.000000
# 4 0.000000 0.000000 0.000000 0.077327 0.000000 0.000000
# 5 0.000000 0.000000 0.000000 0.000000 0.024583 0.000000
# 6 0.000000 0.000000 0.000000 0.000000 0.000000 0.044751
#
#
# Mechanical properties :
#
#
# Convention : Reuss Voigt Hill
#
# Bulk Modulus (GPa) = 32.38317 45.20975 38.79646
# Shear Modulus (GPa) = 18.08193 24.85965 21.47079
#
# Velocity S-wave (km/s) = 3.19655 3.74806 3.48324
# Velocity P-wave (km/s) = 5.65008 6.65419 6.17259
#
# Compressibility (1/GPa) = 0.03088024
#
# Stress axis : x y z
#
# Youngs Moduli (GPa) = 35.27790 26.52294 109.01942
#
# Poissons Ratio (x) = 0.37369 0.63653
# Poissons Ratio (y) = 0.49705 0.24451
# Poissons Ratio (z) = 0.20598 0.05949
#
# Static dielectric constant tensor:
#      x y z
#    x 3.359880 0.000000 0.000000 
#    y 0.000000 2.777330 0.000000 
#    z 0.000000 0.000000 4.021890 
# 
# 
# High freq. dielectric constant tensor:
#      x y z
#    x 1.682360 0.000000 0.000000 
#    y 0.000000 1.615760 0.000000 
#    z 0.000000 0.000000 1.711530 
# 
# From -- ./inp_files/6148.got.cif
#   From: 2010.03.12/outbox.cif.g09.slc.cpg/sg60_4_cif.got.tgz:6148.got - 2010.04.10 18:46:24.
