data_PCOD8246697
_publ_section_title
;
Structure prediction by ZEFSAII (Michael W. Deem and Ramdas Pophale) SiO2 
 PCOD8246697
Probable space group: P B C N
;
_chemical_formula_sum "Si O2"
_cell_formula_units_Z 32
_cell_length_a 5.184787
_cell_length_b 18.854904
_cell_length_c 15.161796
_cell_angle_alpha 90.000000
_cell_angle_beta 90.000000
_cell_angle_gamma 90.000000
_cell_volume 1482.196878
_symmetry_space_group_name_H-M "P B C N"
_symmetry_group_IT_number 60
_symmetry_cell_setting 'orthorhombic'
loop_
_space_group_symop_operation_xyz
x,y,z
1/2-x,1/2-y,1/2+z
1/2+x,1/2-y,-z
-x,y,1/2-z
-x,-y,-z
1/2+x,1/2+y,1/2-z
1/2-x,1/2+y,z
x,-y,1/2+z
loop_
_atom_site_type_symbol
_atom_site_label
_atom_site_fract_x
_atom_site_fract_y
_atom_site_fract_z
Si Si1 0.616322 0.208018 0.477425
Si Si2 0.450040 0.506862 0.604412
Si Si3 0.241477 0.864338 0.695168
Si Si4 0.952070 0.560997 0.572824
O O1 0.331730 0.241078 0.481173
O O2 0.681304 0.195021 0.375400
O O3 0.621666 0.134692 0.529514
O O4 0.500000 0.500000 0.500000
O O5 0.375064 0.433383 0.648355
O O6 0.723167 0.537034 0.640489
O O7 0.224176 0.564502 0.624711
O O8 0.500000 0.883057 0.750000
O O9 0.000000 0.832589 0.750000
O O10 0.000000 0.500000 0.500000
#
# Coordination Sequence:
#
# PCOD8246697 Si02
#       4
#     8   8   8   8
#     4  12  25  41  67 103 127 187 236 270 330 417
#     4  10  19  36  67  93 128 164 218 271 325 390
#     4  12  25  41  67 103 139 171 223 292 345 396
#     4  10  19  36  67  93 130 154 235 271 308 384
#
# _framework density 21.589573999999999
#
# number of rings (size 3 to 8) (size 9 to 14) (size 15 to 20)
#    0.000    1.000    5.000    4.500    7.000    0.000 
#    0.000    0.000    0.000   30.000    0.000    0.000 
#    0.000    0.000    0.000    0.000    0.000    0.000 
#
# Total GULP energy -396494.961352 kJ/mol
# GULP energy per Si atom -12390.467542 kJ/mol
# Density = 2.154044 g / cm^3
# Si number density = 21.589574 Si / 1000 Ang^3
#
#
#
# Elastic Constant Matrix: (Units=GPa)
#
#
# Indices 1 2 3 4 5 6 
#
# 1 201.9624 27.2713 23.7772 0.0000 0.0000 0.0000
# 2 27.2713 91.7776 19.9579 0.0000 0.0000 0.0000
# 3 23.7772 19.9579 65.2237 0.0000 0.0000 0.0000
# 4 0.0000 0.0000 0.0000 17.8267 0.0000 0.0000
# 5 0.0000 0.0000 0.0000 0.0000 34.5728 0.0000
# 6 0.0000 0.0000 0.0000 0.0000 0.0000 46.2041
#
#
#
# Elastic Compliance Matrix: (Units=1/GPa)
#
#
# Indices 1 2 3 4 5 6 
#
# 1 0.005301 -0.001237 -0.001554 0.000000 0.000000 0.000000
# 2 -0.001237 0.011961 -0.003209 0.000000 0.000000 0.000000
# 3 -0.001554 -0.003209 0.016880 0.000000 0.000000 0.000000
# 4 0.000000 0.000000 0.000000 0.056096 0.000000 0.000000
# 5 0.000000 0.000000 0.000000 0.000000 0.028924 0.000000
# 6 0.000000 0.000000 0.000000 0.000000 0.000000 0.021643
#
#
# Mechanical properties :
#
#
# Convention : Reuss Voigt Hill
#
# Bulk Modulus (GPa) = 45.16226 55.66405 50.41315
# Shear Modulus (GPa) = 31.21334 38.91787 35.06560
#
# Velocity S-wave (km/s) = 3.80644 4.25034 4.03450
# Velocity P-wave (km/s) = 6.34686 7.06583 6.71597
#
# Compressibility (1/GPa) = 0.02214238
#
# Stress axis : x y z
#
# Youngs Moduli (GPa) = 188.62742 83.60216 59.24071
#
# Poissons Ratio (x) = 0.10345 0.09206
# Poissons Ratio (y) = 0.23340 0.19010
# Poissons Ratio (z) = 0.29313 0.26828
#
# Static dielectric constant tensor:
#      x y z
#    x 1.784640 0.000000 0.000000 
#    y 0.000000 3.727090 0.000000 
#    z 0.000000 0.000000 3.910920 
# 
# 
# High freq. dielectric constant tensor:
#      x y z
#    x 1.900770 0.000000 0.000000 
#    y 0.000000 1.824540 0.000000 
#    z 0.000000 0.000000 1.814350 
# 
# From -- ./inp_files/13687.got.cif
#   From: 2010.03.12/outbox.cif.g09.slc.cpg/sg60_7_cif.got.tgz:13687.got - 2010.04.10 18:46:24.
