data_PCOD8246243
_publ_section_title
;
Structure prediction by ZEFSAII (Michael W. Deem and Ramdas Pophale) SiO2 
 PCOD8246243
Probable space group: P M M N
;
_chemical_formula_sum "Si O2"
_cell_formula_units_Z 56
_cell_length_a 10.181688
_cell_length_b 13.307740
_cell_length_c 23.196569
_cell_angle_alpha 90.000000
_cell_angle_beta 90.000000
_cell_angle_gamma 90.000000
_cell_volume 3143.025070
_symmetry_space_group_name_H-M "P M M N"
_symmetry_group_IT_number 59
_space_group.IT_coordinate_system_code '2'
_symmetry_cell_setting 'orthorhombic'
loop_
_space_group_symop_operation_xyz
x,y,z
1/2-x,1/2-y,z
1/2+x,-y,-z
-x,1/2+y,-z
-x,-y,-z
1/2+x,1/2+y,-z
1/2-x,y,z
x,1/2-y,z
loop_
_atom_site_type_symbol
_atom_site_label
_atom_site_fract_x
_atom_site_fract_y
_atom_site_fract_z
Si Si1 0.537083 0.360687 0.040830
Si Si2 0.401812 0.482785 0.583585
Si Si3 0.899341 0.867232 0.533043
Si Si4 0.603945 0.863824 0.844298
Si Si5 0.109068 0.426136 0.932502
Si Si6 0.594690 0.861547 0.305598
Si Si7 0.095291 0.476993 0.808173
O O1 0.605364 0.250000 0.046788
O O2 0.417984 0.368981 0.086571
O O3 0.630879 0.454496 0.054008
O O4 0.489914 0.370855 0.974918
O O5 0.250000 0.518772 0.588863
O O6 0.496096 0.578192 0.574282
O O7 0.418219 0.403084 0.532388
O O8 0.453654 0.429346 0.641378
O O9 0.750000 0.890010 0.553624
O O10 0.930514 0.750000 0.535500
O O11 0.750000 0.907242 0.832284
O O12 0.594148 0.750000 0.822223
O O13 0.493251 0.923066 0.808490
O O14 0.250000 0.374068 0.940298
O O15 0.062987 0.413709 0.866233
O O16 0.750000 0.852835 0.308110
O O17 0.532563 0.750000 0.309985
O O18 0.549922 0.910839 0.245722
O O19 0.250000 0.506259 0.805471
#
# Coordination Sequence:
#
# PCOD8246243 Si02
#       7
#     8   8   8   8   8   8   8
#     4   9  17  28  43  63  86 113 145 181 224 276
#     4   9  17  30  50  74  98 127 163 197 228 269
#     4   9  17  30  49  74 103 131 157 190 235 279
#     4   9  17  30  48  67  87 116 152 187 228 279
#     4   9  17  28  42  63  89 113 141 182 229 272
#     4   9  17  31  51  72  94 123 159 194 227 269
#     4   9  18  31  47  68  92 118 150 189 230 269
#
# _framework density 17.817229999999999
#
# number of rings (size 3 to 8) (size 9 to 14) (size 15 to 20)
#    0.000    3.000    0.000    0.857    0.000    4.000 
#    0.000    5.714    0.000    6.857    0.000    0.000 
#    0.000    0.000    0.000    0.000    0.000    0.000 
#
# Total GULP energy -693954.965612 kJ/mol
# GULP energy per Si atom -12392.052957 kJ/mol
# Density = 1.777668 g / cm^3
# Si number density = 17.817230 Si / 1000 Ang^3
#
#
#
# Elastic Constant Matrix: (Units=GPa)
#
#
# Indices 1 2 3 4 5 6 
#
# 1 77.3079 42.7370 36.3366 0.0000 0.0000 0.0000
# 2 42.7370 102.9219 49.9889 0.0000 0.0000 0.0000
# 3 36.3366 49.9889 115.8480 0.0000 0.0000 0.0000
# 4 0.0000 0.0000 0.0000 23.9353 0.0000 0.0000
# 5 0.0000 0.0000 0.0000 0.0000 16.8924 0.0000
# 6 0.0000 0.0000 0.0000 0.0000 0.0000 15.9856
#
#
#
# Elastic Compliance Matrix: (Units=1/GPa)
#
#
# Indices 1 2 3 4 5 6 
#
# 1 0.017571 -0.005844 -0.002990 0.000000 0.000000 0.000000
# 2 -0.005844 0.014236 -0.004310 0.000000 0.000000 0.000000
# 3 -0.002990 -0.004310 0.011429 0.000000 0.000000 0.000000
# 4 0.000000 0.000000 0.000000 0.041779 0.000000 0.000000
# 5 0.000000 0.000000 0.000000 0.000000 0.059198 0.000000
# 6 0.000000 0.000000 0.000000 0.000000 0.000000 0.062556
#
#
# Mechanical properties :
#
#
# Convention : Reuss Voigt Hill
#
# Bulk Modulus (GPa) = 58.99872 61.57810 60.28841
# Shear Modulus (GPa) = 20.94611 22.49700 21.72155
#
# Velocity S-wave (km/s) = 3.43244 3.55724 3.49539
# Velocity P-wave (km/s) = 6.99242 7.17690 7.08526
#
# Compressibility (1/GPa) = 0.01694952
#
# Stress axis : x y z
#
# Youngs Moduli (GPa) = 56.91118 70.24373 87.49343
#
# Poissons Ratio (x) = 0.41052 0.26157
# Poissons Ratio (y) = 0.33260 0.37709
# Poissons Ratio (z) = 0.17014 0.30274
#
# Static dielectric constant tensor:
#      x y z
#    x 3.104310 0.000000 0.000000 
#    y 0.000000 3.301420 0.000000 
#    z 0.000000 0.000000 3.278500 
# 
# 
# High freq. dielectric constant tensor:
#      x y z
#    x 1.665490 0.000000 0.000000 
#    y 0.000000 1.684970 0.000000 
#    z 0.000000 0.000000 1.679200 
# 
# From -- ./inp_files/31906.got.cif
#   From: 2010.03.12/outbox.cif.g09.slc.cpg/sg59_16_cif.got.tgz:31906.got - 2010.04.16 16:29:54.
