data_PCOD8246070
_publ_section_title
;
Structure prediction by ZEFSAII (Michael W. Deem and Ramdas Pophale) SiO2 
 PCOD8246070
Probable space group: P M M N
;
_chemical_formula_sum "Si O2"
_cell_formula_units_Z 28
_cell_length_a 9.612394
_cell_length_b 18.432336
_cell_length_c 6.442155
_cell_angle_alpha 90.000000
_cell_angle_beta 90.000000
_cell_angle_gamma 90.000000
_cell_volume 1141.413782
_symmetry_space_group_name_H-M "P M M N"
_symmetry_group_IT_number 59
_space_group.IT_coordinate_system_code '2'
_symmetry_cell_setting 'orthorhombic'
loop_
_space_group_symop_operation_xyz
x,y,z
1/2-x,1/2-y,z
1/2+x,-y,-z
-x,1/2+y,-z
-x,-y,-z
1/2+x,1/2+y,-z
1/2-x,y,z
x,1/2-y,z
loop_
_atom_site_type_symbol
_atom_site_label
_atom_site_fract_x
_atom_site_fract_y
_atom_site_fract_z
Si Si1 0.250000 0.386685 0.212982
Si Si2 0.250000 0.035189 0.613177
Si Si3 0.750000 0.092669 0.109418
Si Si4 0.961712 0.250000 0.676518
Si Si5 0.014853 0.393631 0.883895
Si Si6 0.250000 0.750000 0.691541
Si Si7 0.750000 0.750000 0.502324
O O1 0.250000 0.457815 0.363158
O O2 0.113013 0.378737 0.078399
O O3 0.250000 0.321252 0.367796
O O4 0.250000 0.950442 0.671383
O O5 0.393603 0.070282 0.702490
O O6 0.616316 0.062124 0.979272
O O7 0.750000 0.178413 0.163084
O O8 0.125401 0.250000 0.655458
O O9 0.885143 0.250000 0.455277
O O10 0.930812 0.322274 0.806642
#
# Coordination Sequence:
#
# PCOD8246070 Si02
#       7
#     4   4   4   4   8   2   2
#     4  11  22  42  68 107 136 176 232 278 353 410
#     4  11  25  46  71 105 139 184 228 288 353 407
#     4  12  26  47  69 101 143 183 238 284 343 423
#     4  12  22  44  70 101 137 179 232 283 340 407
#     4  11  24  45  70 104 139 185 229 286 347 412
#     4  12  28  46  70 102 136 196 228 284 350 406
#     4  12  18  36  70  98 134 168 224 286 328 408
#
# _framework density 24.53098
#
# number of rings (size 3 to 8) (size 9 to 14) (size 15 to 20)
#    0.000    0.571    2.857    6.000    0.000    1.143 
#   10.286    0.000    0.000    0.000    0.000    0.000 
#    0.000    0.000    0.000    0.000    0.000    0.000 
#
# Total GULP energy -347047.403870 kJ/mol
# GULP energy per Si atom -12394.550138 kJ/mol
# Density = 2.447515 g / cm^3
# Si number density = 24.530980 Si / 1000 Ang^3
#
#
#
# Elastic Constant Matrix: (Units=GPa)
#
#
# Indices 1 2 3 4 5 6 
#
# 1 142.7962 -6.3165 24.6415 0.0000 0.0000 0.0000
# 2 -6.3165 70.7441 3.5212 0.0000 0.0000 0.0000
# 3 24.6415 3.5212 96.9133 0.0000 0.0000 0.0000
# 4 0.0000 0.0000 0.0000 48.9877 0.0000 0.0000
# 5 0.0000 0.0000 0.0000 0.0000 74.0372 0.0000
# 6 0.0000 0.0000 0.0000 0.0000 0.0000 20.3744
#
#
#
# Elastic Compliance Matrix: (Units=1/GPa)
#
#
# Indices 1 2 3 4 5 6 
#
# 1 0.007364 0.000752 -0.001900 0.000000 0.000000 0.000000
# 2 0.000752 0.014238 -0.000709 0.000000 0.000000 0.000000
# 3 -0.001900 -0.000709 0.010827 0.000000 0.000000 0.000000
# 4 0.000000 0.000000 0.000000 0.020413 0.000000 0.000000
# 5 0.000000 0.000000 0.000000 0.000000 0.013507 0.000000
# 6 0.000000 0.000000 0.000000 0.000000 0.000000 0.049081
#
#
# Mechanical properties :
#
#
# Convention : Reuss Voigt Hill
#
# Bulk Modulus (GPa) = 34.82279 39.34955 37.08617
# Shear Modulus (GPa) = 38.84549 47.92036 43.38293
#
# Velocity S-wave (km/s) = 3.98367 4.42459 4.20991
# Velocity P-wave (km/s) = 5.94860 6.49448 6.22752
#
# Compressibility (1/GPa) = 0.02871682
#
# Stress axis : x y z
#
# Youngs Moduli (GPa) = 135.79421 70.23518 92.35932
#
# Poissons Ratio (x) = -0.05282 0.17546
# Poissons Ratio (y) = -0.10213 0.06544
# Poissons Ratio (z) = 0.25797 0.04976
#
# Static dielectric constant tensor:
#      x y z
#    x 4.391260 0.000000 0.000000 
#    y 0.000000 4.530220 0.000000 
#    z 0.000000 0.000000 4.347060 
# 
# 
# High freq. dielectric constant tensor:
#      x y z
#    x 1.992630 0.000000 0.000000 
#    y 0.000000 1.974450 0.000000 
#    z 0.000000 0.000000 1.981590 
# 
# From -- ./inp_files/1110.got.cif
#   From: 2010.03.12/outbox.cif.g09.slc.cpg/sg59_1_cif.got.tgz:1110.got - 2010.04.16 16:29:54.
