data_PCOD8246784
_publ_section_title
;
Structure prediction by ZEFSAII (Michael W. Deem and Ramdas Pophale) SiO2 
 PCOD8246784
Probable space group: P B C N
;
_chemical_formula_sum "Si O2"
_cell_formula_units_Z 40
_cell_length_a 9.130720
_cell_length_b 14.572871
_cell_length_c 14.072723
_cell_angle_alpha 90.000000
_cell_angle_beta 90.000000
_cell_angle_gamma 90.000000
_cell_volume 1872.527847
_symmetry_space_group_name_H-M "P B C N"
_symmetry_group_IT_number 60
_symmetry_cell_setting 'orthorhombic'
loop_
_space_group_symop_operation_xyz
x,y,z
1/2-x,1/2-y,1/2+z
1/2+x,1/2-y,-z
-x,y,1/2-z
-x,-y,-z
1/2+x,1/2+y,1/2-z
1/2-x,1/2+y,z
x,-y,1/2+z
loop_
_atom_site_type_symbol
_atom_site_label
_atom_site_fract_x
_atom_site_fract_y
_atom_site_fract_z
Si Si1 0.585005 0.051235 0.157911
Si Si2 0.777139 0.350817 0.311580
Si Si3 0.836528 0.053038 0.286414
Si Si4 0.592299 0.143466 0.610224
Si Si5 0.339176 0.182225 0.092018
O O1 0.500000 0.007351 0.250000
O O2 0.494209 0.133384 0.113112
O O3 0.739795 0.087820 0.196803
O O4 0.609957 0.965765 0.087467
O O5 0.702175 0.450218 0.319359
O O6 0.815513 0.327359 0.202684
O O7 0.659809 0.278574 0.352665
O O8 0.919874 0.337814 0.377591
O O9 0.000000 0.063106 0.250000
O O10 0.799808 0.120463 0.374619
O O11 0.662486 0.197921 0.521476
#
# Coordination Sequence:
#
# PCOD8246784 Si02
#       5
#     8   8   8   8   8
#     4   9  17  39  66  91 121 177 210 265 327 392
#     4  10  22  43  64  96 137 169 212 282 329 381
#     4  10  22  41  63  95 135 171 212 277 330 381
#     4  10  19  43  68  91 135 171 218 268 335 395
#     4  11  22  39  70  97 121 179 229 260 332 409
#
# _framework density 21.361499999999999
#
# number of rings (size 3 to 8) (size 9 to 14) (size 15 to 20)
#    0.000    2.000    6.000    0.600    2.800    2.400 
#   18.000    4.000    0.000    0.000    0.000    0.000 
#    0.000    0.000    0.000    0.000    0.000    0.000 
#
# Total GULP energy -495871.290714 kJ/mol
# GULP energy per Si atom -12396.782268 kJ/mol
# Density = 2.131288 g / cm^3
# Si number density = 21.361500 Si / 1000 Ang^3
#
#
#
# Elastic Constant Matrix: (Units=GPa)
#
#
# Indices 1 2 3 4 5 6 
#
# 1 116.1777 20.3010 48.0888 0.0000 0.0000 0.0000
# 2 20.3010 79.4199 44.7495 0.0000 0.0000 0.0000
# 3 48.0888 44.7495 120.7868 0.0000 0.0000 0.0000
# 4 0.0000 0.0000 0.0000 29.0822 0.0000 0.0000
# 5 0.0000 0.0000 0.0000 0.0000 28.7584 0.0000
# 6 0.0000 0.0000 0.0000 0.0000 0.0000 24.8470
#
#
#
# Elastic Compliance Matrix: (Units=1/GPa)
#
#
# Indices 1 2 3 4 5 6 
#
# 1 0.010316 -0.000408 -0.003956 0.000000 0.000000 0.000000
# 2 -0.000408 0.015929 -0.005739 0.000000 0.000000 0.000000
# 3 -0.003956 -0.005739 0.011980 0.000000 0.000000 0.000000
# 4 0.000000 0.000000 0.000000 0.034385 0.000000 0.000000
# 5 0.000000 0.000000 0.000000 0.000000 0.034772 0.000000
# 6 0.000000 0.000000 0.000000 0.000000 0.000000 0.040246
#
#
# Mechanical properties :
#
#
# Convention : Reuss Voigt Hill
#
# Bulk Modulus (GPa) = 55.49500 60.29589 57.89545
# Shear Modulus (GPa) = 28.76158 30.08717 29.42438
#
# Velocity S-wave (km/s) = 3.67334 3.75704 3.71543
# Velocity P-wave (km/s) = 6.63526 6.86354 6.75036
#
# Compressibility (1/GPa) = 0.01801964
#
# Stress axis : x y z
#
# Youngs Moduli (GPa) = 96.93380 62.77731 83.47007
#
# Poissons Ratio (x) = 0.02561 0.33022
# Poissons Ratio (y) = 0.03954 0.47905
# Poissons Ratio (z) = 0.38348 0.36029
#
# Static dielectric constant tensor:
#      x y z
#    x 3.867710 0.000000 0.000000 
#    y 0.000000 3.728700 0.000000 
#    z 0.000000 0.000000 3.814280 
# 
# 
# High freq. dielectric constant tensor:
#      x y z
#    x 1.823860 0.000000 0.000000 
#    y 0.000000 1.833250 0.000000 
#    z 0.000000 0.000000 1.825900 
# 
# From -- ./inp_files/19142.got.cif
#   From: 2010.03.12/outbox.cif.g09.slc.cpg/sg60_10_cif.got.tgz:19142.got - 2010.04.10 18:46:24.
