data_PCOD8246175
_publ_section_title
;
Structure prediction by ZEFSAII (Michael W. Deem and Ramdas Pophale) SiO2 
 PCOD8246175
Probable space group: P M M N
;
_chemical_formula_sum "Si O2"
_cell_formula_units_Z 64
_cell_length_a 9.162744
_cell_length_b 20.105989
_cell_length_c 20.108674
_cell_angle_alpha 90.000000
_cell_angle_beta 90.000000
_cell_angle_gamma 90.000000
_cell_volume 3704.541181
_symmetry_space_group_name_H-M "P M M N"
_symmetry_group_IT_number 59
_space_group.IT_coordinate_system_code '2'
_symmetry_cell_setting 'orthorhombic'
loop_
_space_group_symop_operation_xyz
x,y,z
1/2-x,1/2-y,z
1/2+x,-y,-z
-x,1/2+y,-z
-x,-y,-z
1/2+x,1/2+y,-z
1/2-x,y,z
x,1/2-y,z
loop_
_atom_site_type_symbol
_atom_site_label
_atom_site_fract_x
_atom_site_fract_y
_atom_site_fract_z
Si Si1 0.421584 0.174714 0.104019
Si Si2 0.421281 0.893430 0.396786
Si Si3 0.920089 0.965279 0.656568
Si Si4 0.921361 0.931355 0.516144
Si Si5 0.076216 0.058473 0.197918
Si Si6 0.420922 0.673966 0.032340
Si Si7 0.423551 0.915807 0.153215
Si Si8 0.577149 0.177543 0.732656
O O1 0.250000 0.166218 0.093337
O O2 0.460814 0.250000 0.126219
O O3 0.481573 0.124029 0.160047
O O4 0.497358 0.156103 0.035185
O O5 0.250000 0.896345 0.413054
O O6 0.507262 0.877594 0.465868
O O7 0.462739 0.836997 0.343913
O O8 0.478665 0.962334 0.364493
O O9 0.750000 0.973447 0.670150
O O10 0.949666 0.914364 0.594652
O O11 0.989493 0.940812 0.726572
O O12 0.750000 0.938055 0.502474
O O13 0.000000 0.000000 0.500000
O O14 0.250000 0.059842 0.200090
O O15 0.022592 0.992254 0.158368
O O16 0.250000 0.664594 0.020031
O O17 0.454411 0.750000 0.055063
O O18 0.480213 0.621762 0.087203
O O19 0.250000 0.913124 0.154342
O O20 0.488746 0.876794 0.217026
O O21 0.750000 0.176887 0.740869
O O22 0.513692 0.250000 0.750800
#
# Coordination Sequence:
#
# PCOD8246175 Si02
#       8
#     8   8   8   8   8   8   8   8
#     4   9  18  31  46  64  84 110 145 179 215 262
#     4   9  15  25  41  62  87 112 142 178 216 257
#     4   8  13  23  39  61  84 106 135 174 216 252
#     4   9  16  25  41  63  86 112 143 177 215 259
#     4   9  15  25  43  64  87 112 139 180 223 255
#     4   9  17  29  45  65  89 114 140 174 215 259
#     4   9  15  24  41  66  90 111 142 182 221 257
#     4   9  15  23  39  64  91 116 146 185 222 259
#
# _framework density 17.276092999999999
#
# number of rings (size 3 to 8) (size 9 to 14) (size 15 to 20)
#    0.000    3.125    1.250    1.500    0.000    2.000 
#    0.000    0.000    0.000    5.625    0.000    1.750 
#    0.000    0.000    0.000    0.000    0.000    0.000 
#
# Total GULP energy -792885.361376 kJ/mol
# GULP energy per Si atom -12388.833772 kJ/mol
# Density = 1.723677 g / cm^3
# Si number density = 17.276093 Si / 1000 Ang^3
#
#
#
# Elastic Constant Matrix: (Units=GPa)
#
#
# Indices 1 2 3 4 5 6 
#
# 1 26.4883 15.1076 29.2008 0.0000 0.0000 0.0000
# 2 15.1076 99.8461 73.9501 0.0000 0.0000 0.0000
# 3 29.2008 73.9501 147.5379 0.0000 0.0000 0.0000
# 4 0.0000 0.0000 0.0000 23.1276 0.0000 0.0000
# 5 0.0000 0.0000 0.0000 0.0000 22.9228 0.0000
# 6 0.0000 0.0000 0.0000 0.0000 0.0000 10.1968
#
#
#
# Elastic Compliance Matrix: (Units=1/GPa)
#
#
# Indices 1 2 3 4 5 6 
#
# 1 0.048297 -0.000363 -0.009377 0.000000 0.000000 0.000000
# 2 -0.000363 0.015931 -0.007913 0.000000 0.000000 0.000000
# 3 -0.009377 -0.007913 0.012600 0.000000 0.000000 0.000000
# 4 0.000000 0.000000 0.000000 0.043238 0.000000 0.000000
# 5 0.000000 0.000000 0.000000 0.000000 0.043625 0.000000
# 6 0.000000 0.000000 0.000000 0.000000 0.000000 0.098070
#
#
# Mechanical properties :
#
#
# Convention : Reuss Voigt Hill
#
# Bulk Modulus (GPa) = 24.08364 56.70992 40.39678
# Shear Modulus (GPa) = 16.08190 21.62369 18.85280
#
# Velocity S-wave (km/s) = 3.05434 3.54171 3.30701
# Velocity P-wave (km/s) = 5.13900 7.04428 6.16568
#
# Compressibility (1/GPa) = 0.04152196
#
# Stress axis : x y z
#
# Youngs Moduli (GPa) = 20.70527 62.76952 79.36319
#
# Poissons Ratio (x) = 0.02276 0.74421
# Poissons Ratio (y) = 0.00751 0.62804
# Poissons Ratio (z) = 0.19416 0.49672
#
# Static dielectric constant tensor:
#      x y z
#    x 2.881360 0.000000 0.000000 
#    y 0.000000 3.272690 0.000000 
#    z 0.000000 0.000000 3.726410 
# 
# 
# High freq. dielectric constant tensor:
#      x y z
#    x 1.611210 0.000000 0.000000 
#    y 0.000000 1.642700 0.000000 
#    z 0.000000 0.000000 1.681430 
# 
# From -- ./inp_files/29767.got.cif
#   From: 2010.03.12/outbox.cif.g09.slc.cpg/sg59_15_cif.got.tgz:29767.got - 2010.04.16 16:29:54.
