data_PCOD8246200
_publ_section_title
;
Structure prediction by ZEFSAII (Michael W. Deem and Ramdas Pophale) SiO2 
 PCOD8246200
Probable space group: P M M N
;
_chemical_formula_sum "Si O2"
_cell_formula_units_Z 48
_cell_length_a 9.438034
_cell_length_b 9.801122
_cell_length_c 30.714181
_cell_angle_alpha 90.000000
_cell_angle_beta 90.000000
_cell_angle_gamma 90.000000
_cell_volume 2841.163796
_symmetry_space_group_name_H-M "P M M N"
_symmetry_group_IT_number 59
_space_group.IT_coordinate_system_code '2'
_symmetry_cell_setting 'orthorhombic'
loop_
_space_group_symop_operation_xyz
x,y,z
1/2-x,1/2-y,z
1/2+x,-y,-z
-x,1/2+y,-z
-x,-y,-z
1/2+x,1/2+y,-z
1/2-x,y,z
x,1/2-y,z
loop_
_atom_site_type_symbol
_atom_site_label
_atom_site_fract_x
_atom_site_fract_y
_atom_site_fract_z
Si Si1 0.916417 0.406332 0.032956
Si Si2 0.585735 0.591619 0.467005
Si Si3 0.909381 0.587582 0.790459
Si Si4 0.418270 0.400973 0.630249
Si Si5 0.415469 0.908310 0.707167
Si Si6 0.592723 0.412102 0.130394
O O1 0.750000 0.423789 0.025138
O O2 0.962272 0.250000 0.025457
O O3 0.956644 0.453838 0.081928
O O4 0.000000 0.500000 0.000000
O O5 0.500000 0.500000 0.500000
O O6 0.750000 0.554011 0.471576
O O7 0.559928 0.750000 0.477794
O O8 0.530377 0.558321 0.418150
O O9 0.750000 0.529321 0.787808
O O10 0.907810 0.750000 0.792151
O O11 0.998101 0.538077 0.748775
O O12 0.983449 0.528492 0.834047
O O13 0.250000 0.398281 0.629910
O O14 0.475416 0.250000 0.642515
O O15 0.473799 0.509711 0.665404
O O16 0.250000 0.935827 0.716086
O O17 0.444608 0.750000 0.697896
O O18 0.750000 0.470585 0.140098
O O19 0.599547 0.250000 0.133435
#
# Coordination Sequence:
#
# PCOD8246200 Si02
#       6
#     8   8   8   8   8   8
#     4   9  18  31  47  69  95 122 154 192 233 276
#     4   9  18  32  49  70  95 122 154 192 232 273
#     4   9  16  25  39  62  90 115 140 176 222 265
#     4   8  15  29  47  65  87 116 149 183 217 258
#     4   9  16  26  43  66  87 109 141 179 217 257
#     4   8  14  26  43  62  86 116 149 184 220 261
#
# _framework density 16.894485
#
# number of rings (size 3 to 8) (size 9 to 14) (size 15 to 20)
#    0.000    3.333    0.000    2.500    0.000    4.000 
#    0.000    4.167    0.000    4.500    0.000    2.333 
#    0.000    0.000    0.000    0.000    0.000    0.000 
#
# Total GULP energy -594960.073140 kJ/mol
# GULP energy per Si atom -12395.001524 kJ/mol
# Density = 1.685603 g / cm^3
# Si number density = 16.894485 Si / 1000 Ang^3
#
#
#
# Elastic Constant Matrix: (Units=GPa)
#
#
# Indices 1 2 3 4 5 6 
#
# 1 77.3996 39.0671 74.7878 0.0000 0.0000 0.0000
# 2 39.0671 55.0180 67.6790 0.0000 0.0000 0.0000
# 3 74.7878 67.6790 170.2826 0.0000 0.0000 0.0000
# 4 0.0000 0.0000 0.0000 26.7002 0.0000 0.0000
# 5 0.0000 0.0000 0.0000 0.0000 29.7176 0.0000
# 6 0.0000 0.0000 0.0000 0.0000 0.0000 18.8015
#
#
#
# Elastic Compliance Matrix: (Units=1/GPa)
#
#
# Indices 1 2 3 4 5 6 
#
# 1 0.024126 -0.008016 -0.007410 0.000000 0.000000 0.000000
# 2 -0.008016 0.038227 -0.011673 0.000000 0.000000 0.000000
# 3 -0.007410 -0.011673 0.013766 0.000000 0.000000 0.000000
# 4 0.000000 0.000000 0.000000 0.037453 0.000000 0.000000
# 5 0.000000 0.000000 0.000000 0.000000 0.033650 0.000000
# 6 0.000000 0.000000 0.000000 0.000000 0.000000 0.053187
#
#
# Mechanical properties :
#
#
# Convention : Reuss Voigt Hill
#
# Bulk Modulus (GPa) = 45.61706 73.97420 59.79563
# Shear Modulus (GPa) = 19.09023 23.12162 21.10592
#
# Velocity S-wave (km/s) = 3.36515 3.70346 3.53835
# Velocity P-wave (km/s) = 6.49297 7.88470 7.22244
#
# Compressibility (1/GPa) = 0.02192162
#
# Stress axis : x y z
#
# Youngs Moduli (GPa) = 41.44882 26.15979 72.64058
#
# Poissons Ratio (x) = 0.20970 0.53828
# Poissons Ratio (y) = 0.33225 0.84790
# Poissons Ratio (z) = 0.30714 0.30535
#
# Static dielectric constant tensor:
#      x y z
#    x 3.106670 0.000000 0.000000 
#    y 0.000000 2.491580 0.000000 
#    z 0.000000 0.000000 3.443140 
# 
# 
# High freq. dielectric constant tensor:
#      x y z
#    x 1.633810 0.000000 0.000000 
#    y 0.000000 1.611610 0.000000 
#    z 0.000000 0.000000 1.664870 
# 
# From -- ./inp_files/32474.got.cif
#   From: 2010.03.12/outbox.cif.g09.slc.cpg/sg59_17_cif.got.tgz:32474.got - 2010.04.16 16:29:54.
