data_PCOD8246238
_publ_section_title
;
Structure prediction by ZEFSAII (Michael W. Deem and Ramdas Pophale) SiO2 
 PCOD8246238
Probable space group: P M M N
;
_chemical_formula_sum "Si O2"
_cell_formula_units_Z 40
_cell_length_a 13.492250
_cell_length_b 9.553088
_cell_length_c 18.617546
_cell_angle_alpha 90.000000
_cell_angle_beta 90.000000
_cell_angle_gamma 90.000000
_cell_volume 2399.664870
_symmetry_space_group_name_H-M "P M M N"
_symmetry_group_IT_number 59
_space_group.IT_coordinate_system_code '2'
_symmetry_cell_setting 'orthorhombic'
loop_
_space_group_symop_operation_xyz
x,y,z
1/2-x,1/2-y,z
1/2+x,-y,-z
-x,1/2+y,-z
-x,-y,-z
1/2+x,1/2+y,-z
1/2-x,y,z
x,1/2-y,z
loop_
_atom_site_type_symbol
_atom_site_label
_atom_site_fract_x
_atom_site_fract_y
_atom_site_fract_z
Si Si1 0.636298 0.088254 0.040316
Si Si2 0.445331 0.913386 0.398046
Si Si3 0.138535 0.583792 0.247676
Si Si4 0.360408 0.089956 0.522766
Si Si5 0.028766 0.586962 0.106479
O O1 0.750000 0.043574 0.048211
O O2 0.619992 0.250000 0.059808
O O3 0.573367 0.996042 0.095712
O O4 0.603600 0.058085 0.958817
O O5 0.420725 0.750000 0.405847
O O6 0.420726 0.966886 0.318192
O O7 0.560808 0.946472 0.414637
O O8 0.375517 0.993504 0.453671
O O9 0.250000 0.522149 0.249113
O O10 0.143514 0.750000 0.244022
O O11 0.080951 0.527376 0.177947
O O12 0.250000 0.064358 0.553718
O O13 0.374570 0.250000 0.497759
O O14 0.002369 0.750000 0.113550
#
# Coordination Sequence:
#
# PCOD8246238 Si02
#       5
#     8   8   8   8   8
#     4   9  17  30  47  65  88 119 149 178 217 262
#     4   9  17  29  46  67  88 113 147 181 213 257
#     4   9  16  27  45  68  91 113 140 178 221 260
#     4   9  17  29  44  63  89 118 145 177 217 256
#     4   9  17  29  46  68  90 113 146 184 218 256
#
# _framework density 16.668994999999999
#
# number of rings (size 3 to 8) (size 9 to 14) (size 15 to 20)
#    0.000    3.000    0.000    1.200    0.000    4.000 
#    0.000    2.000    0.000    6.600    0.000    0.000 
#    0.000    0.000    0.000    0.000    0.000    0.000 
#
# Total GULP energy -495959.589966 kJ/mol
# GULP energy per Si atom -12398.989749 kJ/mol
# Density = 1.663106 g / cm^3
# Si number density = 16.668995 Si / 1000 Ang^3
#
#
#
# Elastic Constant Matrix: (Units=GPa)
#
#
# Indices 1 2 3 4 5 6 
#
# 1 154.2175 44.1833 78.3767 0.0000 0.0000 0.0000
# 2 44.1833 36.8645 35.5811 0.0000 0.0000 0.0000
# 3 78.3767 35.5811 129.8426 0.0000 0.0000 0.0000
# 4 0.0000 0.0000 0.0000 20.8923 0.0000 0.0000
# 5 0.0000 0.0000 0.0000 0.0000 22.4749 0.0000
# 6 0.0000 0.0000 0.0000 0.0000 0.0000 24.4693
#
#
#
# Elastic Compliance Matrix: (Units=1/GPa)
#
#
# Indices 1 2 3 4 5 6 
#
# 1 0.011377 -0.009528 -0.004257 0.000000 0.000000 0.000000
# 2 -0.009528 0.044859 -0.006542 0.000000 0.000000 0.000000
# 3 -0.004257 -0.006542 0.012064 0.000000 0.000000 0.000000
# 4 0.000000 0.000000 0.000000 0.047865 0.000000 0.000000
# 5 0.000000 0.000000 0.000000 0.000000 0.044494 0.000000
# 6 0.000000 0.000000 0.000000 0.000000 0.000000 0.040868
#
#
# Mechanical properties :
#
#
# Convention : Reuss Voigt Hill
#
# Bulk Modulus (GPa) = 36.16863 70.80074 53.48469
# Shear Modulus (GPa) = 19.88897 24.41954 22.15425
#
# Velocity S-wave (km/s) = 3.45798 3.83164 3.64960
# Velocity P-wave (km/s) = 6.13912 7.88302 7.06508
#
# Compressibility (1/GPa) = 0.02764826
#
# Stress axis : x y z
#
# Youngs Moduli (GPa) = 87.89340 22.29183 82.89191
#
# Poissons Ratio (x) = 0.21239 0.35286
# Poissons Ratio (y) = 0.83740 0.54227
# Poissons Ratio (z) = 0.37415 0.14583
#
# Static dielectric constant tensor:
#      x y z
#    x 3.277520 0.000000 0.000000 
#    y 0.000000 2.956100 0.000000 
#    z 0.000000 0.000000 3.134270 
# 
# 
# High freq. dielectric constant tensor:
#      x y z
#    x 1.650950 0.000000 0.000000 
#    y 0.000000 1.619350 0.000000 
#    z 0.000000 0.000000 1.629680 
# 
# From -- ./inp_files/22166.got.cif
#   From: 2010.03.12/outbox.cif.g09.slc.cpg/sg59_12_cif.got.tgz:22166.got - 2010.04.16 16:29:54.
