data_PCOD8246932
_publ_section_title
;
Structure prediction by ZEFSAII (Michael W. Deem and Ramdas Pophale) SiO2 
 PCOD8246932
Probable space group: P B C N
;
_chemical_formula_sum "Si O2"
_cell_formula_units_Z 44
_cell_length_a 10.857533
_cell_length_b 23.372880
_cell_length_c 8.343124
_cell_angle_alpha 90.000000
_cell_angle_beta 90.000000
_cell_angle_gamma 90.000000
_cell_volume 2117.249728
_symmetry_space_group_name_H-M "P B C N"
_symmetry_group_IT_number 60
_symmetry_cell_setting 'orthorhombic'
loop_
_space_group_symop_operation_xyz
x,y,z
1/2-x,1/2-y,1/2+z
1/2+x,1/2-y,-z
-x,y,1/2-z
-x,-y,-z
1/2+x,1/2+y,1/2-z
1/2-x,1/2+y,z
x,-y,1/2+z
loop_
_atom_site_type_symbol
_atom_site_label
_atom_site_fract_x
_atom_site_fract_y
_atom_site_fract_z
Si Si1 0.500000 0.107506 0.750000
Si Si2 0.191695 0.681622 0.929648
Si Si3 0.800334 0.927547 0.965160
Si Si4 0.722787 0.964826 0.315530
Si Si5 0.618626 0.715276 0.846632
Si Si6 0.552407 0.405557 0.427798
O O1 0.568391 0.149234 0.626134
O O2 0.408673 0.065170 0.650045
O O3 0.263686 0.638975 0.050013
O O4 0.273309 0.696962 0.774719
O O5 0.163276 0.737639 0.029593
O O6 0.758048 0.949265 0.137348
O O7 0.949806 0.929709 0.947771
O O8 0.727557 0.966156 0.835129
O O9 0.822553 0.941798 0.445327
O O10 0.500000 0.738387 0.750000
O O11 0.581400 0.661185 0.956724
O O12 0.500000 0.411777 0.250000
#
# Coordination Sequence:
#
# PCOD8246932 Si02
#       6
#     4   8   8   8   8   8
#     4  10  22  40  60  88 128 164 202 256 328 376
#     4  11  24  40  65  92 124 169 209 259 318 378
#     4  10  20  40  60  87 121 160 205 255 310 370
#     4  10  20  36  62  86 120 162 200 255 310 372
#     4  11  22  43  67  87 129 166 210 266 311 372
#     4   9  16  37  63  82 115 160 199 247 311 354
#
# _framework density 20.781677999999999
#
# number of rings (size 3 to 8) (size 9 to 14) (size 15 to 20)
#    0.000    1.818    7.273    0.545    2.545    2.909 
#    8.182    0.000    0.000    0.000    0.000    0.000 
#    0.000    0.000    0.000    0.000    0.000    0.000 
#
# Total GULP energy -545338.392223 kJ/mol
# GULP energy per Si atom -12394.054369 kJ/mol
# Density = 2.073438 g / cm^3
# Si number density = 20.781678 Si / 1000 Ang^3
#
#
#
# Elastic Constant Matrix: (Units=GPa)
#
#
# Indices 1 2 3 4 5 6 
#
# 1 136.2014 48.5629 20.0696 0.0000 0.0000 0.0000
# 2 48.5629 114.8685 26.4007 0.0000 0.0000 0.0000
# 3 20.0696 26.4007 20.2454 0.0000 0.0000 0.0000
# 4 0.0000 0.0000 0.0000 39.7732 0.0000 0.0000
# 5 0.0000 0.0000 0.0000 0.0000 11.8078 0.0000
# 6 0.0000 0.0000 0.0000 0.0000 0.0000 33.7284
#
#
#
# Elastic Compliance Matrix: (Units=1/GPa)
#
#
# Indices 1 2 3 4 5 6 
#
# 1 0.009085 -0.002529 -0.005708 0.000000 0.000000 0.000000
# 2 -0.002529 0.013135 -0.014622 0.000000 0.000000 0.000000
# 3 -0.005708 -0.014622 0.074120 0.000000 0.000000 0.000000
# 4 0.000000 0.000000 0.000000 0.025143 0.000000 0.000000
# 5 0.000000 0.000000 0.000000 0.000000 0.084690 0.000000
# 6 0.000000 0.000000 0.000000 0.000000 0.000000 0.029649
#
#
# Mechanical properties :
#
#
# Convention : Reuss Voigt Hill
#
# Bulk Modulus (GPa) = 19.75420 51.26462 35.50941
# Shear Modulus (GPa) = 16.75526 28.81402 22.78464
#
# Velocity S-wave (km/s) = 2.84254 3.72763 3.31476
# Velocity P-wave (km/s) = 4.50551 6.57637 5.63685
#
# Compressibility (1/GPa) = 0.05062215
#
# Stress axis : x y z
#
# Youngs Moduli (GPa) = 110.07323 76.13023 13.49158
#
# Poissons Ratio (x) = 0.19252 0.07701
# Poissons Ratio (y) = 0.27836 0.19728
# Poissons Ratio (z) = 0.62833 1.11318
#
# Static dielectric constant tensor:
#      x y z
#    x 4.291040 0.000000 0.000000 
#    y 0.000000 4.115300 0.000000 
#    z 0.000000 0.000000 3.224300 
# 
# 
# High freq. dielectric constant tensor:
#      x y z
#    x 1.827420 0.000000 0.000000 
#    y 0.000000 1.827990 0.000000 
#    z 0.000000 0.000000 1.763610 
# 
# From -- ./inp_files/4990.got.cif
#   From: 2010.03.12/outbox.cif.g09.slc.cpg/sg60_3_cif.got.tgz:4990.got - 2010.04.10 18:46:24.
