data_PCOD8246821
_publ_section_title
;
Structure prediction by ZEFSAII (Michael W. Deem and Ramdas Pophale) SiO2 
 PCOD8246821
Probable space group: P B C N
;
_chemical_formula_sum "Si O2"
_cell_formula_units_Z 64
_cell_length_a 8.613827
_cell_length_b 20.618603
_cell_length_c 19.637909
_cell_angle_alpha 90.000000
_cell_angle_beta 90.000000
_cell_angle_gamma 90.000000
_cell_volume 3487.792384
_symmetry_space_group_name_H-M "P B C N"
_symmetry_group_IT_number 60
_symmetry_cell_setting 'orthorhombic'
loop_
_space_group_symop_operation_xyz
x,y,z
1/2-x,1/2-y,1/2+z
1/2+x,1/2-y,-z
-x,y,1/2-z
-x,-y,-z
1/2+x,1/2+y,1/2-z
1/2-x,1/2+y,z
x,-y,1/2+z
loop_
_atom_site_type_symbol
_atom_site_label
_atom_site_fract_x
_atom_site_fract_y
_atom_site_fract_z
Si Si1 0.688188 0.241605 0.678699
Si Si2 0.303653 0.440512 0.963655
Si Si3 0.811508 0.112885 0.177312
Si Si4 0.680233 0.613580 0.326172
Si Si5 0.179232 0.259276 0.173789
Si Si6 0.171124 0.929236 0.531495
Si Si7 0.193369 0.304722 0.461831
Si Si8 0.172928 0.317915 0.035179
O O1 0.754281 0.314350 0.667385
O O2 0.504224 0.246076 0.676680
O O3 0.742882 0.214900 0.752889
O O4 0.743036 0.194252 0.618155
O O5 0.248476 0.431637 0.884845
O O6 0.486701 0.432485 0.970316
O O7 0.252559 0.511608 0.989773
O O8 0.221373 0.389220 0.012556
O O9 0.757955 0.087018 0.252590
O O10 0.995700 0.114446 0.175093
O O11 0.743864 0.686524 0.338981
O O12 0.734149 0.569297 0.390131
O O13 0.229915 0.307256 0.113278
O O14 0.214978 0.861592 0.497815
O O15 0.241913 0.234928 0.489511
O O16 0.010771 0.311832 0.472295
#
# Coordination Sequence:
#
# PCOD8246821 Si02
#       8
#     8   8   8   8   8   8   8   8
#     4   8  14  26  47  73  96 124 166 207 242 292
#     4  10  20  34  51  74 104 135 169 209 250 295
#     4   8  13  25  47  71  94 127 171 206 237 291
#     4   8  13  25  47  71  94 127 171 206 237 291
#     4   8  14  26  47  73  96 124 166 207 242 292
#     4  10  20  34  51  74 104 135 169 209 250 295
#     4  11  20  32  53  77 102 129 164 208 253 300
#     4  11  20  32  53  77 102 129 164 208 253 300
#
# _framework density 18.349716000000001
#
# number of rings (size 3 to 8) (size 9 to 14) (size 15 to 20)
#    0.000    2.750    2.500    2.250    0.000    0.500 
#    0.000    1.250    0.000    6.750    0.000    0.000 
#    0.000    0.000    0.000    0.000    0.000    0.000 
#
# Total GULP energy -792902.238917 kJ/mol
# GULP energy per Si atom -12389.097483 kJ/mol
# Density = 1.830795 g / cm^3
# Si number density = 18.349716 Si / 1000 Ang^3
#
#
#
# Elastic Constant Matrix: (Units=GPa)
#
#
# Indices 1 2 3 4 5 6 
#
# 1 12.8840 3.4984 7.7633 0.0000 0.0000 0.0000
# 2 3.4984 46.4587 33.7998 0.0000 0.0000 0.0000
# 3 7.7633 33.7998 166.7106 0.0000 0.0000 0.0000
# 4 0.0000 0.0000 0.0000 29.0089 0.0000 0.0000
# 5 0.0000 0.0000 0.0000 0.0000 9.0048 0.0000
# 6 0.0000 0.0000 0.0000 0.0000 0.0000 36.6558
#
#
#
# Elastic Compliance Matrix: (Units=1/GPa)
#
#
# Indices 1 2 3 4 5 6 
#
# 1 0.080457 -0.003909 -0.002954 0.000000 0.000000 0.000000
# 2 -0.003909 0.025439 -0.004976 0.000000 0.000000 0.000000
# 3 -0.002954 -0.004976 0.007145 0.000000 0.000000 0.000000
# 4 0.000000 0.000000 0.000000 0.034472 0.000000 0.000000
# 5 0.000000 0.000000 0.000000 0.000000 0.111051 0.000000
# 6 0.000000 0.000000 0.000000 0.000000 0.000000 0.027281
#
#
# Mechanical properties :
#
#
# Convention : Reuss Voigt Hill
#
# Bulk Modulus (GPa) = 11.19035 35.13071 23.16053
# Shear Modulus (GPa) = 14.73576 27.00003 20.86789
#
# Velocity S-wave (km/s) = 2.83689 3.84006 3.37595
# Velocity P-wave (km/s) = 4.10393 6.23282 5.27685
#
# Compressibility (1/GPa) = 0.08936273
#
# Stress axis : x y z
#
# Youngs Moduli (GPa) = 12.42895 39.31016 139.96284
#
# Poissons Ratio (x) = 0.15368 0.41346
# Poissons Ratio (y) = 0.04859 0.69639
# Poissons Ratio (z) = 0.03672 0.19559
#
# Static dielectric constant tensor:
#      x y z
#    x 2.899010 0.000000 0.000000 
#    y 0.000000 3.543990 0.000000 
#    z 0.000000 0.000000 4.466990 
# 
# 
# High freq. dielectric constant tensor:
#      x y z
#    x 1.664000 0.000000 0.000000 
#    y 0.000000 1.676320 0.000000 
#    z 0.000000 0.000000 1.740170 
# 
# From -- ./inp_files/22429.got.cif
#   From: 2010.03.12/outbox.cif.g09.slc.cpg/sg60_12_cif.got.tgz:22429.got - 2010.04.10 18:46:24.
