data_PCOD8246664
_publ_section_title
;
Structure prediction by ZEFSAII (Michael W. Deem and Ramdas Pophale) SiO2 
 PCOD8246664
Probable space group: P B C N
;
_chemical_formula_sum "Si O2"
_cell_formula_units_Z 56
_cell_length_a 15.158036
_cell_length_b 19.312170
_cell_length_c 9.278577
_cell_angle_alpha 90.000000
_cell_angle_beta 90.000000
_cell_angle_gamma 90.000000
_cell_volume 2716.160231
_symmetry_space_group_name_H-M "P B C N"
_symmetry_group_IT_number 60
_symmetry_cell_setting 'orthorhombic'
loop_
_space_group_symop_operation_xyz
x,y,z
1/2-x,1/2-y,1/2+z
1/2+x,1/2-y,-z
-x,y,1/2-z
-x,-y,-z
1/2+x,1/2+y,1/2-z
1/2-x,1/2+y,z
x,-y,1/2+z
loop_
_atom_site_type_symbol
_atom_site_label
_atom_site_fract_x
_atom_site_fract_y
_atom_site_fract_z
Si Si1 0.500000 0.506775 0.750000
Si Si2 0.780965 0.807187 0.160004
Si Si3 0.644193 0.603263 0.194606
Si Si4 0.859301 0.092995 0.883297
Si Si5 0.710135 0.985623 0.820762
Si Si6 0.137095 0.583976 0.911988
Si Si7 0.852355 0.235192 0.362244
Si Si8 0.500000 0.164578 0.750000
O O1 0.423338 0.460580 0.818943
O O2 0.454232 0.555734 0.630572
O O3 0.848845 0.853977 0.251130
O O4 0.711648 0.857367 0.083858
O O5 0.734533 0.753324 0.268677
O O6 0.832051 0.766451 0.033047
O O7 0.740440 0.576848 0.240239
O O8 0.611858 0.660682 0.308539
O O9 0.646502 0.635398 0.033393
O O10 0.782321 0.035457 0.894258
O O11 0.651406 0.028261 0.711832
O O12 0.640810 0.954484 0.935298
O O13 0.043132 0.618829 0.877447
O O14 0.927454 0.291375 0.335069
#
# Coordination Sequence:
#
# PCOD8246664 Si02
#       8
#     4   8   8   8   8   8   8   4
#     4  10  23  32  56  92 135 158 194 252 324 374
#     4  10  22  39  64  86 120 162 212 252 301 374
#     4  11  20  35  60  90 122 167 202 255 312 377
#     4  10  21  36  57  93 123 162 203 256 309 380
#     4  10  19  35  64  88 121 158 209 252 316 370
#     4  10  20  40  61  92 123 158 205 262 312 377
#     4  11  22  41  63  90 122 167 212 258 307 372
#     4  10  25  40  62  90 129 172 212 258 322 362
#
# _framework density 20.617339999999999
#
# number of rings (size 3 to 8) (size 9 to 14) (size 15 to 20)
#    0.000    1.714    2.857    1.714    0.000    2.857 
#    0.000    0.000    0.000    1.714    0.000    0.000 
#    0.000    0.000    0.000    0.000    0.000    0.000 
#
# Total GULP energy -694404.825644 kJ/mol
# GULP energy per Si atom -12400.086172 kJ/mol
# Density = 2.057041 g / cm^3
# Si number density = 20.617340 Si / 1000 Ang^3
#
#
#
# Elastic Constant Matrix: (Units=GPa)
#
#
# Indices 1 2 3 4 5 6 
#
# 1 100.2178 48.9578 58.2287 0.0000 0.0000 0.0000
# 2 48.9578 80.6378 44.1456 0.0000 0.0000 0.0000
# 3 58.2287 44.1456 136.8311 0.0000 0.0000 0.0000
# 4 0.0000 0.0000 0.0000 33.3440 0.0000 0.0000
# 5 0.0000 0.0000 0.0000 0.0000 20.3022 0.0000
# 6 0.0000 0.0000 0.0000 0.0000 0.0000 22.6613
#
#
#
# Elastic Compliance Matrix: (Units=1/GPa)
#
#
# Indices 1 2 3 4 5 6 
#
# 1 0.016200 -0.007362 -0.004519 0.000000 0.000000 0.000000
# 2 -0.007362 0.018407 -0.002806 0.000000 0.000000 0.000000
# 3 -0.004519 -0.002806 0.010137 0.000000 0.000000 0.000000
# 4 0.000000 0.000000 0.000000 0.029990 0.000000 0.000000
# 5 0.000000 0.000000 0.000000 0.000000 0.049256 0.000000
# 6 0.000000 0.000000 0.000000 0.000000 0.000000 0.044128
#
#
# Mechanical properties :
#
#
# Convention : Reuss Voigt Hill
#
# Bulk Modulus (GPa) = 65.05912 68.92788 66.99350
# Shear Modulus (GPa) = 24.67745 26.35178 25.51462
#
# Velocity S-wave (km/s) = 3.46342 3.57898 3.52167
# Velocity P-wave (km/s) = 6.90056 7.11220 7.00718
#
# Compressibility (1/GPa) = 0.01537064
#
# Stress axis : x y z
#
# Youngs Moduli (GPa) = 61.72776 54.32807 98.65333
#
# Poissons Ratio (x) = 0.39995 0.44580
# Poissons Ratio (y) = 0.45442 0.27679
# Poissons Ratio (z) = 0.27894 0.15243
#
# Static dielectric constant tensor:
#      x y z
#    x 3.574380 0.000000 0.000000 
#    y 0.000000 3.809460 0.000000 
#    z 0.000000 0.000000 3.640830 
# 
# 
# High freq. dielectric constant tensor:
#      x y z
#    x 1.787220 0.000000 0.000000 
#    y 0.000000 1.806050 0.000000 
#    z 0.000000 0.000000 1.808710 
# 
# From -- ./inp_files/6201.got.cif
#   From: 2010.03.12/outbox.cif.g09.slc.cpg/sg60_4_cif.got.tgz:6201.got - 2010.04.10 18:46:24.
