data_PCOD8246377
_publ_section_title
;
Structure prediction by ZEFSAII (Michael W. Deem and Ramdas Pophale) SiO2 
 PCOD8246377
Probable space group: P B C N
;
_chemical_formula_sum "Si O2"
_cell_formula_units_Z 64
_cell_length_a 16.895829
_cell_length_b 25.894333
_cell_length_c 9.912939
_cell_angle_alpha 90.000000
_cell_angle_beta 90.000000
_cell_angle_gamma 90.000000
_cell_volume 4336.972495
_symmetry_space_group_name_H-M "P B C N"
_symmetry_group_IT_number 60
_symmetry_cell_setting 'orthorhombic'
loop_
_space_group_symop_operation_xyz
x,y,z
1/2-x,1/2-y,1/2+z
1/2+x,1/2-y,-z
-x,y,1/2-z
-x,-y,-z
1/2+x,1/2+y,1/2-z
1/2-x,1/2+y,z
x,-y,1/2+z
loop_
_atom_site_type_symbol
_atom_site_label
_atom_site_fract_x
_atom_site_fract_y
_atom_site_fract_z
Si Si1 0.047894 0.243927 0.879015
Si Si2 0.356854 0.845257 0.789095
Si Si3 0.443570 0.940297 0.868578
Si Si4 0.211537 0.218526 0.269913
Si Si5 0.939770 0.738835 0.630985
Si Si6 0.848337 0.356789 0.021445
Si Si7 0.448530 0.056048 0.873440
Si Si8 0.796060 0.796012 0.037512
O O1 0.089826 0.299262 0.852287
O O2 0.111863 0.199868 0.921102
O O3 0.000000 0.224223 0.750000
O O4 0.984703 0.245850 0.997092
O O5 0.372185 0.898571 0.871035
O O6 0.262846 0.833087 0.801327
O O7 0.379243 0.852836 0.632081
O O8 0.500000 0.920546 0.750000
O O9 0.414592 0.998847 0.839912
O O10 0.489431 0.941456 0.006933
O O11 0.121507 0.215215 0.325777
O O12 0.255987 0.264321 0.343773
O O13 0.211134 0.231019 0.109600
O O14 0.890362 0.687235 0.608076
O O15 0.000000 0.727540 0.750000
O O16 0.871265 0.410781 0.090192
O O17 0.752357 0.350228 0.029745
O O18 0.500000 0.078136 0.750000
#
# Coordination Sequence:
#
# PCOD8246377 Si02
#       8
#     8   8   8   8   8   8   8   8
#     4  11  19  30  46  66  88 122 154 178 215 264
#     4  10  18  31  48  61  85 122 156 172 213 274
#     4  10  18  31  47  62  87 117 147 182 215 256
#     4   9  19  31  43  63  87 117 147 185 219 255
#     4  11  19  29  44  65  93 116 147 190 216 249
#     4  10  18  31  46  63  87 120 150 179 218 260
#     4  10  20  30  43  67  90 111 146 188 219 246
#     4   9  19  31  44  62  88 116 149 182 218 259
#
# _framework density 14.756837000000001
#
# number of rings (size 3 to 8) (size 9 to 14) (size 15 to 20)
#    0.000    2.000    3.750    1.500    1.750    0.000 
#    2.250    0.000    0.000    0.000    0.000    0.000 
#    0.000    2.000    0.000    0.125    0.000    0.000 
#
# Total GULP energy -792976.678423 kJ/mol
# GULP energy per Si atom -12390.260600 kJ/mol
# Density = 1.472325 g / cm^3
# Si number density = 14.756837 Si / 1000 Ang^3
#
#
#
# Elastic Constant Matrix: (Units=GPa)
#
#
# Indices 1 2 3 4 5 6 
#
# 1 89.3903 42.5917 32.0379 0.0000 0.0000 0.0000
# 2 42.5917 64.6736 18.5897 0.0000 0.0000 0.0000
# 3 32.0379 18.5897 85.1021 0.0000 0.0000 0.0000
# 4 0.0000 0.0000 0.0000 16.2827 0.0000 0.0000
# 5 0.0000 0.0000 0.0000 0.0000 27.1267 0.0000
# 6 0.0000 0.0000 0.0000 0.0000 0.0000 24.8329
#
#
#
# Elastic Compliance Matrix: (Units=1/GPa)
#
#
# Indices 1 2 3 4 5 6 
#
# 1 0.017722 -0.010407 -0.004398 0.000000 0.000000 0.000000
# 2 -0.010407 0.022609 -0.001021 0.000000 0.000000 0.000000
# 3 -0.004398 -0.001021 0.013629 0.000000 0.000000 0.000000
# 4 0.000000 0.000000 0.000000 0.061415 0.000000 0.000000
# 5 0.000000 0.000000 0.000000 0.000000 0.036864 0.000000
# 6 0.000000 0.000000 0.000000 0.000000 0.000000 0.040269
#
#
# Mechanical properties :
#
#
# Convention : Reuss Voigt Hill
#
# Bulk Modulus (GPa) = 44.82634 47.28940 46.05787
# Shear Modulus (GPa) = 21.58926 23.37824 22.48375
#
# Velocity S-wave (km/s) = 3.82907 3.98456 3.90759
# Velocity P-wave (km/s) = 7.07048 7.29961 7.18595
#
# Compressibility (1/GPa) = 0.02230831
#
# Stress axis : x y z
#
# Youngs Moduli (GPa) = 56.42788 44.22979 73.37050
#
# Poissons Ratio (x) = 0.46028 0.32271
# Poissons Ratio (y) = 0.58722 0.07491
# Poissons Ratio (z) = 0.24819 0.04516
#
# Static dielectric constant tensor:
#      x y z
#    x 3.156120 0.000000 0.000000 
#    y 0.000000 2.803680 0.000000 
#    z 0.000000 0.000000 2.788760 
# 
# 
# High freq. dielectric constant tensor:
#      x y z
#    x 1.556190 0.000000 0.000000 
#    y 0.000000 1.521340 0.000000 
#    z 0.000000 0.000000 1.586590 
# 
# From -- ./inp_files/7077.got.cif
#   From: 2010.03.12/outbox.cif.g09.slc.cpg/sg60_4_cif.got.tgz:7077.got - 2010.04.10 18:46:24.
