data_PCOD8246667
_publ_section_title
;
Structure prediction by ZEFSAII (Michael W. Deem and Ramdas Pophale) SiO2 
 PCOD8246667
Probable space group: P B C N
;
_chemical_formula_sum "Si O2"
_cell_formula_units_Z 56
_cell_length_a 20.699908
_cell_length_b 15.167432
_cell_length_c 8.789531
_cell_angle_alpha 90.000000
_cell_angle_beta 90.000000
_cell_angle_gamma 90.000000
_cell_volume 2759.600240
_symmetry_space_group_name_H-M "P B C N"
_symmetry_group_IT_number 60
_symmetry_cell_setting 'orthorhombic'
loop_
_space_group_symop_operation_xyz
x,y,z
1/2-x,1/2-y,1/2+z
1/2+x,1/2-y,-z
-x,y,1/2-z
-x,-y,-z
1/2+x,1/2+y,1/2-z
1/2-x,1/2+y,z
x,-y,1/2+z
loop_
_atom_site_type_symbol
_atom_site_label
_atom_site_fract_x
_atom_site_fract_y
_atom_site_fract_z
Si Si1 0.167559 0.037624 0.336089
Si Si2 0.910148 0.185333 0.004838
Si Si3 0.668551 0.624369 0.478985
Si Si4 0.215867 0.640061 0.420809
Si Si5 0.000000 0.231013 0.750000
Si Si6 0.500000 0.770705 0.250000
Si Si7 0.911835 0.303829 0.504913
Si Si8 0.786944 0.727666 0.395078
O O1 0.126189 0.095685 0.454112
O O2 0.149710 0.062509 0.164481
O O3 0.244370 0.055372 0.365875
O O4 0.155532 0.934180 0.369769
O O5 0.858895 0.264447 0.967098
O O6 0.955471 0.169328 0.857156
O O7 0.954867 0.210152 0.146119
O O8 0.623185 0.709556 0.477123
O O9 0.744573 0.649091 0.469821
O O10 0.141588 0.619459 0.467089
O O11 0.250550 0.680788 0.568953
O O12 0.211774 0.714670 0.286906
O O13 0.957199 0.297357 0.650512
O O14 0.454135 0.830278 0.142598
#
# Coordination Sequence:
#
# PCOD8246667 Si02
#       8
#     8   8   8   8   4   4   8   8
#     4  10  21  35  51  74 105 135 166 209 255 300
#     4  10  19  36  52  77 104 131 173 212 249 298
#     4  10  21  35  51  74 105 135 166 209 255 300
#     4   9  18  32  53  76  99 127 166 217 261 293
#     4  10  20  30  57  76  97 136 176 204 246 306
#     4  10  20  34  53  72 107 138 170 210 246 294
#     4  10  19  36  52  77 104 131 173 212 249 298
#     4   9  18  32  53  76  99 127 166 217 261 293
#
# _framework density 20.292794000000001
#
# number of rings (size 3 to 8) (size 9 to 14) (size 15 to 20)
#    0.000    2.286    2.857    0.000    4.000    1.143 
#    0.000    4.286    0.000    0.000    0.000    6.000 
#    0.000    0.000    0.000    0.000    0.000    0.000 
#
# Total GULP energy -693897.765339 kJ/mol
# GULP energy per Si atom -12391.031524 kJ/mol
# Density = 2.024661 g / cm^3
# Si number density = 20.292794 Si / 1000 Ang^3
#
#
#
# Elastic Constant Matrix: (Units=GPa)
#
#
# Indices 1 2 3 4 5 6 
#
# 1 122.3156 1.6840 39.6515 0.0000 0.0000 0.0000
# 2 1.6840 8.6303 -0.0348 0.0000 0.0000 0.0000
# 3 39.6515 -0.0348 83.6733 0.0000 0.0000 0.0000
# 4 0.0000 0.0000 0.0000 16.7524 0.0000 0.0000
# 5 0.0000 0.0000 0.0000 0.0000 38.1903 0.0000
# 6 0.0000 0.0000 0.0000 0.0000 0.0000 10.8255
#
#
#
# Elastic Compliance Matrix: (Units=1/GPa)
#
#
# Indices 1 2 3 4 5 6 
#
# 1 0.009691 -0.001909 -0.004593 0.000000 0.000000 0.000000
# 2 -0.001909 0.116247 0.000953 0.000000 0.000000 0.000000
# 3 -0.004593 0.000953 0.014128 0.000000 0.000000 0.000000
# 4 0.000000 0.000000 0.000000 0.059693 0.000000 0.000000
# 5 0.000000 0.000000 0.000000 0.000000 0.026185 0.000000
# 6 0.000000 0.000000 0.000000 0.000000 0.000000 0.092375
#
#
# Mechanical properties :
#
#
# Convention : Reuss Voigt Hill
#
# Bulk Modulus (GPa) = 7.75393 33.02453 20.38923
# Shear Modulus (GPa) = 13.42622 24.70820 19.06721
#
# Velocity S-wave (km/s) = 2.57500 3.49318 3.06862
# Velocity P-wave (km/s) = 3.55951 5.70781 4.75653
#
# Compressibility (1/GPa) = 0.12896690
#
# Stress axis : x y z
#
# Youngs Moduli (GPa) = 103.19031 8.60240 70.78017
#
# Poissons Ratio (x) = 0.01643 0.32510
# Poissons Ratio (y) = 0.19704 -0.06746
# Poissons Ratio (z) = 0.47397 -0.00820
#
# Static dielectric constant tensor:
#      x y z
#    x 4.160450 0.000000 0.000000 
#    y 0.000000 3.031890 0.000000 
#    z 0.000000 0.000000 3.912700 
# 
# 
# High freq. dielectric constant tensor:
#      x y z
#    x 1.808020 0.000000 0.000000 
#    y 0.000000 1.718090 0.000000 
#    z 0.000000 0.000000 1.811760 
# 
# From -- ./inp_files/7460.got.cif
#   From: 2010.03.12/outbox.cif.g09.slc.cpg/sg60_4_cif.got.tgz:7460.got - 2010.04.10 18:46:24.
