data_PCOD8246109
_publ_section_title
;
Structure prediction by ZEFSAII (Michael W. Deem and Ramdas Pophale) SiO2 
 PCOD8246109
Probable space group: P M M N
;
_chemical_formula_sum "Si O2"
_cell_formula_units_Z 48
_cell_length_a 19.648741
_cell_length_b 9.097907
_cell_length_c 15.206225
_cell_angle_alpha 90.000000
_cell_angle_beta 90.000000
_cell_angle_gamma 90.000000
_cell_volume 2718.301554
_symmetry_space_group_name_H-M "P M M N"
_symmetry_group_IT_number 59
_space_group.IT_coordinate_system_code '2'
_symmetry_cell_setting 'orthorhombic'
loop_
_space_group_symop_operation_xyz
x,y,z
1/2-x,1/2-y,z
1/2+x,-y,-z
-x,1/2+y,-z
-x,-y,-z
1/2+x,1/2+y,-z
1/2-x,y,z
x,1/2-y,z
loop_
_atom_site_type_symbol
_atom_site_label
_atom_site_fract_x
_atom_site_fract_y
_atom_site_fract_z
Si Si1 0.567536 0.925302 0.536756
Si Si2 0.111758 0.421480 0.743393
Si Si3 0.045481 0.921551 0.289000
Si Si4 0.328710 0.581845 0.586643
Si Si5 0.089590 0.411979 0.935663
Si Si6 0.930050 0.411923 0.903097
O O1 0.560992 0.750000 0.531268
O O2 0.500000 0.000000 0.500000
O O3 0.579546 0.977685 0.636709
O O4 0.631644 0.977886 0.480629
O O5 0.131734 0.250000 0.736909
O O6 0.161529 0.520660 0.685275
O O7 0.118844 0.478204 0.844392
O O8 0.035436 0.444061 0.708295
O O9 0.062800 0.750000 0.304419
O O10 0.076224 0.977289 0.195556
O O11 0.250000 0.573814 0.561362
O O12 0.355237 0.750000 0.581552
O O13 0.119626 0.250000 0.948026
O O14 0.008676 0.405368 0.928670
O O15 0.111907 0.499743 0.022938
O O16 0.898487 0.250000 0.903252
#
# Coordination Sequence:
#
# PCOD8246109 Si02
#       6
#     8   8   8   8   8   8
#     4  12  23  35  54  78 103 135 175 217 264 316
#     4   9  17  30  49  71  98 135 171 207 252 304
#     4   9  17  30  48  72 102 134 170 211 255 305
#     4  11  24  39  54  75 103 135 174 219 264 314
#     4   8  14  24  39  63  95 129 163 198 240 290
#     4   8  14  24  39  63  96 131 162 197 243 291
#
# _framework density 17.658083999999999
#
# number of rings (size 3 to 8) (size 9 to 14) (size 15 to 20)
#    0.000    2.500    1.667    4.000    0.000    2.667 
#    0.000    3.333    0.000    0.000    0.000    1.167 
#    0.000    6.667    0.000    0.000    0.000    0.000 
#
# Total GULP energy -594928.733648 kJ/mol
# GULP energy per Si atom -12394.348618 kJ/mol
# Density = 1.761789 g / cm^3
# Si number density = 17.658084 Si / 1000 Ang^3
#
#
#
# Elastic Constant Matrix: (Units=GPa)
#
#
# Indices 1 2 3 4 5 6 
#
# 1 38.9267 29.2608 30.2665 0.0000 0.0000 0.0000
# 2 29.2608 105.9995 68.8501 0.0000 0.0000 0.0000
# 3 30.2665 68.8501 151.9114 0.0000 0.0000 0.0000
# 4 0.0000 0.0000 0.0000 37.9181 0.0000 0.0000
# 5 0.0000 0.0000 0.0000 0.0000 15.6742 0.0000
# 6 0.0000 0.0000 0.0000 0.0000 0.0000 17.7222
#
#
#
# Elastic Compliance Matrix: (Units=1/GPa)
#
#
# Indices 1 2 3 4 5 6 
#
# 1 0.033708 -0.007005 -0.003541 0.000000 0.000000 0.000000
# 2 -0.007005 0.014826 -0.005324 0.000000 0.000000 0.000000
# 3 -0.003541 -0.005324 0.009701 0.000000 0.000000 0.000000
# 4 0.000000 0.000000 0.000000 0.026373 0.000000 0.000000
# 5 0.000000 0.000000 0.000000 0.000000 0.063799 0.000000
# 6 0.000000 0.000000 0.000000 0.000000 0.000000 0.056426
#
#
# Mechanical properties :
#
#
# Convention : Reuss Voigt Hill
#
# Bulk Modulus (GPa) = 37.74240 61.51028 49.62634
# Shear Modulus (GPa) = 20.37455 25.49359 22.93407
#
# Velocity S-wave (km/s) = 3.40050 3.80377 3.60778
# Velocity P-wave (km/s) = 6.06946 7.36215 6.74683
#
# Compressibility (1/GPa) = 0.02649540
#
# Stress axis : x y z
#
# Youngs Moduli (GPa) = 29.66637 67.45085 103.08060
#
# Poissons Ratio (x) = 0.47249 0.36502
# Poissons Ratio (y) = 0.20781 0.54877
# Poissons Ratio (z) = 0.10505 0.35909
#
# Static dielectric constant tensor:
#      x y z
#    x 2.734640 0.000000 0.000000 
#    y 0.000000 3.454960 0.000000 
#    z 0.000000 0.000000 3.652420 
# 
# 
# High freq. dielectric constant tensor:
#      x y z
#    x 1.616480 0.000000 0.000000 
#    y 0.000000 1.680860 0.000000 
#    z 0.000000 0.000000 1.703300 
# 
# From -- ./inp_files/20756.got.cif
#   From: 2010.03.12/outbox.cif.g09.slc.cpg/sg59_11_cif.got.tgz:20756.got - 2010.04.16 16:29:54.
