data_PCOD8246301
_publ_section_title
;
Structure prediction by ZEFSAII (Michael W. Deem and Ramdas Pophale) SiO2 
 PCOD8246301
Probable space group: P B C N
;
_chemical_formula_sum "Si O2"
_cell_formula_units_Z 60
_cell_length_a 12.275978
_cell_length_b 13.829260
_cell_length_c 17.714000
_cell_angle_alpha 90.000000
_cell_angle_beta 90.000000
_cell_angle_gamma 90.000000
_cell_volume 3007.264888
_symmetry_space_group_name_H-M "P B C N"
_symmetry_group_IT_number 60
_symmetry_cell_setting 'orthorhombic'
loop_
_space_group_symop_operation_xyz
x,y,z
1/2-x,1/2-y,1/2+z
1/2+x,1/2-y,-z
-x,y,1/2-z
-x,-y,-z
1/2+x,1/2+y,1/2-z
1/2-x,1/2+y,z
x,-y,1/2+z
loop_
_atom_site_type_symbol
_atom_site_label
_atom_site_fract_x
_atom_site_fract_y
_atom_site_fract_z
Si Si1 0.125809 0.176720 0.729242
Si Si2 0.682006 0.172027 0.557981
Si Si3 0.803163 0.980124 0.154046
Si Si4 0.225046 0.822455 0.809492
Si Si5 0.213818 0.186918 0.562639
Si Si6 0.445962 0.415453 0.955153
Si Si7 0.456551 0.214924 0.591435
Si Si8 0.000000 0.778892 0.750000
O O1 0.172824 0.083022 0.771971
O O2 0.188677 0.270916 0.756690
O O3 0.145587 0.172191 0.639651
O O4 0.000000 0.188619 0.750000
O O5 0.752377 0.081763 0.585659
O O6 0.703346 0.264128 0.613218
O O7 0.709653 0.203583 0.472007
O O8 0.553123 0.147609 0.558587
O O9 0.724717 0.070226 0.176136
O O10 0.911104 0.035352 0.123856
O O11 0.108726 0.839986 0.767782
O O12 0.160844 0.115815 0.501907
O O13 0.342018 0.165634 0.571003
O O14 0.527854 0.325374 0.940096
O O15 0.500000 0.500000 0.000000
O O16 0.467351 0.209585 0.681287
#
# Coordination Sequence:
#
# PCOD8246301 Si02
#       8
#     8   8   8   8   8   8   8   4
#     4  11  25  40  62  96 133 167 204 268 333 376
#     4   9  21  39  62  89 124 170 208 267 318 373
#     4  11  21  41  63  90 126 170 215 253 327 381
#     4  10  20  39  62  89 125 166 209 264 313 377
#     4  11  21  41  62  97 128 163 216 267 317 390
#     4  11  22  38  62  95 126 159 211 271 312 384
#     4  10  20  37  65  87 120 169 213 255 317 376
#     4  10  16  34  62  84 116 158 218 252 298 368
#
# _framework density 19.951685000000001
#
# number of rings (size 3 to 8) (size 9 to 14) (size 15 to 20)
#    0.000    1.600    5.333    1.600    0.933    4.267 
#    2.400    2.000    0.000    0.000    0.000    0.000 
#    0.000    0.000    0.000    0.000    0.000    0.000 
#
# Total GULP energy -743347.591227 kJ/mol
# GULP energy per Si atom -12389.126520 kJ/mol
# Density = 1.990627 g / cm^3
# Si number density = 19.951685 Si / 1000 Ang^3
#
#
#
# Elastic Constant Matrix: (Units=GPa)
#
#
# Indices 1 2 3 4 5 6 
#
# 1 102.2037 23.9576 19.5442 0.0000 0.0000 0.0000
# 2 23.9576 98.4255 15.6009 0.0000 0.0000 0.0000
# 3 19.5442 15.6009 88.0403 0.0000 0.0000 0.0000
# 4 0.0000 0.0000 0.0000 19.2557 0.0000 0.0000
# 5 0.0000 0.0000 0.0000 0.0000 24.4937 0.0000
# 6 0.0000 0.0000 0.0000 0.0000 0.0000 18.7495
#
#
#
# Elastic Compliance Matrix: (Units=1/GPa)
#
#
# Indices 1 2 3 4 5 6 
#
# 1 0.010698 -0.002292 -0.001969 0.000000 0.000000 0.000000
# 2 -0.002292 0.010945 -0.001431 0.000000 0.000000 0.000000
# 3 -0.001969 -0.001431 0.012049 0.000000 0.000000 0.000000
# 4 0.000000 0.000000 0.000000 0.051933 0.000000 0.000000
# 5 0.000000 0.000000 0.000000 0.000000 0.040827 0.000000
# 6 0.000000 0.000000 0.000000 0.000000 0.000000 0.053335
#
#
# Mechanical properties :
#
#
# Convention : Reuss Voigt Hill
#
# Bulk Modulus (GPa) = 44.82480 45.20832 45.01656
# Shear Modulus (GPa) = 25.17561 27.80423 26.48992
#
# Velocity S-wave (km/s) = 3.55608 3.73712 3.64772
# Velocity P-wave (km/s) = 6.27506 6.42880 6.35239
#
# Compressibility (1/GPa) = 0.02230908
#
# Stress axis : x y z
#
# Youngs Moduli (GPa) = 93.47433 91.36916 82.99451
#
# Poissons Ratio (x) = 0.20941 0.16340
# Poissons Ratio (y) = 0.21424 0.11873
# Poissons Ratio (z) = 0.18403 0.13071
#
# Static dielectric constant tensor:
#      x y z
#    x 3.727850 0.000000 0.000000 
#    y 0.000000 3.882880 0.000000 
#    z 0.000000 0.000000 2.217420 
# 
# 
# High freq. dielectric constant tensor:
#      x y z
#    x 1.772720 0.000000 0.000000 
#    y 0.000000 1.759060 0.000000 
#    z 0.000000 0.000000 1.791240 
# 
# From -- ./inp_files/20154.got.cif
#   From: 2010.03.12/outbox.cif.g09.slc.cpg/sg60_11_cif.got.tgz:20154.got - 2010.04.10 18:46:24.
