data_PCOD8246385
_publ_section_title
;
Structure prediction by ZEFSAII (Michael W. Deem and Ramdas Pophale) SiO2 
 PCOD8246385
Probable space group: P B C N
;
_chemical_formula_sum "Si O2"
_cell_formula_units_Z 64
_cell_length_a 21.027530
_cell_length_b 7.515698
_cell_length_c 22.353147
_cell_angle_alpha 90.000000
_cell_angle_beta 90.000000
_cell_angle_gamma 90.000000
_cell_volume 3532.614573
_symmetry_space_group_name_H-M "P B C N"
_symmetry_group_IT_number 60
_symmetry_cell_setting 'orthorhombic'
loop_
_space_group_symop_operation_xyz
x,y,z
1/2-x,1/2-y,1/2+z
1/2+x,1/2-y,-z
-x,y,1/2-z
-x,-y,-z
1/2+x,1/2+y,1/2-z
1/2-x,1/2+y,z
x,-y,1/2+z
loop_
_atom_site_type_symbol
_atom_site_label
_atom_site_fract_x
_atom_site_fract_y
_atom_site_fract_z
Si Si1 0.817357 0.708804 0.169322
Si Si2 0.683113 0.802738 0.031898
Si Si3 0.680240 0.798306 0.165963
Si Si4 0.904659 0.015555 0.987907
Si Si5 0.958402 0.692934 0.692808
Si Si6 0.507463 0.516000 0.101209
Si Si7 0.545466 0.224417 0.195014
Si Si8 0.178022 0.281616 0.964756
O O1 0.747635 0.749514 0.198632
O O2 0.819886 0.504402 0.156221
O O3 0.879013 0.763961 0.209716
O O4 0.824273 0.795493 0.103517
O O5 0.677110 0.717206 0.099014
O O6 0.754119 0.772639 0.008617
O O7 0.662991 0.009100 0.029234
O O8 0.641077 0.686317 0.987194
O O9 0.615989 0.744900 0.202410
O O10 0.935971 0.013117 0.922192
O O11 0.872220 0.823881 0.995608
O O12 0.952081 0.045626 0.042324
O O13 0.988335 0.802365 0.638663
O O14 0.963426 0.483072 0.678453
O O15 0.000000 0.743885 0.750000
O O16 0.527110 0.341586 0.138204
O O17 0.500000 0.278925 0.250000
#
# Coordination Sequence:
#
# PCOD8246385 Si02
#       8
#     8   8   8   8   8   8   8   8
#     4   9  18  29  50  81 108 133 170 229 285 323
#     4  10  18  31  53  80 111 140 179 232 281 327
#     4   9  18  29  50  81 108 133 170 229 285 323
#     4  11  22  34  52  84 116 145 182 225 277 338
#     4  10  21  38  58  81 110 146 189 231 277 332
#     4  11  23  36  54  80 115 151 184 221 273 338
#     4  10  21  38  58  81 110 146 189 231 277 332
#     4  10  18  31  53  80 111 140 179 232 281 327
#
# _framework density 18.116892
#
# number of rings (size 3 to 8) (size 9 to 14) (size 15 to 20)
#    0.000    2.000    3.750    0.375    3.500    1.000 
#    0.000    2.500    0.000    1.500    0.000    0.000 
#    0.000    0.000    0.000    0.000    0.000    0.000 
#
# Total GULP energy -792976.530510 kJ/mol
# GULP energy per Si atom -12390.258289 kJ/mol
# Density = 1.807566 g / cm^3
# Si number density = 18.116892 Si / 1000 Ang^3
#
#
#
# Elastic Constant Matrix: (Units=GPa)
#
#
# Indices 1 2 3 4 5 6 
#
# 1 122.8374 15.5599 40.6140 0.0000 0.0000 0.0000
# 2 15.5599 67.9495 17.2324 0.0000 0.0000 0.0000
# 3 40.6140 17.2324 51.2238 0.0000 0.0000 0.0000
# 4 0.0000 0.0000 0.0000 4.0961 0.0000 0.0000
# 5 0.0000 0.0000 0.0000 0.0000 25.0611 0.0000
# 6 0.0000 0.0000 0.0000 0.0000 0.0000 25.2067
#
#
#
# Elastic Compliance Matrix: (Units=1/GPa)
#
#
# Indices 1 2 3 4 5 6 
#
# 1 0.011040 -0.000337 -0.008640 0.000000 0.000000 0.000000
# 2 -0.000337 0.016100 -0.005149 0.000000 0.000000 0.000000
# 3 -0.008640 -0.005149 0.028105 0.000000 0.000000 0.000000
# 4 0.000000 0.000000 0.000000 0.244137 0.000000 0.000000
# 5 0.000000 0.000000 0.000000 0.000000 0.039902 0.000000
# 6 0.000000 0.000000 0.000000 0.000000 0.000000 0.039672
#
#
# Mechanical properties :
#
#
# Convention : Reuss Voigt Hill
#
# Bulk Modulus (GPa) = 37.04707 43.20258 40.12482
# Shear Modulus (GPa) = 12.01328 22.11308 17.06318
#
# Velocity S-wave (km/s) = 2.57786 3.49747 3.07227
# Velocity P-wave (km/s) = 5.41792 6.34098 5.89754
#
# Compressibility (1/GPa) = 0.02699269
#
# Stress axis : x y z
#
# Youngs Moduli (GPa) = 90.57781 62.11264 35.58094
#
# Poissons Ratio (x) = 0.02093 0.30742
# Poissons Ratio (y) = 0.03052 0.18321
# Poissons Ratio (z) = 0.78261 0.31982
#
# Static dielectric constant tensor:
#      x y z
#    x 5.038700 0.000000 0.000000 
#    y 0.000000 3.335590 0.000000 
#    z 0.000000 0.000000 3.037200 
# 
# 
# High freq. dielectric constant tensor:
#      x y z
#    x 1.717990 0.000000 0.000000 
#    y 0.000000 1.714950 0.000000 
#    z 0.000000 0.000000 1.639630 
# 
# From -- ./inp_files/23224.got.cif
#   From: 2010.03.12/outbox.cif.g09.slc.cpg/sg60_12_cif.got.tgz:23224.got - 2010.04.10 18:46:24.
