data_PCOD8246010
_publ_section_title
;
Structure prediction by ZEFSAII (Michael W. Deem and Ramdas Pophale) SiO2 
 PCOD8246010
Probable space group: P M M N
;
_chemical_formula_sum "Si O2"
_cell_formula_units_Z 48
_cell_length_a 14.729540
_cell_length_b 8.623583
_cell_length_c 19.661710
_cell_angle_alpha 90.000000
_cell_angle_beta 90.000000
_cell_angle_gamma 90.000000
_cell_volume 2497.458142
_symmetry_space_group_name_H-M "P M M N"
_symmetry_group_IT_number 59
_space_group.IT_coordinate_system_code '2'
_symmetry_cell_setting 'orthorhombic'
loop_
_space_group_symop_operation_xyz
x,y,z
1/2-x,1/2-y,z
1/2+x,-y,-z
-x,1/2+y,-z
-x,-y,-z
1/2+x,1/2+y,-z
1/2-x,y,z
x,1/2-y,z
loop_
_atom_site_type_symbol
_atom_site_label
_atom_site_fract_x
_atom_site_fract_y
_atom_site_fract_z
Si Si1 0.150188 0.434194 0.084865
Si Si2 0.983733 0.068981 0.173032
Si Si3 0.643645 0.573864 0.066852
Si Si4 0.445367 0.433151 0.436804
Si Si5 0.441973 0.068011 0.683519
Si Si6 0.750000 0.565797 0.368859
Si Si7 0.250000 0.433864 0.478222
O O1 0.250000 0.499399 0.104697
O O2 0.153698 0.250000 0.082619
O O3 0.077724 0.491971 0.139995
O O4 0.122483 0.489640 0.009072
O O5 0.987902 0.250000 0.191558
O O6 0.903554 0.040520 0.119786
O O7 0.968164 0.969152 0.239844
O O8 0.750000 0.568374 0.081407
O O9 0.607830 0.750000 0.076491
O O10 0.500000 0.500000 0.500000
O O11 0.449700 0.250000 0.442240
O O12 0.486505 0.486710 0.365795
O O13 0.340672 0.491879 0.439737
O O14 0.446961 0.250000 0.670056
O O15 0.340155 0.004735 0.669332
O O16 0.750000 0.750000 0.369261
O O17 0.750000 0.498604 0.445218
O O18 0.250000 0.250000 0.482469
#
# Coordination Sequence:
#
# PCOD8246010 Si02
#       7
#     8   8   8   8   8   4   4
#     4   8  16  34  58  80 105 143 191 232 273 337
#     4  11  22  35  54  83 115 146 184 232 283 332
#     4   9  18  34  57  82 108 145 188 227 275 338
#     4  11  21  38  62  88 115 147 188 233 278 332
#     4  11  23  40  59  81 114 152 190 229 273 335
#     4   9  18  36  60  82 106 147 186 215 268 336
#     4   9  18  36  62  86 110 145 186 223 274 340
#
# _framework density 19.219541
#
# number of rings (size 3 to 8) (size 9 to 14) (size 15 to 20)
#    0.000    2.167    1.667    3.000    1.167    0.333 
#    1.500    4.583    0.000    3.500    0.000    0.000 
#    0.000    0.000    0.000    0.000    0.000    0.000 
#
# Total GULP energy -595181.142463 kJ/mol
# GULP energy per Si atom -12399.607135 kJ/mol
# Density = 1.917580 g / cm^3
# Si number density = 19.219541 Si / 1000 Ang^3
#
#
#
# Elastic Constant Matrix: (Units=GPa)
#
#
# Indices 1 2 3 4 5 6 
#
# 1 153.0061 29.6300 84.5891 0.0000 0.0000 0.0000
# 2 29.6300 38.4731 12.1911 0.0000 0.0000 0.0000
# 3 84.5891 12.1911 124.7556 0.0000 0.0000 0.0000
# 4 0.0000 0.0000 0.0000 30.6659 0.0000 0.0000
# 5 0.0000 0.0000 0.0000 0.0000 16.0916 0.0000
# 6 0.0000 0.0000 0.0000 0.0000 0.0000 25.9240
#
#
#
# Elastic Compliance Matrix: (Units=1/GPa)
#
#
# Indices 1 2 3 4 5 6 
#
# 1 0.011989 -0.006870 -0.007458 0.000000 0.000000 0.000000
# 2 -0.006870 0.030760 0.001652 0.000000 0.000000 0.000000
# 3 -0.007458 0.001652 0.012911 0.000000 0.000000 0.000000
# 4 0.000000 0.000000 0.000000 0.032609 0.000000 0.000000
# 5 0.000000 0.000000 0.000000 0.000000 0.062144 0.000000
# 6 0.000000 0.000000 0.000000 0.000000 0.000000 0.038574
#
#
# Mechanical properties :
#
#
# Convention : Reuss Voigt Hill
#
# Bulk Modulus (GPa) = 32.99395 63.22836 48.11115
# Shear Modulus (GPa) = 22.27753 27.19129 24.73441
#
# Velocity S-wave (km/s) = 3.40826 3.76543 3.59129
# Velocity P-wave (km/s) = 5.71773 7.20236 6.50255
#
# Compressibility (1/GPa) = 0.03030859
#
# Stress axis : x y z
#
# Youngs Moduli (GPa) = 83.40902 32.51010 77.45445
#
# Poissons Ratio (x) = 0.22335 0.57763
# Poissons Ratio (y) = 0.57304 -0.12799
# Poissons Ratio (z) = 0.62204 -0.05372
#
# Static dielectric constant tensor:
#      x y z
#    x 3.975010 0.000000 0.000000 
#    y 0.000000 3.254380 0.000000 
#    z 0.000000 0.000000 3.544570 
# 
# 
# High freq. dielectric constant tensor:
#      x y z
#    x 1.761790 0.000000 0.000000 
#    y 0.000000 1.720740 0.000000 
#    z 0.000000 0.000000 1.745790 
# 
# From -- ./inp_files/27456.got.cif
#   From: 2010.03.12/outbox.cif.g09.slc.cpg/sg59_14_cif.got.tgz:27456.got - 2010.04.16 16:29:54.
