data_PCOD8246113
_publ_section_title
;
Structure prediction by ZEFSAII (Michael W. Deem and Ramdas Pophale) SiO2 
 PCOD8246113
Probable space group: P M M N
;
_chemical_formula_sum "Si O2"
_cell_formula_units_Z 48
_cell_length_a 8.889029
_cell_length_b 8.927122
_cell_length_c 30.645129
_cell_angle_alpha 90.000000
_cell_angle_beta 90.000000
_cell_angle_gamma 90.000000
_cell_volume 2431.796600
_symmetry_space_group_name_H-M "P M M N"
_symmetry_group_IT_number 59
_space_group.IT_coordinate_system_code '2'
_symmetry_cell_setting 'orthorhombic'
loop_
_space_group_symop_operation_xyz
x,y,z
1/2-x,1/2-y,z
1/2+x,-y,-z
-x,1/2+y,-z
-x,-y,-z
1/2+x,1/2+y,-z
1/2-x,y,z
x,1/2-y,z
loop_
_atom_site_type_symbol
_atom_site_label
_atom_site_fract_x
_atom_site_fract_y
_atom_site_fract_z
Si Si1 0.924864 0.925628 0.204049
Si Si2 0.075934 0.425966 0.122737
Si Si3 0.572909 0.577019 0.363552
Si Si4 0.416738 0.424597 0.539342
Si Si5 0.072745 0.421540 0.958849
Si Si6 0.074983 0.075269 0.284555
O O1 0.750000 0.963958 0.197163
O O2 0.954595 0.750000 0.198877
O O3 0.024256 0.013545 0.169216
O O4 0.975630 0.978152 0.251568
O O5 0.250000 0.465767 0.115403
O O6 0.048054 0.250000 0.121192
O O7 0.977993 0.501422 0.085439
O O8 0.750000 0.542620 0.359031
O O9 0.542132 0.750000 0.351377
O O10 0.514437 0.542896 0.412710
O O11 0.476690 0.468921 0.332886
O O12 0.500000 0.500000 0.500000
O O13 0.250000 0.490803 0.539159
O O14 0.415834 0.250000 0.530332
O O15 0.250000 0.435906 0.963161
O O16 0.020365 0.250000 0.957926
O O17 0.000000 0.500000 0.000000
O O18 0.250000 0.036962 0.278172
O O19 0.044184 0.250000 0.276582
#
# Coordination Sequence:
#
# PCOD8246113 Si02
#       6
#     8   8   8   8   8   8
#     4  11  24  41  62  88 116 149 191 235 280 335
#     4  11  24  41  62  90 122 155 194 239 286 339
#     4   9  19  37  58  79 106 143 186 229 275 330
#     4   9  19  35  54  78 109 143 181 227 276 328
#     4  11  24  41  62  90 122 157 200 245 290 344
#     4  11  24  39  56  83 116 147 183 229 280 334
#
# _framework density 19.738493999999999
#
# number of rings (size 3 to 8) (size 9 to 14) (size 15 to 20)
#    0.000    1.667    0.000    5.000    0.000   15.333 
#    0.000    5.000    0.000    0.000    0.000    0.000 
#    0.000    0.000    0.000    0.000    0.000    0.000 
#
# Total GULP energy -595351.273873 kJ/mol
# GULP energy per Si atom -12403.151539 kJ/mol
# Density = 1.969357 g / cm^3
# Si number density = 19.738494 Si / 1000 Ang^3
#
#
#
# Elastic Constant Matrix: (Units=GPa)
#
#
# Indices 1 2 3 4 5 6 
#
# 1 57.3892 53.9767 27.3434 0.0000 0.0000 0.0000
# 2 53.9767 82.8399 41.4022 0.0000 0.0000 0.0000
# 3 27.3434 41.4022 115.5511 0.0000 0.0000 0.0000
# 4 0.0000 0.0000 0.0000 45.1345 0.0000 0.0000
# 5 0.0000 0.0000 0.0000 0.0000 42.8466 0.0000
# 6 0.0000 0.0000 0.0000 0.0000 0.0000 33.7982
#
#
#
# Elastic Compliance Matrix: (Units=1/GPa)
#
#
# Indices 1 2 3 4 5 6 
#
# 1 0.045009 -0.029240 -0.000174 0.000000 0.000000 0.000000
# 2 -0.029240 0.033700 -0.005156 0.000000 0.000000 0.000000
# 3 -0.000174 -0.005156 0.010543 0.000000 0.000000 0.000000
# 4 0.000000 0.000000 0.000000 0.022156 0.000000 0.000000
# 5 0.000000 0.000000 0.000000 0.000000 0.023339 0.000000
# 6 0.000000 0.000000 0.000000 0.000000 0.000000 0.029587
#
#
# Mechanical properties :
#
#
# Convention : Reuss Voigt Hill
#
# Bulk Modulus (GPa) = 49.71966 55.69162 52.70564
# Shear Modulus (GPa) = 20.81790 33.22641 27.02215
#
# Velocity S-wave (km/s) = 3.25112 4.10729 3.70402
# Velocity P-wave (km/s) = 6.27191 7.12524 6.71215
#
# Compressibility (1/GPa) = 0.02011277
#
# Stress axis : x y z
#
# Youngs Moduli (GPa) = 22.21776 29.67330 94.85284
#
# Poissons Ratio (x) = 0.86765 0.01650
# Poissons Ratio (y) = 0.64965 0.48903
# Poissons Ratio (z) = 0.00386 0.15299
#
# Static dielectric constant tensor:
#      x y z
#    x 4.097680 0.000000 0.000000 
#    y 0.000000 3.650470 0.000000 
#    z 0.000000 0.000000 3.192180 
# 
# 
# High freq. dielectric constant tensor:
#      x y z
#    x 1.773210 0.000000 0.000000 
#    y 0.000000 1.775270 0.000000 
#    z 0.000000 0.000000 1.788010 
# 
# From -- ./inp_files/32871.got.cif
#   From: 2010.03.12/outbox.cif.g09.slc.cpg/sg59_17_cif.got.tgz:32871.got - 2010.04.16 16:29:54.
