data_PCOD8246001
_publ_section_title
;
Structure prediction by ZEFSAII (Michael W. Deem and Ramdas Pophale) SiO2 
 PCOD8246001
Probable space group: P M M N
;
_chemical_formula_sum "Si O2"
_cell_formula_units_Z 48
_cell_length_a 27.858060
_cell_length_b 8.827060
_cell_length_c 10.295864
_cell_angle_alpha 90.000000
_cell_angle_beta 90.000000
_cell_angle_gamma 90.000000
_cell_volume 2531.802039
_symmetry_space_group_name_H-M "P M M N"
_symmetry_group_IT_number 59
_space_group.IT_coordinate_system_code '2'
_symmetry_cell_setting 'orthorhombic'
loop_
_space_group_symop_operation_xyz
x,y,z
1/2-x,1/2-y,z
1/2+x,-y,-z
-x,1/2+y,-z
-x,-y,-z
1/2+x,1/2+y,-z
1/2-x,y,z
x,1/2-y,z
loop_
_atom_site_type_symbol
_atom_site_label
_atom_site_fract_x
_atom_site_fract_y
_atom_site_fract_z
Si Si1 0.103131 0.571211 0.014089
Si Si2 0.107492 0.928192 0.518092
Si Si3 0.950883 0.429572 0.729322
Si Si4 0.804521 0.924118 0.599954
Si Si5 0.058916 0.070354 0.760881
Si Si6 0.804043 0.573551 0.899978
O O1 0.098812 0.750000 0.997343
O O2 0.075660 0.491740 0.898017
O O3 0.078401 0.510958 0.146136
O O4 0.159014 0.523869 0.014626
O O5 0.101767 0.750000 0.537356
O O6 0.073920 0.991195 0.401699
O O7 0.162500 0.967690 0.486738
O O8 0.093845 0.010923 0.649939
O O9 0.949655 0.250000 0.729048
O O10 0.005181 0.490587 0.734176
O O11 0.750000 0.948359 0.553467
O O12 0.819983 0.750000 0.580840
O O13 0.809785 0.971574 0.749761
O O14 0.060433 0.250000 0.764076
O O15 0.750000 0.535388 0.946753
O O16 0.814983 0.750000 0.920388
#
# Coordination Sequence:
#
# PCOD8246001 Si02
#       6
#     8   8   8   8   8   8
#     4  11  21  37  58  85 116 147 185 233 283 331
#     4  11  21  37  58  85 116 147 185 233 283 331
#     4   9  20  37  58  83 112 146 190 234 276 329
#     4   9  18  34  57  85 114 145 184 227 273 331
#     4  11  23  39  56  79 114 155 192 229 276 333
#     4   9  18  34  57  85 114 145 184 227 273 331
#
# _framework density 18.958829000000001
#
# number of rings (size 3 to 8) (size 9 to 14) (size 15 to 20)
#    0.000    2.000    1.667    3.500    0.000    0.667 
#    0.000    7.500    0.000    5.000    0.000    0.000 
#    0.000    0.000    0.000    0.000    0.000    0.000 
#
# Total GULP energy -595353.024789 kJ/mol
# GULP energy per Si atom -12403.188016 kJ/mol
# Density = 1.891568 g / cm^3
# Si number density = 18.958829 Si / 1000 Ang^3
#
#
#
# Elastic Constant Matrix: (Units=GPa)
#
#
# Indices 1 2 3 4 5 6 
#
# 1 93.5809 26.7049 7.9019 0.0000 0.0000 0.0000
# 2 26.7049 61.6328 19.9999 0.0000 0.0000 0.0000
# 3 7.9019 19.9999 59.1074 0.0000 0.0000 0.0000
# 4 0.0000 0.0000 0.0000 25.7598 0.0000 0.0000
# 5 0.0000 0.0000 0.0000 0.0000 14.5231 0.0000
# 6 0.0000 0.0000 0.0000 0.0000 0.0000 29.6268
#
#
#
# Elastic Compliance Matrix: (Units=1/GPa)
#
#
# Indices 1 2 3 4 5 6 
#
# 1 0.012195 -0.005342 0.000177 0.000000 0.000000 0.000000
# 2 -0.005342 0.020566 -0.006245 0.000000 0.000000 0.000000
# 3 0.000177 -0.006245 0.019008 0.000000 0.000000 0.000000
# 4 0.000000 0.000000 0.000000 0.038820 0.000000 0.000000
# 5 0.000000 0.000000 0.000000 0.000000 0.068856 0.000000
# 6 0.000000 0.000000 0.000000 0.000000 0.000000 0.033753
#
#
# Mechanical properties :
#
#
# Convention : Reuss Voigt Hill
#
# Bulk Modulus (GPa) = 34.54171 35.94828 35.24500
# Shear Modulus (GPa) = 22.15656 24.62956 23.39306
#
# Velocity S-wave (km/s) = 3.42229 3.60822 3.51648
# Velocity P-wave (km/s) = 5.82022 6.03004 5.92606
#
# Compressibility (1/GPa) = 0.02895050
#
# Stress axis : x y z
#
# Youngs Moduli (GPa) = 81.99880 48.62400 52.61027
#
# Poissons Ratio (x) = 0.25973 -0.00931
# Poissons Ratio (y) = 0.43800 0.32854
# Poissons Ratio (z) = -0.01452 0.30364
#
# Static dielectric constant tensor:
#      x y z
#    x 3.627640 0.000000 0.000000 
#    y 0.000000 3.277050 0.000000 
#    z 0.000000 0.000000 3.364440 
# 
# 
# High freq. dielectric constant tensor:
#      x y z
#    x 1.750120 0.000000 0.000000 
#    y 0.000000 1.725650 0.000000 
#    z 0.000000 0.000000 1.725000 
# 
# From -- ./inp_files/12950.got.cif
#   From: 2010.03.12/outbox.cif.g09.slc.cpg/sg59_7_cif.got.tgz:12950.got - 2010.04.16 16:29:54.
