data_PCOD8246189
_publ_section_title
;
Structure prediction by ZEFSAII (Michael W. Deem and Ramdas Pophale) SiO2 
 PCOD8246189
Probable space group: P M M N
;
_chemical_formula_sum "Si O2"
_cell_formula_units_Z 64
_cell_length_a 19.368764
_cell_length_b 9.133495
_cell_length_c 21.018167
_cell_angle_alpha 90.000000
_cell_angle_beta 90.000000
_cell_angle_gamma 90.000000
_cell_volume 3718.208516
_symmetry_space_group_name_H-M "P M M N"
_symmetry_group_IT_number 59
_space_group.IT_coordinate_system_code '2'
_symmetry_cell_setting 'orthorhombic'
loop_
_space_group_symop_operation_xyz
x,y,z
1/2-x,1/2-y,z
1/2+x,-y,-z
-x,1/2+y,-z
-x,-y,-z
1/2+x,1/2+y,-z
1/2-x,y,z
x,1/2-y,z
loop_
_atom_site_type_symbol
_atom_site_label
_atom_site_fract_x
_atom_site_fract_y
_atom_site_fract_z
Si Si1 0.081038 0.577053 0.195147
Si Si2 0.935744 0.918269 0.062937
Si Si3 0.923815 0.917920 0.926960
Si Si4 0.575574 0.919201 0.200615
Si Si5 0.667827 0.415250 0.437875
Si Si6 0.329898 0.579087 0.314116
Si Si7 0.832225 0.584778 0.560447
Si Si8 0.670731 0.576798 0.311719
O O1 0.084084 0.750000 0.188373
O O2 0.112013 0.511069 0.129200
O O3 0.127468 0.522251 0.253473
O O4 0.002694 0.518642 0.205110
O O5 0.964634 0.750000 0.063461
O O6 0.893599 0.943792 0.128991
O O7 0.890263 0.941422 0.998180
O O8 0.997282 0.034194 0.064132
O O9 0.919797 0.750000 0.906073
O O10 0.572001 0.750000 0.217842
O O11 0.626410 0.989524 0.252884
O O12 0.750000 0.415659 0.440646
O O13 0.639032 0.250000 0.437058
O O14 0.637785 0.497866 0.499754
O O15 0.642281 0.499750 0.375197
O O16 0.250000 0.544419 0.300895
O O17 0.342000 0.750000 0.326815
O O18 0.358187 0.493377 0.375422
O O19 0.750000 0.583096 0.558407
O O20 0.860758 0.750000 0.558890
O O21 0.750000 0.534611 0.298493
O O22 0.662687 0.750000 0.320811
#
# Coordination Sequence:
#
# PCOD8246189 Si02
#       8
#     8   8   8   8   8   8   8   8
#     4   9  17  29  44  61  84 113 140 169 209 254
#     4   8  14  25  40  58  82 110 139 173 212 249
#     4   9  15  23  39  62  84 106 138 178 211 243
#     4   8  14  26  43  61  82 109 138 167 204 248
#     4   9  16  26  41  61  85 111 138 170 206 242
#     4   9  17  29  45  64  84 108 139 172 207 250
#     4   9  16  26  42  64  87 109 135 170 209 245
#     4   9  16  26  42  63  84 107 137 171 204 241
#
# _framework density 17.212591
#
# number of rings (size 3 to 8) (size 9 to 14) (size 15 to 20)
#    0.000    3.250    0.000    1.875    0.000    4.000 
#    0.000    2.500    0.000    1.500    0.000    1.750 
#    0.000    0.000    0.000    0.000    0.000    1.375 
#
# Total GULP energy -792935.818999 kJ/mol
# GULP energy per Si atom -12389.622172 kJ/mol
# Density = 1.717341 g / cm^3
# Si number density = 17.212591 Si / 1000 Ang^3
#
#
#
# Elastic Constant Matrix: (Units=GPa)
#
#
# Indices 1 2 3 4 5 6 
#
# 1 32.2673 18.1628 48.7589 0.0000 0.0000 0.0000
# 2 18.1628 62.4001 60.7223 0.0000 0.0000 0.0000
# 3 48.7589 60.7223 206.7739 0.0000 0.0000 0.0000
# 4 0.0000 0.0000 0.0000 30.5855 0.0000 0.0000
# 5 0.0000 0.0000 0.0000 0.0000 26.0512 0.0000
# 6 0.0000 0.0000 0.0000 0.0000 0.0000 9.0404
#
#
#
# Elastic Compliance Matrix: (Units=1/GPa)
#
#
# Indices 1 2 3 4 5 6 
#
# 1 0.048928 -0.004220 -0.010298 0.000000 0.000000 0.000000
# 2 -0.004220 0.022802 -0.005701 0.000000 0.000000 0.000000
# 3 -0.010298 -0.005701 0.008939 0.000000 0.000000 0.000000
# 4 0.000000 0.000000 0.000000 0.032695 0.000000 0.000000
# 5 0.000000 0.000000 0.000000 0.000000 0.038386 0.000000
# 6 0.000000 0.000000 0.000000 0.000000 0.000000 0.110615
#
#
# Mechanical properties :
#
#
# Convention : Reuss Voigt Hill
#
# Bulk Modulus (GPa) = 24.85707 61.85881 43.35794
# Shear Modulus (GPa) = 15.81209 24.72191 20.26700
#
# Velocity S-wave (km/s) = 3.03419 3.79393 3.43512
# Velocity P-wave (km/s) = 5.17181 7.43021 6.40139
#
# Compressibility (1/GPa) = 0.04023001
#
# Stress axis : x y z
#
# Youngs Moduli (GPa) = 20.43806 43.85659 111.87177
#
# Poissons Ratio (x) = 0.18508 1.15210
# Poissons Ratio (y) = 0.08625 0.63777
# Poissons Ratio (z) = 0.21048 0.25002
#
# Static dielectric constant tensor:
#      x y z
#    x 2.741010 0.000000 0.000000 
#    y 0.000000 3.152070 0.000000 
#    z 0.000000 0.000000 3.737990 
# 
# 
# High freq. dielectric constant tensor:
#      x y z
#    x 1.590170 0.000000 0.000000 
#    y 0.000000 1.655390 0.000000 
#    z 0.000000 0.000000 1.692060 
# 
# From -- ./inp_files/30995.got.cif
#   From: 2010.03.12/outbox.cif.g09.slc.cpg/sg59_16_cif.got.tgz:30995.got - 2010.04.16 16:29:54.
