data_PCOD8246793
_publ_section_title
;
Structure prediction by ZEFSAII (Michael W. Deem and Ramdas Pophale) SiO2 
 PCOD8246793
Probable space group: P B C N
;
_chemical_formula_sum "Si O2"
_cell_formula_units_Z 52
_cell_length_a 11.585851
_cell_length_b 26.910353
_cell_length_c 8.457551
_cell_angle_alpha 90.000000
_cell_angle_beta 90.000000
_cell_angle_gamma 90.000000
_cell_volume 2636.889671
_symmetry_space_group_name_H-M "P B C N"
_symmetry_group_IT_number 60
_symmetry_cell_setting 'orthorhombic'
loop_
_space_group_symop_operation_xyz
x,y,z
1/2-x,1/2-y,1/2+z
1/2+x,1/2-y,-z
-x,y,1/2-z
-x,-y,-z
1/2+x,1/2+y,1/2-z
1/2-x,1/2+y,z
x,-y,1/2+z
loop_
_atom_site_type_symbol
_atom_site_label
_atom_site_fract_x
_atom_site_fract_y
_atom_site_fract_z
Si Si1 0.332685 0.483130 0.248995
Si Si2 0.657178 0.828864 0.527424
Si Si3 0.500000 0.772242 0.750000
Si Si4 0.000000 0.859208 0.750000
Si Si5 0.050603 0.939424 0.540584
Si Si6 0.219302 0.068399 0.462972
Si Si7 0.000000 0.300596 0.250000
Si Si8 0.113225 0.777458 0.958534
O O1 0.434022 0.507591 0.133819
O O2 0.383980 0.443174 0.373790
O O3 0.245003 0.453377 0.135512
O O4 0.257632 0.526787 0.329040
O O5 0.597942 0.809057 0.686141
O O6 0.707455 0.882705 0.569239
O O7 0.567597 0.833232 0.380648
O O8 0.755614 0.787985 0.489409
O O9 0.457382 0.735312 0.614662
O O10 0.904838 0.894709 0.843094
O O11 0.933679 0.827265 0.620972
O O12 0.917981 0.922628 0.522809
O O13 0.098755 0.267411 0.334204
#
# Coordination Sequence:
#
# PCOD8246793 Si02
#       8
#     8   8   4   4   8   8   4   8
#     4  10  20  31  54  84 125 159 181 226 290 345
#     4  11  21  40  60  83 110 150 198 236 286 344
#     4  10  24  40  62  84 110 152 192 246 292 338
#     4  11  20  30  52  91 122 151 182 232 270 361
#     4  11  17  31  47  83 123 157 181 220 278 346
#     4  11  19  33  55  81 115 149 190 228 283 349
#     4   9  22  38  60  81 114 145 186 248 286 333
#     4  10  20  39  60  85 116 147 187 233 297 345
#
# _framework density 19.720203000000001
#
# number of rings (size 3 to 8) (size 9 to 14) (size 15 to 20)
#    0.000    1.538    3.077    4.154    0.000    1.231 
#    0.000   10.769    0.000    2.769    0.000    0.000 
#    0.000    0.000    0.000    0.000    0.000    0.000 
#
# Total GULP energy -644362.273515 kJ/mol
# GULP energy per Si atom -12391.582183 kJ/mol
# Density = 1.967532 g / cm^3
# Si number density = 19.720203 Si / 1000 Ang^3
#
#
#
# Elastic Constant Matrix: (Units=GPa)
#
#
# Indices 1 2 3 4 5 6 
#
# 1 68.4319 45.9991 30.3340 0.0000 0.0000 0.0000
# 2 45.9991 111.9491 48.4355 0.0000 0.0000 0.0000
# 3 30.3340 48.4355 118.1853 0.0000 0.0000 0.0000
# 4 0.0000 0.0000 0.0000 31.3697 0.0000 0.0000
# 5 0.0000 0.0000 0.0000 0.0000 20.7049 0.0000
# 6 0.0000 0.0000 0.0000 0.0000 0.0000 22.8878
#
#
#
# Elastic Compliance Matrix: (Units=1/GPa)
#
#
# Indices 1 2 3 4 5 6 
#
# 1 0.020656 -0.007529 -0.002216 0.000000 0.000000 0.000000
# 2 -0.007529 0.013602 -0.003642 0.000000 0.000000 0.000000
# 3 -0.002216 -0.003642 0.010523 0.000000 0.000000 0.000000
# 4 0.000000 0.000000 0.000000 0.031878 0.000000 0.000000
# 5 0.000000 0.000000 0.000000 0.000000 0.048298 0.000000
# 6 0.000000 0.000000 0.000000 0.000000 0.000000 0.043691
#
#
# Mechanical properties :
#
#
# Convention : Reuss Voigt Hill
#
# Bulk Modulus (GPa) = 55.53445 60.90038 58.21741
# Shear Modulus (GPa) = 24.82326 26.57898 25.70112
#
# Velocity S-wave (km/s) = 3.55177 3.67523 3.61403
# Velocity P-wave (km/s) = 6.71136 6.99707 6.85571
#
# Compressibility (1/GPa) = 0.01800684
#
# Stress axis : x y z
#
# Youngs Moduli (GPa) = 48.41185 73.51953 95.03214
#
# Poissons Ratio (x) = 0.55350 0.21062
# Poissons Ratio (y) = 0.36447 0.34611
# Poissons Ratio (z) = 0.10729 0.26776
#
# Static dielectric constant tensor:
#      x y z
#    x 3.207570 0.000000 0.000000 
#    y 0.000000 3.704420 0.000000 
#    z 0.000000 0.000000 4.165360 
# 
# 
# High freq. dielectric constant tensor:
#      x y z
#    x 1.710760 0.000000 0.000000 
#    y 0.000000 1.769350 0.000000 
#    z 0.000000 0.000000 1.797650 
# 
# From -- ./inp_files/5289.got.cif
#   From: 2010.03.12/outbox.cif.g09.slc.cpg/sg60_3_cif.got.tgz:5289.got - 2010.04.10 18:46:24.
