data_PCOD8246183
_publ_section_title
;
Structure prediction by ZEFSAII (Michael W. Deem and Ramdas Pophale) SiO2 
 PCOD8246183
Probable space group: P M M N
;
_chemical_formula_sum "Si O2"
_cell_formula_units_Z 56
_cell_length_a 24.726581
_cell_length_b 9.213205
_cell_length_c 16.301808
_cell_angle_alpha 90.000000
_cell_angle_beta 90.000000
_cell_angle_gamma 90.000000
_cell_volume 3713.732156
_symmetry_space_group_name_H-M "P M M N"
_symmetry_group_IT_number 59
_space_group.IT_coordinate_system_code '2'
_symmetry_cell_setting 'orthorhombic'
loop_
_space_group_symop_operation_xyz
x,y,z
1/2-x,1/2-y,z
1/2+x,-y,-z
-x,1/2+y,-z
-x,-y,-z
1/2+x,1/2+y,-z
1/2-x,y,z
x,1/2-y,z
loop_
_atom_site_type_symbol
_atom_site_label
_atom_site_fract_x
_atom_site_fract_y
_atom_site_fract_z
Si Si1 0.399601 0.921036 0.607915
Si Si2 0.688401 0.416831 0.263847
Si Si3 0.579990 0.919359 0.024669
Si Si4 0.991470 0.921376 0.875670
Si Si5 0.189797 0.419748 0.900404
Si Si6 0.053583 0.420966 0.470052
Si Si7 0.008082 0.419150 0.305613
O O1 0.402896 0.750000 0.589872
O O2 0.346641 0.965700 0.658301
O O3 0.451241 0.978973 0.659390
O O4 0.397056 0.005748 0.520226
O O5 0.750000 0.444773 0.289119
O O6 0.676911 0.250000 0.242033
O O7 0.672041 0.507262 0.184320
O O8 0.570278 0.750000 0.041484
O O9 0.643945 0.958711 0.032009
O O10 0.546457 0.006254 0.092639
O O11 0.559325 0.963002 0.933841
O O12 0.001147 0.750000 0.875789
O O13 0.978619 0.983981 0.784416
O O14 0.250000 0.473552 0.928819
O O15 0.191366 0.250000 0.883827
O O16 0.050488 0.250000 0.488557
O O17 0.000000 0.500000 0.500000
O O18 0.056591 0.449496 0.371232
O O19 0.999970 0.250000 0.293315
#
# Coordination Sequence:
#
# PCOD8246183 Si02
#       7
#     8   8   8   8   8   8   8
#     4   9  16  26  39  56  79 103 127 158 194 230
#     4   9  17  28  42  60  80 104 136 167 192 227
#     4   9  17  27  39  58  80 102 131 162 194 235
#     4   9  16  27  42  57  77 105 131 159 197 237
#     4   9  17  28  40  56  81 108 132 162 198 234
#     4   9  16  26  39  56  77 100 128 158 189 228
#     4   8  14  24  38  55  74  99 128 154 184 225
#
# _framework density 15.07917
#
# number of rings (size 3 to 8) (size 9 to 14) (size 15 to 20)
#    0.000    3.143    0.000    2.143    0.000    2.286 
#    0.000    5.000    0.000    0.000    0.000    1.000 
#    0.000    3.429    0.000    0.000    0.000    0.000 
#
# Total GULP energy -693845.936611 kJ/mol
# GULP energy per Si atom -12390.106011 kJ/mol
# Density = 1.504485 g / cm^3
# Si number density = 15.079170 Si / 1000 Ang^3
#
#
#
# Elastic Constant Matrix: (Units=GPa)
#
#
# Indices 1 2 3 4 5 6 
#
# 1 87.4363 24.9410 56.9018 0.0000 0.0000 0.0000
# 2 24.9410 32.7486 29.9055 0.0000 0.0000 0.0000
# 3 56.9018 29.9055 122.8538 0.0000 0.0000 0.0000
# 4 0.0000 0.0000 0.0000 20.0284 0.0000 0.0000
# 5 0.0000 0.0000 0.0000 0.0000 24.7759 0.0000
# 6 0.0000 0.0000 0.0000 0.0000 0.0000 17.3576
#
#
#
# Elastic Compliance Matrix: (Units=1/GPa)
#
#
# Indices 1 2 3 4 5 6 
#
# 1 0.017777 -0.007741 -0.006349 0.000000 0.000000 0.000000
# 2 -0.007741 0.042634 -0.006793 0.000000 0.000000 0.000000
# 3 -0.006349 -0.006793 0.012734 0.000000 0.000000 0.000000
# 4 0.000000 0.000000 0.000000 0.049929 0.000000 0.000000
# 5 0.000000 0.000000 0.000000 0.000000 0.040362 0.000000
# 6 0.000000 0.000000 0.000000 0.000000 0.000000 0.057612
#
#
# Mechanical properties :
#
#
# Convention : Reuss Voigt Hill
#
# Bulk Modulus (GPa) = 31.86822 51.83726 41.85274
# Shear Modulus (GPa) = 18.29668 21.18507 19.74088
#
# Velocity S-wave (km/s) = 3.48713 3.75230 3.62214
# Velocity P-wave (km/s) = 6.11500 7.29550 6.73118
#
# Compressibility (1/GPa) = 0.03137923
#
# Stress axis : x y z
#
# Youngs Moduli (GPa) = 56.25252 23.45543 78.52880
#
# Poissons Ratio (x) = 0.18156 0.49862
# Poissons Ratio (y) = 0.43543 0.53344
# Poissons Ratio (z) = 0.35717 0.15933
#
# Static dielectric constant tensor:
#      x y z
#    x 2.966020 0.000000 0.000000 
#    y 0.000000 2.888980 0.000000 
#    z 0.000000 0.000000 3.280740 
# 
# 
# High freq. dielectric constant tensor:
#      x y z
#    x 1.552230 0.000000 0.000000 
#    y 0.000000 1.568920 0.000000 
#    z 0.000000 0.000000 1.572060 
# 
# From -- ./inp_files/28360.got.cif
#   From: 2010.03.12/outbox.cif.g09.slc.cpg/sg59_15_cif.got.tgz:28360.got - 2010.04.16 16:29:54.
