data_PCOD8246396
_publ_section_title
;
Structure prediction by ZEFSAII (Michael W. Deem and Ramdas Pophale) SiO2 
 PCOD8246396
Probable space group: P B C N
;
_chemical_formula_sum "Si O2"
_cell_formula_units_Z 48
_cell_length_a 24.692188
_cell_length_b 16.464287
_cell_length_c 5.256865
_cell_angle_alpha 90.000000
_cell_angle_beta 90.000000
_cell_angle_gamma 90.000000
_cell_volume 2137.122059
_symmetry_space_group_name_H-M "P B C N"
_symmetry_group_IT_number 60
_symmetry_cell_setting 'orthorhombic'
loop_
_space_group_symop_operation_xyz
x,y,z
1/2-x,1/2-y,1/2+z
1/2+x,1/2-y,-z
-x,y,1/2-z
-x,-y,-z
1/2+x,1/2+y,1/2-z
1/2-x,1/2+y,z
x,-y,1/2+z
loop_
_atom_site_type_symbol
_atom_site_label
_atom_site_fract_x
_atom_site_fract_y
_atom_site_fract_z
Si Si1 0.483692 0.379980 0.499932
Si Si2 0.934658 0.726525 0.491519
Si Si3 0.116705 0.784888 0.508082
Si Si4 0.239466 0.797002 0.515940
Si Si5 0.309767 0.047422 0.060620
Si Si6 0.061918 0.451518 0.578693
O O1 0.500000 0.430919 0.250000
O O2 0.517677 0.293937 0.495746
O O3 0.420145 0.365289 0.506027
O O4 0.500000 0.430562 0.750000
O O5 0.894370 0.735282 0.250561
O O6 0.963074 0.637923 0.472930
O O7 0.897757 0.730353 0.745497
O O8 0.176530 0.820795 0.519214
O O9 0.253888 0.772302 0.228520
O O10 0.277798 0.869648 0.602229
O O11 0.373746 0.061803 0.070276
O O12 0.291938 0.989168 0.290715
O O13 0.043247 0.514598 0.356703
#
# Coordination Sequence:
#
# PCOD8246396 Si02
#       6
#     8   8   8   8   8   8
#     4   8  16  29  48  68  92 124 155 195 261 317
#     4  10  18  32  51  72  98 128 164 212 266 311
#     4  10  19  32  51  72  98 126 159 210 266 304
#     4  12  23  35  55  84 109 137 185 233 268 315
#     4  10  21  36  51  72 109 150 181 215 270 328
#     4  10  19  30  46  66  92 133 176 207 245 303
#
# _framework density 22.460111999999999
#
# number of rings (size 3 to 8) (size 9 to 14) (size 15 to 20)
#    0.000    2.000    0.000    5.000    0.000    2.667 
#    0.000    0.000    0.000   27.000    0.000    0.000 
#    0.000   36.000    0.000    0.000    0.000    0.000 
#
# Total GULP energy -595021.903064 kJ/mol
# GULP energy per Si atom -12396.289647 kJ/mol
# Density = 2.240899 g / cm^3
# Si number density = 22.460112 Si / 1000 Ang^3
#
#
#
# Elastic Constant Matrix: (Units=GPa)
#
#
# Indices 1 2 3 4 5 6 
#
# 1 73.8243 -2.5541 28.9805 0.0000 0.0000 0.0000
# 2 -2.5541 56.9403 -0.8751 0.0000 0.0000 0.0000
# 3 28.9805 -0.8751 183.8362 0.0000 0.0000 0.0000
# 4 0.0000 0.0000 0.0000 -354.8423 0.0000 0.0000
# 5 0.0000 0.0000 0.0000 0.0000 28.1925 0.0000
# 6 0.0000 0.0000 0.0000 0.0000 0.0000 19.7310
#
#
#
# Elastic Compliance Matrix: (Units=1/GPa)
#
#
# Indices 1 2 3 4 5 6 
#
# 1 0.014461 0.000614 -0.002277 0.000000 0.000000 0.000000
# 2 0.000614 0.017590 -0.000013 0.000000 0.000000 0.000000
# 3 -0.002277 -0.000013 0.005798 0.000000 0.000000 0.000000
# 4 0.000000 0.000000 0.000000 -0.002818 0.000000 0.000000
# 5 0.000000 0.000000 0.000000 0.000000 0.035470 0.000000
# 6 0.000000 0.000000 0.000000 0.000000 0.000000 0.050682
#
#
# Mechanical properties :
#
#
# Convention : Reuss Voigt Hill
#
# Bulk Modulus (GPa) = 28.98838 40.63369 34.81104
# Shear Modulus (GPa) = 36.75559 -42.11380 -2.67910
#
# Velocity S-wave (km/s) = 4.04974 -4.33488 -1.09335
# Velocity P-wave (km/s) = 5.89930 2.63138 3.73347
#
# Compressibility (1/GPa) = 0.03449658
#
# Stress axis : x y z
#
# Youngs Moduli (GPa) = 69.15319 56.85184 172.45929
#
# Poissons Ratio (x) = -0.03489 0.39264
# Poissons Ratio (y) = -0.04244 0.00224
# Poissons Ratio (z) = 0.15744 0.00074
#
# Static dielectric constant tensor:
#      x y z
#    x 4.046640 0.000000 0.000000 
#    y 0.000000 3.540970 0.000000 
#    z 0.000000 0.000000 5.278070 
# 
# 
# High freq. dielectric constant tensor:
#      x y z
#    x 1.888480 0.000000 0.000000 
#    y 0.000000 1.849770 0.000000 
#    z 0.000000 0.000000 1.922570 
# 
# From -- ./inp_files/1329.got.cif
#   From: 2010.03.12/outbox.cif.g09.slc.cpg/sg60_1_cif.got.tgz:1329.got - 2010.04.10 18:46:24.
