data_PCOD8246202
_publ_section_title
;
Structure prediction by ZEFSAII (Michael W. Deem and Ramdas Pophale) SiO2 
 PCOD8246202
Probable space group: P M M N
;
_chemical_formula_sum "Si O2"
_cell_formula_units_Z 64
_cell_length_a 19.237436
_cell_length_b 9.335639
_cell_length_c 20.857472
_cell_angle_alpha 90.000000
_cell_angle_beta 90.000000
_cell_angle_gamma 90.000000
_cell_volume 3745.871774
_symmetry_space_group_name_H-M "P M M N"
_symmetry_group_IT_number 59
_space_group.IT_coordinate_system_code '2'
_symmetry_cell_setting 'orthorhombic'
loop_
_space_group_symop_operation_xyz
x,y,z
1/2-x,1/2-y,z
1/2+x,-y,-z
-x,1/2+y,-z
-x,-y,-z
1/2+x,1/2+y,-z
1/2-x,y,z
x,1/2-y,z
loop_
_atom_site_type_symbol
_atom_site_label
_atom_site_fract_x
_atom_site_fract_y
_atom_site_fract_z
Si Si1 0.330076 0.583066 0.127447
Si Si2 0.327792 0.420961 0.866608
Si Si3 0.083381 0.917914 0.250247
Si Si4 0.332701 0.090940 0.006817
Si Si5 0.420282 0.591931 0.632819
Si Si6 0.085798 0.413341 0.373951
Si Si7 0.422481 0.417049 0.752629
Si Si8 0.572202 0.080855 0.506496
O O1 0.250000 0.541395 0.139440
O O2 0.339513 0.750000 0.115885
O O3 0.373621 0.531519 0.188576
O O4 0.361033 0.507850 0.064077
O O5 0.250000 0.479124 0.852704
O O6 0.326926 0.250000 0.866831
O O7 0.379621 0.481712 0.812446
O O8 0.354788 0.471605 0.936973
O O9 0.093621 0.750000 0.264981
O O10 0.002994 0.954664 0.236892
O O11 0.113138 0.008483 0.309893
O O12 0.250000 0.096375 0.008175
O O13 0.363419 0.250000 0.017051
O O14 0.398451 0.750000 0.655668
O O15 0.502980 0.582168 0.626073
O O16 0.393089 0.482562 0.686340
O O17 0.388014 0.560833 0.561951
O O18 0.113637 0.250000 0.376800
O O19 0.114037 0.503898 0.435480
O O20 0.409396 0.250000 0.746971
O O21 0.560724 0.250000 0.521270
O O22 0.500000 0.000000 0.500000
#
# Coordination Sequence:
#
# PCOD8246202 Si02
#       8
#     8   8   8   8   8   8   8   8
#     4   9  17  29  44  61  82 108 137 169 204 243
#     4   8  14  26  44  64  83 104 134 170 205 241
#     4   9  17  28  41  59  84 111 137 166 203 247
#     4   8  14  26  44  62  79 102 134 171 206 240
#     4   8  15  25  36  54  82 111 135 164 203 242
#     4   9  16  25  38  57  81 109 139 171 208 248
#     4   9  16  26  42  61  81 108 138 167 200 241
#     4   9  15  23  36  55  80 110 142 175 209 245
#
# _framework density 17.085476
#
# number of rings (size 3 to 8) (size 9 to 14) (size 15 to 20)
#    0.000    3.375    0.000    2.250    0.000    4.000 
#    0.000    1.250    0.000    1.125    0.000    0.875 
#    0.000    1.000    0.000    0.000    0.000    0.000 
#
# Total GULP energy -793053.506876 kJ/mol
# GULP energy per Si atom -12391.461045 kJ/mol
# Density = 1.704659 g / cm^3
# Si number density = 17.085476 Si / 1000 Ang^3
#
#
#
# Elastic Constant Matrix: (Units=GPa)
#
#
# Indices 1 2 3 4 5 6 
#
# 1 29.1108 21.5102 43.2564 0.0000 0.0000 0.0000
# 2 21.5102 72.2217 72.4506 0.0000 0.0000 0.0000
# 3 43.2564 72.4506 191.2157 0.0000 0.0000 0.0000
# 4 0.0000 0.0000 0.0000 34.3069 0.0000 0.0000
# 5 0.0000 0.0000 0.0000 0.0000 7.0979 0.0000
# 6 0.0000 0.0000 0.0000 0.0000 0.0000 8.9001
#
#
#
# Elastic Compliance Matrix: (Units=1/GPa)
#
#
# Indices 1 2 3 4 5 6 
#
# 1 0.053362 -0.006103 -0.009759 0.000000 0.000000 0.000000
# 2 -0.006103 0.023034 -0.007347 0.000000 0.000000 0.000000
# 3 -0.009759 -0.007347 0.010221 0.000000 0.000000 0.000000
# 4 0.000000 0.000000 0.000000 0.029149 0.000000 0.000000
# 5 0.000000 0.000000 0.000000 0.000000 0.140886 0.000000
# 6 0.000000 0.000000 0.000000 0.000000 0.000000 0.112358
#
#
# Mechanical properties :
#
#
# Convention : Reuss Voigt Hill
#
# Bulk Modulus (GPa) = 24.87605 62.99808 43.93707
# Shear Modulus (GPa) = 11.65967 20.41637 16.03802
#
# Velocity S-wave (km/s) = 2.61517 3.46056 3.06713
# Velocity P-wave (km/s) = 4.86931 7.27459 6.18991
#
# Compressibility (1/GPa) = 0.04019931
#
# Stress axis : x y z
#
# Youngs Moduli (GPa) = 18.73979 43.41371 97.83725
#
# Poissons Ratio (x) = 0.26497 0.95480
# Poissons Ratio (y) = 0.11437 0.71880
# Poissons Ratio (z) = 0.18288 0.31895
#
# Static dielectric constant tensor:
#      x y z
#    x 2.723330 0.000000 0.000000 
#    y 0.000000 3.173120 0.000000 
#    z 0.000000 0.000000 3.836460 
# 
# 
# High freq. dielectric constant tensor:
#      x y z
#    x 1.591550 0.000000 0.000000 
#    y 0.000000 1.648620 0.000000 
#    z 0.000000 0.000000 1.681560 
# 
# From -- ./inp_files/29722.got.cif
#   From: 2010.03.12/outbox.cif.g09.slc.cpg/sg59_15_cif.got.tgz:29722.got - 2010.04.16 16:29:54.
