data_PCOD8246139
_publ_section_title
;
Structure prediction by ZEFSAII (Michael W. Deem and Ramdas Pophale) SiO2 
 PCOD8246139
Probable space group: P M M N
;
_chemical_formula_sum "Si O2"
_cell_formula_units_Z 64
_cell_length_a 9.564628
_cell_length_b 30.640783
_cell_length_c 15.326230
_cell_angle_alpha 90.000000
_cell_angle_beta 90.000000
_cell_angle_gamma 90.000000
_cell_volume 4491.622838
_symmetry_space_group_name_H-M "P M M N"
_symmetry_group_IT_number 59
_space_group.IT_coordinate_system_code '2'
_symmetry_cell_setting 'orthorhombic'
loop_
_space_group_symop_operation_xyz
x,y,z
1/2-x,1/2-y,z
1/2+x,-y,-z
-x,1/2+y,-z
-x,-y,-z
1/2+x,1/2+y,-z
1/2-x,y,z
x,1/2-y,z
loop_
_atom_site_type_symbol
_atom_site_label
_atom_site_fract_x
_atom_site_fract_y
_atom_site_fract_z
Si Si1 0.417024 0.866392 0.103870
Si Si2 0.412802 0.699350 0.759834
Si Si3 0.404889 0.539404 0.898085
Si Si4 0.083923 0.864951 0.909986
Si Si5 0.092098 0.198112 0.405441
Si Si6 0.416454 0.798646 0.244236
Si Si7 0.595248 0.037134 0.894745
Si Si8 0.093967 0.801866 0.437703
O O1 0.250000 0.865083 0.103838
O O2 0.479782 0.831775 0.172723
O O3 0.465848 0.915206 0.131027
O O4 0.474155 0.854360 0.007069
O O5 0.250000 0.690520 0.738531
O O6 0.438661 0.750000 0.780647
O O7 0.465434 0.672536 0.843936
O O8 0.504859 0.682971 0.678805
O O9 0.250000 0.534549 0.857742
O O10 0.468849 0.587410 0.877058
O O11 0.499445 0.501423 0.855656
O O12 0.397256 0.533930 0.001493
O O13 0.250000 0.867327 0.915637
O O14 0.250000 0.179392 0.401251
O O15 0.095522 0.250000 0.409739
O O16 0.014109 0.179148 0.491073
O O17 0.250000 0.797392 0.238954
O O18 0.475603 0.750000 0.225519
O O19 0.460150 0.814839 0.341039
O O20 0.750000 0.030930 0.855099
O O21 0.250000 0.820792 0.455241
O O22 0.101803 0.750000 0.444506
#
# Coordination Sequence:
#
# PCOD8246139 Si02
#       8
#     8   8   8   8   8   8   8   8
#     4   8  13  21  33  51  76 101 123 150 180 208
#     4   9  16  25  37  53  73  97 124 152 179 209
#     4   8  13  22  35  49  67  91 118 149 182 213
#     4   8  14  23  34  50  73 100 126 150 178 210
#     4   9  16  25  37  52  69  91 119 150 185 220
#     4   8  13  20  32  52  76 100 124 149 177 209
#     4   8  13  21  34  51  69  90 117 149 183 213
#     4   8  13  22  36  53  71  90 115 148 182 213
#
# _framework density 14.248747
#
# number of rings (size 3 to 8) (size 9 to 14) (size 15 to 20)
#    0.000    3.750    0.000    2.625    0.000    2.000 
#    0.000    3.125    0.000    1.500    0.000    0.000 
#    0.000    5.000    0.000    2.000    0.000    2.750 
#
# Total GULP energy -792981.243385 kJ/mol
# GULP energy per Si atom -12390.331928 kJ/mol
# Density = 1.421632 g / cm^3
# Si number density = 14.248747 Si / 1000 Ang^3
#
#
#
# Elastic Constant Matrix: (Units=GPa)
#
#
# Indices 1 2 3 4 5 6 
#
# 1 49.6351 30.2296 36.7895 0.0000 0.0000 0.0000
# 2 30.2296 77.9968 54.7415 0.0000 0.0000 0.0000
# 3 36.7895 54.7415 94.8890 0.0000 0.0000 0.0000
# 4 0.0000 0.0000 0.0000 1.9804 0.0000 0.0000
# 5 0.0000 0.0000 0.0000 0.0000 7.4252 0.0000
# 6 0.0000 0.0000 0.0000 0.0000 0.0000 14.1585
#
#
#
# Elastic Compliance Matrix: (Units=1/GPa)
#
#
# Indices 1 2 3 4 5 6 
#
# 1 0.029741 -0.005770 -0.008202 0.000000 0.000000 0.000000
# 2 -0.005770 0.022664 -0.010837 0.000000 0.000000 0.000000
# 3 -0.008202 -0.010837 0.019971 0.000000 0.000000 0.000000
# 4 0.000000 0.000000 0.000000 0.504937 0.000000 0.000000
# 5 0.000000 0.000000 0.000000 0.000000 0.134677 0.000000
# 6 0.000000 0.000000 0.000000 0.000000 0.000000 0.070629
#
#
# Mechanical properties :
#
#
# Convention : Reuss Voigt Hill
#
# Bulk Modulus (GPa) = 43.94500 51.78245 47.86373
# Shear Modulus (GPa) = 5.95364 11.43018 8.69191
#
# Velocity S-wave (km/s) = 2.04632 2.83537 2.47252
# Velocity P-wave (km/s) = 6.04082 6.86584 6.46650
#
# Compressibility (1/GPa) = 0.02275572
#
# Stress axis : x y z
#
# Youngs Moduli (GPa) = 33.62414 44.12361 50.07331
#
# Poissons Ratio (x) = 0.25460 0.41070
# Poissons Ratio (y) = 0.19402 0.54267
# Poissons Ratio (z) = 0.27578 0.47819
#
# Static dielectric constant tensor:
#      x y z
#    x 2.717870 0.000000 0.000000 
#    y 0.000000 2.823800 0.000000 
#    z 0.000000 0.000000 2.819670 
# 
# 
# High freq. dielectric constant tensor:
#      x y z
#    x 1.513340 0.000000 0.000000 
#    y 0.000000 1.519520 0.000000 
#    z 0.000000 0.000000 1.520380 
# 
# From -- ./inp_files/26676.got.cif
#   From: 2010.03.12/outbox.cif.g09.slc.cpg/sg59_14_cif.got.tgz:26676.got - 2010.04.16 16:29:54.
