data_PCOD8246752
_publ_section_title
;
Structure prediction by ZEFSAII (Michael W. Deem and Ramdas Pophale) SiO2 
 PCOD8246752
Probable space group: P B C N
;
_chemical_formula_sum "Si O2"
_cell_formula_units_Z 48
_cell_length_a 8.208848
_cell_length_b 19.135940
_cell_length_c 15.319308
_cell_angle_alpha 90.000000
_cell_angle_beta 90.000000
_cell_angle_gamma 90.000000
_cell_volume 2406.418527
_symmetry_space_group_name_H-M "P B C N"
_symmetry_group_IT_number 60
_symmetry_cell_setting 'orthorhombic'
loop_
_space_group_symop_operation_xyz
x,y,z
1/2-x,1/2-y,1/2+z
1/2+x,1/2-y,-z
-x,y,1/2-z
-x,-y,-z
1/2+x,1/2+y,1/2-z
1/2-x,1/2+y,z
x,-y,1/2+z
loop_
_atom_site_type_symbol
_atom_site_label
_atom_site_fract_x
_atom_site_fract_y
_atom_site_fract_z
Si Si1 0.545527 0.146593 0.505826
Si Si2 0.187197 0.797636 0.752873
Si Si3 0.100790 0.577782 0.665528
Si Si4 0.670501 0.255621 0.068374
Si Si5 0.368746 0.084228 0.179090
Si Si6 0.609497 0.680261 0.830712
O O1 0.516021 0.089887 0.582141
O O2 0.702824 0.192706 0.525188
O O3 0.386444 0.196520 0.500288
O O4 0.574541 0.106125 0.416485
O O5 0.254701 0.785681 0.849721
O O6 0.206264 0.876431 0.714208
O O7 0.288477 0.749904 0.687007
O O8 0.000000 0.775633 0.750000
O O9 0.154845 0.498339 0.679098
O O10 0.268897 0.617492 0.649091
O O11 0.000000 0.604952 0.750000
O O12 0.511235 0.302309 0.089882
O O13 0.500000 0.108861 0.250000
O O14 0.500000 0.656136 0.750000
#
# Coordination Sequence:
#
# PCOD8246752 Si02
#       6
#     8   8   8   8   8   8
#     4  12  23  41  63 102 126 174 218 272 325 386
#     4  11  21  39  67  95 124 167 221 271 324 386
#     4  11  24  41  66  93 129 176 221 261 326 395
#     4  11  23  37  69  93 133 165 216 280 327 378
#     4  11  23  45  65  90 134 177 211 263 329 394
#     4  10  19  39  62  91 127 165 211 273 322 373
#
# _framework density 19.946655
#
# number of rings (size 3 to 8) (size 9 to 14) (size 15 to 20)
#    0.000    1.000    3.333    5.500    2.333    0.667 
#    0.000    0.833    0.000    0.000    0.000    0.000 
#    0.000    0.000    0.000    0.000    0.000    0.000 
#
# Total GULP energy -595234.611685 kJ/mol
# GULP energy per Si atom -12400.721077 kJ/mol
# Density = 1.990126 g / cm^3
# Si number density = 19.946655 Si / 1000 Ang^3
#
#
#
# Elastic Constant Matrix: (Units=GPa)
#
#
# Indices 1 2 3 4 5 6 
#
# 1 110.8588 36.6935 36.2321 0.0000 0.0000 0.0000
# 2 36.6935 78.5992 38.6402 0.0000 0.0000 0.0000
# 3 36.2321 38.6402 117.1737 0.0000 0.0000 0.0000
# 4 0.0000 0.0000 0.0000 3.4687 0.0000 0.0000
# 5 0.0000 0.0000 0.0000 0.0000 22.0872 0.0000
# 6 0.0000 0.0000 0.0000 0.0000 0.0000 23.2663
#
#
#
# Elastic Compliance Matrix: (Units=1/GPa)
#
#
# Indices 1 2 3 4 5 6 
#
# 1 0.011067 -0.004158 -0.002051 0.000000 0.000000 0.000000
# 2 -0.004158 0.016747 -0.004237 0.000000 0.000000 0.000000
# 3 -0.002051 -0.004237 0.010566 0.000000 0.000000 0.000000
# 4 0.000000 0.000000 0.000000 0.288291 0.000000 0.000000
# 5 0.000000 0.000000 0.000000 0.000000 0.045275 0.000000
# 6 0.000000 0.000000 0.000000 0.000000 0.000000 0.042981
#
#
# Mechanical properties :
#
#
# Convention : Reuss Voigt Hill
#
# Bulk Modulus (GPa) = 57.18300 58.86259 58.02279
# Shear Modulus (GPa) = 11.32125 22.76884 17.04505
#
# Velocity S-wave (km/s) = 2.38497 3.38226 2.92641
# Velocity P-wave (km/s) = 6.02614 6.69529 6.36951
#
# Compressibility (1/GPa) = 0.01748771
#
# Stress axis : x y z
#
# Youngs Moduli (GPa) = 90.35737 59.71239 94.64638
#
# Poissons Ratio (x) = 0.24831 0.19410
# Poissons Ratio (y) = 0.37574 0.40099
# Poissons Ratio (z) = 0.18531 0.25299
#
# Static dielectric constant tensor:
#      x y z
#    x 3.677060 0.000000 0.000000 
#    y 0.000000 3.562020 0.000000 
#    z 0.000000 0.000000 3.765250 
# 
# 
# High freq. dielectric constant tensor:
#      x y z
#    x 1.780020 0.000000 0.000000 
#    y 0.000000 1.770800 0.000000 
#    z 0.000000 0.000000 1.791370 
# 
# From -- ./inp_files/15015.got.cif
#   From: 2010.03.12/outbox.cif.g09.slc.cpg/sg60_8_cif.got.tgz:15015.got - 2010.04.10 18:46:24.
