data_PCOD8246106
_publ_section_title
;
Structure prediction by ZEFSAII (Michael W. Deem and Ramdas Pophale) SiO2 
 PCOD8246106
Probable space group: P M M N
;
_chemical_formula_sum "Si O2"
_cell_formula_units_Z 48
_cell_length_a 13.088255
_cell_length_b 10.437440
_cell_length_c 16.319162
_cell_angle_alpha 90.000000
_cell_angle_beta 90.000000
_cell_angle_gamma 90.000000
_cell_volume 2229.326063
_symmetry_space_group_name_H-M "P M M N"
_symmetry_group_IT_number 59
_space_group.IT_coordinate_system_code '2'
_symmetry_cell_setting 'orthorhombic'
loop_
_space_group_symop_operation_xyz
x,y,z
1/2-x,1/2-y,z
1/2+x,-y,-z
-x,1/2+y,-z
-x,-y,-z
1/2+x,1/2+y,-z
1/2-x,y,z
x,1/2-y,z
loop_
_atom_site_type_symbol
_atom_site_label
_atom_site_fract_x
_atom_site_fract_y
_atom_site_fract_z
Si Si1 0.872172 0.997586 0.941591
Si Si2 0.869702 0.250000 0.664507
Si Si3 0.131229 0.398372 0.709276
Si Si4 0.127187 0.750000 0.148503
Si Si5 0.970618 0.002328 0.593920
Si Si6 0.628946 0.750000 0.659473
Si Si7 0.628747 0.750000 0.844336
Si Si8 0.129107 0.107573 0.891372
O O1 0.750000 0.006055 0.940421
O O2 0.911509 0.875667 0.890672
O O3 0.917849 0.124197 0.897802
O O4 0.912735 0.985606 0.036152
O O5 0.750000 0.250000 0.671531
O O6 0.913312 0.250000 0.757931
O O7 0.902017 0.124493 0.615304
O O8 0.250000 0.413134 0.691197
O O9 0.097805 0.250000 0.695690
O O10 0.103849 0.445771 0.801129
O O11 0.073885 0.491444 0.646916
O O12 0.250000 0.750000 0.145066
O O13 0.909100 0.874547 0.612544
O O14 0.000000 0.000000 0.500000
O O15 0.750000 0.750000 0.658465
O O16 0.586275 0.750000 0.752019
O O17 0.750000 0.750000 0.843707
O O18 0.250000 0.120253 0.902173
O O19 0.081669 0.250000 0.900601
#
# Coordination Sequence:
#
# PCOD8246106 Si02
#       8
#     8   4   8   4   8   4   4   8
#     4   9  14  24  46  80 116 154 208 253 287 355
#     4  11  23  43  67  92 127 169 211 257 315 385
#     4   9  19  38  66  95 125 167 216 265 318 378
#     4   9  18  29  48  80 120 163 200 244 306 363
#     4  12  25  44  66  97 123 161 211 265 327 387
#     4  11  25  43  65  94 133 169 203 255 323 387
#     4   9  16  29  52  80 112 159 206 246 296 357
#     4   8  13  25  50  84 117 157 207 253 300 355
#
# _framework density 21.531171000000001
#
# number of rings (size 3 to 8) (size 9 to 14) (size 15 to 20)
#    0.000    2.333    1.667    3.000    0.000    4.000 
#    0.000    1.250    0.000    8.000    0.000    0.000 
#    0.000    0.000    0.000    0.000    0.000    0.000 
#
# Total GULP energy -595271.257062 kJ/mol
# GULP energy per Si atom -12401.484522 kJ/mol
# Density = 2.148217 g / cm^3
# Si number density = 21.531171 Si / 1000 Ang^3
#
#
#
# Elastic Constant Matrix: (Units=GPa)
#
#
# Indices 1 2 3 4 5 6 
#
# 1 49.5039 37.4473 47.2470 0.0000 0.0000 0.0000
# 2 37.4473 163.6511 89.6032 0.0000 0.0000 0.0000
# 3 47.2470 89.6032 212.3722 0.0000 0.0000 0.0000
# 4 0.0000 0.0000 0.0000 46.2978 0.0000 0.0000
# 5 0.0000 0.0000 0.0000 0.0000 29.5504 0.0000
# 6 0.0000 0.0000 0.0000 0.0000 0.0000 46.1262
#
#
#
# Elastic Compliance Matrix: (Units=1/GPa)
#
#
# Indices 1 2 3 4 5 6 
#
# 1 0.027356 -0.003807 -0.004480 0.000000 0.000000 0.000000
# 2 -0.003807 0.008476 -0.002729 0.000000 0.000000 0.000000
# 3 -0.004480 -0.002729 0.006857 0.000000 0.000000 0.000000
# 4 0.000000 0.000000 0.000000 0.021599 0.000000 0.000000
# 5 0.000000 0.000000 0.000000 0.000000 0.033841 0.000000
# 6 0.000000 0.000000 0.000000 0.000000 0.000000 0.021680
#
#
# Mechanical properties :
#
#
# Convention : Reuss Voigt Hill
#
# Bulk Modulus (GPa) = 48.41008 86.01357 67.21183
# Shear Modulus (GPa) = 33.61907 41.14353 37.38130
#
# Velocity S-wave (km/s) = 3.95576 4.37611 4.17123
# Velocity P-wave (km/s) = 6.58761 8.09746 7.38124
#
# Compressibility (1/GPa) = 0.02065685
#
# Stress axis : x y z
#
# Youngs Moduli (GPa) = 36.55554 117.98040 145.83999
#
# Poissons Ratio (x) = 0.44914 0.65332
# Poissons Ratio (y) = 0.13916 0.39803
# Poissons Ratio (z) = 0.16376 0.32200
#
# Static dielectric constant tensor:
#      x y z
#    x 3.828480 0.000000 0.000000 
#    y 0.000000 3.902990 0.000000 
#    z 0.000000 0.000000 4.051110 
# 
# 
# High freq. dielectric constant tensor:
#      x y z
#    x 1.863520 0.000000 0.000000 
#    y 0.000000 1.830640 0.000000 
#    z 0.000000 0.000000 1.850070 
# 
# From -- ./inp_files/27524.got.cif
#   From: 2010.03.12/outbox.cif.g09.slc.cpg/sg59_14_cif.got.tgz:27524.got - 2010.04.16 16:29:54.
