data_PCOD8246978
_publ_section_title
;
Structure prediction by ZEFSAII (Michael W. Deem and Ramdas Pophale) SiO2 
 PCOD8246978
Probable space group: P B C N
;
_chemical_formula_sum "Si O2"
_cell_formula_units_Z 48
_cell_length_a 8.463122
_cell_length_b 10.263154
_cell_length_c 27.805018
_cell_angle_alpha 90.000000
_cell_angle_beta 90.000000
_cell_angle_gamma 90.000000
_cell_volume 2415.097274
_symmetry_space_group_name_H-M "P B C N"
_symmetry_group_IT_number 60
_symmetry_cell_setting 'orthorhombic'
loop_
_space_group_symop_operation_xyz
x,y,z
1/2-x,1/2-y,1/2+z
1/2+x,1/2-y,-z
-x,y,1/2-z
-x,-y,-z
1/2+x,1/2+y,1/2-z
1/2-x,1/2+y,z
x,-y,1/2+z
loop_
_atom_site_type_symbol
_atom_site_label
_atom_site_fract_x
_atom_site_fract_y
_atom_site_fract_z
Si Si1 0.500000 0.838949 0.750000
Si Si2 0.301312 0.430381 0.794893
Si Si3 0.911722 0.839502 0.461351
Si Si4 0.012496 0.008280 0.625215
Si Si5 0.306558 0.615534 0.712386
Si Si6 0.500000 0.788838 0.250000
Si Si7 0.151995 0.875959 0.541794
O O1 0.612493 0.922080 0.714113
O O2 0.387515 0.757265 0.714187
O O3 0.344984 0.478077 0.848855
O O4 0.371289 0.537360 0.758646
O O5 0.387715 0.293311 0.785509
O O6 0.807225 0.711259 0.455160
O O7 0.035111 0.809746 0.503498
O O8 0.005120 0.868094 0.411041
O O9 0.811185 0.972504 0.473741
O O10 0.068939 0.881539 0.594546
O O11 0.148874 0.038195 0.664284
O O12 0.115185 0.625497 0.715823
#
# Coordination Sequence:
#
# PCOD8246978 Si02
#       7
#     4   8   8   8   8   4   8
#     4  10  22  34  58  82 118 174 200 252 316 364
#     4  11  20  38  55  83 125 161 205 256 307 366
#     4   9  21  41  65  91 130 161 211 268 337 384
#     4  10  20  37  62  86 125 166 210 267 310 378
#     4  11  20  38  53  85 123 160 203 252 306 362
#     4  10  22  32  60  78 124 168 196 258 306 362
#     4   9  21  41  65  93 125 167 205 276 333 385
#
# _framework density 19.874974999999999
#
# number of rings (size 3 to 8) (size 9 to 14) (size 15 to 20)
#    1.000    1.000    3.333    0.500    2.333    0.667 
#    3.000    0.000    3.667    0.000    0.000    0.000 
#    0.000    0.000    0.000    0.000    0.000    0.000 
#
# Total GULP energy -594681.404541 kJ/mol
# GULP energy per Si atom -12389.195928 kJ/mol
# Density = 1.982974 g / cm^3
# Si number density = 19.874975 Si / 1000 Ang^3
#
#
#
# Elastic Constant Matrix: (Units=GPa)
#
#
# Indices 1 2 3 4 5 6 
#
# 1 123.0078 30.0705 57.1343 0.0000 0.0000 0.0000
# 2 30.0705 48.9704 28.1401 0.0000 0.0000 0.0000
# 3 57.1343 28.1401 140.8546 0.0000 0.0000 0.0000
# 4 0.0000 0.0000 0.0000 18.3334 0.0000 0.0000
# 5 0.0000 0.0000 0.0000 0.0000 30.4803 0.0000
# 6 0.0000 0.0000 0.0000 0.0000 0.0000 38.3292
#
#
#
# Elastic Compliance Matrix: (Units=1/GPa)
#
#
# Indices 1 2 3 4 5 6 
#
# 1 0.010893 -0.004688 -0.003482 0.000000 0.000000 0.000000
# 2 -0.004688 0.025086 -0.003110 0.000000 0.000000 0.000000
# 3 -0.003482 -0.003110 0.009133 0.000000 0.000000 0.000000
# 4 0.000000 0.000000 0.000000 0.054545 0.000000 0.000000
# 5 0.000000 0.000000 0.000000 0.000000 0.032808 0.000000
# 6 0.000000 0.000000 0.000000 0.000000 0.000000 0.026090
#
#
# Mechanical properties :
#
#
# Convention : Reuss Voigt Hill
#
# Bulk Modulus (GPa) = 44.34128 60.39139 52.36633
# Shear Modulus (GPa) = 26.50647 30.59445 28.55046
#
# Velocity S-wave (km/s) = 3.65589 3.92771 3.79423
# Velocity P-wave (km/s) = 6.33871 7.14288 6.75278
#
# Compressibility (1/GPa) = 0.02255235
#
# Stress axis : x y z
#
# Youngs Moduli (GPa) = 91.80358 39.86216 109.49057
#
# Poissons Ratio (x) = 0.18687 0.38123
# Poissons Ratio (y) = 0.43038 0.34054
# Poissons Ratio (z) = 0.31964 0.12398
#
# Static dielectric constant tensor:
#      x y z
#    x 3.473490 0.000000 0.000000 
#    y 0.000000 3.598660 0.000000 
#    z 0.000000 0.000000 3.513400 
# 
# 
# High freq. dielectric constant tensor:
#      x y z
#    x 1.764810 0.000000 0.000000 
#    y 0.000000 1.771320 0.000000 
#    z 0.000000 0.000000 1.754750 
# 
# From -- ./inp_files/25153.got.cif
#   From: 2010.03.12/outbox.cif.g09.slc.cpg/sg60_13_cif.got.tgz:25153.got - 2010.04.10 18:46:24.
