data_PCOD8246262
_publ_section_title
;
Structure prediction by ZEFSAII (Michael W. Deem and Ramdas Pophale) SiO2 
 PCOD8246262
Probable space group: P M M N
;
_chemical_formula_sum "Si O2"
_cell_formula_units_Z 64
_cell_length_a 9.000000
_cell_length_b 30.000000
_cell_length_c 12.000000
_cell_angle_alpha 90.000000
_cell_angle_beta 90.000000
_cell_angle_gamma 90.000000
_cell_volume 3240.000000
_symmetry_space_group_name_H-M "P M M N"
_symmetry_group_IT_number 59
_space_group.IT_coordinate_system_code '2'
_symmetry_cell_setting 'orthorhombic'
loop_
_space_group_symop_operation_xyz
x,y,z
1/2-x,1/2-y,z
1/2+x,-y,-z
-x,1/2+y,-z
-x,-y,-z
1/2+x,1/2+y,-z
1/2-x,y,z
x,1/2-y,z
loop_
_atom_site_type_symbol
_atom_site_label
_atom_site_fract_x
_atom_site_fract_y
_atom_site_fract_z
Si Si1 0.421978 0.697397 0.752330
Si Si2 0.586714 0.954238 0.009059
Si Si3 0.575644 0.455346 0.541907
Si Si4 0.427040 0.357401 0.054864
Si Si5 0.583235 0.581079 0.251653
Si Si6 0.080600 0.298263 0.641524
Si Si7 0.080385 0.642014 0.529190
Si Si8 0.925224 0.333965 0.832985
O O1 0.250000 0.694544 0.788263
O O2 0.468419 0.750000 0.741119
O O3 0.523152 0.670543 0.838650
O O4 0.450666 0.669588 0.640665
O O5 0.750000 0.962292 0.958178
O O6 0.518035 0.909728 0.947536
O O7 0.596405 0.946258 0.139296
O O8 0.500000 0.000000 0.000000
O O9 0.500000 0.500000 0.500000
O O10 0.750000 0.463851 0.555889
O O11 0.498978 0.449543 0.660315
O O12 0.547595 0.411429 0.462820
O O13 0.250000 0.357070 0.043188
O O14 0.497016 0.330810 0.952146
O O15 0.750000 0.594823 0.290820
O O16 0.477438 0.623000 0.235124
O O17 0.250000 0.308000 0.674818
O O18 0.065026 0.250000 0.581240
O O19 0.027357 0.337959 0.562896
O O20 0.982439 0.294159 0.754402
O O21 0.250000 0.649372 0.490635
O O22 0.750000 0.332914 0.850057
#
# Coordination Sequence:
#
# PCOD8246262 Si02
#       8
#     8   8   8   8   8   8   8   8
#     4  10  22  41  64  89 120 161 207 259 315 369
#     4   9  20  36  57  86 118 156 200 248 304 362
#     4  11  23  38  59  89 120 160 207 252 308 369
#     4  10  22  40  60  86 121 159 202 252 306 365
#     4  10  20  37  58  82 117 155 192 246 306 361
#     4  11  23  37  58  89 121 154 194 242 299 359
#     4  10  22  41  63  87 119 159 207 255 305 366
#     4  11  21  36  60  87 115 153 196 241 299 362
#
# _framework density 19.753086
#
# number of rings (size 3 to 8) (size 9 to 14) (size 15 to 20)
#    0.000    1.750    1.250    3.750    0.000    7.250 
#    0.000    3.750    0.000    0.000    0.000    0.000 
#    0.000    0.000    0.000    0.000    0.000    0.000 
#
# Total GULP energy -793079.921040 kJ/mol
# GULP energy per Si atom -12391.873766 kJ/mol
# Density = 1.970813 g / cm^3
# Si number density = 19.753086 Si / 1000 Ang^3
#
#
#
# Elastic Constant Matrix: (Units=GPa)
#
#
# Indices 1 2 3 4 5 6 
#
# 1 116.8159 55.4215 51.7879 0.0000 0.0000 0.0000
# 2 55.4215 150.7247 51.8473 0.0000 0.0000 0.0000
# 3 51.7879 51.8473 74.2913 0.0000 0.0000 0.0000
# 4 0.0000 0.0000 0.0000 25.0433 0.0000 0.0000
# 5 0.0000 0.0000 0.0000 0.0000 33.9756 0.0000
# 6 0.0000 0.0000 0.0000 0.0000 0.0000 34.0778
#
#
#
# Elastic Compliance Matrix: (Units=1/GPa)
#
#
# Indices 1 2 3 4 5 6 
#
# 1 0.012908 -0.002173 -0.007482 0.000000 0.000000 0.000000
# 2 -0.002173 0.009096 -0.004834 0.000000 0.000000 0.000000
# 3 -0.007482 -0.004834 0.022049 0.000000 0.000000 0.000000
# 4 0.000000 0.000000 0.000000 0.039931 0.000000 0.000000
# 5 0.000000 0.000000 0.000000 0.000000 0.029433 0.000000
# 6 0.000000 0.000000 0.000000 0.000000 0.000000 0.029345
#
#
# Mechanical properties :
#
#
# Convention : Reuss Voigt Hill
#
# Bulk Modulus (GPa) = 66.32421 73.32725 69.82573
# Shear Modulus (GPa) = 28.28623 30.80437 29.54530
#
# Velocity S-wave (km/s) = 3.78827 3.95330 3.87166
# Velocity P-wave (km/s) = 7.26527 7.61844 7.44395
#
# Compressibility (1/GPa) = 0.01507745
#
# Stress axis : x y z
#
# Youngs Moduli (GPa) = 77.46991 109.93602 45.35258
#
# Poissons Ratio (x) = 0.23885 0.33933
# Poissons Ratio (y) = 0.16832 0.21922
# Poissons Ratio (z) = 0.57963 0.53139
#
# Static dielectric constant tensor:
#      x y z
#    x 5.121600 0.000000 0.000000 
#    y 0.000000 3.904190 0.000000 
#    z 0.000000 0.000000 3.771300 
# 
# 
# High freq. dielectric constant tensor:
#      x y z
#    x 1.777930 0.000000 0.000000 
#    y 0.000000 1.786210 0.000000 
#    z 0.000000 0.000000 1.758280 
# 
# From -- ./inp_files/15008.got.cif
#   From: 2010.03.12/outbox.ucp.g09.slc.cvg/sg59_8_cif.got.tgz:15008.got - 2010.05.04 19:30:51.
