data_PCOD8246040
_publ_section_title
;
Structure prediction by ZEFSAII (Michael W. Deem and Ramdas Pophale) SiO2 
 PCOD8246040
Probable space group: P M M N
;
_chemical_formula_sum "Si O2"
_cell_formula_units_Z 56
_cell_length_a 22.594970
_cell_length_b 13.926328
_cell_length_c 8.905016
_cell_angle_alpha 90.000000
_cell_angle_beta 90.000000
_cell_angle_gamma 90.000000
_cell_volume 2802.096533
_symmetry_space_group_name_H-M "P M M N"
_symmetry_group_IT_number 59
_space_group.IT_coordinate_system_code '2'
_symmetry_cell_setting 'orthorhombic'
loop_
_space_group_symop_operation_xyz
x,y,z
1/2-x,1/2-y,z
1/2+x,-y,-z
-x,1/2+y,-z
-x,-y,-z
1/2+x,1/2+y,-z
1/2-x,y,z
x,1/2-y,z
loop_
_atom_site_type_symbol
_atom_site_label
_atom_site_fract_x
_atom_site_fract_y
_atom_site_fract_z
Si Si1 0.049412 0.857766 0.723672
Si Si2 0.931047 0.548886 0.740046
Si Si3 0.182015 0.140620 0.757234
Si Si4 0.182414 0.137994 0.409252
Si Si5 0.683881 0.358176 0.835532
Si Si6 0.085690 0.856858 0.395893
Si Si7 0.610244 0.493625 0.044818
O O1 0.056699 0.750000 0.784919
O O2 0.088942 0.872229 0.574664
O O3 0.068068 0.931656 0.850133
O O4 0.980167 0.875812 0.684285
O O5 0.865212 0.576346 0.683225
O O6 0.951478 0.443270 0.679500
O O7 0.929866 0.546732 0.920781
O O8 0.250000 0.124850 0.801346
O O9 0.163163 0.250000 0.789093
O O10 0.171875 0.115489 0.583582
O O11 0.142531 0.073074 0.858229
O O12 0.250000 0.109705 0.363409
O O13 0.172381 0.250000 0.375078
O O14 0.750000 0.392917 0.803600
O O15 0.681700 0.250000 0.898824
O O16 0.651044 0.364404 0.675118
O O17 0.656684 0.424745 0.963354
O O18 0.058304 0.750000 0.361600
#
# Coordination Sequence:
#
# PCOD8246040 Si02
#       7
#     8   8   8   8   8   8   8
#     4  11  23  40  58  79 111 149 190 233 278 332
#     4  11  22  37  59  84 112 147 189 231 280 336
#     4   9  19  36  57  83 117 152 185 227 281 339
#     4   9  19  37  60  85 112 143 183 234 287 336
#     4   9  18  35  58  83 111 144 184 229 278 330
#     4   9  20  37  58  82 109 143 184 233 280 325
#     4  11  22  36  54  82 114 150 185 226 277 333
#
# _framework density 19.985035
#
# number of rings (size 3 to 8) (size 9 to 14) (size 15 to 20)
#    0.000    2.143    0.000    3.857    0.000    4.571 
#    0.000    5.000    0.000    3.429    0.000    0.000 
#    0.000    0.000    0.000    0.000    0.000    0.000 
#
# Total GULP energy -694260.333197 kJ/mol
# GULP energy per Si atom -12397.505950 kJ/mol
# Density = 1.993955 g / cm^3
# Si number density = 19.985035 Si / 1000 Ang^3
#
#
#
# Elastic Constant Matrix: (Units=GPa)
#
#
# Indices 1 2 3 4 5 6 
#
# 1 90.9017 44.1098 47.6614 0.0000 0.0000 0.0000
# 2 44.1098 98.8156 54.6939 0.0000 0.0000 0.0000
# 3 47.6614 54.6939 104.8015 0.0000 0.0000 0.0000
# 4 0.0000 0.0000 0.0000 31.0976 0.0000 0.0000
# 5 0.0000 0.0000 0.0000 0.0000 21.7398 0.0000
# 6 0.0000 0.0000 0.0000 0.0000 0.0000 33.9613
#
#
#
# Elastic Compliance Matrix: (Units=1/GPa)
#
#
# Indices 1 2 3 4 5 6 
#
# 1 0.015635 -0.004280 -0.004877 0.000000 0.000000 0.000000
# 2 -0.004280 0.015402 -0.006092 0.000000 0.000000 0.000000
# 3 -0.004877 -0.006092 0.014939 0.000000 0.000000 0.000000
# 4 0.000000 0.000000 0.000000 0.032157 0.000000 0.000000
# 5 0.000000 0.000000 0.000000 0.000000 0.045999 0.000000
# 6 0.000000 0.000000 0.000000 0.000000 0.000000 0.029445
#
#
# Mechanical properties :
#
#
# Convention : Reuss Voigt Hill
#
# Bulk Modulus (GPa) = 64.60348 65.27208 64.93778
# Shear Modulus (GPa) = 26.42258 27.22999 26.82629
#
# Velocity S-wave (km/s) = 3.64004 3.69524 3.66774
# Velocity P-wave (km/s) = 7.07549 7.13707 7.10635
#
# Compressibility (1/GPa) = 0.01547904
#
# Stress axis : x y z
#
# Youngs Moduli (GPa) = 63.96060 64.92666 66.93989
#
# Poissons Ratio (x) = 0.27787 0.32645
# Poissons Ratio (y) = 0.27374 0.40777
# Poissons Ratio (z) = 0.31192 0.39551
#
# Static dielectric constant tensor:
#      x y z
#    x 3.497070 0.000000 0.000000 
#    y 0.000000 3.883340 0.000000 
#    z 0.000000 0.000000 3.570780 
# 
# 
# High freq. dielectric constant tensor:
#      x y z
#    x 1.767690 0.000000 0.000000 
#    y 0.000000 1.797010 0.000000 
#    z 0.000000 0.000000 1.776340 
# 
# From -- ./inp_files/11457.got.cif
#   From: 2010.03.12/outbox.cif.g09.slc.cpg/sg59_6_cif.got.tgz:11457.got - 2010.04.16 16:29:54.
