data_PCOD8246860
_publ_section_title
;
Structure prediction by ZEFSAII (Michael W. Deem and Ramdas Pophale) SiO2 
 PCOD8246860
Probable space group: P B C N
;
_chemical_formula_sum "Si O2"
_cell_formula_units_Z 56
_cell_length_a 22.449755
_cell_length_b 21.636759
_cell_length_c 5.494203
_cell_angle_alpha 90.000000
_cell_angle_beta 90.000000
_cell_angle_gamma 90.000000
_cell_volume 2668.753828
_symmetry_space_group_name_H-M "P B C N"
_symmetry_group_IT_number 60
_symmetry_cell_setting 'orthorhombic'
loop_
_space_group_symop_operation_xyz
x,y,z
1/2-x,1/2-y,1/2+z
1/2+x,1/2-y,-z
-x,y,1/2-z
-x,-y,-z
1/2+x,1/2+y,1/2-z
1/2-x,1/2+y,z
x,-y,1/2+z
loop_
_atom_site_type_symbol
_atom_site_label
_atom_site_fract_x
_atom_site_fract_y
_atom_site_fract_z
Si Si1 0.469854 0.755418 0.997444
Si Si2 0.740027 0.529420 0.655618
Si Si3 0.359504 0.642837 0.357352
Si Si4 0.238157 0.840589 0.207533
Si Si5 0.888759 0.016356 0.274840
Si Si6 0.984677 0.121477 0.997746
Si Si7 0.164080 0.252913 0.024549
O O1 0.500000 0.780776 0.750000
O O2 0.470612 0.680561 0.009467
O O3 0.500000 0.781497 0.250000
O O4 0.401542 0.776869 0.958662
O O5 0.766941 0.496743 0.411791
O O6 0.755281 0.602596 0.614365
O O7 0.668443 0.520583 0.669159
O O8 0.301503 0.623027 0.508439
O O9 0.372661 0.587817 0.162402
O O10 0.418270 0.649031 0.523663
O O11 0.343712 0.709125 0.254830
O O12 0.297807 0.812703 0.094436
O O13 0.198224 0.785293 0.315994
O O14 0.923528 0.983921 0.505397
O O15 0.000000 0.083668 0.750000
O O16 0.000000 0.082883 0.250000
#
# Coordination Sequence:
#
# PCOD8246860 Si02
#       7
#     8   8   8   8   8   8   8
#     4  10  20  39  57  76 111 163 204 233 278 367
#     4  10  20  39  57  78 110 161 203 232 280 368
#     4  12  22  37  58  81 117 154 194 243 299 365
#     4  12  24  35  58  90 127 153 188 250 317 371
#     4  10  20  35  56  77 101 155 201 235 279 346
#     4  10  20  35  55  76  99 150 196 233 275 339
#     4  12  24  36  56  93 126 154 190 248 318 371
#
# _framework density 20.983574999999998
#
# number of rings (size 3 to 8) (size 9 to 14) (size 15 to 20)
#    0.000    1.143    7.143    3.429    0.000    0.000 
#    0.000    0.000    0.000    2.571    0.000    0.000 
#    0.000    3.429    0.000    0.000    0.000    0.000 
#
# Total GULP energy -693750.034153 kJ/mol
# GULP energy per Si atom -12388.393467 kJ/mol
# Density = 2.093582 g / cm^3
# Si number density = 20.983575 Si / 1000 Ang^3
#
#
#
# Elastic Constant Matrix: (Units=GPa)
#
#
# Indices 1 2 3 4 5 6 
#
# 1 106.8282 29.6252 41.8678 0.0000 0.0000 0.0000
# 2 29.6252 45.2606 21.5615 0.0000 0.0000 0.0000
# 3 41.8678 21.5615 157.9848 0.0000 0.0000 0.0000
# 4 0.0000 0.0000 0.0000 26.1754 0.0000 0.0000
# 5 0.0000 0.0000 0.0000 0.0000 29.5887 0.0000
# 6 0.0000 0.0000 0.0000 0.0000 0.0000 -2.7089
#
#
#
# Elastic Compliance Matrix: (Units=1/GPa)
#
#
# Indices 1 2 3 4 5 6 
#
# 1 0.012162 -0.006872 -0.002285 0.000000 0.000000 0.000000
# 2 -0.006872 0.027514 -0.001934 0.000000 0.000000 0.000000
# 3 -0.002285 -0.001934 0.007199 0.000000 0.000000 0.000000
# 4 0.000000 0.000000 0.000000 0.038204 0.000000 0.000000
# 5 0.000000 0.000000 0.000000 0.000000 0.033797 0.000000
# 6 0.000000 0.000000 0.000000 0.000000 0.000000 -0.369157
#
#
# Mechanical properties :
#
#
# Convention : Reuss Voigt Hill
#
# Bulk Modulus (GPa) = 40.49767 55.13140 47.81453
# Shear Modulus (GPa) = -22.74092 25.07900 1.16904
#
# Velocity S-wave (km/s) = -3.29561 3.46088 0.74722
# Velocity P-wave (km/s) = 2.20460 6.50391 4.85598
#
# Compressibility (1/GPa) = 0.02469278
#
# Stress axis : x y z
#
# Youngs Moduli (GPa) = 82.22214 36.34569 138.90321
#
# Poissons Ratio (x) = 0.24977 0.31743
# Poissons Ratio (y) = 0.56504 0.26861
# Poissons Ratio (z) = 0.18790 0.07029
#
# Static dielectric constant tensor:
#      x y z
#    x 3.782150 0.000000 0.000000 
#    y 0.000000 3.434530 0.000000 
#    z 0.000000 0.000000 4.603420 
# 
# 
# High freq. dielectric constant tensor:
#      x y z
#    x 1.788090 0.000000 0.000000 
#    y 0.000000 1.777730 0.000000 
#    z 0.000000 0.000000 1.849570 
# 
# From -- ./inp_files/2129.got.cif
#   From: 2010.03.12/outbox.cif.g09.slc.cpg/sg60_2_cif.got.tgz:2129.got - 2010.04.10 18:46:24.
