data_PCOD8246982
_publ_section_title
;
Structure prediction by ZEFSAII (Michael W. Deem and Ramdas Pophale) SiO2 
 PCOD8246982
Probable space group: P B C N
;
_chemical_formula_sum "Si O2"
_cell_formula_units_Z 52
_cell_length_a 7.797265
_cell_length_b 16.091011
_cell_length_c 19.598515
_cell_angle_alpha 90.000000
_cell_angle_beta 90.000000
_cell_angle_gamma 90.000000
_cell_volume 2458.944870
_symmetry_space_group_name_H-M "P B C N"
_symmetry_group_IT_number 60
_symmetry_cell_setting 'orthorhombic'
loop_
_space_group_symop_operation_xyz
x,y,z
1/2-x,1/2-y,1/2+z
1/2+x,1/2-y,-z
-x,y,1/2-z
-x,-y,-z
1/2+x,1/2+y,1/2-z
1/2-x,1/2+y,z
x,-y,1/2+z
loop_
_atom_site_type_symbol
_atom_site_label
_atom_site_fract_x
_atom_site_fract_y
_atom_site_fract_z
Si Si1 0.499995 0.059443 0.672287
Si Si2 0.422514 0.373866 0.903961
Si Si3 0.903904 0.135696 0.533709
Si Si4 0.711301 0.215742 0.654680
Si Si5 0.500000 0.350191 0.250000
Si Si6 0.164909 0.506956 0.453291
Si Si7 0.126678 0.038129 0.632720
O O1 0.500000 0.025525 0.750000
O O2 0.547922 0.157379 0.671897
O O3 0.648574 0.018128 0.626892
O O4 0.331946 0.030761 0.630357
O O5 0.363678 0.309121 0.845833
O O6 0.254717 0.403731 0.946764
O O7 0.527609 0.449728 0.869043
O O8 0.537170 0.325095 0.961266
O O9 0.793166 0.198396 0.579817
O O10 0.793797 0.056261 0.510318
O O11 0.068573 0.099760 0.573119
O O12 0.860410 0.207362 0.711502
O O13 0.399602 0.413194 0.202588
O O14 0.000000 0.500000 0.500000
#
# Coordination Sequence:
#
# PCOD8246982 Si02
#       7
#     8   8   8   8   4   8   8
#     4  11  21  39  63  90 121 177 221 253 332 409
#     4  11  22  39  61 102 124 160 221 276 322 377
#     4   9  20  37  60  87 125 167 204 258 335 389
#     4  10  23  40  63  92 131 172 213 265 331 400
#     4  10  20  44  62  86 130 182 206 250 336 388
#     4  10  20  37  62  90 125 164 215 269 318 393
#     4  10  20  38  66  86 124 171 212 263 311 388
#
# _framework density 21.147282000000001
#
# number of rings (size 3 to 8) (size 9 to 14) (size 15 to 20)
#    0.000    1.846    1.538    4.615    0.000    3.692 
#    2.769    4.615    0.000    0.000    0.000    0.000 
#    0.000    0.000    0.000    0.000    0.000    0.000 
#
# Total GULP energy -644258.797018 kJ/mol
# GULP energy per Si atom -12389.592250 kJ/mol
# Density = 2.109915 g / cm^3
# Si number density = 21.147282 Si / 1000 Ang^3
#
#
#
# Elastic Constant Matrix: (Units=GPa)
#
#
# Indices 1 2 3 4 5 6 
#
# 1 97.8534 33.3680 23.2024 0.0000 0.0000 0.0000
# 2 33.3680 87.0329 30.2284 0.0000 0.0000 0.0000
# 3 23.2024 30.2284 92.3313 0.0000 0.0000 0.0000
# 4 0.0000 0.0000 0.0000 18.9271 0.0000 0.0000
# 5 0.0000 0.0000 0.0000 0.0000 38.8324 0.0000
# 6 0.0000 0.0000 0.0000 0.0000 0.0000 27.1672
#
#
#
# Elastic Compliance Matrix: (Units=1/GPa)
#
#
# Indices 1 2 3 4 5 6 
#
# 1 0.011989 -0.004005 -0.001701 0.000000 0.000000 0.000000
# 2 -0.004005 0.014302 -0.003676 0.000000 0.000000 0.000000
# 3 -0.001701 -0.003676 0.012462 0.000000 0.000000 0.000000
# 4 0.000000 0.000000 0.000000 0.052834 0.000000 0.000000
# 5 0.000000 0.000000 0.000000 0.000000 0.025752 0.000000
# 6 0.000000 0.000000 0.000000 0.000000 0.000000 0.036809
#
#
# Mechanical properties :
#
#
# Convention : Reuss Voigt Hill
#
# Bulk Modulus (GPa) = 50.03223 50.09057 50.06140
# Shear Modulus (GPa) = 27.84347 29.67993 28.76170
#
# Velocity S-wave (km/s) = 3.63250 3.75038 3.69191
# Velocity P-wave (km/s) = 6.42679 6.51857 6.47284
#
# Compressibility (1/GPa) = 0.01998712
#
# Stress axis : x y z
#
# Youngs Moduli (GPa) = 83.41225 69.91876 80.24683
#
# Poissons Ratio (x) = 0.28006 0.13653
# Poissons Ratio (y) = 0.33411 0.29498
# Poissons Ratio (z) = 0.14191 0.25701
#
# Static dielectric constant tensor:
#      x y z
#    x 3.987610 0.000000 0.000000 
#    y 0.000000 3.444980 0.000000 
#    z 0.000000 0.000000 4.307200 
# 
# 
# High freq. dielectric constant tensor:
#      x y z
#    x 1.842630 0.000000 0.000000 
#    y 0.000000 1.789470 0.000000 
#    z 0.000000 0.000000 1.840630 
# 
# From -- ./inp_files/19492.got.cif
#   From: 2010.03.12/outbox.cif.g09.slc.cpg/sg60_10_cif.got.tgz:19492.got - 2010.04.10 18:46:24.
