data_PCOD8246852
_publ_section_title
;
Structure prediction by ZEFSAII (Michael W. Deem and Ramdas Pophale) SiO2 
 PCOD8246852
Probable space group: P B C N
;
_chemical_formula_sum "Si O2"
_cell_formula_units_Z 40
_cell_length_a 16.375517
_cell_length_b 27.515760
_cell_length_c 5.202933
_cell_angle_alpha 90.000000
_cell_angle_beta 90.000000
_cell_angle_gamma 90.000000
_cell_volume 2344.362503
_symmetry_space_group_name_H-M "P B C N"
_symmetry_group_IT_number 60
_symmetry_cell_setting 'orthorhombic'
loop_
_space_group_symop_operation_xyz
x,y,z
1/2-x,1/2-y,1/2+z
1/2+x,1/2-y,-z
-x,y,1/2-z
-x,-y,-z
1/2+x,1/2+y,1/2-z
1/2-x,1/2+y,z
x,-y,1/2+z
loop_
_atom_site_type_symbol
_atom_site_label
_atom_site_fract_x
_atom_site_fract_y
_atom_site_fract_z
Si Si1 0.324414 0.703679 0.233493
Si Si2 0.919712 0.632288 0.926096
Si Si3 0.268338 0.186204 0.735407
Si Si4 0.000000 0.769728 0.750000
Si Si5 0.409128 0.021242 0.486837
Si Si6 0.500000 0.794019 0.750000
O O1 0.292538 0.679391 0.494771
O O2 0.308870 0.761070 0.224901
O O3 0.421789 0.696301 0.199836
O O4 0.281687 0.677249 0.994935
O O5 0.839288 0.645811 0.766051
O O6 0.000000 0.636265 0.750000
O O7 0.910818 0.578950 0.042843
O O8 0.925456 0.670560 0.164260
O O9 0.976151 0.737913 0.497887
O O10 0.500000 0.000000 0.500000
O O11 0.362935 0.002933 0.743732
#
# Coordination Sequence:
#
# PCOD8246852 Si02
#       6
#     8   8   8   4   8   4
#     4  10  21  37  48  69 101 129 169 218 273 291
#     4  12  23  33  55  74 104 138 185 212 245 313
#     4  10  22  33  49  72 101 129 166 226 255 289
#     4  12  22  36  56  69  96 138 178 219 268 314
#     4  10  20  35  48  70  99 135 172 205 258 286
#     4  12  22  30  50  79  88 130 192 213 240 296
#
# _framework density 17.062207000000001
#
# number of rings (size 3 to 8) (size 9 to 14) (size 15 to 20)
#    0.000    1.200    5.000    2.400    8.400    0.000 
#    0.000    0.000    0.000    0.000    0.000    0.000 
#    0.000    0.000    0.000   18.000    0.000    0.000 
#
# Total GULP energy -495896.454757 kJ/mol
# GULP energy per Si atom -12397.411369 kJ/mol
# Density = 1.702337 g / cm^3
# Si number density = 17.062207 Si / 1000 Ang^3
#
#
#
# Elastic Constant Matrix: (Units=GPa)
#
#
# Indices 1 2 3 4 5 6 
#
# 1 100.4065 23.3893 29.4853 0.0000 0.0000 0.0000
# 2 23.3893 51.6909 16.5056 0.0000 0.0000 0.0000
# 3 29.4853 16.5056 126.9839 0.0000 0.0000 0.0000
# 4 0.0000 0.0000 0.0000 13.7493 0.0000 0.0000
# 5 0.0000 0.0000 0.0000 0.0000 23.8560 0.0000
# 6 0.0000 0.0000 0.0000 0.0000 0.0000 9.3415
#
#
#
# Elastic Compliance Matrix: (Units=1/GPa)
#
#
# Indices 1 2 3 4 5 6 
#
# 1 0.011649 -0.004598 -0.002107 0.000000 0.000000 0.000000
# 2 -0.004598 0.021999 -0.001792 0.000000 0.000000 0.000000
# 3 -0.002107 -0.001792 0.008597 0.000000 0.000000 0.000000
# 4 0.000000 0.000000 0.000000 0.072731 0.000000 0.000000
# 5 0.000000 0.000000 0.000000 0.000000 0.041918 0.000000
# 6 0.000000 0.000000 0.000000 0.000000 0.000000 0.107049
#
#
# Mechanical properties :
#
#
# Convention : Reuss Voigt Hill
#
# Bulk Modulus (GPa) = 39.60294 46.42685 43.01490
# Shear Modulus (GPa) = 17.27982 23.36945 20.32463
#
# Velocity S-wave (km/s) = 3.18583 3.70491 3.45513
# Velocity P-wave (km/s) = 6.06581 6.75065 6.41737
#
# Compressibility (1/GPa) = 0.02525065
#
# Stress axis : x y z
#
# Youngs Moduli (GPa) = 85.84063 45.45760 116.31690
#
# Poissons Ratio (x) = 0.20903 0.24511
# Poissons Ratio (y) = 0.39472 0.20840
# Poissons Ratio (z) = 0.18089 0.08145
#
# Static dielectric constant tensor:
#      x y z
#    x 2.958090 0.000000 0.000000 
#    y 0.000000 2.854980 0.000000 
#    z 0.000000 0.000000 -54.526990 
# 
# 
# High freq. dielectric constant tensor:
#      x y z
#    x 1.622500 0.000000 0.000000 
#    y 0.000000 1.608710 0.000000 
#    z 0.000000 0.000000 1.690220 
# 
# From -- ./inp_files/1222.got.cif
#   From: 2010.03.12/outbox.cif.g09.slc.cpg/sg60_1_cif.got.tgz:1222.got - 2010.04.10 18:46:24.
