data_PCOD8246265
_publ_section_title
;
Structure prediction by ZEFSAII (Michael W. Deem and Ramdas Pophale) SiO2 
 PCOD8246265
Probable space group: P M M N
;
_chemical_formula_sum "Si O2"
_cell_formula_units_Z 48
_cell_length_a 9.000000
_cell_length_b 15.000000
_cell_length_c 18.000000
_cell_angle_alpha 90.000000
_cell_angle_beta 90.000000
_cell_angle_gamma 90.000000
_cell_volume 2430.000000
_symmetry_space_group_name_H-M "P M M N"
_symmetry_group_IT_number 59
_space_group.IT_coordinate_system_code '2'
_symmetry_cell_setting 'orthorhombic'
loop_
_space_group_symop_operation_xyz
x,y,z
1/2-x,1/2-y,z
1/2+x,-y,-z
-x,1/2+y,-z
-x,-y,-z
1/2+x,1/2+y,-z
1/2-x,y,z
x,1/2-y,z
loop_
_atom_site_type_symbol
_atom_site_label
_atom_site_fract_x
_atom_site_fract_y
_atom_site_fract_z
Si Si1 0.918542 0.152407 0.129922
Si Si2 0.579171 0.645269 0.480271
Si Si3 0.580894 0.350937 0.842888
Si Si4 0.920636 0.504061 0.608414
Si Si5 0.074418 0.405091 0.990321
Si Si6 0.424690 0.499765 0.757253
O O1 0.750000 0.132239 0.103390
O O2 0.927427 0.250000 0.167989
O O3 0.972401 0.077913 0.186933
O O4 0.027826 0.154857 0.059826
O O5 0.750000 0.641387 0.453253
O O6 0.529989 0.750000 0.488731
O O7 0.476448 0.591548 0.422642
O O8 0.560970 0.590260 0.556264
O O9 0.750000 0.381102 0.859361
O O10 0.575934 0.250000 0.813976
O O11 0.483165 0.358581 0.916414
O O12 0.510759 0.410051 0.778092
O O13 0.750000 0.490582 0.631443
O O14 0.022678 0.530863 0.677120
O O15 0.250000 0.415182 0.985171
O O16 0.000000 0.500000 0.000000
O O17 0.250000 0.482116 0.758386
#
# Coordination Sequence:
#
# PCOD8246265 Si02
#       6
#     8   8   8   8   8   8
#     4  10  22  40  60  84 115 152 195 244 296 348
#     4   9  19  38  63  89 117 152 193 234 279 337
#     4  11  24  41  61  85 115 152 195 247 301 350
#     4  10  21  37  59  88 121 153 189 237 287 338
#     4  12  23  37  60  86 114 151 196 246 298 351
#     4  11  23  39  60  85 118 159 196 236 286 347
#
# _framework density 19.753086
#
# number of rings (size 3 to 8) (size 9 to 14) (size 15 to 20)
#    0.000    1.500    1.667    3.500    0.000    6.667 
#    0.000    0.000    0.000    0.000    0.000    0.000 
#    0.000    0.000    0.000    0.000    0.000    0.000 
#
# Total GULP energy -595203.483071 kJ/mol
# GULP energy per Si atom -12400.072564 kJ/mol
# Density = 1.970813 g / cm^3
# Si number density = 19.753086 Si / 1000 Ang^3
#
#
#
# Elastic Constant Matrix: (Units=GPa)
#
#
# Indices 1 2 3 4 5 6 
#
# 1 120.1472 38.4476 34.4547 0.0000 0.0000 0.0000
# 2 38.4476 119.8429 20.0843 0.0000 0.0000 0.0000
# 3 34.4547 20.0843 69.4145 0.0000 0.0000 0.0000
# 4 0.0000 0.0000 0.0000 6.6470 0.0000 0.0000
# 5 0.0000 0.0000 0.0000 0.0000 35.6296 0.0000
# 6 0.0000 0.0000 0.0000 0.0000 0.0000 30.4471
#
#
#
# Elastic Compliance Matrix: (Units=1/GPa)
#
#
# Indices 1 2 3 4 5 6 
#
# 1 0.010424 -0.002603 -0.004421 0.000000 0.000000 0.000000
# 2 -0.002603 0.009420 -0.001433 0.000000 0.000000 0.000000
# 3 -0.004421 -0.001433 0.017015 0.000000 0.000000 0.000000
# 4 0.000000 0.000000 0.000000 0.150444 0.000000 0.000000
# 5 0.000000 0.000000 0.000000 0.000000 0.028067 0.000000
# 6 0.000000 0.000000 0.000000 0.000000 0.000000 0.032844
#
#
# Mechanical properties :
#
#
# Convention : Reuss Voigt Hill
#
# Bulk Modulus (GPa) = 50.14032 55.04198 52.59115
# Shear Modulus (GPa) = 18.39751 28.97262 23.68506
#
# Velocity S-wave (km/s) = 3.05515 3.83396 3.46650
# Velocity P-wave (km/s) = 6.15499 6.89380 6.53484
#
# Compressibility (1/GPa) = 0.01994403
#
# Stress axis : x y z
#
# Youngs Moduli (GPa) = 95.93291 106.16115 58.77084
#
# Poissons Ratio (x) = 0.27637 0.25982
# Poissons Ratio (y) = 0.24974 0.08424
# Poissons Ratio (z) = 0.42410 0.15216
#
# Static dielectric constant tensor:
#      x y z
#    x 3.759210 0.000000 0.000000 
#    y 0.000000 3.728310 0.000000 
#    z 0.000000 0.000000 3.488260 
# 
# 
# High freq. dielectric constant tensor:
#      x y z
#    x 1.780720 0.000000 0.000000 
#    y 0.000000 1.784550 0.000000 
#    z 0.000000 0.000000 1.754090 
# 
# From -- ./inp_files/25411.got.cif
#   From: 2010.03.12/outbox.ucp.g09.slc.cvg/sg59_13_cif.got.tgz:25411.got - 2010.05.04 19:30:51.
