data_PCOD8246295
_publ_section_title
;
Structure prediction by ZEFSAII (Michael W. Deem and Ramdas Pophale) SiO2 
 PCOD8246295
Probable space group: P B C N
;
_chemical_formula_sum "Si O2"
_cell_formula_units_Z 40
_cell_length_a 26.724757
_cell_length_b 13.091392
_cell_length_c 5.096008
_cell_angle_alpha 90.000000
_cell_angle_beta 90.000000
_cell_angle_gamma 90.000000
_cell_volume 1782.911119
_symmetry_space_group_name_H-M "P B C N"
_symmetry_group_IT_number 60
_symmetry_cell_setting 'orthorhombic'
loop_
_space_group_symop_operation_xyz
x,y,z
1/2-x,1/2-y,1/2+z
1/2+x,1/2-y,-z
-x,y,1/2-z
-x,-y,-z
1/2+x,1/2+y,1/2-z
1/2-x,1/2+y,z
x,-y,1/2+z
loop_
_atom_site_type_symbol
_atom_site_label
_atom_site_fract_x
_atom_site_fract_y
_atom_site_fract_z
Si Si1 0.450105 0.565545 0.169558
Si Si2 0.976883 0.613248 0.999198
Si Si3 0.860937 0.569931 0.986239
Si Si4 0.657034 0.567233 0.246087
Si Si5 0.780878 0.749037 0.938525
O O1 0.500000 0.631116 0.250000
O O2 0.451717 0.466864 0.365398
O O3 0.397505 0.622247 0.222051
O O4 0.917027 0.614173 0.994557
O O5 0.000000 0.672013 0.750000
O O6 0.000000 0.671998 0.250000
O O7 0.000000 0.500000 0.000000
O O8 0.851175 0.500278 0.735790
O O9 0.822281 0.662858 0.985877
O O10 0.662989 0.474367 0.451542
O O11 0.698174 0.651311 0.295105
O O12 0.740064 0.714256 0.721394
#
# Coordination Sequence:
#
# PCOD8246295 Si02
#       5
#     8   8   8   8   8
#     4   8  14  27  52  84 110 141 180 230 290 356
#     4  10  16  32  60  94 130 161 195 249 318 397
#     4  12  23  40  67  96 128 176 207 260 337 396
#     4  10  21  40  67  87 117 162 203 256 320 362
#     4  12  28  45  61  91 127 162 226 280 304 376
#
# _framework density 22.435217000000002
#
# number of rings (size 3 to 8) (size 9 to 14) (size 15 to 20)
#    0.000    1.600    4.000    2.400    0.000    4.800 
#    0.000    1.000    0.000    9.600    0.000    0.000 
#    0.000    0.000    0.000    0.000    0.000    0.000 
#
# Total GULP energy -495569.200641 kJ/mol
# GULP energy per Si atom -12389.230016 kJ/mol
# Density = 2.238415 g / cm^3
# Si number density = 22.435217 Si / 1000 Ang^3
#
#
#
# Elastic Constant Matrix: (Units=GPa)
#
#
# Indices 1 2 3 4 5 6 
#
# 1 139.4176 39.1744 33.8867 0.0000 0.0000 0.0000
# 2 39.1744 47.7265 13.7093 0.0000 0.0000 0.0000
# 3 33.8867 13.7093 158.7849 0.0000 0.0000 0.0000
# 4 0.0000 0.0000 0.0000 5.0303 0.0000 0.0000
# 5 0.0000 0.0000 0.0000 0.0000 45.9295 0.0000
# 6 0.0000 0.0000 0.0000 0.0000 0.0000 -99.6722
#
#
#
# Elastic Compliance Matrix: (Units=1/GPa)
#
#
# Indices 1 2 3 4 5 6 
#
# 1 0.009620 -0.007492 -0.001406 0.000000 0.000000 0.000000
# 2 -0.007492 0.027320 -0.000760 0.000000 0.000000 0.000000
# 3 -0.001406 -0.000760 0.006664 0.000000 0.000000 0.000000
# 4 0.000000 0.000000 0.000000 0.198794 0.000000 0.000000
# 5 0.000000 0.000000 0.000000 0.000000 0.021772 0.000000
# 6 0.000000 0.000000 0.000000 0.000000 0.000000 -0.010033
#
#
# Mechanical properties :
#
#
# Convention : Reuss Voigt Hill
#
# Bulk Modulus (GPa) = 41.17328 57.71887 49.44607
# Shear Modulus (GPa) = 17.75891 7.53477 12.64684
#
# Velocity S-wave (km/s) = 2.81653 1.83460 2.37682
# Velocity P-wave (km/s) = 5.38229 5.50186 5.44240
#
# Compressibility (1/GPa) = 0.02428760
#
# Stress axis : x y z
#
# Youngs Moduli (GPa) = 103.95439 36.60258 150.07085
#
# Poissons Ratio (x) = 0.27423 0.21101
# Poissons Ratio (y) = 0.77882 0.11404
# Poissons Ratio (z) = 0.14617 0.02782
#
# Static dielectric constant tensor:
#      x y z
#    x 4.461930 0.000000 0.000000 
#    y 0.000000 3.334900 0.000000 
#    z 0.000000 0.000000 3.222740 
# 
# 
# High freq. dielectric constant tensor:
#      x y z
#    x 1.906300 0.000000 0.000000 
#    y 0.000000 1.828120 0.000000 
#    z 0.000000 0.000000 1.917620 
# 
# From -- ./inp_files/2514.got.cif
#   From: 2010.03.12/outbox.cif.g09.slc.cpg/sg60_2_cif.got.tgz:2514.got - 2010.04.10 18:46:24.
