data_PCOD8246879
_publ_section_title
;
Structure prediction by ZEFSAII (Michael W. Deem and Ramdas Pophale) SiO2 
 PCOD8246879
Probable space group: P B C N
;
_chemical_formula_sum "Si O2"
_cell_formula_units_Z 64
_cell_length_a 18.262673
_cell_length_b 9.816094
_cell_length_c 18.437867
_cell_angle_alpha 90.000000
_cell_angle_beta 90.000000
_cell_angle_gamma 90.000000
_cell_volume 3305.321659
_symmetry_space_group_name_H-M "P B C N"
_symmetry_group_IT_number 60
_symmetry_cell_setting 'orthorhombic'
loop_
_space_group_symop_operation_xyz
x,y,z
1/2-x,1/2-y,1/2+z
1/2+x,1/2-y,-z
-x,y,1/2-z
-x,-y,-z
1/2+x,1/2+y,1/2-z
1/2-x,1/2+y,z
x,-y,1/2+z
loop_
_atom_site_type_symbol
_atom_site_label
_atom_site_fract_x
_atom_site_fract_y
_atom_site_fract_z
Si Si1 0.824738 0.933808 0.232664
Si Si2 0.226756 0.199647 0.333931
Si Si3 0.719553 0.758685 0.454294
Si Si4 0.191447 0.014427 0.607020
Si Si5 0.449085 0.393089 0.039782
Si Si6 0.862482 0.685456 0.543009
Si Si7 0.537551 0.294992 0.174360
Si Si8 0.638174 0.119880 0.077539
O O1 0.764183 0.827255 0.205431
O O2 0.835119 0.919501 0.318230
O O3 0.901385 0.908225 0.192407
O O4 0.800838 0.089545 0.223323
O O5 0.156341 0.250985 0.378602
O O6 0.282815 0.116158 0.384389
O O7 0.702986 0.648402 0.391339
O O8 0.735633 0.905051 0.418086
O O9 0.790122 0.697661 0.494561
O O10 0.649815 0.778386 0.508476
O O11 0.129774 0.037938 0.546759
O O12 0.479166 0.358362 0.119498
O O13 0.500000 0.500000 0.000000
O O14 0.434375 0.258120 0.991346
O O15 0.885060 0.528639 0.551132
O O16 0.500000 0.245714 0.250000
O O17 0.575995 0.169143 0.133390
#
# Coordination Sequence:
#
# PCOD8246879 Si02
#       8
#     8   8   8   8   8   8   8   8
#     4  11  21  37  62  87 126 157 194 251 308 375
#     4  10  20  35  61  93 117 153 199 247 318 359
#     4  10  20  35  59  94 121 144 197 255 323 347
#     4  11  21  36  59  89 123 151 194 258 304 369
#     4  11  23  39  62  86 118 164 213 244 292 361
#     4  10  20  37  61  89 118 152 204 262 295 357
#     4  11  23  41  59  84 123 173 204 238 302 374
#     4  10  20  37  63  85 121 157 197 256 305 363
#
# _framework density 19.362714
#
# number of rings (size 3 to 8) (size 9 to 14) (size 15 to 20)
#    0.000    1.500    3.750    2.250    0.000    0.500 
#    0.000    0.000    2.750    0.000    0.000    0.000 
#    0.000    0.000    0.000    0.000    0.000    0.000 
#
# Total GULP energy -793440.414353 kJ/mol
# GULP energy per Si atom -12397.506474 kJ/mol
# Density = 1.931864 g / cm^3
# Si number density = 19.362714 Si / 1000 Ang^3
#
#
#
# Elastic Constant Matrix: (Units=GPa)
#
#
# Indices 1 2 3 4 5 6 
#
# 1 73.8375 43.3530 39.8374 0.0000 0.0000 0.0000
# 2 43.3530 130.8742 54.6546 0.0000 0.0000 0.0000
# 3 39.8374 54.6546 102.7357 0.0000 0.0000 0.0000
# 4 0.0000 0.0000 0.0000 30.9877 0.0000 0.0000
# 5 0.0000 0.0000 0.0000 0.0000 36.5918 0.0000
# 6 0.0000 0.0000 0.0000 0.0000 0.0000 16.9588
#
#
#
# Elastic Compliance Matrix: (Units=1/GPa)
#
#
# Indices 1 2 3 4 5 6 
#
# 1 0.018669 -0.004064 -0.005077 0.000000 0.000000 0.000000
# 2 -0.004064 0.010708 -0.004121 0.000000 0.000000 0.000000
# 3 -0.005077 -0.004121 0.013895 0.000000 0.000000 0.000000
# 4 0.000000 0.000000 0.000000 0.032271 0.000000 0.000000
# 5 0.000000 0.000000 0.000000 0.000000 0.027329 0.000000
# 6 0.000000 0.000000 0.000000 0.000000 0.000000 0.058966
#
#
# Mechanical properties :
#
#
# Convention : Reuss Voigt Hill
#
# Bulk Modulus (GPa) = 59.70930 64.79303 62.25117
# Shear Modulus (GPa) = 25.78081 28.21449 26.99765
#
# Velocity S-wave (km/s) = 3.65289 3.82141 3.73810
# Velocity P-wave (km/s) = 6.97823 7.28055 7.13099
#
# Compressibility (1/GPa) = 0.01674781
#
# Stress axis : x y z
#
# Youngs Moduli (GPa) = 53.56613 93.38838 71.97021
#
# Poissons Ratio (x) = 0.37951 0.36540
# Poissons Ratio (y) = 0.21768 0.29657
# Poissons Ratio (z) = 0.27196 0.38483
#
# Static dielectric constant tensor:
#      x y z
#    x 3.396320 0.000000 0.000000 
#    y 0.000000 3.413490 0.000000 
#    z 0.000000 0.000000 3.562880 
# 
# 
# High freq. dielectric constant tensor:
#      x y z
#    x 1.736460 0.000000 0.000000 
#    y 0.000000 1.753900 0.000000 
#    z 0.000000 0.000000 1.756850 
# 
# From -- ./inp_files/21060.got.cif
#   From: 2010.03.12/outbox.cif.g09.slc.cpg/sg60_11_cif.got.tgz:21060.got - 2010.04.10 18:46:24.
