data_PCOD8246660
_publ_section_title
;
Structure prediction by ZEFSAII (Michael W. Deem and Ramdas Pophale) SiO2 
 PCOD8246660
Probable space group: P B C N
;
_chemical_formula_sum "Si O2"
_cell_formula_units_Z 48
_cell_length_a 8.480879
_cell_length_b 17.783109
_cell_length_c 16.090436
_cell_angle_alpha 90.000000
_cell_angle_beta 90.000000
_cell_angle_gamma 90.000000
_cell_volume 2426.701562
_symmetry_space_group_name_H-M "P B C N"
_symmetry_group_IT_number 60
_symmetry_cell_setting 'orthorhombic'
loop_
_space_group_symop_operation_xyz
x,y,z
1/2-x,1/2-y,1/2+z
1/2+x,1/2-y,-z
-x,y,1/2-z
-x,-y,-z
1/2+x,1/2+y,1/2-z
1/2-x,1/2+y,z
x,-y,1/2+z
loop_
_atom_site_type_symbol
_atom_site_label
_atom_site_fract_x
_atom_site_fract_y
_atom_site_fract_z
Si Si1 0.666492 0.434708 0.141345
Si Si2 0.721708 0.823590 0.460203
Si Si3 0.142621 0.978939 0.601987
Si Si4 0.164220 0.420628 0.202011
Si Si5 0.154036 0.535433 0.461050
Si Si6 0.917390 0.836643 0.993810
O O1 0.499027 0.475175 0.142776
O O2 0.701883 0.398246 0.230586
O O3 0.806890 0.497953 0.127634
O O4 0.681034 0.370353 0.071021
O O5 0.672917 0.859067 0.371334
O O6 0.641796 0.873914 0.534461
O O7 0.657296 0.740410 0.463971
O O8 0.907480 0.822415 0.474496
O O9 0.293252 0.996294 0.662701
O O10 0.185185 0.015146 0.512723
O O11 0.098400 0.891730 0.587057
O O12 0.000000 0.420797 0.250000
O O13 0.000000 0.500000 0.500000
#
# Coordination Sequence:
#
# PCOD8246660 Si02
#       6
#     8   8   8   8   8   8
#     4  11  19  40  67  86 121 170 219 263 320 378
#     4  11  24  41  61  97 133 164 217 258 331 387
#     4  10  20  40  63  88 121 162 218 258 308 381
#     4  11  24  40  64  95 128 164 213 276 325 377
#     4  10  19  35  62  91 120 158 211 264 298 370
#     4  11  23  40  64  96 124 172 213 266 317 389
#
# _framework density 19.779935999999999
#
# number of rings (size 3 to 8) (size 9 to 14) (size 15 to 20)
#    0.000    1.333    5.000    3.500    7.000    0.000 
#    0.000    3.333    0.000    0.000    0.000    0.000 
#    0.000    0.000    0.000    0.000    0.000    0.000 
#
# Total GULP energy -594711.109475 kJ/mol
# GULP energy per Si atom -12389.814781 kJ/mol
# Density = 1.973492 g / cm^3
# Si number density = 19.779936 Si / 1000 Ang^3
#
#
#
# Elastic Constant Matrix: (Units=GPa)
#
#
# Indices 1 2 3 4 5 6 
#
# 1 88.1779 52.7694 32.8314 0.0000 0.0000 0.0000
# 2 52.7694 146.6115 56.0273 0.0000 0.0000 0.0000
# 3 32.8314 56.0273 93.5731 0.0000 0.0000 0.0000
# 4 0.0000 0.0000 0.0000 21.3267 0.0000 0.0000
# 5 0.0000 0.0000 0.0000 0.0000 35.4068 0.0000
# 6 0.0000 0.0000 0.0000 0.0000 0.0000 30.1265
#
#
#
# Elastic Compliance Matrix: (Units=1/GPa)
#
#
# Indices 1 2 3 4 5 6 
#
# 1 0.014934 -0.004373 -0.002621 0.000000 0.000000 0.000000
# 2 -0.004373 0.010125 -0.004528 0.000000 0.000000 0.000000
# 3 -0.002621 -0.004528 0.014318 0.000000 0.000000 0.000000
# 4 0.000000 0.000000 0.000000 0.046890 0.000000 0.000000
# 5 0.000000 0.000000 0.000000 0.000000 0.028243 0.000000
# 6 0.000000 0.000000 0.000000 0.000000 0.000000 0.033193
#
#
# Mechanical properties :
#
#
# Convention : Reuss Voigt Hill
#
# Bulk Modulus (GPa) = 61.23116 67.95764 64.59440
# Shear Modulus (GPa) = 28.37813 29.82097 29.09955
#
# Velocity S-wave (km/s) = 3.79184 3.88704 3.83974
# Velocity P-wave (km/s) = 7.08478 7.38762 7.23779
#
# Compressibility (1/GPa) = 0.01633155
#
# Stress axis : x y z
#
# Youngs Moduli (GPa) = 66.96170 98.76291 69.84374
#
# Poissons Ratio (x) = 0.43194 0.18307
# Poissons Ratio (y) = 0.29285 0.31626
# Poissons Ratio (z) = 0.17552 0.44720
#
# Static dielectric constant tensor:
#      x y z
#    x 3.818130 0.000000 0.000000 
#    y 0.000000 3.806540 0.000000 
#    z 0.000000 0.000000 3.898970 
# 
# 
# High freq. dielectric constant tensor:
#      x y z
#    x 1.791730 0.000000 0.000000 
#    y 0.000000 1.747810 0.000000 
#    z 0.000000 0.000000 1.759980 
# 
# From -- ./inp_files/15011.got.cif
#   From: 2010.03.12/outbox.cif.g09.slc.cpg/sg60_8_cif.got.tgz:15011.got - 2010.04.10 18:46:24.
