data_PCOD8246805
_publ_section_title
;
Structure prediction by ZEFSAII (Michael W. Deem and Ramdas Pophale) SiO2 
 PCOD8246805
Probable space group: P B C N
;
_chemical_formula_sum "Si O2"
_cell_formula_units_Z 40
_cell_length_a 18.148927
_cell_length_b 21.936348
_cell_length_c 4.966805
_cell_angle_alpha 90.000000
_cell_angle_beta 90.000000
_cell_angle_gamma 90.000000
_cell_volume 1977.390260
_symmetry_space_group_name_H-M "P B C N"
_symmetry_group_IT_number 60
_symmetry_cell_setting 'orthorhombic'
loop_
_space_group_symop_operation_xyz
x,y,z
1/2-x,1/2-y,1/2+z
1/2+x,1/2-y,-z
-x,y,1/2-z
-x,-y,-z
1/2+x,1/2+y,1/2-z
1/2-x,1/2+y,z
x,-y,1/2+z
loop_
_atom_site_type_symbol
_atom_site_label
_atom_site_fract_x
_atom_site_fract_y
_atom_site_fract_z
Si Si1 0.913313 0.535172 0.548904
Si Si2 0.784469 0.825090 0.188912
Si Si3 0.654326 0.738089 0.190676
Si Si4 0.760992 0.963143 0.066544
Si Si5 0.000000 0.288418 0.250000
Si Si6 0.000000 0.365186 0.750000
O O1 0.941073 0.522237 0.857403
O O2 0.826585 0.538062 0.563958
O O3 0.937209 0.596912 0.404626
O O4 0.700307 0.801161 0.157126
O O5 0.814671 0.812747 0.487186
O O6 0.791003 0.896324 0.128486
O O7 0.837004 0.788074 0.988859
O O8 0.568002 0.749279 0.135052
O O9 0.790667 0.011838 0.284003
O O10 0.965962 0.325971 0.504009
#
# Coordination Sequence:
#
# PCOD8246805 Si02
#       6
#     8   8   8   8   4   4
#     4  10  20  33  48  73 109 149 188 220 258 310
#     4  10  20  38  58  82 111 146 183 226 280 330
#     4  10  22  37  58  81 111 146 185 230 276 331
#     4  10  20  33  54  82 109 139 181 230 273 324
#     4  12  24  37  54  84 108 141 190 232 282 326
#     4  12  22  33  52  72 110 153 186 224 260 322
#
# _framework density 20.228681999999999
#
# number of rings (size 3 to 8) (size 9 to 14) (size 15 to 20)
#    0.000    1.600    0.000    5.400    0.000    6.400 
#    0.000    0.000    0.000    0.000    0.000   14.000 
#    0.000    0.000    0.000    0.000    0.000    0.000 
#
# Total GULP energy -495922.229951 kJ/mol
# GULP energy per Si atom -12398.055749 kJ/mol
# Density = 2.018264 g / cm^3
# Si number density = 20.228682 Si / 1000 Ang^3
#
#
#
# Elastic Constant Matrix: (Units=GPa)
#
#
# Indices 1 2 3 4 5 6 
#
# 1 70.3638 34.2113 25.0878 0.0000 0.0000 0.0000
# 2 34.2113 99.8172 15.0871 0.0000 0.0000 0.0000
# 3 25.0878 15.0871 105.2600 0.0000 0.0000 0.0000
# 4 0.0000 0.0000 0.0000 31.1590 0.0000 0.0000
# 5 0.0000 0.0000 0.0000 0.0000 17.0614 0.0000
# 6 0.0000 0.0000 0.0000 0.0000 0.0000 12.1117
#
#
#
# Elastic Compliance Matrix: (Units=1/GPa)
#
#
# Indices 1 2 3 4 5 6 
#
# 1 0.018253 -0.005722 -0.003530 0.000000 0.000000 0.000000
# 2 -0.005722 0.012034 -0.000361 0.000000 0.000000 0.000000
# 3 -0.003530 -0.000361 0.010393 0.000000 0.000000 0.000000
# 4 0.000000 0.000000 0.000000 0.032094 0.000000 0.000000
# 5 0.000000 0.000000 0.000000 0.000000 0.058612 0.000000
# 6 0.000000 0.000000 0.000000 0.000000 0.000000 0.082565
#
#
# Mechanical properties :
#
#
# Convention : Reuss Voigt Hill
#
# Bulk Modulus (GPa) = 46.61300 47.13480 46.87390
# Shear Modulus (GPa) = 20.80487 25.47008 23.13748
#
# Velocity S-wave (km/s) = 3.21048 3.55224 3.38567
# Velocity P-wave (km/s) = 6.06926 6.33846 6.20532
#
# Compressibility (1/GPa) = 0.02145324
#
# Stress axis : x y z
#
# Youngs Moduli (GPa) = 54.78618 83.09684 96.21473
#
# Poissons Ratio (x) = 0.47551 0.33966
# Poissons Ratio (y) = 0.31351 0.03473
# Poissons Ratio (z) = 0.19341 0.03000
#
# Static dielectric constant tensor:
#      x y z
#    x 3.214290 0.000000 0.000000 
#    y 0.000000 3.510100 0.000000 
#    z 0.000000 0.000000 4.226330 
# 
# 
# High freq. dielectric constant tensor:
#      x y z
#    x 1.749030 0.000000 0.000000 
#    y 0.000000 1.774040 0.000000 
#    z 0.000000 0.000000 1.821950 
# 
# From -- ./inp_files/1651.got.cif
#   From: 2010.03.12/outbox.cif.g09.slc.cpg/sg60_1_cif.got.tgz:1651.got - 2010.04.10 18:46:24.
