data_PCOD8246609
_publ_section_title
;
Structure prediction by ZEFSAII (Michael W. Deem and Ramdas Pophale) SiO2 
 PCOD8246609
Probable space group: P B C N
;
_chemical_formula_sum "Si O2"
_cell_formula_units_Z 48
_cell_length_a 7.449439
_cell_length_b 15.377743
_cell_length_c 19.731399
_cell_angle_alpha 90.000000
_cell_angle_beta 90.000000
_cell_angle_gamma 90.000000
_cell_volume 2260.341431
_symmetry_space_group_name_H-M "P B C N"
_symmetry_group_IT_number 60
_symmetry_cell_setting 'orthorhombic'
loop_
_space_group_symop_operation_xyz
x,y,z
1/2-x,1/2-y,1/2+z
1/2+x,1/2-y,-z
-x,y,1/2-z
-x,-y,-z
1/2+x,1/2+y,1/2-z
1/2-x,1/2+y,z
x,-y,1/2+z
loop_
_atom_site_type_symbol
_atom_site_label
_atom_site_fract_x
_atom_site_fract_y
_atom_site_fract_z
Si Si1 0.124636 0.202257 0.022595
Si Si2 0.345492 0.466403 0.452894
Si Si3 0.765381 0.645646 0.062672
Si Si4 0.013866 0.104157 0.676206
Si Si5 0.331213 0.223751 0.662663
Si Si6 0.771542 0.247891 0.189464
O O1 0.215652 0.219637 0.095791
O O2 0.925334 0.168022 0.030066
O O3 0.232461 0.125936 0.981026
O O4 0.101480 0.290152 0.977824
O O5 0.500000 0.500000 0.500000
O O6 0.193102 0.542657 0.448760
O O7 0.437737 0.461003 0.379152
O O8 0.762398 0.662888 0.143555
O O9 0.219561 0.133388 0.660337
O O10 0.000000 0.058367 0.750000
O O11 0.895179 0.190526 0.676230
O O12 0.544540 0.203318 0.665609
O O13 0.279604 0.277817 0.730889
#
# Coordination Sequence:
#
# PCOD8246609 Si02
#       6
#     8   8   8   8   8   8
#     4  10  19  34  57  79 110 147 184 233 288 331
#     4  10  20  35  55  85 113 145 193 235 282 344
#     4  10  20  35  58  78 115 149 185 241 283 337
#     4  10  19  36  61  84 113 152 189 231 288 335
#     4   9  18  32  57  86 106 149 190 227 283 340
#     4   9  18  34  56  83 109 147 189 230 280 340
#
# _framework density 21.235728999999999
#
# number of rings (size 3 to 8) (size 9 to 14) (size 15 to 20)
#    0.000    2.333    1.667    2.000    0.000    0.000 
#    9.000    0.833    7.333    0.000   13.000    0.000 
#    0.000    0.000    0.000    0.000    0.000    0.000 
#
# Total GULP energy -594681.390992 kJ/mol
# GULP energy per Si atom -12389.195646 kJ/mol
# Density = 2.118740 g / cm^3
# Si number density = 21.235729 Si / 1000 Ang^3
#
#
#
# Elastic Constant Matrix: (Units=GPa)
#
#
# Indices 1 2 3 4 5 6 
#
# 1 33.0429 3.1430 9.1239 0.0000 0.0000 0.0000
# 2 3.1430 89.2896 56.5815 0.0000 0.0000 0.0000
# 3 9.1239 56.5815 166.5982 0.0000 0.0000 0.0000
# 4 0.0000 0.0000 0.0000 31.1526 0.0000 0.0000
# 5 0.0000 0.0000 0.0000 0.0000 22.7029 0.0000
# 6 0.0000 0.0000 0.0000 0.0000 0.0000 18.1141
#
#
#
# Elastic Compliance Matrix: (Units=1/GPa)
#
#
# Indices 1 2 3 4 5 6 
#
# 1 0.030728 -0.000019 -0.001676 0.000000 0.000000 0.000000
# 2 -0.000019 0.014271 -0.004846 0.000000 0.000000 0.000000
# 3 -0.001676 -0.004846 0.007740 0.000000 0.000000 0.000000
# 4 0.000000 0.000000 0.000000 0.032100 0.000000 0.000000
# 5 0.000000 0.000000 0.000000 0.000000 0.044047 0.000000
# 6 0.000000 0.000000 0.000000 0.000000 0.000000 0.055206
#
#
# Mechanical properties :
#
#
# Convention : Reuss Voigt Hill
#
# Bulk Modulus (GPa) = 25.21657 47.40305 36.30981
# Shear Modulus (GPa) = 23.76495 29.06607 26.41551
#
# Velocity S-wave (km/s) = 3.34893 3.70365 3.53075
# Velocity P-wave (km/s) = 5.18210 6.37653 5.81009
#
# Compressibility (1/GPa) = 0.03965647
#
# Stress axis : x y z
#
# Youngs Moduli (GPa) = 32.54318 70.07280 129.19868
#
# Poissons Ratio (x) = 0.00136 0.21657
# Poissons Ratio (y) = 0.00063 0.62606
# Poissons Ratio (z) = 0.05455 0.33955
#
# Static dielectric constant tensor:
#      x y z
#    x 3.699200 0.000000 0.000000 
#    y 0.000000 4.577170 0.000000 
#    z 0.000000 0.000000 4.351080 
# 
# 
# High freq. dielectric constant tensor:
#      x y z
#    x 1.811350 0.000000 0.000000 
#    y 0.000000 1.792420 0.000000 
#    z 0.000000 0.000000 1.860800 
# 
# From -- ./inp_files/22059.got.cif
#   From: 2010.03.12/outbox.cif.g09.slc.cpg/sg60_12_cif.got.tgz:22059.got - 2010.04.10 18:46:24.
