data_PCOD8246540
_publ_section_title
;
Structure prediction by ZEFSAII (Michael W. Deem and Ramdas Pophale) SiO2 
 PCOD8246540
Probable space group: P B C N
;
_chemical_formula_sum "Si O2"
_cell_formula_units_Z 64
_cell_length_a 10.418072
_cell_length_b 36.058029
_cell_length_c 8.715632
_cell_angle_alpha 90.000000
_cell_angle_beta 90.000000
_cell_angle_gamma 90.000000
_cell_volume 3274.071979
_symmetry_space_group_name_H-M "P B C N"
_symmetry_group_IT_number 60
_symmetry_cell_setting 'orthorhombic'
loop_
_space_group_symop_operation_xyz
x,y,z
1/2-x,1/2-y,1/2+z
1/2+x,1/2-y,-z
-x,y,1/2-z
-x,-y,-z
1/2+x,1/2+y,1/2-z
1/2-x,1/2+y,z
x,-y,1/2+z
loop_
_atom_site_type_symbol
_atom_site_label
_atom_site_fract_x
_atom_site_fract_y
_atom_site_fract_z
Si Si1 0.245972 0.667560 0.067302
Si Si2 0.749805 0.416591 0.567817
Si Si3 0.500000 0.959343 0.567589
Si Si4 0.749805 0.416591 0.932183
Si Si5 1.000000 0.959344 0.567456
Si Si6 0.500000 0.708719 0.431956
Si Si7 0.754027 0.332440 0.567302
Si Si8 0.500000 0.207158 0.931939
O O1 0.250353 0.625408 0.007037
O O2 0.373777 0.687857 0.006449
O O3 0.234181 0.669343 0.250000
O O4 0.124871 0.687254 0.994487
O O5 0.875572 0.437567 0.505749
O O6 0.748679 0.416381 0.750000
O O7 0.624517 0.437666 0.505150
O O8 0.749647 0.374592 0.507037
O O9 0.500000 0.961780 0.750000
O O10 0.375571 0.937567 0.505749
O O11 0.500000 0.000000 0.500000
O O12 0.624517 0.437666 0.994850
O O13 0.000000 0.961639 0.750000
O O14 0.000000 0.000000 0.500000
O O15 0.500000 0.707651 0.250000
O O16 0.373778 0.687856 0.493551
O O17 0.500000 0.750678 0.493372
O O18 0.875128 0.312746 0.494486
O O19 0.500000 0.205847 0.750000
#
# Coordination Sequence:
#
# PCOD8246540 Si02
#       8
#     8   8   8   8   8   8   8   8
#     4  10  19  36  59  79 100 138 184 221 257 308
#     4   9  18  32  53  76  98 125 168 215 249 287
#     4  10  19  32  48  71  99 128 160 200 244 292
#     4   9  18  32  53  76  98 125 168 215 249 287
#     4  10  19  33  52  76 103 132 164 208 258 306
#     4   9  19  34  56  82 106 133 175 222 263 309
#     4  10  19  36  59  79 100 138 184 221 257 308
#     4  11  22  35  50  79 116 141 166 214 270 319
#
# _framework density 19.547523999999999
#
# number of rings (size 3 to 8) (size 9 to 14) (size 15 to 20)
#    0.000    2.250    0.000    3.375    0.000    5.000 
#    0.000    5.625    0.000    0.000    0.000    0.000 
#    0.000    0.000    0.000    0.000    0.000    0.000 
#
# Total GULP energy -793724.090500 kJ/mol
# GULP energy per Si atom -12401.938914 kJ/mol
# Density = 1.950303 g / cm^3
# Si number density = 19.547524 Si / 1000 Ang^3
#
#
#
# Elastic Constant Matrix: (Units=GPa)
#
#
# Indices 1 2 3 4 5 6 
#
# 1 230.5788 129.1756 27.0760 0.0000 0.0000 0.0000
# 2 129.1756 228.7817 27.5916 0.0000 0.0000 0.0000
# 3 27.0760 27.5916 23.4979 0.0000 0.0000 0.0000
# 4 0.0000 0.0000 0.0000 27.8703 0.0000 0.0000
# 5 0.0000 0.0000 0.0000 0.0000 -150.8250 0.0000
# 6 0.0000 0.0000 0.0000 0.0000 0.0000 48.1729
#
#
#
# Elastic Compliance Matrix: (Units=1/GPa)
#
#
# Indices 1 2 3 4 5 6 
#
# 1 0.006619 -0.003282 -0.003773 0.000000 0.000000 0.000000
# 2 -0.003282 0.006720 -0.004108 0.000000 0.000000 0.000000
# 3 -0.003773 -0.004108 0.051728 0.000000 0.000000 0.000000
# 4 0.000000 0.000000 0.000000 0.035880 0.000000 0.000000
# 5 0.000000 0.000000 0.000000 0.000000 -0.006630 0.000000
# 6 0.000000 0.000000 0.000000 0.000000 0.000000 0.020759
#
#
# Mechanical properties :
#
#
# Convention : Reuss Voigt Hill
#
# Bulk Modulus (GPa) = 23.39713 94.50497 58.95105
# Shear Modulus (GPa) = 32.97105 4.97799 18.97452
#
# Velocity S-wave (km/s) = 4.11142 1.59754 3.11896
# Velocity P-wave (km/s) = 5.87654 7.20098 6.57220
#
# Compressibility (1/GPa) = 0.04274028
#
# Stress axis : x y z
#
# Youngs Moduli (GPa) = 151.08990 148.81898 19.33179
#
# Poissons Ratio (x) = 0.48843 0.07293
# Poissons Ratio (y) = 0.49588 0.07942
# Poissons Ratio (z) = 0.57000 0.61141
#
# Static dielectric constant tensor:
#      x y z
#    x 3.970090 0.000000 0.000000 
#    y 0.000000 3.836770 0.000000 
#    z 0.000000 0.000000 3.094640 
# 
# 
# High freq. dielectric constant tensor:
#      x y z
#    x 1.784480 0.000000 0.000000 
#    y 0.000000 1.783000 0.000000 
#    z 0.000000 0.000000 1.712840 
# 
# From -- ./inp_files/11422.got.cif
#   From: 2010.03.12/outbox.cif.g09.slc.cpg/sg60_6_cif.got.tgz:11422.got - 2010.04.10 18:46:24.
