data_PCOD8246640
_publ_section_title
;
Structure prediction by ZEFSAII (Michael W. Deem and Ramdas Pophale) SiO2 
 PCOD8246640
Probable space group: P B C N
;
_chemical_formula_sum "Si O2"
_cell_formula_units_Z 48
_cell_length_a 10.210019
_cell_length_b 29.021217
_cell_length_c 8.408070
_cell_angle_alpha 90.000000
_cell_angle_beta 90.000000
_cell_angle_gamma 90.000000
_cell_volume 2491.371485
_symmetry_space_group_name_H-M "P B C N"
_symmetry_group_IT_number 60
_symmetry_cell_setting 'orthorhombic'
loop_
_space_group_symop_operation_xyz
x,y,z
1/2-x,1/2-y,1/2+z
1/2+x,1/2-y,-z
-x,y,1/2-z
-x,-y,-z
1/2+x,1/2+y,1/2-z
1/2-x,1/2+y,z
x,-y,1/2+z
loop_
_atom_site_type_symbol
_atom_site_label
_atom_site_fract_x
_atom_site_fract_y
_atom_site_fract_z
Si Si1 0.601607 0.802780 0.458881
Si Si2 0.000000 0.626305 0.750000
Si Si3 0.223251 0.557664 0.820706
Si Si4 0.000000 0.256656 0.750000
Si Si5 0.500000 0.724222 0.250000
Si Si6 0.598102 0.976669 0.877112
Si Si7 0.000000 0.101630 0.750000
Si Si8 0.113014 0.821141 0.042191
O O1 0.492200 0.839750 0.403454
O O2 0.588042 0.789975 0.642574
O O3 0.597157 0.756055 0.353912
O O4 0.734846 0.831014 0.435241
O O5 0.869027 0.596547 0.753309
O O6 0.190639 0.511257 0.722945
O O7 0.376030 0.569872 0.795846
O O8 0.193015 0.554445 0.011794
O O9 0.909508 0.225236 0.858562
O O10 0.417633 0.689689 0.359721
O O11 0.500000 0.950637 0.750000
O O12 0.500000 0.000000 0.000000
O O13 0.968891 0.134635 0.899809
#
# Coordination Sequence:
#
# PCOD8246640 Si02
#       8
#     8   4   8   4   4   8   4   8
#     4  10  19  35  56  83 110 155 195 250 285 334
#     4  11  20  36  60  83 118 146 194 243 286 340
#     4  11  21  41  61  91 115 152 194 235 298 359
#     4   9  20  34  52  83 108 154 206 233 282 350
#     4   9  20  34  56  81 110 156 208 239 282 354
#     4   9  18  37  67  88 110 148 191 236 285 352
#     4  11  24  38  60  85 128 158 184 249 302 346
#     4  10  19  37  55  79 117 159 190 242 295 338
#
# _framework density 19.266496
#
# number of rings (size 3 to 8) (size 9 to 14) (size 15 to 20)
#    0.000    2.000    4.167    1.000    0.000    0.667 
#    7.500    3.333    0.000    0.000    0.000    0.000 
#    0.000    0.000    0.000    0.000    0.000    0.000 
#
# Total GULP energy -594725.246659 kJ/mol
# GULP energy per Si atom -12390.109305 kJ/mol
# Density = 1.922264 g / cm^3
# Si number density = 19.266496 Si / 1000 Ang^3
#
#
#
# Elastic Constant Matrix: (Units=GPa)
#
#
# Indices 1 2 3 4 5 6 
#
# 1 119.4389 33.6857 37.2988 0.0000 0.0000 0.0000
# 2 33.6857 68.1109 35.5843 0.0000 0.0000 0.0000
# 3 37.2988 35.5843 122.6362 0.0000 0.0000 0.0000
# 4 0.0000 0.0000 0.0000 -86.2995 0.0000 0.0000
# 5 0.0000 0.0000 0.0000 0.0000 25.9317 0.0000
# 6 0.0000 0.0000 0.0000 0.0000 0.0000 32.7538
#
#
#
# Elastic Compliance Matrix: (Units=1/GPa)
#
#
# Indices 1 2 3 4 5 6 
#
# 1 0.010096 -0.003994 -0.001912 0.000000 0.000000 0.000000
# 2 -0.003994 0.018886 -0.004265 0.000000 0.000000 0.000000
# 3 -0.001912 -0.004265 0.009973 0.000000 0.000000 0.000000
# 4 0.000000 0.000000 0.000000 -0.011588 0.000000 0.000000
# 5 0.000000 0.000000 0.000000 0.000000 0.038563 0.000000
# 6 0.000000 0.000000 0.000000 0.000000 0.000000 0.030531
#
#
# Mechanical properties :
#
#
# Convention : Reuss Voigt Hill
#
# Bulk Modulus (GPa) = 53.72672 58.14704 55.93688
# Shear Modulus (GPa) = 40.64798 8.05169 24.34983
#
# Velocity S-wave (km/s) = 4.59821 2.04651 3.55891
# Velocity P-wave (km/s) = 7.49253 5.98583 6.78116
#
# Compressibility (1/GPa) = 0.01861271
#
# Stress axis : x y z
#
# Youngs Moduli (GPa) = 99.04905 52.95000 100.26942
#
# Poissons Ratio (x) = 0.21151 0.19167
# Poissons Ratio (y) = 0.39565 0.42765
# Poissons Ratio (z) = 0.18934 0.22583
#
# Static dielectric constant tensor:
#      x y z
#    x 3.470740 0.000000 0.000000 
#    y 0.000000 3.378270 0.000000 
#    z 0.000000 0.000000 3.961220 
# 
# 
# High freq. dielectric constant tensor:
#      x y z
#    x 1.741330 0.000000 0.000000 
#    y 0.000000 1.728280 0.000000 
#    z 0.000000 0.000000 1.757150 
# 
# From -- ./inp_files/5184.got.cif
#   From: 2010.03.12/outbox.cif.g09.slc.cpg/sg60_3_cif.got.tgz:5184.got - 2010.04.10 18:46:24.
