data_PCOD8246655
_publ_section_title
;
Structure prediction by ZEFSAII (Michael W. Deem and Ramdas Pophale) SiO2 
 PCOD8246655
Probable space group: P B C N
;
_chemical_formula_sum "Si O2"
_cell_formula_units_Z 24
_cell_length_a 7.869384
_cell_length_b 14.282958
_cell_length_c 10.412099
_cell_angle_alpha 90.000000
_cell_angle_beta 90.000000
_cell_angle_gamma 90.000000
_cell_volume 1170.299948
_symmetry_space_group_name_H-M "P B C N"
_symmetry_group_IT_number 60
_symmetry_cell_setting 'orthorhombic'
loop_
_space_group_symop_operation_xyz
x,y,z
1/2-x,1/2-y,1/2+z
1/2+x,1/2-y,-z
-x,y,1/2-z
-x,-y,-z
1/2+x,1/2+y,1/2-z
1/2-x,1/2+y,z
x,-y,1/2+z
loop_
_atom_site_type_symbol
_atom_site_label
_atom_site_fract_x
_atom_site_fract_y
_atom_site_fract_z
Si Si1 0.437584 0.062356 0.115843
Si Si2 0.608822 0.337327 0.877437
Si Si3 0.068691 0.229815 0.618397
O O1 0.500000 0.016525 0.250000
O O2 0.231203 0.071280 0.113205
O O3 0.518447 0.166870 0.103772
O O4 0.500000 0.000000 0.000000
O O5 0.500000 0.342462 0.750000
O O6 0.726598 0.243226 0.875922
O O7 0.483635 0.335366 0.999472
O O8 0.000000 0.182832 0.750000
#
# Coordination Sequence:
#
# PCOD8246655 Si02
#       3
#     8   8   8
#     4   9  21  39  57  82 121 159 197 238 294 342
#     4  10  19  35  61  86 116 151 195 245 290 350
#     4   9  19  34  59  87 116 146 201 239 298 342
#
# _framework density 20.507563000000001
#
# number of rings (size 3 to 8) (size 9 to 14) (size 15 to 20)
#    2.000    0.667    0.000    2.000    0.000    1.333 
#    0.000    1.667    0.000    0.000    0.000    0.000 
#    0.000    0.000    0.000    0.000    0.000    0.000 
#
# Total GULP energy -297338.795801 kJ/mol
# GULP energy per Si atom -12389.116492 kJ/mol
# Density = 2.046089 g / cm^3
# Si number density = 20.507563 Si / 1000 Ang^3
#
#
#
# Elastic Constant Matrix: (Units=GPa)
#
#
# Indices 1 2 3 4 5 6 
#
# 1 131.8661 25.6191 80.1631 0.0000 0.0000 0.0000
# 2 25.6191 31.0137 51.3548 0.0000 0.0000 0.0000
# 3 80.1631 51.3548 228.2197 0.0000 0.0000 0.0000
# 4 0.0000 0.0000 0.0000 7.1857 0.0000 0.0000
# 5 0.0000 0.0000 0.0000 0.0000 47.8733 0.0000
# 6 0.0000 0.0000 0.0000 0.0000 0.0000 16.5377
#
#
#
# Elastic Compliance Matrix: (Units=1/GPa)
#
#
# Indices 1 2 3 4 5 6 
#
# 1 0.009925 -0.003867 -0.002616 0.000000 0.000000 0.000000
# 2 -0.003867 0.052900 -0.010546 0.000000 0.000000 0.000000
# 3 -0.002616 -0.010546 0.007674 0.000000 0.000000 0.000000
# 4 0.000000 0.000000 0.000000 0.139165 0.000000 0.000000
# 5 0.000000 0.000000 0.000000 0.000000 0.020888 0.000000
# 6 0.000000 0.000000 0.000000 0.000000 0.000000 0.060468
#
#
# Mechanical properties :
#
#
# Convention : Reuss Voigt Hill
#
# Bulk Modulus (GPa) = 27.44079 78.37485 52.90782
# Shear Modulus (GPa) = 14.82692 29.91682 22.37187
#
# Velocity S-wave (km/s) = 2.69178 3.82359 3.30647
# Velocity P-wave (km/s) = 4.80320 7.60221 6.35863
#
# Compressibility (1/GPa) = 0.03644210
#
# Stress axis : x y z
#
# Youngs Moduli (GPa) = 100.75518 18.90350 130.31566
#
# Poissons Ratio (x) = 0.07309 0.34092
# Poissons Ratio (y) = 0.38959 1.37426
# Poissons Ratio (z) = 0.26359 0.19935
#
# Static dielectric constant tensor:
#      x y z
#    x 3.618160 0.000000 0.000000 
#    y 0.000000 3.076330 0.000000 
#    z 0.000000 0.000000 3.993190 
# 
# 
# High freq. dielectric constant tensor:
#      x y z
#    x 1.798490 0.000000 0.000000 
#    y 0.000000 1.738480 0.000000 
#    z 0.000000 0.000000 1.818010 
# 
# From -- ./inp_files/3307.got.cif
#   From: 2010.03.12/outbox.cif.g09.slc.cpg/sg60_2_cif.got.tgz:3307.got - 2010.04.10 18:46:24.
