data_PCOD8246806
_publ_section_title
;
Structure prediction by ZEFSAII (Michael W. Deem and Ramdas Pophale) SiO2 
 PCOD8246806
Probable space group: P B C N
;
_chemical_formula_sum "Si O2"
_cell_formula_units_Z 48
_cell_length_a 19.419384
_cell_length_b 13.331461
_cell_length_c 8.939671
_cell_angle_alpha 90.000000
_cell_angle_beta 90.000000
_cell_angle_gamma 90.000000
_cell_volume 2314.380344
_symmetry_space_group_name_H-M "P B C N"
_symmetry_group_IT_number 60
_symmetry_cell_setting 'orthorhombic'
loop_
_space_group_symop_operation_xyz
x,y,z
1/2-x,1/2-y,1/2+z
1/2+x,1/2-y,-z
-x,y,1/2-z
-x,-y,-z
1/2+x,1/2+y,1/2-z
1/2-x,1/2+y,z
x,-y,1/2+z
loop_
_atom_site_type_symbol
_atom_site_label
_atom_site_fract_x
_atom_site_fract_y
_atom_site_fract_z
Si Si1 0.928412 0.053866 0.458633
Si Si2 0.581848 0.620328 0.767486
Si Si3 0.770405 0.422729 0.790254
Si Si4 0.635703 0.715876 0.290103
Si Si5 0.344253 0.764360 0.538752
Si Si6 0.714111 0.123139 0.957398
O O1 0.887102 0.092666 0.604684
O O2 0.931018 0.151556 0.348408
O O3 0.887138 0.964286 0.378625
O O4 0.000000 0.000000 0.500000
O O5 0.500000 0.617765 0.750000
O O6 0.604402 0.727087 0.830293
O O7 0.698421 0.363514 0.794706
O O8 0.823817 0.375798 0.910923
O O9 0.802040 0.418788 0.622739
O O10 0.764257 0.537829 0.839083
O O11 0.649259 0.812545 0.395110
O O12 0.619975 0.758122 0.123883
O O13 0.276948 0.698095 0.535380
#
# Coordination Sequence:
#
# PCOD8246806 Si02
#       6
#     8   8   8   8   8   8
#     4  10  20  33  50  74 104 141 183 225 272 323
#     4  10  20  33  50  74 103 141 182 226 271 320
#     4  10  20  33  52  80 112 146 184 226 281 342
#     4  10  20  34  53  78 111 148 185 229 280 336
#     4  10  20  34  53  78 111 148 186 230 279 335
#     4  10  20  33  52  80 112 146 183 226 282 342
#
# _framework density 20.739894
#
# number of rings (size 3 to 8) (size 9 to 14) (size 15 to 20)
#    0.000    2.000    0.000    4.000    0.000    8.000 
#    0.000    0.000    0.000    0.000    0.000   22.167 
#    0.000    0.000    0.000    0.000    0.000    0.000 
#
# Total GULP energy -594706.707088 kJ/mol
# GULP energy per Si atom -12389.723064 kJ/mol
# Density = 2.069269 g / cm^3
# Si number density = 20.739894 Si / 1000 Ang^3
#
#
#
# Elastic Constant Matrix: (Units=GPa)
#
#
# Indices 1 2 3 4 5 6 
#
# 1 24.1484 5.1958 24.6914 0.0000 0.0000 0.0000
# 2 5.1958 52.6401 21.4383 0.0000 0.0000 0.0000
# 3 24.6914 21.4383 128.3141 0.0000 0.0000 0.0000
# 4 0.0000 0.0000 0.0000 38.7121 0.0000 0.0000
# 5 0.0000 0.0000 0.0000 0.0000 26.7135 0.0000
# 6 0.0000 0.0000 0.0000 0.0000 0.0000 31.1889
#
#
#
# Elastic Compliance Matrix: (Units=1/GPa)
#
#
# Indices 1 2 3 4 5 6 
#
# 1 0.051616 -0.001126 -0.009744 0.000000 0.000000 0.000000
# 2 -0.001126 0.020409 -0.003193 0.000000 0.000000 0.000000
# 3 -0.009744 -0.003193 0.010202 0.000000 0.000000 0.000000
# 4 0.000000 0.000000 0.000000 0.025832 0.000000 0.000000
# 5 0.000000 0.000000 0.000000 0.000000 0.037434 0.000000
# 6 0.000000 0.000000 0.000000 0.000000 0.000000 0.032063
#
#
# Mechanical properties :
#
#
# Convention : Reuss Voigt Hill
#
# Bulk Modulus (GPa) = 18.48445 34.19486 26.33965
# Shear Modulus (GPa) = 22.34974 29.57469 25.96221
#
# Velocity S-wave (km/s) = 3.28627 3.78031 3.54192
# Velocity P-wave (km/s) = 4.83025 5.96470 5.42720
#
# Compressibility (1/GPa) = 0.05409953
#
# Stress axis : x y z
#
# Youngs Moduli (GPa) = 19.37366 48.99918 98.02035
#
# Poissons Ratio (x) = 0.05519 0.95515
# Poissons Ratio (y) = 0.02182 0.31298
# Poissons Ratio (z) = 0.18878 0.15646
#
# Static dielectric constant tensor:
#      x y z
#    x 3.296490 0.000000 0.000000 
#    y 0.000000 3.840390 0.000000 
#    z 0.000000 0.000000 4.774630 
# 
# 
# High freq. dielectric constant tensor:
#      x y z
#    x 1.755660 0.000000 0.000000 
#    y 0.000000 1.802630 0.000000 
#    z 0.000000 0.000000 1.840190 
# 
# From -- ./inp_files/7851.got.cif
#   From: 2010.03.12/outbox.cif.g09.slc.cpg/sg60_4_cif.got.tgz:7851.got - 2010.04.10 18:46:24.
