data_PCOD8246832
_publ_section_title
;
Structure prediction by ZEFSAII (Michael W. Deem and Ramdas Pophale) SiO2 
 PCOD8246832
Probable space group: P B C N
;
_chemical_formula_sum "Si O2"
_cell_formula_units_Z 64
_cell_length_a 21.108904
_cell_length_b 18.937951
_cell_length_c 8.864327
_cell_angle_alpha 90.000000
_cell_angle_beta 90.000000
_cell_angle_gamma 90.000000
_cell_volume 3543.597951
_symmetry_space_group_name_H-M "P B C N"
_symmetry_group_IT_number 60
_symmetry_cell_setting 'orthorhombic'
loop_
_space_group_symop_operation_xyz
x,y,z
1/2-x,1/2-y,1/2+z
1/2+x,1/2-y,-z
-x,y,1/2-z
-x,-y,-z
1/2+x,1/2+y,1/2-z
1/2-x,1/2+y,z
x,-y,1/2+z
loop_
_atom_site_type_symbol
_atom_site_label
_atom_site_fract_x
_atom_site_fract_y
_atom_site_fract_z
Si Si1 0.387716 0.937473 0.952158
Si Si2 0.321230 0.711845 0.882592
Si Si3 0.570317 0.806855 0.710597
Si Si4 0.741400 0.563947 0.114876
Si Si5 0.720649 0.297057 0.453299
Si Si6 0.727653 0.417764 0.961584
Si Si7 0.927147 0.572818 0.720228
Si Si8 0.856085 0.335400 0.003551
O O1 0.429856 0.868607 0.913979
O O2 0.317100 0.929852 0.888549
O O3 0.422239 0.006687 0.890973
O O4 0.386218 0.944762 0.132083
O O5 0.392228 0.737511 0.846592
O O6 0.280633 0.704130 0.728337
O O7 0.289147 0.770945 0.988990
O O8 0.323335 0.637691 0.971288
O O9 0.500000 0.781283 0.750000
O O10 0.602626 0.842961 0.854155
O O11 0.708775 0.624434 0.013666
O O12 0.717476 0.490391 0.048905
O O13 0.716200 0.571899 0.284504
O O14 0.667396 0.245025 0.522118
O O15 0.797775 0.389128 0.991434
O O16 0.897946 0.643328 0.646653
O O17 0.000000 0.588838 0.750000
#
# Coordination Sequence:
#
# PCOD8246832 Si02
#       8
#     8   8   8   8   8   8   8   8
#     4  12  22  34  52  75 108 150 196 223 270 320
#     4  10  21  36  55  83 107 147 179 235 278 330
#     4  11  21  38  57  79 112 149 191 227 273 333
#     4  12  21  36  55  84 106 151 174 230 284 337
#     4  10  20  34  56  76 108 136 184 224 283 326
#     4  11  22  35  56  77 114 135 186 224 281 337
#     4  12  24  36  50  73 109 155 195 229 264 312
#     4  10  21  37  52  79 106 144 182 235 267 321
#
# _framework density 18.060738000000001
#
# number of rings (size 3 to 8) (size 9 to 14) (size 15 to 20)
#    0.000    1.000    3.750    5.250    3.500    1.000 
#    0.000    0.000    0.000    0.000    0.000    8.750 
#    0.000    0.000    0.000    0.000    0.000    0.000 
#
# Total GULP energy -793879.440020 kJ/mol
# GULP energy per Si atom -12404.366250 kJ/mol
# Density = 1.801963 g / cm^3
# Si number density = 18.060738 Si / 1000 Ang^3
#
#
#
# Elastic Constant Matrix: (Units=GPa)
#
#
# Indices 1 2 3 4 5 6 
#
# 1 50.7487 30.0204 16.7381 0.0000 0.0000 0.0000
# 2 30.0204 123.7486 41.0750 0.0000 0.0000 0.0000
# 3 16.7381 41.0750 97.6327 0.0000 0.0000 0.0000
# 4 0.0000 0.0000 0.0000 33.2008 0.0000 0.0000
# 5 0.0000 0.0000 0.0000 0.0000 19.8427 0.0000
# 6 0.0000 0.0000 0.0000 0.0000 0.0000 22.2884
#
#
#
# Elastic Compliance Matrix: (Units=1/GPa)
#
#
# Indices 1 2 3 4 5 6 
#
# 1 0.023299 -0.005029 -0.001879 0.000000 0.000000 0.000000
# 2 -0.005029 0.010478 -0.003546 0.000000 0.000000 0.000000
# 3 -0.001879 -0.003546 0.012056 0.000000 0.000000 0.000000
# 4 0.000000 0.000000 0.000000 0.030120 0.000000 0.000000
# 5 0.000000 0.000000 0.000000 0.000000 0.050396 0.000000
# 6 0.000000 0.000000 0.000000 0.000000 0.000000 0.044866
#
#
# Mechanical properties :
#
#
# Convention : Reuss Voigt Hill
#
# Bulk Modulus (GPa) = 40.11775 49.75522 44.93649
# Shear Modulus (GPa) = 24.94614 27.35281 26.14948
#
# Velocity S-wave (km/s) = 3.72053 3.89587 3.80921
# Velocity P-wave (km/s) = 6.38102 6.91706 6.65444
#
# Compressibility (1/GPa) = 0.02492662
#
# Stress axis : x y z
#
# Youngs Moduli (GPa) = 42.91980 95.43991 82.94344
#
# Poissons Ratio (x) = 0.47993 0.15584
# Poissons Ratio (y) = 0.21583 0.29412
# Poissons Ratio (z) = 0.08064 0.33843
#
# Static dielectric constant tensor:
#      x y z
#    x 3.066330 0.000000 0.000000 
#    y 0.000000 3.416640 0.000000 
#    z 0.000000 0.000000 3.547260 
# 
# 
# High freq. dielectric constant tensor:
#      x y z
#    x 1.659490 0.000000 0.000000 
#    y 0.000000 1.701080 0.000000 
#    z 0.000000 0.000000 1.718580 
# 
# From -- ./inp_files/7551.got.cif
#   From: 2010.03.12/outbox.cif.g09.slc.cpg/sg60_4_cif.got.tgz:7551.got - 2010.04.10 18:46:24.
