data_PCOD8246236
_publ_section_title
;
Structure prediction by ZEFSAII (Michael W. Deem and Ramdas Pophale) SiO2 
 PCOD8246236
Probable space group: P M M N
;
_chemical_formula_sum "Si O2"
_cell_formula_units_Z 64
_cell_length_a 15.905032
_cell_length_b 13.969018
_cell_length_c 17.810868
_cell_angle_alpha 90.000000
_cell_angle_beta 90.000000
_cell_angle_gamma 90.000000
_cell_volume 3957.177301
_symmetry_space_group_name_H-M "P M M N"
_symmetry_group_IT_number 59
_space_group.IT_coordinate_system_code '2'
_symmetry_cell_setting 'orthorhombic'
loop_
_space_group_symop_operation_xyz
x,y,z
1/2-x,1/2-y,z
1/2+x,-y,-z
-x,1/2+y,-z
-x,-y,-z
1/2+x,1/2+y,-z
1/2-x,y,z
x,1/2-y,z
loop_
_atom_site_type_symbol
_atom_site_label
_atom_site_fract_x
_atom_site_fract_y
_atom_site_fract_z
Si Si1 0.462767 0.472319 0.580331
Si Si2 0.936651 0.139145 0.701131
Si Si3 0.342677 0.357491 0.497369
Si Si4 0.535162 0.856299 0.643193
Si Si5 0.492866 0.640563 0.134420
Si Si6 0.845344 0.860752 0.042891
Si Si7 0.655730 0.006664 0.910115
Si Si8 0.658110 0.960527 0.742385
O O1 0.500000 0.500000 0.500000
O O2 0.516538 0.392372 0.624869
O O3 0.371625 0.426848 0.565232
O O4 0.458139 0.569552 0.630134
O O5 0.907944 0.250000 0.693125
O O6 0.993926 0.124017 0.775592
O O7 0.857012 0.069133 0.712373
O O8 0.250000 0.389134 0.472452
O O9 0.343859 0.250000 0.529167
O O10 0.401933 0.366039 0.426062
O O11 0.498258 0.750000 0.652653
O O12 0.587526 0.886048 0.715926
O O13 0.474066 0.750000 0.115214
O O14 0.585957 0.610731 0.106063
O O15 0.418184 0.585409 0.090525
O O16 0.750000 0.878416 0.073468
O O17 0.855896 0.750000 0.018840
O O18 0.864315 0.926830 0.971698
O O19 0.750000 0.051665 0.923095
O O20 0.655097 0.952691 0.831297
O O21 0.750000 0.929598 0.712705
#
# Coordination Sequence:
#
# PCOD8246236 Si02
#       8
#     8   8   8   8   8   8   8   8
#     4   9  17  29  44  61  83 110 139 174 212 255
#     4   9  17  29  44  62  85 113 144 176 214 261
#     4   9  16  26  42  63  83 104 132 169 215 258
#     4   9  17  28  42  59  81 111 142 170 203 248
#     4   9  17  29  45  63  86 117 148 181 220 260
#     4   9  17  29  44  63  88 117 148 181 217 256
#     4   9  17  28  43  64  89 116 145 177 216 263
#     4   9  17  27  40  62  88 112 140 173 210 254
#
# _framework density 16.173145000000002
#
# number of rings (size 3 to 8) (size 9 to 14) (size 15 to 20)
#    0.000    3.000    0.000    1.125    0.000    2.250 
#    0.000    4.375    0.000    2.625    0.000    0.000 
#    0.000    0.000    0.000    0.000    0.000    0.000 
#
# Total GULP energy -792888.915927 kJ/mol
# GULP energy per Si atom -12388.889311 kJ/mol
# Density = 1.613633 g / cm^3
# Si number density = 16.173145 Si / 1000 Ang^3
#
#
#
# Elastic Constant Matrix: (Units=GPa)
#
#
# Indices 1 2 3 4 5 6 
#
# 1 73.6815 27.5778 30.9106 0.0000 0.0000 0.0000
# 2 27.5778 73.5993 24.6536 0.0000 0.0000 0.0000
# 3 30.9106 24.6536 62.8054 0.0000 0.0000 0.0000
# 4 0.0000 0.0000 0.0000 23.6326 0.0000 0.0000
# 5 0.0000 0.0000 0.0000 0.0000 17.6190 0.0000
# 6 0.0000 0.0000 0.0000 0.0000 0.0000 20.7599
#
#
#
# Elastic Compliance Matrix: (Units=1/GPa)
#
#
# Indices 1 2 3 4 5 6 
#
# 1 0.018269 -0.004414 -0.007259 0.000000 0.000000 0.000000
# 2 -0.004414 0.016711 -0.004387 0.000000 0.000000 0.000000
# 3 -0.007259 -0.004387 0.021217 0.000000 0.000000 0.000000
# 4 0.000000 0.000000 0.000000 0.042315 0.000000 0.000000
# 5 0.000000 0.000000 0.000000 0.000000 0.056757 0.000000
# 6 0.000000 0.000000 0.000000 0.000000 0.000000 0.048170
#
#
# Mechanical properties :
#
#
# Convention : Reuss Voigt Hill
#
# Bulk Modulus (GPa) = 41.53386 41.81891 41.67638
# Shear Modulus (GPa) = 20.52686 20.86524 20.69605
#
# Velocity S-wave (km/s) = 3.56644 3.59572 3.58111
# Velocity P-wave (km/s) = 6.53420 6.56902 6.55164
#
# Compressibility (1/GPa) = 0.02407674
#
# Stress axis : x y z
#
# Youngs Moduli (GPa) = 54.73692 59.84234 47.13235
#
# Poissons Ratio (x) = 0.26414 0.34212
# Poissons Ratio (y) = 0.24161 0.20678
# Poissons Ratio (z) = 0.39732 0.26254
#
# Static dielectric constant tensor:
#      x y z
#    x 3.153740 0.000000 0.000000 
#    y 0.000000 3.254440 0.000000 
#    z 0.000000 0.000000 3.062940 
# 
# 
# High freq. dielectric constant tensor:
#      x y z
#    x 1.603220 0.000000 0.000000 
#    y 0.000000 1.622950 0.000000 
#    z 0.000000 0.000000 1.612980 
# 
# From -- ./inp_files/27180.got.cif
#   From: 2010.03.12/outbox.cif.g09.slc.cpg/sg59_14_cif.got.tgz:27180.got - 2010.04.16 16:29:54.
