data_PCOD8246327
_publ_section_title
;
Structure prediction by ZEFSAII (Michael W. Deem and Ramdas Pophale) SiO2 
 PCOD8246327
Probable space group: P B C N
;
_chemical_formula_sum "Si O2"
_cell_formula_units_Z 52
_cell_length_a 15.930727
_cell_length_b 9.082370
_cell_length_c 18.673235
_cell_angle_alpha 90.000000
_cell_angle_beta 90.000000
_cell_angle_gamma 90.000000
_cell_volume 2701.807161
_symmetry_space_group_name_H-M "P B C N"
_symmetry_group_IT_number 60
_symmetry_cell_setting 'orthorhombic'
loop_
_space_group_symop_operation_xyz
x,y,z
1/2-x,1/2-y,1/2+z
1/2+x,1/2-y,-z
-x,y,1/2-z
-x,-y,-z
1/2+x,1/2+y,1/2-z
1/2-x,1/2+y,z
x,-y,1/2+z
loop_
_atom_site_type_symbol
_atom_site_label
_atom_site_fract_x
_atom_site_fract_y
_atom_site_fract_z
Si Si1 0.409572 0.256199 0.045649
Si Si2 0.446566 0.105516 0.367886
Si Si3 0.911361 0.978198 0.860678
Si Si4 0.845087 0.660453 0.002651
Si Si5 0.500000 0.316383 0.250000
Si Si6 0.757274 0.909608 0.937665
Si Si7 0.002499 0.303962 0.407155
O O1 0.479849 0.160713 0.082438
O O2 0.422167 0.426925 0.066460
O O3 0.322342 0.193933 0.076648
O O4 0.420165 0.240147 0.959833
O O5 0.361095 0.122991 0.414012
O O6 0.442197 0.207020 0.297417
O O7 0.464002 0.931418 0.352884
O O8 0.812229 0.930328 0.863706
O O9 0.972961 0.837268 0.861271
O O10 0.934847 0.080679 0.793201
O O11 0.818568 0.830214 0.995138
O O12 0.768424 0.563562 0.972603
O O13 0.926528 0.629490 0.953991
#
# Coordination Sequence:
#
# PCOD8246327 Si02
#       7
#     8   8   8   8   4   8   8
#     4  10  17  32  55  90 116 142 185 254 312 348
#     4  10  19  36  59  77 114 154 199 240 283 354
#     4  10  22  34  56  84 121 162 196 238 294 363
#     4  10  19  32  55  90 117 140 184 246 315 346
#     4  10  24  42  54  76 120 166 214 234 270 358
#     4  11  18  31  57  88 121 143 180 250 311 349
#     4  10  18  32  59  89 109 145 198 255 299 350
#
# _framework density 19.246376000000001
#
# number of rings (size 3 to 8) (size 9 to 14) (size 15 to 20)
#    0.000    1.846    4.615    1.385    0.000    1.846 
#    0.000    0.000    6.769    0.000    0.000    0.000 
#    0.000    0.000    0.000    0.000    0.000    0.000 
#
# Total GULP energy -644281.270940 kJ/mol
# GULP energy per Si atom -12390.024441 kJ/mol
# Density = 1.920257 g / cm^3
# Si number density = 19.246376 Si / 1000 Ang^3
#
#
#
# Elastic Constant Matrix: (Units=GPa)
#
#
# Indices 1 2 3 4 5 6 
#
# 1 79.0925 34.5157 30.7530 0.0000 0.0000 0.0000
# 2 34.5157 130.9334 47.0520 0.0000 0.0000 0.0000
# 3 30.7530 47.0520 80.4521 0.0000 0.0000 0.0000
# 4 0.0000 0.0000 0.0000 23.1939 0.0000 0.0000
# 5 0.0000 0.0000 0.0000 0.0000 19.1828 0.0000
# 6 0.0000 0.0000 0.0000 0.0000 0.0000 28.6022
#
#
#
# Elastic Compliance Matrix: (Units=1/GPa)
#
#
# Indices 1 2 3 4 5 6 
#
# 1 0.015457 -0.002471 -0.004464 0.000000 0.000000 0.000000
# 2 -0.002471 0.010065 -0.004942 0.000000 0.000000 0.000000
# 3 -0.004464 -0.004942 0.017026 0.000000 0.000000 0.000000
# 4 0.000000 0.000000 0.000000 0.043115 0.000000 0.000000
# 5 0.000000 0.000000 0.000000 0.000000 0.052130 0.000000
# 6 0.000000 0.000000 0.000000 0.000000 0.000000 0.034962
#
#
# Mechanical properties :
#
#
# Convention : Reuss Voigt Hill
#
# Bulk Modulus (GPa) = 53.20334 57.23550 55.21942
# Shear Modulus (GPa) = 24.65816 26.07293 25.36555
#
# Velocity S-wave (km/s) = 3.58325 3.68461 3.63428
# Velocity P-wave (km/s) = 6.69499 6.92132 6.80909
#
# Compressibility (1/GPa) = 0.01879581
#
# Stress axis : x y z
#
# Youngs Moduli (GPa) = 64.69500 99.35750 58.73313
#
# Poissons Ratio (x) = 0.24548 0.26216
# Poissons Ratio (y) = 0.15984 0.29025
# Poissons Ratio (z) = 0.28877 0.49101
#
# Static dielectric constant tensor:
#      x y z
#    x 3.676210 0.000000 0.000000 
#    y 0.000000 3.813280 0.000000 
#    z 0.000000 0.000000 3.250340 
# 
# 
# High freq. dielectric constant tensor:
#      x y z
#    x 1.739880 0.000000 0.000000 
#    y 0.000000 1.778910 0.000000 
#    z 0.000000 0.000000 1.691990 
# 
# From -- ./inp_files/20844.got.cif
#   From: 2010.03.12/outbox.cif.g09.slc.cpg/sg60_11_cif.got.tgz:20844.got - 2010.04.10 18:46:24.
