data_PCOD8246861
_publ_section_title
;
Structure prediction by ZEFSAII (Michael W. Deem and Ramdas Pophale) SiO2 
 PCOD8246861
Probable space group: P B C N
;
_chemical_formula_sum "Si O2"
_cell_formula_units_Z 48
_cell_length_a 16.205359
_cell_length_b 16.924653
_cell_length_c 8.420386
_cell_angle_alpha 90.000000
_cell_angle_beta 90.000000
_cell_angle_gamma 90.000000
_cell_volume 2309.459923
_symmetry_space_group_name_H-M "P B C N"
_symmetry_group_IT_number 60
_symmetry_cell_setting 'orthorhombic'
loop_
_space_group_symop_operation_xyz
x,y,z
1/2-x,1/2-y,1/2+z
1/2+x,1/2-y,-z
-x,y,1/2-z
-x,-y,-z
1/2+x,1/2+y,1/2-z
1/2-x,1/2+y,z
x,-y,1/2+z
loop_
_atom_site_type_symbol
_atom_site_label
_atom_site_fract_x
_atom_site_fract_y
_atom_site_fract_z
Si Si1 0.654298 0.892273 0.910840
Si Si2 0.325786 0.946473 0.942831
Si Si3 0.768703 0.708369 0.647192
Si Si4 0.425628 0.825770 0.148207
Si Si5 0.964844 0.244182 0.918391
Si Si6 0.308516 0.346157 0.045885
O O1 0.676267 0.930015 0.743291
O O2 0.578650 0.830558 0.901635
O O3 0.731965 0.846278 0.988927
O O4 0.640473 0.965138 0.032363
O O5 0.389573 0.890904 0.032382
O O6 0.231430 0.932923 0.016263
O O7 0.858856 0.706779 0.728044
O O8 0.699775 0.682370 0.771210
O O9 0.751152 0.795679 0.578030
O O10 0.500000 0.863895 0.250000
O O11 0.460579 0.752486 0.043620
O O12 0.904603 0.173442 0.984698
O O13 0.000000 0.216771 0.750000
#
# Coordination Sequence:
#
# PCOD8246861 Si02
#       6
#     8   8   8   8   8   8
#     4  11  22  38  55  82 117 152 197 227 294 336
#     4  11  23  36  56  81 116 152 193 238 280 348
#     4  10  21  35  56  79 113 151 191 238 277 346
#     4  11  20  35  53  81 115 149 188 224 283 342
#     4  11  22  38  56  86 120 156 187 235 288 349
#     4  10  20  35  55  80 116 149 196 234 280 336
#
# _framework density 20.784079999999999
#
# number of rings (size 3 to 8) (size 9 to 14) (size 15 to 20)
#    0.000    1.333    5.000    4.000    2.333    1.333 
#    0.000    0.000    0.000    0.000    0.000    4.667 
#    0.000    0.167    0.000    0.000    0.000    0.000 
#
# Total GULP energy -594668.328730 kJ/mol
# GULP energy per Si atom -12388.923515 kJ/mol
# Density = 2.073677 g / cm^3
# Si number density = 20.784080 Si / 1000 Ang^3
#
#
#
# Elastic Constant Matrix: (Units=GPa)
#
#
# Indices 1 2 3 4 5 6 
#
# 1 60.8370 22.4014 -0.4055 0.0000 0.0000 0.0000
# 2 22.4014 31.8983 6.3075 0.0000 0.0000 0.0000
# 3 -0.4055 6.3075 89.3657 0.0000 0.0000 0.0000
# 4 0.0000 0.0000 0.0000 30.3156 0.0000 0.0000
# 5 0.0000 0.0000 0.0000 0.0000 29.9960 0.0000
# 6 0.0000 0.0000 0.0000 0.0000 0.0000 23.1884
#
#
#
# Elastic Compliance Matrix: (Units=1/GPa)
#
#
# Indices 1 2 3 4 5 6 
#
# 1 0.022302 -0.015904 0.001224 0.000000 0.000000 0.000000
# 2 -0.015904 0.043135 -0.003117 0.000000 0.000000 0.000000
# 3 0.001224 -0.003117 0.011416 0.000000 0.000000 0.000000
# 4 0.000000 0.000000 0.000000 0.032986 0.000000 0.000000
# 5 0.000000 0.000000 0.000000 0.000000 0.033338 0.000000
# 6 0.000000 0.000000 0.000000 0.000000 0.000000 0.043125
#
#
# Mechanical properties :
#
#
# Convention : Reuss Voigt Hill
#
# Bulk Modulus (GPa) = 24.23754 26.52309 25.38032
# Shear Modulus (GPa) = 21.21815 26.95317 24.08566
#
# Velocity S-wave (km/s) = 3.19859 3.60504 3.40788
# Velocity P-wave (km/s) = 5.03272 5.48793 5.26525
#
# Compressibility (1/GPa) = 0.04125830
#
# Stress axis : x y z
#
# Youngs Moduli (GPa) = 44.83978 23.18318 87.60013
#
# Poissons Ratio (x) = 0.36870 -0.10720
# Poissons Ratio (y) = 0.71312 0.27302
# Poissons Ratio (z) = -0.05487 0.07225
#
# Static dielectric constant tensor:
#      x y z
#    x 3.697640 0.000000 0.000000 
#    y 0.000000 3.571330 0.000000 
#    z 0.000000 0.000000 4.217470 
# 
# 
# High freq. dielectric constant tensor:
#      x y z
#    x 1.791530 0.000000 0.000000 
#    y 0.000000 1.770450 0.000000 
#    z 0.000000 0.000000 1.848780 
# 
# From -- ./inp_files/6818.got.cif
#   From: 2010.03.12/outbox.cif.g09.slc.cpg/sg60_4_cif.got.tgz:6818.got - 2010.04.10 18:46:24.
