data_PCOD8246318
_publ_section_title
;
Structure prediction by ZEFSAII (Michael W. Deem and Ramdas Pophale) SiO2 
 PCOD8246318
Probable space group: P B C N
;
_chemical_formula_sum "Si O2"
_cell_formula_units_Z 64
_cell_length_a 9.524046
_cell_length_b 28.129421
_cell_length_c 14.075445
_cell_angle_alpha 90.000000
_cell_angle_beta 90.000000
_cell_angle_gamma 90.000000
_cell_volume 3770.894754
_symmetry_space_group_name_H-M "P B C N"
_symmetry_group_IT_number 60
_symmetry_cell_setting 'orthorhombic'
loop_
_space_group_symop_operation_xyz
x,y,z
1/2-x,1/2-y,1/2+z
1/2+x,1/2-y,-z
-x,y,1/2-z
-x,-y,-z
1/2+x,1/2+y,1/2-z
1/2-x,1/2+y,z
x,-y,1/2+z
loop_
_atom_site_type_symbol
_atom_site_label
_atom_site_fract_x
_atom_site_fract_y
_atom_site_fract_z
Si Si1 0.619193 0.434887 0.005830
Si Si2 0.314296 0.923832 0.163655
Si Si3 0.620729 0.086681 0.625171
Si Si4 0.560374 0.506897 0.855904
Si Si5 0.756363 0.183941 0.854646
Si Si6 0.986362 0.758678 0.859829
Si Si7 0.718483 0.188229 0.640457
Si Si8 0.019104 0.168818 0.981601
O O1 0.609120 0.456050 0.899110
O O2 0.781878 0.425484 0.034410
O O3 0.566808 0.473015 0.082202
O O4 0.520750 0.388239 0.010528
O O5 0.311169 0.931541 0.276864
O O6 0.465786 0.936732 0.116466
O O7 0.191683 0.958026 0.128305
O O8 0.291487 0.870039 0.130448
O O9 0.610898 0.143731 0.636814
O O10 0.500000 0.500607 0.750000
O O11 0.641140 0.222973 0.885265
O O12 0.790813 0.192215 0.743904
O O13 0.893408 0.190232 0.919220
O O14 0.000000 0.771317 0.750000
O O15 0.131021 0.733989 0.889325
O O16 0.978826 0.808490 0.914095
O O17 0.837892 0.184928 0.564422
#
# Coordination Sequence:
#
# PCOD8246318 Si02
#       8
#     8   8   8   8   8   8   8   8
#     4  10  22  34  51  78 104 133 175 211 255 313
#     4  10  17  30  55  76 101 134 161 215 268 300
#     4   9  17  31  52  79 102 127 168 209 262 311
#     4  11  21  36  53  76 105 133 168 220 262 301
#     4  10  18  31  51  78 103 130 165 213 261 295
#     4  10  20  34  49  73 107 139 170 206 248 302
#     4   9  18  31  50  77 105 129 164 216 252 295
#     4  11  20  32  52  76 103 136 174 204 253 307
#
# _framework density 16.972100000000001
#
# number of rings (size 3 to 8) (size 9 to 14) (size 15 to 20)
#    0.000    2.000    3.750    1.125    0.000    1.000 
#    0.000    0.000    0.000    0.000    0.000    0.000 
#    0.000    0.000    0.000    0.000    0.000    0.000 
#
# Total GULP energy -793176.803703 kJ/mol
# GULP energy per Si atom -12393.387558 kJ/mol
# Density = 1.693347 g / cm^3
# Si number density = 16.972100 Si / 1000 Ang^3
#
#
#
# Elastic Constant Matrix: (Units=GPa)
#
#
# Indices 1 2 3 4 5 6 
#
# 1 74.0691 20.5165 34.8711 0.0000 0.0000 0.0000
# 2 20.5165 58.7944 42.3868 0.0000 0.0000 0.0000
# 3 34.8711 42.3868 76.2899 0.0000 0.0000 0.0000
# 4 0.0000 0.0000 0.0000 30.4543 0.0000 0.0000
# 5 0.0000 0.0000 0.0000 0.0000 63.0358 0.0000
# 6 0.0000 0.0000 0.0000 0.0000 0.0000 17.1643
#
#
#
# Elastic Compliance Matrix: (Units=1/GPa)
#
#
# Indices 1 2 3 4 5 6 
#
# 1 0.017214 -0.000558 -0.007558 0.000000 0.000000 0.000000
# 2 -0.000558 0.028392 -0.015519 0.000000 0.000000 0.000000
# 3 -0.007558 -0.015519 0.025185 0.000000 0.000000 0.000000
# 4 0.000000 0.000000 0.000000 0.032836 0.000000 0.000000
# 5 0.000000 0.000000 0.000000 0.000000 0.015864 0.000000
# 6 0.000000 0.000000 0.000000 0.000000 0.000000 0.058260
#
#
# Mechanical properties :
#
#
# Convention : Reuss Voigt Hill
#
# Bulk Modulus (GPa) = 42.51768 44.96690 43.74229
# Shear Modulus (GPa) = 21.47195 29.55616 25.51405
#
# Velocity S-wave (km/s) = 3.56073 4.17760 3.88144
# Velocity P-wave (km/s) = 6.48159 7.05847 6.77617
#
# Compressibility (1/GPa) = 0.02351963
#
# Stress axis : x y z
#
# Youngs Moduli (GPa) = 58.09299 35.22176 39.70568
#
# Poissons Ratio (x) = 0.01965 0.30011
# Poissons Ratio (y) = 0.03240 0.61621
# Poissons Ratio (z) = 0.43908 0.54662
#
# Static dielectric constant tensor:
#      x y z
#    x 3.217480 0.000000 0.000000 
#    y 0.000000 3.101960 0.000000 
#    z 0.000000 0.000000 3.042140 
# 
# 
# High freq. dielectric constant tensor:
#      x y z
#    x 1.661910 0.000000 0.000000 
#    y 0.000000 1.639520 0.000000 
#    z 0.000000 0.000000 1.639340 
# 
# From -- ./inp_files/15459.got.cif
#   From: 2010.03.12/outbox.cif.g09.slc.cpg/sg60_8_cif.got.tgz:15459.got - 2010.04.10 18:46:24.
