data_PCOD8246319
_publ_section_title
;
Structure prediction by ZEFSAII (Michael W. Deem and Ramdas Pophale) SiO2 
 PCOD8246319
Probable space group: P B C N
;
_chemical_formula_sum "Si O2"
_cell_formula_units_Z 56
_cell_length_a 9.193552
_cell_length_b 24.215958
_cell_length_c 13.661272
_cell_angle_alpha 90.000000
_cell_angle_beta 90.000000
_cell_angle_gamma 90.000000
_cell_volume 3041.418126
_symmetry_space_group_name_H-M "P B C N"
_symmetry_group_IT_number 60
_symmetry_cell_setting 'orthorhombic'
loop_
_space_group_symop_operation_xyz
x,y,z
1/2-x,1/2-y,1/2+z
1/2+x,1/2-y,-z
-x,y,1/2-z
-x,-y,-z
1/2+x,1/2+y,1/2-z
1/2-x,1/2+y,z
x,-y,1/2+z
loop_
_atom_site_type_symbol
_atom_site_label
_atom_site_fract_x
_atom_site_fract_y
_atom_site_fract_z
Si Si1 0.488251 0.292631 0.486839
Si Si2 0.887782 0.394147 0.112904
Si Si3 0.801215 0.729954 0.614655
Si Si4 0.111900 0.917005 0.495079
Si Si5 0.854269 0.198751 0.801188
Si Si6 0.058808 0.994755 0.143347
Si Si7 0.693196 0.087634 0.828255
O O1 0.327629 0.267113 0.467271
O O2 0.568658 0.272723 0.586921
O O3 0.472902 0.358964 0.488011
O O4 0.592591 0.269955 0.399108
O O5 0.879658 0.328480 0.120895
O O6 0.839137 0.422103 0.214320
O O7 0.054295 0.412472 0.098668
O O8 0.785301 0.411700 0.022765
O O9 0.733040 0.738827 0.724721
O O10 0.060257 0.959117 0.412524
O O11 0.082551 0.944051 0.600035
O O12 0.764695 0.147143 0.839539
O O13 0.000000 0.174598 0.750000
O O14 0.209697 0.962510 0.135504
O O15 0.000000 0.004809 0.250000
#
# Coordination Sequence:
#
# PCOD8246319 Si02
#       7
#     8   8   8   8   8   8   8
#     4  10  19  35  53  78 111 142 182 233 270 334
#     4   9  19  33  50  84 109 135 183 232 276 331
#     4   9  20  32  53  79 110 143 183 221 280 334
#     4  10  21  35  54  82 110 141 190 229 279 340
#     4   9  17  32  52  77 107 142 182 227 276 326
#     4  11  20  34  58  79 105 150 188 232 281 336
#     4  10  17  30  57  78 105 137 179 238 275 318
#
# _framework density 18.412465000000001
#
# number of rings (size 3 to 8) (size 9 to 14) (size 15 to 20)
#    0.000    2.286    2.857    1.286    2.000    0.571 
#    0.000    2.857    0.000    0.000    0.000    0.000 
#    0.000    0.000    0.000    0.000    0.000    0.000 
#
# Total GULP energy -693821.376484 kJ/mol
# GULP energy per Si atom -12389.667437 kJ/mol
# Density = 1.837056 g / cm^3
# Si number density = 18.412465 Si / 1000 Ang^3
#
#
#
# Elastic Constant Matrix: (Units=GPa)
#
#
# Indices 1 2 3 4 5 6 
#
# 1 103.5052 24.4582 37.5663 0.0000 0.0000 0.0000
# 2 24.4582 48.2140 29.2673 0.0000 0.0000 0.0000
# 3 37.5663 29.2673 72.3410 0.0000 0.0000 0.0000
# 4 0.0000 0.0000 0.0000 19.8641 0.0000 0.0000
# 5 0.0000 0.0000 0.0000 0.0000 32.5136 0.0000
# 6 0.0000 0.0000 0.0000 0.0000 0.0000 14.5862
#
#
#
# Elastic Compliance Matrix: (Units=1/GPa)
#
#
# Indices 1 2 3 4 5 6 
#
# 1 0.012249 -0.003118 -0.005099 0.000000 0.000000 0.000000
# 2 -0.003118 0.028287 -0.009825 0.000000 0.000000 0.000000
# 3 -0.005099 -0.009825 0.020446 0.000000 0.000000 0.000000
# 4 0.000000 0.000000 0.000000 0.050342 0.000000 0.000000
# 5 0.000000 0.000000 0.000000 0.000000 0.030756 0.000000
# 6 0.000000 0.000000 0.000000 0.000000 0.000000 0.068558
#
#
# Mechanical properties :
#
#
# Convention : Reuss Voigt Hill
#
# Bulk Modulus (GPa) = 40.16499 45.18266 42.67383
# Shear Modulus (GPa) = 19.60618 22.24402 20.92510
#
# Velocity S-wave (km/s) = 3.26672 3.47954 3.37481
# Velocity P-wave (km/s) = 6.00749 6.38243 6.19779
#
# Compressibility (1/GPa) = 0.02489730
#
# Stress axis : x y z
#
# Youngs Moduli (GPa) = 81.63990 35.35238 48.90876
#
# Poissons Ratio (x) = 0.11024 0.24940
# Poissons Ratio (y) = 0.25458 0.48051
# Poissons Ratio (z) = 0.41630 0.34733
#
# Static dielectric constant tensor:
#      x y z
#    x 3.632490 0.000000 0.000000 
#    y 0.000000 3.055830 0.000000 
#    z 0.000000 0.000000 3.389750 
# 
# 
# High freq. dielectric constant tensor:
#      x y z
#    x 1.730210 0.000000 0.000000 
#    y 0.000000 1.677160 0.000000 
#    z 0.000000 0.000000 1.697940 
# 
# From -- ./inp_files/15259.got.cif
#   From: 2010.03.12/outbox.cif.g09.slc.cpg/sg60_8_cif.got.tgz:15259.got - 2010.04.10 18:46:24.
