data_PCOD8246795
_publ_section_title
;
Structure prediction by ZEFSAII (Michael W. Deem and Ramdas Pophale) SiO2 
 PCOD8246795
Probable space group: P B C N
;
_chemical_formula_sum "Si O2"
_cell_formula_units_Z 64
_cell_length_a 16.886783
_cell_length_b 10.192418
_cell_length_c 21.576101
_cell_angle_alpha 90.000000
_cell_angle_beta 90.000000
_cell_angle_gamma 90.000000
_cell_volume 3713.617034
_symmetry_space_group_name_H-M "P B C N"
_symmetry_group_IT_number 60
_symmetry_cell_setting 'orthorhombic'
loop_
_space_group_symop_operation_xyz
x,y,z
1/2-x,1/2-y,1/2+z
1/2+x,1/2-y,-z
-x,y,1/2-z
-x,-y,-z
1/2+x,1/2+y,1/2-z
1/2-x,1/2+y,z
x,-y,1/2+z
loop_
_atom_site_type_symbol
_atom_site_label
_atom_site_fract_x
_atom_site_fract_y
_atom_site_fract_z
Si Si1 0.430356 0.133684 0.940426
Si Si2 0.321650 0.207536 0.617449
Si Si3 0.099550 0.631390 0.494364
Si Si4 0.478449 0.520062 0.682504
Si Si5 0.606416 0.610622 0.000251
Si Si6 0.186504 0.985081 0.122061
Si Si7 0.989237 0.282573 0.321083
Si Si8 0.557185 0.623295 0.568572
O O1 0.514001 0.130279 0.974585
O O2 0.447977 0.144801 0.866482
O O3 0.374938 0.251413 0.966088
O O4 0.381949 0.002957 0.957939
O O5 0.335813 0.161916 0.546821
O O6 0.291913 0.359624 0.617829
O O7 0.258234 0.105687 0.646683
O O8 0.399582 0.188796 0.658780
O O9 0.104587 0.742509 0.441571
O O10 0.500000 0.570744 0.750000
O O11 0.385082 0.532815 0.670230
O O12 0.506948 0.371520 0.671713
O O13 0.528179 0.615882 0.638752
O O14 0.664751 0.575818 0.944496
O O15 0.516543 0.618277 0.977734
O O16 0.614623 0.497472 0.051831
O O17 0.000000 0.329831 0.250000
#
# Coordination Sequence:
#
# PCOD8246795 Si02
#       8
#     8   8   8   8   8   8   8   8
#     4   9  16  27  47  75  96 122 157 200 251 290
#     4  10  20  33  50  74 102 132 165 207 259 312
#     4   9  17  28  45  70 102 123 150 201 253 297
#     4   9  17  31  53  77  96 130 183 217 241 293
#     4   9  15  26  47  70  93 121 155 194 245 296
#     4  10  20  32  50  74 102 132 163 209 262 309
#     4   9  17  32  53  76  99 132 178 214 245 296
#     4   9  14  27  47  70  95 118 152 206 247 278
#
# _framework density 17.233871000000001
#
# number of rings (size 3 to 8) (size 9 to 14) (size 15 to 20)
#    0.000    2.750    2.500    0.000    1.750    0.000 
#    2.250    0.625    0.000    3.000    0.000    0.000 
#    0.000    0.000    0.000    0.000    0.000    0.000 
#
# Total GULP energy -793173.394674 kJ/mol
# GULP energy per Si atom -12393.334292 kJ/mol
# Density = 1.719465 g / cm^3
# Si number density = 17.233871 Si / 1000 Ang^3
#
#
#
# Elastic Constant Matrix: (Units=GPa)
#
#
# Indices 1 2 3 4 5 6 
#
# 1 41.2922 33.0640 28.3786 0.0000 0.0000 0.0000
# 2 33.0640 130.7072 63.8515 0.0000 0.0000 0.0000
# 3 28.3786 63.8515 114.3174 0.0000 0.0000 0.0000
# 4 0.0000 0.0000 0.0000 19.8528 0.0000 0.0000
# 5 0.0000 0.0000 0.0000 0.0000 11.9490 0.0000
# 6 0.0000 0.0000 0.0000 0.0000 0.0000 24.8531
#
#
#
# Elastic Compliance Matrix: (Units=1/GPa)
#
#
# Indices 1 2 3 4 5 6 
#
# 1 0.032123 -0.005818 -0.004725 0.000000 0.000000 0.000000
# 2 -0.005818 0.011575 -0.005021 0.000000 0.000000 0.000000
# 3 -0.004725 -0.005021 0.012725 0.000000 0.000000 0.000000
# 4 0.000000 0.000000 0.000000 0.050371 0.000000 0.000000
# 5 0.000000 0.000000 0.000000 0.000000 0.083689 0.000000
# 6 0.000000 0.000000 0.000000 0.000000 0.000000 0.040237
#
#
# Mechanical properties :
#
#
# Convention : Reuss Voigt Hill
#
# Bulk Modulus (GPa) = 39.53186 59.65609 49.59398
# Shear Modulus (GPa) = 18.49938 22.06582 20.28260
#
# Velocity S-wave (km/s) = 3.27988 3.58211 3.43432
# Velocity P-wave (km/s) = 6.10997 7.19719 6.67575
#
# Compressibility (1/GPa) = 0.02529605
#
# Stress axis : x y z
#
# Youngs Moduli (GPa) = 31.12988 86.39157 78.58562
#
# Poissons Ratio (x) = 0.50262 0.37131
# Poissons Ratio (y) = 0.18111 0.39458
# Poissons Ratio (z) = 0.14709 0.43377
#
# Static dielectric constant tensor:
#      x y z
#    x 2.869700 0.000000 0.000000 
#    y 0.000000 3.457220 0.000000 
#    z 0.000000 0.000000 3.108630 
# 
# 
# High freq. dielectric constant tensor:
#      x y z
#    x 1.627460 0.000000 0.000000 
#    y 0.000000 1.671250 0.000000 
#    z 0.000000 0.000000 1.646500 
# 
# From -- ./inp_files/23221.got.cif
#   From: 2010.03.12/outbox.cif.g09.slc.cpg/sg60_12_cif.got.tgz:23221.got - 2010.04.10 18:46:24.
