data_PCOD8246169
_publ_section_title
;
Structure prediction by ZEFSAII (Michael W. Deem and Ramdas Pophale) SiO2 
 PCOD8246169
Probable space group: P M M N
;
_chemical_formula_sum "Si O2"
_cell_formula_units_Z 64
_cell_length_a 9.557819
_cell_length_b 23.955418
_cell_length_c 17.026842
_cell_angle_alpha 90.000000
_cell_angle_beta 90.000000
_cell_angle_gamma 90.000000
_cell_volume 3898.492124
_symmetry_space_group_name_H-M "P M M N"
_symmetry_group_IT_number 59
_space_group.IT_coordinate_system_code '2'
_symmetry_cell_setting 'orthorhombic'
loop_
_space_group_symop_operation_xyz
x,y,z
1/2-x,1/2-y,z
1/2+x,-y,-z
-x,1/2+y,-z
-x,-y,-z
1/2+x,1/2+y,-z
1/2-x,y,z
x,1/2-y,z
loop_
_atom_site_type_symbol
_atom_site_label
_atom_site_fract_x
_atom_site_fract_y
_atom_site_fract_z
Si Si1 0.587903 0.029348 0.835774
Si Si2 0.587298 0.906626 0.859113
Si Si3 0.083902 0.687552 0.422767
Si Si4 0.905416 0.316157 0.405867
Si Si5 0.085790 0.631028 0.267385
Si Si6 0.407070 0.312390 0.858264
Si Si7 0.585134 0.685629 0.740977
Si Si8 0.412531 0.413369 0.965813
O O1 0.750000 0.038712 0.857757
O O2 0.545225 0.068346 0.761408
O O3 0.498673 0.043127 0.913170
O O4 0.559644 0.964844 0.812828
O O5 0.750000 0.894739 0.870011
O O6 0.525691 0.854283 0.810269
O O7 0.523098 0.911724 0.946465
O O8 0.250000 0.691537 0.424264
O O9 0.023524 0.750000 0.405537
O O10 0.035505 0.664820 0.508484
O O11 0.033591 0.643428 0.356219
O O12 0.750000 0.341039 0.389585
O O13 0.895107 0.250000 0.407616
O O14 0.011587 0.335646 0.338547
O O15 0.250000 0.641251 0.260687
O O16 0.013358 0.675940 0.211749
O O17 0.250000 0.321521 0.825738
O O18 0.430324 0.250000 0.889161
O O19 0.434901 0.351499 0.932514
O O20 0.750000 0.677926 0.728560
O O21 0.547611 0.750000 0.761067
O O22 0.250000 0.431858 0.964905
#
# Coordination Sequence:
#
# PCOD8246169 Si02
#       8
#     8   8   8   8   8   8   8   8
#     4   9  17  29  44  62  84 108 136 172 210 242
#     4   9  17  29  45  63  82 106 137 172 208 245
#     4   8  13  22  39  62  83 104 133 165 195 234
#     4   8  14  26  43  61  82 106 130 161 202 242
#     4   9  16  26  42  62  82 108 141 171 199 237
#     4   9  17  27  38  56  84 113 137 165 205 246
#     4   9  17  29  45  64  84 106 135 170 206 246
#     4   9  17  29  44  60  80 109 142 173 203 239
#
# _framework density 16.416602999999999
#
# number of rings (size 3 to 8) (size 9 to 14) (size 15 to 20)
#    0.000    3.250    0.000    1.500    0.000    1.250 
#    0.000    4.375    0.000    3.000    0.000    1.750 
#    0.000    0.000    0.000    0.000    0.000    0.000 
#
# Total GULP energy -793095.587395 kJ/mol
# GULP energy per Si atom -12392.118553 kJ/mol
# Density = 1.637924 g / cm^3
# Si number density = 16.416603 Si / 1000 Ang^3
#
#
#
# Elastic Constant Matrix: (Units=GPa)
#
#
# Indices 1 2 3 4 5 6 
#
# 1 30.4226 22.7826 29.6409 0.0000 0.0000 0.0000
# 2 22.7826 88.8813 57.1962 0.0000 0.0000 0.0000
# 3 29.6409 57.1962 124.8122 0.0000 0.0000 0.0000
# 4 0.0000 0.0000 0.0000 20.0391 0.0000 0.0000
# 5 0.0000 0.0000 0.0000 0.0000 22.8086 0.0000
# 6 0.0000 0.0000 0.0000 0.0000 0.0000 13.5178
#
#
#
# Elastic Compliance Matrix: (Units=1/GPa)
#
#
# Indices 1 2 3 4 5 6 
#
# 1 0.045387 -0.006662 -0.007726 0.000000 0.000000 0.000000
# 2 -0.006662 0.016934 -0.006178 0.000000 0.000000 0.000000
# 3 -0.007726 -0.006178 0.012678 0.000000 0.000000 0.000000
# 4 0.000000 0.000000 0.000000 0.049902 0.000000 0.000000
# 5 0.000000 0.000000 0.000000 0.000000 0.043843 0.000000
# 6 0.000000 0.000000 0.000000 0.000000 0.000000 0.073976
#
#
# Mechanical properties :
#
#
# Convention : Reuss Voigt Hill
#
# Bulk Modulus (GPa) = 29.52733 51.48393 40.50563
# Shear Modulus (GPa) = 16.94103 20.23954 18.59029
#
# Velocity S-wave (km/s) = 3.21587 3.51503 3.36878
# Velocity P-wave (km/s) = 5.64043 6.92119 6.31337
#
# Compressibility (1/GPa) = 0.03386692
#
# Stress axis : x y z
#
# Youngs Moduli (GPa) = 22.03298 59.05144 78.87740
#
# Poissons Ratio (x) = 0.39342 0.60937
# Poissons Ratio (y) = 0.14679 0.48732
# Poissons Ratio (z) = 0.17022 0.36483
#
# Static dielectric constant tensor:
#      x y z
#    x 2.954230 0.000000 0.000000 
#    y 0.000000 3.080760 0.000000 
#    z 0.000000 0.000000 3.402770 
# 
# 
# High freq. dielectric constant tensor:
#      x y z
#    x 1.605900 0.000000 0.000000 
#    y 0.000000 1.616780 0.000000 
#    z 0.000000 0.000000 1.628080 
# 
# From -- ./inp_files/26473.got.cif
#   From: 2010.03.12/outbox.cif.g09.slc.cpg/sg59_14_cif.got.tgz:26473.got - 2010.04.16 16:29:54.
