data_PCOD8246538
_publ_section_title
;
Structure prediction by ZEFSAII (Michael W. Deem and Ramdas Pophale) SiO2 
 PCOD8246538
Probable space group: P B C N
;
_chemical_formula_sum "Si O2"
_cell_formula_units_Z 56
_cell_length_a 13.942368
_cell_length_b 24.808179
_cell_length_c 8.716141
_cell_angle_alpha 90.000000
_cell_angle_beta 90.000000
_cell_angle_gamma 90.000000
_cell_volume 3014.780347
_symmetry_space_group_name_H-M "P B C N"
_symmetry_group_IT_number 60
_symmetry_cell_setting 'orthorhombic'
loop_
_space_group_symop_operation_xyz
x,y,z
1/2-x,1/2-y,1/2+z
1/2+x,1/2-y,-z
-x,y,1/2-z
-x,-y,-z
1/2+x,1/2+y,1/2-z
1/2-x,1/2+y,z
x,-y,1/2+z
loop_
_atom_site_type_symbol
_atom_site_label
_atom_site_fract_x
_atom_site_fract_y
_atom_site_fract_z
Si Si1 0.403595 0.064695 0.044526
Si Si2 0.000000 0.477741 0.250000
Si Si3 0.406074 0.675566 0.340674
Si Si4 0.032257 0.854455 0.409040
Si Si5 0.222894 0.869011 0.575603
Si Si6 0.119485 0.744858 0.357644
Si Si7 0.500000 0.148941 0.250000
Si Si8 0.292995 0.245142 0.042815
O O1 0.289892 0.077834 0.068936
O O2 0.465382 0.113897 0.108169
O O3 0.426649 0.012090 0.145806
O O4 0.433214 0.057134 0.865813
O O5 0.500000 0.695621 0.250000
O O6 0.447307 0.633945 0.468999
O O7 0.326214 0.643868 0.240832
O O8 0.361124 0.729008 0.414551
O O9 0.136005 0.877624 0.455640
O O10 0.037471 0.788804 0.392841
O O11 0.000000 0.881731 0.250000
O O12 0.293809 0.819945 0.529324
O O13 0.082456 0.686039 0.318472
O O14 0.180962 0.766426 0.211918
O O15 0.183634 0.737560 0.509172
#
# Coordination Sequence:
#
# PCOD8246538 Si02
#       8
#     8   4   8   8   8   8   4   8
#     4  10  20  41  60  83 107 131 180 227 286 348
#     4   9  22  42  66  82 106 134 162 234 308 347
#     4  10  19  32  47  69 107 155 184 213 268 296
#     4  10  19  32  50  73 111 154 189 219 253 301
#     4  10  21  34  51  77 106 143 191 225 258 329
#     4  11  20  31  46  70 110 161 189 228 258 292
#     4  11  18  34  52  74 112 150 184 218 268 319
#     4  11  18  32  44  69 108 149 197 219 252 299
#
# _framework density 18.575151999999999
#
# number of rings (size 3 to 8) (size 9 to 14) (size 15 to 20)
#    0.000    1.714    5.000    0.000    0.000    0.000 
#    6.429    2.857    0.000    0.000    0.000   13.000 
#    0.000    0.000    0.000    0.000    0.000    0.000 
#
# Total GULP energy -693959.206542 kJ/mol
# GULP energy per Si atom -12392.128688 kJ/mol
# Density = 1.853287 g / cm^3
# Si number density = 18.575152 Si / 1000 Ang^3
#
#
#
# Elastic Constant Matrix: (Units=GPa)
#
#
# Indices 1 2 3 4 5 6 
#
# 1 108.0271 36.0174 58.1774 0.0000 0.0000 0.0000
# 2 36.0174 54.0623 31.3848 0.0000 0.0000 0.0000
# 3 58.1774 31.3848 120.0731 0.0000 0.0000 0.0000
# 4 0.0000 0.0000 0.0000 18.2758 0.0000 0.0000
# 5 0.0000 0.0000 0.0000 0.0000 37.5613 0.0000
# 6 0.0000 0.0000 0.0000 0.0000 0.0000 21.0102
#
#
#
# Elastic Compliance Matrix: (Units=1/GPa)
#
#
# Indices 1 2 3 4 5 6 
#
# 1 0.014206 -0.006447 -0.005198 0.000000 0.000000 0.000000
# 2 -0.006447 0.024731 -0.003341 0.000000 0.000000 0.000000
# 3 -0.005198 -0.003341 0.011720 0.000000 0.000000 0.000000
# 4 0.000000 0.000000 0.000000 0.054717 0.000000 0.000000
# 5 0.000000 0.000000 0.000000 0.000000 0.026623 0.000000
# 6 0.000000 0.000000 0.000000 0.000000 0.000000 0.047596
#
#
# Mechanical properties :
#
#
# Convention : Reuss Voigt Hill
#
# Bulk Modulus (GPa) = 48.34076 59.25798 53.79937
# Shear Modulus (GPa) = 23.09904 25.80831 24.45367
#
# Velocity S-wave (km/s) = 3.53022 3.73151 3.63226
# Velocity P-wave (km/s) = 6.53433 7.10891 6.82767
#
# Compressibility (1/GPa) = 0.02068648
#
# Stress axis : x y z
#
# Youngs Moduli (GPa) = 70.39509 40.43436 85.32470
#
# Poissons Ratio (x) = 0.26066 0.44350
# Poissons Ratio (y) = 0.45380 0.28506
# Poissons Ratio (z) = 0.36590 0.13509
#
# Static dielectric constant tensor:
#      x y z
#    x 3.572930 0.000000 0.000000 
#    y 0.000000 2.977610 0.000000 
#    z 0.000000 0.000000 3.787690 
# 
# 
# High freq. dielectric constant tensor:
#      x y z
#    x 1.733590 0.000000 0.000000 
#    y 0.000000 1.658520 0.000000 
#    z 0.000000 0.000000 1.736670 
# 
# From -- ./inp_files/6208.got.cif
#   From: 2010.03.12/outbox.cif.g09.slc.cpg/sg60_4_cif.got.tgz:6208.got - 2010.04.10 18:46:24.
