data_PCOD8246439
_publ_section_title
;
Structure prediction by ZEFSAII (Michael W. Deem and Ramdas Pophale) SiO2 
 PCOD8246439
Probable space group: P B C N
;
_chemical_formula_sum "Si O2"
_cell_formula_units_Z 64
_cell_length_a 14.417434
_cell_length_b 9.159341
_cell_length_c 24.450520
_cell_angle_alpha 90.000000
_cell_angle_beta 90.000000
_cell_angle_gamma 90.000000
_cell_volume 3228.793720
_symmetry_space_group_name_H-M "P B C N"
_symmetry_group_IT_number 60
_symmetry_cell_setting 'orthorhombic'
loop_
_space_group_symop_operation_xyz
x,y,z
1/2-x,1/2-y,1/2+z
1/2+x,1/2-y,-z
-x,y,1/2-z
-x,-y,-z
1/2+x,1/2+y,1/2-z
1/2-x,1/2+y,z
x,-y,1/2+z
loop_
_atom_site_type_symbol
_atom_site_label
_atom_site_fract_x
_atom_site_fract_y
_atom_site_fract_z
Si Si1 0.198124 0.452547 0.325866
Si Si2 0.338677 0.663006 0.277256
Si Si3 0.540775 0.948904 0.095910
Si Si4 0.827880 0.607077 0.020266
Si Si5 0.468035 0.383449 0.876328
Si Si6 0.832618 0.555747 0.894163
Si Si7 0.830606 0.135665 0.347503
Si Si8 0.821470 0.085317 0.575664
O O1 0.246125 0.594610 0.302433
O O2 0.175118 0.337717 0.277886
O O3 0.104028 0.508481 0.354541
O O4 0.263495 0.370568 0.370390
O O5 0.428222 0.623000 0.314167
O O6 0.346483 0.602027 0.216323
O O7 0.546324 0.772449 0.093711
O O8 0.437409 0.007003 0.108282
O O9 0.581563 0.014505 0.039228
O O10 0.734648 0.538509 0.043686
O O11 0.839280 0.773762 0.039023
O O12 0.815967 0.608306 0.955603
O O13 0.576745 0.423036 0.876863
O O14 0.419828 0.512849 0.909739
O O15 0.760304 0.434948 0.874098
O O16 0.820885 0.691297 0.853703
#
# Coordination Sequence:
#
# PCOD8246439 Si02
#       8
#     8   8   8   8   8   8   8   8
#     4   9  17  32  57  84 105 133 179 229 272 322
#     4  10  18  34  58  81 108 144 179 221 274 326
#     4   9  19  37  58  81 110 142 184 231 274 320
#     4  11  20  36  58  83 110 146 181 222 275 326
#     4   9  20  37  58  83 109 140 184 230 274 324
#     4  11  24  39  54  78 114 151 185 223 269 326
#     4  11  23  39  54  78 113 150 185 223 271 328
#     4  10  19  34  59  86 111 138 180 231 275 322
#
# _framework density 19.821643999999999
#
# number of rings (size 3 to 8) (size 9 to 14) (size 15 to 20)
#    0.000    2.000    0.000    6.000    0.000    1.000 
#    0.000   10.000    0.000    0.000    0.000    0.000 
#    0.000    0.000    0.000    0.000    0.000    0.000 
#
# Total GULP energy -793519.472155 kJ/mol
# GULP energy per Si atom -12398.741752 kJ/mol
# Density = 1.977653 g / cm^3
# Si number density = 19.821644 Si / 1000 Ang^3
#
#
#
# Elastic Constant Matrix: (Units=GPa)
#
#
# Indices 1 2 3 4 5 6 
#
# 1 111.2792 19.7031 9.7596 0.0000 0.0000 0.0000
# 2 19.7031 52.0181 16.2369 0.0000 0.0000 0.0000
# 3 9.7596 16.2369 64.5558 0.0000 0.0000 0.0000
# 4 0.0000 0.0000 0.0000 27.6120 0.0000 0.0000
# 5 0.0000 0.0000 0.0000 0.0000 15.5970 0.0000
# 6 0.0000 0.0000 0.0000 0.0000 0.0000 28.7073
#
#
#
# Elastic Compliance Matrix: (Units=1/GPa)
#
#
# Indices 1 2 3 4 5 6 
#
# 1 0.009653 -0.003473 -0.000586 0.000000 0.000000 0.000000
# 2 -0.003473 0.022112 -0.005036 0.000000 0.000000 0.000000
# 3 -0.000586 -0.005036 0.016846 0.000000 0.000000 0.000000
# 4 0.000000 0.000000 0.000000 0.036216 0.000000 0.000000
# 5 0.000000 0.000000 0.000000 0.000000 0.064115 0.000000
# 6 0.000000 0.000000 0.000000 0.000000 0.000000 0.034834
#
#
# Mechanical properties :
#
#
# Convention : Reuss Voigt Hill
#
# Bulk Modulus (GPa) = 32.87381 35.47247 34.17314
# Shear Modulus (GPa) = 23.57306 26.52682 25.04994
#
# Velocity S-wave (km/s) = 3.45230 3.66221 3.55881
# Velocity P-wave (km/s) = 5.70193 5.98474 5.84504
#
# Compressibility (1/GPa) = 0.03041935
#
# Stress axis : x y z
#
# Youngs Moduli (GPa) = 103.59713 45.22478 59.36211
#
# Poissons Ratio (x) = 0.15708 0.03477
# Poissons Ratio (y) = 0.35983 0.29897
# Poissons Ratio (z) = 0.06068 0.22777
#
# Static dielectric constant tensor:
#      x y z
#    x 3.759930 0.000000 0.000000 
#    y 0.000000 3.381070 0.000000 
#    z 0.000000 0.000000 3.576140 
# 
# 
# High freq. dielectric constant tensor:
#      x y z
#    x 1.779180 0.000000 0.000000 
#    y 0.000000 1.760210 0.000000 
#    z 0.000000 0.000000 1.767700 
# 
# From -- ./inp_files/24440.got.cif
#   From: 2010.03.12/outbox.cif.g09.slc.cpg/sg60_13_cif.got.tgz:24440.got - 2010.04.10 18:46:24.
