data_PCOD8246474
_publ_section_title
;
Structure prediction by ZEFSAII (Michael W. Deem and Ramdas Pophale) SiO2 
 PCOD8246474
Probable space group: P B C N
;
_chemical_formula_sum "Si O2"
_cell_formula_units_Z 48
_cell_length_a 7.643309
_cell_length_b 25.491886
_cell_length_c 12.134581
_cell_angle_alpha 90.000000
_cell_angle_beta 90.000000
_cell_angle_gamma 90.000000
_cell_volume 2364.330420
_symmetry_space_group_name_H-M "P B C N"
_symmetry_group_IT_number 60
_symmetry_cell_setting 'orthorhombic'
loop_
_space_group_symop_operation_xyz
x,y,z
1/2-x,1/2-y,1/2+z
1/2+x,1/2-y,-z
-x,y,1/2-z
-x,-y,-z
1/2+x,1/2+y,1/2-z
1/2-x,1/2+y,z
x,-y,1/2+z
loop_
_atom_site_type_symbol
_atom_site_label
_atom_site_fract_x
_atom_site_fract_y
_atom_site_fract_z
Si Si1 0.485826 0.078964 0.020924
Si Si2 0.368438 0.810120 0.474008
Si Si3 0.000000 0.657978 0.750000
Si Si4 0.493688 0.284416 0.118752
Si Si5 0.709261 0.612902 0.872666
Si Si6 0.000000 0.032599 0.750000
Si Si7 0.866842 0.495042 0.162235
O O1 0.539980 0.051123 0.135224
O O2 0.380528 0.133347 0.034930
O O3 0.673102 0.089808 0.967836
O O4 0.364576 0.040675 0.947186
O O5 0.490246 0.808606 0.363378
O O6 0.177334 0.797876 0.433356
O O7 0.425721 0.768358 0.563792
O O8 0.824451 0.622366 0.760351
O O9 0.500000 0.276530 0.250000
O O10 0.368751 0.332229 0.086850
O O11 0.558990 0.570656 0.848976
O O12 0.167601 0.998282 0.790954
O O13 0.000000 0.468451 0.250000
#
# Coordination Sequence:
#
# PCOD8246474 Si02
#       7
#     8   8   4   8   8   4   8
#     4  10  23  41  64  91 130 170 207 274 329 374
#     4  11  23  40  64  93 132 167 214 272 324 389
#     4  10  18  36  64  89 124 173 204 268 316 382
#     4  12  24  40  66 100 124 170 219 264 326 399
#     4  11  19  37  63  96 123 160 218 260 319 379
#     4  12  20  36  68  93 122 169 212 272 312 376
#     4  11  23  42  63  93 127 170 221 266 323 384
#
# _framework density 20.301729999999999
#
# number of rings (size 3 to 8) (size 9 to 14) (size 15 to 20)
#    0.000    1.000    4.167    5.000    1.167    1.333 
#    3.000    0.000    0.000    0.000    0.000    0.000 
#    0.000    0.000    0.000    0.000    0.000    0.000 
#
# Total GULP energy -594921.098771 kJ/mol
# GULP energy per Si atom -12394.189558 kJ/mol
# Density = 2.025552 g / cm^3
# Si number density = 20.301730 Si / 1000 Ang^3
#
#
#
# Elastic Constant Matrix: (Units=GPa)
#
#
# Indices 1 2 3 4 5 6 
#
# 1 135.8128 42.7655 34.3479 0.0000 0.0000 0.0000
# 2 42.7655 117.9178 41.0767 0.0000 0.0000 0.0000
# 3 34.3479 41.0767 60.0428 0.0000 0.0000 0.0000
# 4 0.0000 0.0000 0.0000 30.4225 0.0000 0.0000
# 5 0.0000 0.0000 0.0000 0.0000 68.1436 0.0000
# 6 0.0000 0.0000 0.0000 0.0000 0.0000 46.8939
#
#
#
# Elastic Compliance Matrix: (Units=1/GPa)
#
#
# Indices 1 2 3 4 5 6 
#
# 1 0.008926 -0.001915 -0.003796 0.000000 0.000000 0.000000
# 2 -0.001915 0.011545 -0.006803 0.000000 0.000000 0.000000
# 3 -0.003796 -0.006803 0.023480 0.000000 0.000000 0.000000
# 4 0.000000 0.000000 0.000000 0.032870 0.000000 0.000000
# 5 0.000000 0.000000 0.000000 0.000000 0.014675 0.000000
# 6 0.000000 0.000000 0.000000 0.000000 0.000000 0.021325
#
#
# Mechanical properties :
#
#
# Convention : Reuss Voigt Hill
#
# Bulk Modulus (GPa) = 52.84383 61.12818 56.98601
# Shear Modulus (GPa) = 34.68458 42.13089 38.40774
#
# Velocity S-wave (km/s) = 4.13783 4.56042 4.35425
# Velocity P-wave (km/s) = 6.99390 7.60954 7.30820
#
# Compressibility (1/GPa) = 0.01892369
#
# Stress axis : x y z
#
# Youngs Moduli (GPa) = 112.03060 86.62053 42.58894
#
# Poissons Ratio (x) = 0.16586 0.16168
# Poissons Ratio (y) = 0.21452 0.28971
# Poissons Ratio (z) = 0.42530 0.58924
#
# Static dielectric constant tensor:
#      x y z
#    x 3.740800 0.000000 0.000000 
#    y 0.000000 3.946080 0.000000 
#    z 0.000000 0.000000 3.197030 
# 
# 
# High freq. dielectric constant tensor:
#      x y z
#    x 1.807120 0.000000 0.000000 
#    y 0.000000 1.787440 0.000000 
#    z 0.000000 0.000000 1.773580 
# 
# From -- ./inp_files/10139.got.cif
#   From: 2010.03.12/outbox.cif.g09.slc.cpg/sg60_6_cif.got.tgz:10139.got - 2010.04.10 18:46:24.
