data_PCOD8246204
_publ_section_title
;
Structure prediction by ZEFSAII (Michael W. Deem and Ramdas Pophale) SiO2 
 PCOD8246204
Probable space group: P M M N
;
_chemical_formula_sum "Si O2"
_cell_formula_units_Z 56
_cell_length_a 9.286309
_cell_length_b 19.240934
_cell_length_c 18.162999
_cell_angle_alpha 90.000000
_cell_angle_beta 90.000000
_cell_angle_gamma 90.000000
_cell_volume 3245.314869
_symmetry_space_group_name_H-M "P M M N"
_symmetry_group_IT_number 59
_space_group.IT_coordinate_system_code '2'
_symmetry_cell_setting 'orthorhombic'
loop_
_space_group_symop_operation_xyz
x,y,z
1/2-x,1/2-y,z
1/2+x,-y,-z
-x,1/2+y,-z
-x,-y,-z
1/2+x,1/2+y,-z
1/2-x,y,z
x,1/2-y,z
loop_
_atom_site_type_symbol
_atom_site_label
_atom_site_fract_x
_atom_site_fract_y
_atom_site_fract_z
Si Si1 0.087149 0.916541 0.930945
Si Si2 0.582516 0.582885 0.787622
Si Si3 0.912922 0.581953 0.070749
Si Si4 0.418196 0.330048 0.352150
Si Si5 0.909910 0.167318 0.491643
Si Si6 0.082051 0.921384 0.214321
Si Si7 0.078497 0.672445 0.347642
O O1 0.250000 0.887392 0.932879
O O2 0.008409 0.890506 0.857246
O O3 0.088209 0.999275 0.933408
O O4 0.999312 0.887283 0.000966
O O5 0.750000 0.596688 0.804675
O O6 0.527750 0.626214 0.717641
O O7 0.553559 0.502276 0.771032
O O8 0.750000 0.611080 0.070235
O O9 0.993568 0.606491 0.144443
O O10 0.250000 0.339559 0.363791
O O11 0.460636 0.250000 0.338668
O O12 0.491346 0.360925 0.425617
O O13 0.750000 0.136498 0.480222
O O14 0.904349 0.250000 0.490031
O O15 0.973724 0.145348 0.571762
O O16 0.250000 0.906792 0.199309
O O17 0.023048 0.879964 0.285143
O O18 0.250000 0.674613 0.349391
O O19 0.018640 0.750000 0.331145
#
# Coordination Sequence:
#
# PCOD8246204 Si02
#       7
#     8   8   8   8   8   8   8
#     4   9  16  26  42  63  85 111 143 175 207 245
#     4   9  17  28  42  62  87 112 138 171 212 252
#     4   9  16  26  41  62  88 114 140 172 208 246
#     4   9  17  29  44  61  83 112 143 173 208 251
#     4   8  14  26  44  63  81 105 141 179 209 242
#     4   9  16  27  44  64  86 111 139 172 209 249
#     4   8  14  26  45  66  85 108 140 175 209 246
#
# _framework density 17.255645000000001
#
# number of rings (size 3 to 8) (size 9 to 14) (size 15 to 20)
#    0.000    3.286    0.000    1.714    0.000    4.000 
#    0.000    1.429    0.000    2.143    0.000    0.000 
#    0.000    0.000    0.000    0.000    0.000    0.000 
#
# Total GULP energy -694176.282630 kJ/mol
# GULP energy per Si atom -12396.005047 kJ/mol
# Density = 1.721637 g / cm^3
# Si number density = 17.255645 Si / 1000 Ang^3
#
#
#
# Elastic Constant Matrix: (Units=GPa)
#
#
# Indices 1 2 3 4 5 6 
#
# 1 81.5843 24.5111 79.0544 0.0000 0.0000 0.0000
# 2 24.5111 34.1510 50.7648 0.0000 0.0000 0.0000
# 3 79.0544 50.7648 202.2749 0.0000 0.0000 0.0000
# 4 0.0000 0.0000 0.0000 15.4650 0.0000 0.0000
# 5 0.0000 0.0000 0.0000 0.0000 33.3813 0.0000
# 6 0.0000 0.0000 0.0000 0.0000 0.0000 10.3673
#
#
#
# Elastic Compliance Matrix: (Units=1/GPa)
#
#
# Indices 1 2 3 4 5 6 
#
# 1 0.020133 -0.004392 -0.006766 0.000000 0.000000 0.000000
# 2 -0.004392 0.047664 -0.010246 0.000000 0.000000 0.000000
# 3 -0.006766 -0.010246 0.010160 0.000000 0.000000 0.000000
# 4 0.000000 0.000000 0.000000 0.064662 0.000000 0.000000
# 5 0.000000 0.000000 0.000000 0.000000 0.029957 0.000000
# 6 0.000000 0.000000 0.000000 0.000000 0.000000 0.096457
#
#
# Mechanical properties :
#
#
# Convention : Reuss Voigt Hill
#
# Bulk Modulus (GPa) = 28.45059 69.63010 49.04035
# Shear Modulus (GPa) = 15.45318 22.75471 19.10395
#
# Velocity S-wave (km/s) = 2.99581 3.63531 3.33094
# Velocity P-wave (km/s) = 5.33760 7.61973 6.57838
#
# Compressibility (1/GPa) = 0.03514865
#
# Stress axis : x y z
#
# Youngs Moduli (GPa) = 49.66876 20.98012 98.42936
#
# Poissons Ratio (x) = 0.09215 0.66601
# Poissons Ratio (y) = 0.21816 1.00847
# Poissons Ratio (z) = 0.33608 0.21495
#
# Static dielectric constant tensor:
#      x y z
#    x 3.191380 0.000000 0.000000 
#    y 0.000000 2.827600 0.000000 
#    z 0.000000 0.000000 3.576550 
# 
# 
# High freq. dielectric constant tensor:
#      x y z
#    x 1.652790 0.000000 0.000000 
#    y 0.000000 1.611950 0.000000 
#    z 0.000000 0.000000 1.683640 
# 
# From -- ./inp_files/26027.got.cif
#   From: 2010.03.12/outbox.cif.g09.slc.cpg/sg59_14_cif.got.tgz:26027.got - 2010.04.16 16:29:54.
