data_PCOD8246460
_publ_section_title
;
Structure prediction by ZEFSAII (Michael W. Deem and Ramdas Pophale) SiO2 
 PCOD8246460
Probable space group: P B C N
;
_chemical_formula_sum "Si O2"
_cell_formula_units_Z 64
_cell_length_a 7.241174
_cell_length_b 21.230835
_cell_length_c 16.774185
_cell_angle_alpha 90.000000
_cell_angle_beta 90.000000
_cell_angle_gamma 90.000000
_cell_volume 2578.798963
_symmetry_space_group_name_H-M "P B C N"
_symmetry_group_IT_number 60
_symmetry_cell_setting 'orthorhombic'
loop_
_space_group_symop_operation_xyz
x,y,z
1/2-x,1/2-y,1/2+z
1/2+x,1/2-y,-z
-x,y,1/2-z
-x,-y,-z
1/2+x,1/2+y,1/2-z
1/2-x,1/2+y,z
x,-y,1/2+z
loop_
_atom_site_type_symbol
_atom_site_label
_atom_site_fract_x
_atom_site_fract_y
_atom_site_fract_z
Si Si1 0.647289 0.687461 0.991239
Si Si2 0.615437 0.874641 0.675997
Si Si3 0.276297 0.912651 0.105667
Si Si4 0.155665 0.551713 0.078569
Si Si5 0.027699 0.089580 0.386962
Si Si6 0.358490 0.454585 0.418004
Si Si7 0.710287 0.377337 0.223668
Si Si8 0.153866 0.237708 0.881187
O O1 0.818364 0.644529 0.956417
O O2 0.536083 0.709018 0.913503
O O3 0.521369 0.647533 0.052013
O O4 0.723246 0.746705 0.041003
O O5 0.500000 0.899709 0.750000
O O6 0.529619 0.909582 0.597973
O O7 0.831720 0.893615 0.685074
O O8 0.601679 0.799907 0.668090
O O9 0.329202 0.890419 0.195975
O O10 0.056564 0.921411 0.091345
O O11 0.387949 0.976799 0.084765
O O12 0.319446 0.572442 0.141578
O O13 0.238740 0.570642 0.992482
O O14 0.112550 0.028566 0.431447
O O15 0.248815 0.435302 0.337294
O O16 0.500000 0.375365 0.250000
O O17 0.756725 0.311382 0.178165
#
# Coordination Sequence:
#
# PCOD8246460 Si02
#       8
#     8   8   8   8   8   8   8   8
#     4  11  21  40  63  91 124 161 227 272 313 400
#     4  11  28  42  58  98 138 172 215 267 335 402
#     4  10  19  37  68  98 123 168 222 276 326 397
#     4  11  21  41  73  95 129 174 215 269 341 383
#     4  10  21  42  64  96 128 166 217 272 320 399
#     4  10  18  35  66  97 124 157 217 267 327 387
#     4  10  19  35  63  96 124 169 218 261 329 395
#     4  11  24  40  64  89 125 173 218 268 331 391
#
# _framework density 24.817754999999998
#
# number of rings (size 3 to 8) (size 9 to 14) (size 15 to 20)
#    0.000    1.500    5.000    1.125    5.250    1.000 
#    0.000    0.000    0.000    0.000    0.000    0.000 
#    0.000    0.000    0.000    0.000    0.000    0.000 
#
# Total GULP energy -793088.370418 kJ/mol
# GULP energy per Si atom -12392.005788 kJ/mol
# Density = 2.476127 g / cm^3
# Si number density = 24.817755 Si / 1000 Ang^3
#
#
#
# Elastic Constant Matrix: (Units=GPa)
#
#
# Indices 1 2 3 4 5 6 
#
# 1 33.9965 16.5296 4.5278 0.0000 0.0000 0.0000
# 2 16.5296 94.8467 17.5957 0.0000 0.0000 0.0000
# 3 4.5278 17.5957 92.1131 0.0000 0.0000 0.0000
# 4 0.0000 0.0000 0.0000 38.8667 0.0000 0.0000
# 5 0.0000 0.0000 0.0000 0.0000 26.6895 0.0000
# 6 0.0000 0.0000 0.0000 0.0000 0.0000 18.3504
#
#
#
# Elastic Compliance Matrix: (Units=1/GPa)
#
#
# Indices 1 2 3 4 5 6 
#
# 1 0.032163 -0.005507 -0.000529 0.000000 0.000000 0.000000
# 2 -0.005507 0.011874 -0.001997 0.000000 0.000000 0.000000
# 3 -0.000529 -0.001997 0.011264 0.000000 0.000000 0.000000
# 4 0.000000 0.000000 0.000000 0.025729 0.000000 0.000000
# 5 0.000000 0.000000 0.000000 0.000000 0.037468 0.000000
# 6 0.000000 0.000000 0.000000 0.000000 0.000000 0.054495
#
#
# Mechanical properties :
#
#
# Convention : Reuss Voigt Hill
#
# Bulk Modulus (GPa) = 25.48859 33.14027 29.31443
# Shear Modulus (GPa) = 24.73573 28.93487 26.83530
#
# Velocity S-wave (km/s) = 3.16047 3.41822 3.29187
# Velocity P-wave (km/s) = 4.85909 5.38158 5.12700
#
# Compressibility (1/GPa) = 0.03923325
#
# Stress axis : x y z
#
# Youngs Moduli (GPa) = 31.09173 84.22008 88.78021
#
# Poissons Ratio (x) = 0.46381 0.04696
# Poissons Ratio (y) = 0.17123 0.17733
# Poissons Ratio (z) = 0.01645 0.16822
#
# Static dielectric constant tensor:
#      x y z
#    x 4.211960 0.000000 0.000000 
#    y 0.000000 4.596200 0.000000 
#    z 0.000000 0.000000 4.585360 
# 
# 
# High freq. dielectric constant tensor:
#      x y z
#    x 1.960420 0.000000 0.000000 
#    y 0.000000 1.991450 0.000000 
#    z 0.000000 0.000000 1.988450 
# 
# From -- ./inp_files/19671.got.cif
#   From: 2010.03.12/outbox.cif.g09.slc.cpg/sg60_10_cif.got.tgz:19671.got - 2010.04.10 18:46:24.
