data_PCOD8246825
_publ_section_title
;
Structure prediction by ZEFSAII (Michael W. Deem and Ramdas Pophale) SiO2 
 PCOD8246825
Probable space group: P B C N
;
_chemical_formula_sum "Si O2"
_cell_formula_units_Z 48
_cell_length_a 9.311538
_cell_length_b 7.961360
_cell_length_c 32.893158
_cell_angle_alpha 90.000000
_cell_angle_beta 90.000000
_cell_angle_gamma 90.000000
_cell_volume 2438.452238
_symmetry_space_group_name_H-M "P B C N"
_symmetry_group_IT_number 60
_symmetry_cell_setting 'orthorhombic'
loop_
_space_group_symop_operation_xyz
x,y,z
1/2-x,1/2-y,1/2+z
1/2+x,1/2-y,-z
-x,y,1/2-z
-x,-y,-z
1/2+x,1/2+y,1/2-z
1/2-x,1/2+y,z
x,-y,1/2+z
loop_
_atom_site_type_symbol
_atom_site_label
_atom_site_fract_x
_atom_site_fract_y
_atom_site_fract_z
Si Si1 0.454377 0.539710 0.204480
Si Si2 0.816133 0.269058 0.830929
Si Si3 0.114289 0.858154 0.869305
Si Si4 0.614217 0.071839 0.880561
Si Si5 0.954328 0.530201 0.045591
Si Si6 0.683801 0.339119 0.081039
O O1 0.500000 0.577895 0.250000
O O2 0.408631 0.344754 0.199682
O O3 0.323015 0.662248 0.192889
O O4 0.595600 0.574024 0.176566
O O5 0.769164 0.152287 0.869820
O O6 0.913039 0.419252 0.848738
O O7 0.087122 0.010313 0.901249
O O8 0.269089 0.777313 0.880033
O O9 0.999970 0.714981 0.874803
O O10 0.595415 0.005029 0.926513
O O11 0.822845 0.407584 0.057083
O O12 0.909052 0.725199 0.050569
O O13 0.000000 0.500000 0.000000
#
# Coordination Sequence:
#
# PCOD8246825 Si02
#       6
#     8   8   8   8   8   8
#     4  10  20  34  53  79 104 132 170 216 257 294
#     4   9  19  36  53  74 105 137 173 208 251 315
#     4   9  18  34  55  74 101 140 173 206 254 311
#     4   9  18  34  54  73 100 139 173 206 255 311
#     4  10  20  34  53  79 105 134 172 218 260 298
#     4   9  19  36  53  75 106 138 174 208 252 317
#
# _framework density 19.684616999999999
#
# number of rings (size 3 to 8) (size 9 to 14) (size 15 to 20)
#    0.000    2.667    0.000    1.000    0.000    2.667 
#    0.000   15.000    0.000    0.000    0.000    0.000 
#    0.000    0.000    0.000    0.000    0.000    0.000 
#
# Total GULP energy -594742.308140 kJ/mol
# GULP energy per Si atom -12390.464753 kJ/mol
# Density = 1.963981 g / cm^3
# Si number density = 19.684617 Si / 1000 Ang^3
#
#
#
# Elastic Constant Matrix: (Units=GPa)
#
#
# Indices 1 2 3 4 5 6 
#
# 1 45.7808 31.9873 46.3576 0.0000 0.0000 0.0000
# 2 31.9873 124.9038 50.2654 0.0000 0.0000 0.0000
# 3 46.3576 50.2654 151.2580 0.0000 0.0000 0.0000
# 4 0.0000 0.0000 0.0000 26.1054 0.0000 0.0000
# 5 0.0000 0.0000 0.0000 0.0000 31.3150 0.0000
# 6 0.0000 0.0000 0.0000 0.0000 0.0000 26.2560
#
#
#
# Elastic Compliance Matrix: (Units=1/GPa)
#
#
# Indices 1 2 3 4 5 6 
#
# 1 0.034445 -0.005279 -0.008802 0.000000 0.000000 0.000000
# 2 -0.005279 0.010051 -0.001722 0.000000 0.000000 0.000000
# 3 -0.008802 -0.001722 0.009881 0.000000 0.000000 0.000000
# 4 0.000000 0.000000 0.000000 0.038306 0.000000 0.000000
# 5 0.000000 0.000000 0.000000 0.000000 0.031934 0.000000
# 6 0.000000 0.000000 0.000000 0.000000 0.000000 0.038087
#
#
# Mechanical properties :
#
#
# Convention : Reuss Voigt Hill
#
# Bulk Modulus (GPa) = 43.91692 64.35146 54.13419
# Shear Modulus (GPa) = 24.76463 29.62410 27.19437
#
# Velocity S-wave (km/s) = 3.55078 3.88356 3.72089
# Velocity P-wave (km/s) = 6.25855 7.27129 6.78384
#
# Compressibility (1/GPa) = 0.02277027
#
# Stress axis : x y z
#
# Youngs Moduli (GPa) = 29.03193 99.49105 101.20081
#
# Poissons Ratio (x) = 0.52519 0.89081
# Poissons Ratio (y) = 0.15325 0.17430
# Poissons Ratio (z) = 0.25555 0.17135
#
# Static dielectric constant tensor:
#      x y z
#    x 3.914890 0.000000 0.000000 
#    y 0.000000 4.011930 0.000000 
#    z 0.000000 0.000000 3.572340 
# 
# 
# High freq. dielectric constant tensor:
#      x y z
#    x 1.745840 0.000000 0.000000 
#    y 0.000000 1.794810 0.000000 
#    z 0.000000 0.000000 1.741580 
# 
# From -- ./inp_files/24220.got.cif
#   From: 2010.03.12/outbox.cif.g09.slc.cpg/sg60_13_cif.got.tgz:24220.got - 2010.04.10 18:46:24.
