data_PCOD8246425
_publ_section_title
;
Structure prediction by ZEFSAII (Michael W. Deem and Ramdas Pophale) SiO2 
 PCOD8246425
Probable space group: P B C N
;
_chemical_formula_sum "Si O2"
_cell_formula_units_Z 52
_cell_length_a 8.652410
_cell_length_b 18.839616
_cell_length_c 15.018975
_cell_angle_alpha 90.000000
_cell_angle_beta 90.000000
_cell_angle_gamma 90.000000
_cell_volume 2448.214306
_symmetry_space_group_name_H-M "P B C N"
_symmetry_group_IT_number 60
_symmetry_cell_setting 'orthorhombic'
loop_
_space_group_symop_operation_xyz
x,y,z
1/2-x,1/2-y,1/2+z
1/2+x,1/2-y,-z
-x,y,1/2-z
-x,-y,-z
1/2+x,1/2+y,1/2-z
1/2-x,1/2+y,z
x,-y,1/2+z
loop_
_atom_site_type_symbol
_atom_site_label
_atom_site_fract_x
_atom_site_fract_y
_atom_site_fract_z
Si Si1 0.132072 0.800788 0.072056
Si Si2 0.500000 0.618898 0.250000
Si Si3 0.000000 0.439339 0.250000
Si Si4 0.205493 0.994419 0.321156
Si Si5 0.794381 0.550596 0.492079
Si Si6 0.500000 0.370486 0.250000
Si Si7 0.893266 0.591774 0.927536
Si Si8 0.121854 0.180206 0.075697
O O1 0.257094 0.858316 0.036531
O O2 0.225019 0.727796 0.081346
O O3 0.056342 0.821994 0.167090
O O4 0.000826 0.790365 0.996667
O O5 0.632173 0.567531 0.211619
O O6 0.551102 0.673639 0.326264
O O7 0.118782 0.495048 0.291219
O O8 0.067552 0.386778 0.174175
O O9 0.207500 0.989514 0.427513
O O10 0.135772 0.921857 0.281851
O O11 0.835447 0.489600 0.421712
O O12 0.667593 0.600822 0.450016
O O13 0.949249 0.595686 0.515100
#
# Coordination Sequence:
#
# PCOD8246425 Si02
#       8
#     8   4   4   8   8   4   8   8
#     4  12  26  45  68  96 134 187 228 279 339 412
#     4  11  26  43  66 104 138 174 222 292 349 395
#     4  10  18  33  61 101 131 166 216 278 328 415
#     4  10  20  39  69 101 133 167 224 282 343 403
#     4  10  21  40  66 100 129 175 219 284 337 406
#     4  11  22  42  67 103 125 180 230 282 331 414
#     4  10  21  37  64  96 131 172 227 273 336 398
#     4  12  27  45  67  96 140 180 231 283 344 405
#
# _framework density 21.239971000000001
#
# number of rings (size 3 to 8) (size 9 to 14) (size 15 to 20)
#    0.000    1.231    3.077    2.769    2.154    3.077 
#    0.000    7.692    0.000    0.000    0.000    0.000 
#    0.000    0.000    0.000    0.000    0.000    0.000 
#
# Total GULP energy -644655.386006 kJ/mol
# GULP energy per Si atom -12397.218962 kJ/mol
# Density = 2.119163 g / cm^3
# Si number density = 21.239971 Si / 1000 Ang^3
#
#
#
# Elastic Constant Matrix: (Units=GPa)
#
#
# Indices 1 2 3 4 5 6 
#
# 1 79.5164 30.5426 50.1371 0.0000 0.0000 0.0000
# 2 30.5426 69.8668 38.7984 0.0000 0.0000 0.0000
# 3 50.1371 38.7984 123.7262 0.0000 0.0000 0.0000
# 4 0.0000 0.0000 0.0000 19.8269 0.0000 0.0000
# 5 0.0000 0.0000 0.0000 0.0000 25.7602 0.0000
# 6 0.0000 0.0000 0.0000 0.0000 0.0000 38.2965
#
#
#
# Elastic Compliance Matrix: (Units=1/GPa)
#
#
# Indices 1 2 3 4 5 6 
#
# 1 0.018053 -0.004637 -0.005861 0.000000 0.000000 0.000000
# 2 -0.004637 0.018522 -0.003929 0.000000 0.000000 0.000000
# 3 -0.005861 -0.003929 0.011690 0.000000 0.000000 0.000000
# 4 0.000000 0.000000 0.000000 0.050437 0.000000 0.000000
# 5 0.000000 0.000000 0.000000 0.000000 0.038820 0.000000
# 6 0.000000 0.000000 0.000000 0.000000 0.000000 0.026112
#
#
# Mechanical properties :
#
#
# Convention : Reuss Voigt Hill
#
# Bulk Modulus (GPa) = 51.52127 56.89619 54.20873
# Shear Modulus (GPa) = 25.13099 27.01881 26.07490
#
# Velocity S-wave (km/s) = 3.44349 3.57048 3.50756
# Velocity P-wave (km/s) = 6.33400 6.62143 6.47931
#
# Compressibility (1/GPa) = 0.01940946
#
# Stress axis : x y z
#
# Youngs Moduli (GPa) = 55.39282 53.98999 85.54543
#
# Poissons Ratio (x) = 0.25035 0.50142
# Poissons Ratio (y) = 0.25685 0.33612
# Poissons Ratio (z) = 0.32468 0.21214
#
# Static dielectric constant tensor:
#      x y z
#    x 4.048870 0.000000 0.000000 
#    y 0.000000 3.553900 0.000000 
#    z 0.000000 0.000000 3.966820 
# 
# 
# High freq. dielectric constant tensor:
#      x y z
#    x 1.850070 0.000000 0.000000 
#    y 0.000000 1.809360 0.000000 
#    z 0.000000 0.000000 1.842920 
# 
# From -- ./inp_files/19552.got.cif
#   From: 2010.03.12/outbox.cif.g09.slc.cpg/sg60_10_cif.got.tgz:19552.got - 2010.04.10 18:46:24.
