data_PCOD8246101
_publ_section_title
;
Structure prediction by ZEFSAII (Michael W. Deem and Ramdas Pophale) SiO2 
 PCOD8246101
Probable space group: P M M N
;
_chemical_formula_sum "Si O2"
_cell_formula_units_Z 48
_cell_length_a 18.992963
_cell_length_b 8.786400
_cell_length_c 14.817877
_cell_angle_alpha 90.000000
_cell_angle_beta 90.000000
_cell_angle_gamma 90.000000
_cell_volume 2472.803907
_symmetry_space_group_name_H-M "P M M N"
_symmetry_group_IT_number 59
_space_group.IT_coordinate_system_code '2'
_symmetry_cell_setting 'orthorhombic'
loop_
_space_group_symop_operation_xyz
x,y,z
1/2-x,1/2-y,z
1/2+x,-y,-z
-x,1/2+y,-z
-x,-y,-z
1/2+x,1/2+y,-z
1/2-x,y,z
x,1/2-y,z
loop_
_atom_site_type_symbol
_atom_site_label
_atom_site_fract_x
_atom_site_fract_y
_atom_site_fract_z
Si Si1 0.441720 0.925714 0.242731
Si Si2 0.830477 0.570761 0.104544
Si Si3 0.411980 0.573000 0.730887
Si Si4 0.071183 0.927158 0.035591
Si Si5 0.831376 0.575313 0.425347
Si Si6 0.331481 0.075581 0.367033
O O1 0.463260 0.750000 0.253754
O O2 0.419413 0.962546 0.140727
O O3 0.506339 0.030417 0.272481
O O4 0.375728 0.962106 0.305679
O O5 0.750000 0.517905 0.115573
O O6 0.836985 0.750000 0.094208
O O7 0.873602 0.521944 0.191942
O O8 0.861512 0.495916 0.014664
O O9 0.403461 0.750000 0.752247
O O10 0.378579 0.535877 0.634230
O O11 0.067142 0.750000 0.014488
O O12 0.000000 0.000000 0.000000
O O13 0.750000 0.538284 0.406687
O O14 0.847284 0.750000 0.399556
O O15 0.850674 0.544508 0.529013
O O16 0.250000 0.039977 0.349563
O O17 0.348612 0.250000 0.342030
#
# Coordination Sequence:
#
# PCOD8246101 Si02
#       6
#     8   8   8   8   8   8
#     4  11  24  40  61  88 120 158 198 245 300 356
#     4  11  24  41  62  89 122 159 199 246 300 358
#     4  12  24  37  59  89 121 158 199 247 299 357
#     4  11  23  40  63  87 117 158 201 247 298 354
#     4   9  19  38  62  86 118 159 198 243 299 355
#     4   9  20  40  64  89 118 155 200 247 296 353
#
# _framework density 19.411162000000001
#
# number of rings (size 3 to 8) (size 9 to 14) (size 15 to 20)
#    0.000    1.500    1.667    4.500    0.000    8.000 
#    0.000    5.000    0.000    0.000    0.000    0.000 
#    0.000    0.000    0.000    0.000    0.000    0.000 
#
# Total GULP energy -595490.661681 kJ/mol
# GULP energy per Si atom -12406.055452 kJ/mol
# Density = 1.936698 g / cm^3
# Si number density = 19.411162 Si / 1000 Ang^3
#
#
#
# Elastic Constant Matrix: (Units=GPa)
#
#
# Indices 1 2 3 4 5 6 
#
# 1 96.7293 36.2334 53.3420 0.0000 0.0000 0.0000
# 2 36.2334 76.9832 41.9989 0.0000 0.0000 0.0000
# 3 53.3420 41.9989 109.4578 0.0000 0.0000 0.0000
# 4 0.0000 0.0000 0.0000 35.6518 0.0000 0.0000
# 5 0.0000 0.0000 0.0000 0.0000 39.0609 0.0000
# 6 0.0000 0.0000 0.0000 0.0000 0.0000 36.2277
#
#
#
# Elastic Compliance Matrix: (Units=1/GPa)
#
#
# Indices 1 2 3 4 5 6 
#
# 1 0.015004 -0.003886 -0.005821 0.000000 0.000000 0.000000
# 2 -0.003886 0.017436 -0.004796 0.000000 0.000000 0.000000
# 3 -0.005821 -0.004796 0.013813 0.000000 0.000000 0.000000
# 4 0.000000 0.000000 0.000000 0.028049 0.000000 0.000000
# 5 0.000000 0.000000 0.000000 0.000000 0.025601 0.000000
# 6 0.000000 0.000000 0.000000 0.000000 0.000000 0.027603
#
#
# Mechanical properties :
#
#
# Convention : Reuss Voigt Hill
#
# Bulk Modulus (GPa) = 57.98427 60.70210 59.34318
# Shear Modulus (GPa) = 30.81477 32.29447 31.55462
#
# Velocity S-wave (km/s) = 3.98864 4.08328 4.03624
# Velocity P-wave (km/s) = 7.15184 7.31919 7.23600
#
# Compressibility (1/GPa) = 0.01724606
#
# Stress axis : x y z
#
# Youngs Moduli (GPa) = 66.65043 57.35407 72.39687
#
# Poissons Ratio (x) = 0.22289 0.42139
# Poissons Ratio (y) = 0.25902 0.34723
# Poissons Ratio (z) = 0.38794 0.27508
#
# Static dielectric constant tensor:
#      x y z
#    x 3.565850 0.000000 0.000000 
#    y 0.000000 3.556560 0.000000 
#    z 0.000000 0.000000 3.649610 
# 
# 
# High freq. dielectric constant tensor:
#      x y z
#    x 1.758910 0.000000 0.000000 
#    y 0.000000 1.760710 0.000000 
#    z 0.000000 0.000000 1.765380 
# 
# From -- ./inp_files/20436.got.cif
#   From: 2010.03.12/outbox.cif.g09.slc.cpg/sg59_11_cif.got.tgz:20436.got - 2010.04.16 16:29:54.
