data_PCOD8246289
_publ_section_title
;
Structure prediction by ZEFSAII (Michael W. Deem and Ramdas Pophale) SiO2 
 PCOD8246289
Probable space group: P B C N
;
_chemical_formula_sum "Si O2"
_cell_formula_units_Z 36
_cell_length_a 22.251419
_cell_length_b 14.725886
_cell_length_c 5.150717
_cell_angle_alpha 90.000000
_cell_angle_beta 90.000000
_cell_angle_gamma 90.000000
_cell_volume 1687.745017
_symmetry_space_group_name_H-M "P B C N"
_symmetry_group_IT_number 60
_symmetry_cell_setting 'orthorhombic'
loop_
_space_group_symop_operation_xyz
x,y,z
1/2-x,1/2-y,1/2+z
1/2+x,1/2-y,-z
-x,y,1/2-z
-x,-y,-z
1/2+x,1/2+y,1/2-z
1/2-x,1/2+y,z
x,-y,1/2+z
loop_
_atom_site_type_symbol
_atom_site_label
_atom_site_fract_x
_atom_site_fract_y
_atom_site_fract_z
Si Si1 0.500000 0.939183 0.250000
Si Si2 0.838735 0.942545 0.986396
Si Si3 0.973672 0.897957 0.000837
Si Si4 0.240642 0.695274 0.832495
Si Si5 0.131111 0.436473 0.275921
O O1 0.564648 0.887434 0.240680
O O2 0.500000 0.000000 0.500000
O O3 0.902484 0.893924 0.014897
O O4 0.832363 0.976561 0.692253
O O5 0.787302 0.871431 0.034129
O O6 0.000000 0.846158 0.750000
O O7 0.000000 0.845399 0.250000
O O8 0.000000 0.000000 0.000000
O O9 0.268125 0.729101 0.557747
O O10 0.178038 0.645759 0.771589
O O11 0.140839 0.496408 0.533354
#
# Coordination Sequence:
#
# PCOD8246289 Si02
#       5
#     4   8   8   8   8
#     4   8  16  30  60  92 110 134 184 260 306 330
#     4  12  21  36  63  86 110 154 207 241 287 343
#     4  10  16  30  52  86 115 136 177 254 279 316
#     4  12  26  41  56  83 128 165 191 241 300 355
#     4  10  19  38  65  92 111 147 203 249 295 354
#
# _framework density 21.330234999999998
#
# number of rings (size 3 to 8) (size 9 to 14) (size 15 to 20)
#    0.000    1.333    4.444    4.000    0.000    0.000 
#    0.000    0.000    7.333    0.000    0.000    0.000 
#    0.000    0.000    0.000    0.000    0.000    0.000 
#
# Total GULP energy -446064.883973 kJ/mol
# GULP energy per Si atom -12390.691221 kJ/mol
# Density = 2.128169 g / cm^3
# Si number density = 21.330235 Si / 1000 Ang^3
#
#
#
# Elastic Constant Matrix: (Units=GPa)
#
#
# Indices 1 2 3 4 5 6 
#
# 1 181.2960 47.3262 26.0115 0.0000 0.0000 0.0000
# 2 47.3262 39.5596 18.2055 0.0000 0.0000 0.0000
# 3 26.0115 18.2055 153.1031 0.0000 0.0000 0.0000
# 4 0.0000 0.0000 0.0000 -0.9805 0.0000 0.0000
# 5 0.0000 0.0000 0.0000 0.0000 34.7858 0.0000
# 6 0.0000 0.0000 0.0000 0.0000 0.0000 7.3484
#
#
#
# Elastic Compliance Matrix: (Units=1/GPa)
#
#
# Indices 1 2 3 4 5 6 
#
# 1 0.008029 -0.009497 -0.000235 0.000000 0.000000 0.000000
# 2 -0.009497 0.037975 -0.002902 0.000000 0.000000 0.000000
# 3 -0.000235 -0.002902 0.006917 0.000000 0.000000 0.000000
# 4 0.000000 0.000000 0.000000 -1.019864 0.000000 0.000000
# 5 0.000000 0.000000 0.000000 0.000000 0.028747 0.000000
# 6 0.000000 0.000000 0.000000 0.000000 0.000000 0.136085
#
#
# Mechanical properties :
#
#
# Convention : Reuss Voigt Hill
#
# Bulk Modulus (GPa) = 36.16265 61.89392 49.02828
# Shear Modulus (GPa) = -6.51359 27.05843 10.27242
#
# Velocity S-wave (km/s) = -1.74938 3.56553 2.19690
# Velocity P-wave (km/s) = 3.59306 6.78459 5.42866
#
# Compressibility (1/GPa) = 0.02765284
#
# Stress axis : x y z
#
# Youngs Moduli (GPa) = 124.55457 26.33298 144.58118
#
# Poissons Ratio (x) = 0.25008 0.03394
# Poissons Ratio (y) = 1.18287 0.41960
# Poissons Ratio (z) = 0.02924 0.07642
#
# Static dielectric constant tensor:
#      x y z
#    x 4.338820 0.000000 0.000000 
#    y 0.000000 3.197420 0.000000 
#    z 0.000000 0.000000 4.175050 
# 
# 
# High freq. dielectric constant tensor:
#      x y z
#    x 1.860910 0.000000 0.000000 
#    y 0.000000 1.771180 0.000000 
#    z 0.000000 0.000000 1.875980 
# 
# From -- ./inp_files/2280.got.cif
#   From: 2010.03.12/outbox.cif.g09.slc.cpg/sg60_2_cif.got.tgz:2280.got - 2010.04.10 18:46:24.
