data_PCOD8246325
_publ_section_title
;
Structure prediction by ZEFSAII (Michael W. Deem and Ramdas Pophale) SiO2 
 PCOD8246325
Probable space group: P B C N
;
_chemical_formula_sum "Si O2"
_cell_formula_units_Z 40
_cell_length_a 4.962653
_cell_length_b 24.664561
_cell_length_c 17.426628
_cell_angle_alpha 90.000000
_cell_angle_beta 90.000000
_cell_angle_gamma 90.000000
_cell_volume 2133.048154
_symmetry_space_group_name_H-M "P B C N"
_symmetry_group_IT_number 60
_symmetry_cell_setting 'orthorhombic'
loop_
_space_group_symop_operation_xyz
x,y,z
1/2-x,1/2-y,1/2+z
1/2+x,1/2-y,-z
-x,y,1/2-z
-x,-y,-z
1/2+x,1/2+y,1/2-z
1/2-x,1/2+y,z
x,-y,1/2+z
loop_
_atom_site_type_symbol
_atom_site_label
_atom_site_fract_x
_atom_site_fract_y
_atom_site_fract_z
Si Si1 0.047654 0.965081 0.839135
Si Si2 0.961932 0.631578 0.963200
Si Si3 0.426702 0.246688 0.950433
Si Si4 0.461723 0.361385 0.568991
Si Si5 0.546558 0.016608 0.912781
O O1 0.012135 0.902094 0.861060
O O2 0.000000 0.972622 0.750000
O O3 0.849593 0.002512 0.888815
O O4 0.349134 0.984328 0.856745
O O5 0.006556 0.687459 0.914148
O O6 0.000702 0.581279 0.905503
O O7 0.663527 0.628192 0.998219
O O8 0.163797 0.629483 0.035769
O O9 0.499985 0.299438 0.898671
O O10 0.612322 0.251188 0.027325
O O11 0.500000 0.000000 0.000000
#
# Coordination Sequence:
#
# PCOD8246325 Si02
#       5
#     8   8   8   8   8
#     4  12  24  36  52  79 112 146 177 219 277 327
#     4  10  18  30  53  79 101 132 173 225 261 300
#     4   8  16  27  46  75 102 125 161 214 264 303
#     4  10  17  32  50  75 107 132 170 218 267 313
#     4  12  21  36  57  79 108 142 185 223 264 319
#
# _framework density 18.752506
#
# number of rings (size 3 to 8) (size 9 to 14) (size 15 to 20)
#    0.000    1.600    4.000    2.400    0.000    0.000 
#    0.000    0.000    0.000    2.400    0.000    0.000 
#    0.000    0.000    0.000    0.000    0.000    0.000 
#
# Total GULP energy -495826.412474 kJ/mol
# GULP energy per Si atom -12395.660312 kJ/mol
# Density = 1.870982 g / cm^3
# Si number density = 18.752506 Si / 1000 Ang^3
#
#
#
# Elastic Constant Matrix: (Units=GPa)
#
#
# Indices 1 2 3 4 5 6 
#
# 1 69.2820 6.0827 2.3632 0.0000 0.0000 0.0000
# 2 6.0827 171.4779 24.4867 0.0000 0.0000 0.0000
# 3 2.3632 24.4867 56.9697 0.0000 0.0000 0.0000
# 4 0.0000 0.0000 0.0000 15.5609 0.0000 0.0000
# 5 0.0000 0.0000 0.0000 0.0000 19.7330 0.0000
# 6 0.0000 0.0000 0.0000 0.0000 0.0000 29.3138
#
#
#
# Elastic Compliance Matrix: (Units=1/GPa)
#
#
# Indices 1 2 3 4 5 6 
#
# 1 0.014488 -0.000456 -0.000405 0.000000 0.000000 0.000000
# 2 -0.000456 0.006227 -0.002658 0.000000 0.000000 0.000000
# 3 -0.000405 -0.002658 0.018712 0.000000 0.000000 0.000000
# 4 0.000000 0.000000 0.000000 0.064264 0.000000 0.000000
# 5 0.000000 0.000000 0.000000 0.000000 0.050677 0.000000
# 6 0.000000 0.000000 0.000000 0.000000 0.000000 0.034114
#
#
# Mechanical properties :
#
#
# Convention : Reuss Voigt Hill
#
# Bulk Modulus (GPa) = 30.87387 40.39941 35.63664
# Shear Modulus (GPa) = 24.23474 30.57466 27.40470
#
# Velocity S-wave (km/s) = 3.59882 4.04224 3.82696
# Velocity P-wave (km/s) = 5.81105 6.58608 6.21067
#
# Compressibility (1/GPa) = 0.03238985
#
# Stress axis : x y z
#
# Youngs Moduli (GPa) = 69.02444 160.58198 53.44067
#
# Poissons Ratio (x) = 0.07324 0.02164
# Poissons Ratio (y) = 0.03148 0.14203
# Poissons Ratio (z) = 0.02795 0.42678
#
# Static dielectric constant tensor:
#      x y z
#    x 3.470350 0.000000 0.000000 
#    y 0.000000 4.235280 0.000000 
#    z 0.000000 0.000000 2.740100 
# 
# 
# High freq. dielectric constant tensor:
#      x y z
#    x 1.754740 0.000000 0.000000 
#    y 0.000000 1.760940 0.000000 
#    z 0.000000 0.000000 1.638210 
# 
# From -- ./inp_files/13808.got.cif
#   From: 2010.03.12/outbox.cif.g09.slc.cpg/sg60_7_cif.got.tgz:13808.got - 2010.04.10 18:46:24.
