data_PCOD8246018
_publ_section_title
;
Structure prediction by ZEFSAII (Michael W. Deem and Ramdas Pophale) SiO2 
 PCOD8246018
Probable space group: P M M N
;
_chemical_formula_sum "Si O2"
_cell_formula_units_Z 64
_cell_length_a 9.510793
_cell_length_b 23.743575
_cell_length_c 15.142366
_cell_angle_alpha 90.000000
_cell_angle_beta 90.000000
_cell_angle_gamma 90.000000
_cell_volume 3419.452526
_symmetry_space_group_name_H-M "P M M N"
_symmetry_group_IT_number 59
_space_group.IT_coordinate_system_code '2'
_symmetry_cell_setting 'orthorhombic'
loop_
_space_group_symop_operation_xyz
x,y,z
1/2-x,1/2-y,z
1/2+x,-y,-z
-x,1/2+y,-z
-x,-y,-z
1/2+x,1/2+y,-z
1/2-x,y,z
x,1/2-y,z
loop_
_atom_site_type_symbol
_atom_site_label
_atom_site_fract_x
_atom_site_fract_y
_atom_site_fract_z
Si Si1 0.899627 0.814368 0.996520
Si Si2 0.082398 0.882243 0.663489
Si Si3 0.917307 0.386594 0.673654
Si Si4 0.583363 0.185839 0.510405
Si Si5 0.093511 0.858743 0.137814
Si Si6 0.582843 0.511383 0.717039
Si Si7 0.087552 0.184165 0.196023
Si Si8 0.407210 0.513482 0.085070
O O1 0.750000 0.841652 0.025845
O O2 0.873996 0.750000 0.973509
O O3 0.008834 0.817980 0.074789
O O4 0.946420 0.840070 0.902280
O O5 0.250000 0.890413 0.669886
O O6 0.037785 0.847433 0.576845
O O7 0.005611 0.942574 0.663018
O O8 0.025505 0.847260 0.745163
O O9 0.750000 0.384661 0.675451
O O10 0.978838 0.350272 0.592495
O O11 0.974153 0.358840 0.764399
O O12 0.961983 0.452180 0.671758
O O13 0.750000 0.188757 0.517788
O O14 0.522686 0.250000 0.510188
O O15 0.250000 0.834253 0.142406
O O16 0.092146 0.919990 0.095678
O O17 0.750000 0.521706 0.707400
O O18 0.540742 0.513193 0.821538
O O19 0.250000 0.169971 0.221198
O O20 0.058157 0.250000 0.206882
O O21 0.250000 0.491730 0.065203
O O22 0.500000 0.500000 0.000000
#
# Coordination Sequence:
#
# PCOD8246018 Si02
#       8
#     8   8   8   8   8   8   8   8
#     4   9  19  34  50  71 101 138 176 210 255 318
#     4  11  22  33  51  81 112 138 174 227 273 316
#     4   8  16  34  56  76 105 141 177 217 263 321
#     4   9  18  33  54  81 109 137 172 218 277 332
#     4   9  18  32  51  77 103 128 168 220 261 300
#     4   9  19  36  54  75 106 145 183 217 261 319
#     4   9  19  36  54  71  99 142 184 218 262 327
#     4   9  19  33  49  72 103 136 173 215 256 304
#
# _framework density 18.716446999999999
#
# number of rings (size 3 to 8) (size 9 to 14) (size 15 to 20)
#    0.000    2.875    0.000    3.000    1.750    3.500 
#    0.000    4.375    0.000    2.250    0.000    1.750 
#    0.000    0.000    0.000    0.000    0.000    0.000 
#
# Total GULP energy -793051.133629 kJ/mol
# GULP energy per Si atom -12391.423963 kJ/mol
# Density = 1.867385 g / cm^3
# Si number density = 18.716447 Si / 1000 Ang^3
#
#
#
# Elastic Constant Matrix: (Units=GPa)
#
#
# Indices 1 2 3 4 5 6 
#
# 1 58.5952 36.8329 51.0595 0.0000 0.0000 0.0000
# 2 36.8329 95.9573 72.5092 0.0000 0.0000 0.0000
# 3 51.0595 72.5092 142.4445 0.0000 0.0000 0.0000
# 4 0.0000 0.0000 0.0000 34.4175 0.0000 0.0000
# 5 0.0000 0.0000 0.0000 0.0000 18.0035 0.0000
# 6 0.0000 0.0000 0.0000 0.0000 0.0000 26.7591
#
#
#
# Elastic Compliance Matrix: (Units=1/GPa)
#
#
# Indices 1 2 3 4 5 6 
#
# 1 0.026108 -0.004794 -0.006918 0.000000 0.000000 0.000000
# 2 -0.004794 0.017816 -0.007350 0.000000 0.000000 0.000000
# 3 -0.006918 -0.007350 0.013242 0.000000 0.000000 0.000000
# 4 0.000000 0.000000 0.000000 0.029055 0.000000 0.000000
# 5 0.000000 0.000000 0.000000 0.000000 0.055545 0.000000
# 6 0.000000 0.000000 0.000000 0.000000 0.000000 0.037370
#
#
# Mechanical properties :
#
#
# Convention : Reuss Voigt Hill
#
# Bulk Modulus (GPa) = 52.51949 68.64446 60.58198
# Shear Modulus (GPa) = 22.36059 24.94240 23.65149
#
# Velocity S-wave (km/s) = 3.46020 3.65450 3.55868
# Velocity P-wave (km/s) = 6.63969 7.38666 7.02312
#
# Compressibility (1/GPa) = 0.01904055
#
# Stress axis : x y z
#
# Youngs Moduli (GPa) = 38.30214 56.13042 75.51844
#
# Poissons Ratio (x) = 0.26908 0.52246
# Poissons Ratio (y) = 0.18361 0.55509
# Poissons Ratio (z) = 0.26499 0.41258
#
# Static dielectric constant tensor:
#      x y z
#    x 3.237780 0.000000 0.000000 
#    y 0.000000 3.545240 0.000000 
#    z 0.000000 0.000000 3.618990 
# 
# 
# High freq. dielectric constant tensor:
#      x y z
#    x 1.692940 0.000000 0.000000 
#    y 0.000000 1.729110 0.000000 
#    z 0.000000 0.000000 1.731420 
# 
# From -- ./inp_files/21462.got.cif
#   From: 2010.03.12/outbox.cif.g09.slc.cpg/sg59_11_cif.got.tgz:21462.got - 2010.04.16 16:29:54.
