data_PCOD8246274
_publ_section_title
;
Structure prediction by ZEFSAII (Michael W. Deem and Ramdas Pophale) SiO2 
 PCOD8246274
Probable space group: P B C N
;
_chemical_formula_sum "Si O2"
_cell_formula_units_Z 32
_cell_length_a 8.668334
_cell_length_b 34.269638
_cell_length_c 5.249904
_cell_angle_alpha 90.000000
_cell_angle_beta 90.000000
_cell_angle_gamma 90.000000
_cell_volume 1559.539990
_symmetry_space_group_name_H-M "P B C N"
_symmetry_group_IT_number 60
_symmetry_cell_setting 'orthorhombic'
loop_
_space_group_symop_operation_xyz
x,y,z
1/2-x,1/2-y,1/2+z
1/2+x,1/2-y,-z
-x,y,1/2-z
-x,-y,-z
1/2+x,1/2+y,1/2-z
1/2-x,1/2+y,z
x,-y,1/2+z
loop_
_atom_site_type_symbol
_atom_site_label
_atom_site_fract_x
_atom_site_fract_y
_atom_site_fract_z
Si Si1 0.674369 0.604935 0.783814
Si Si2 0.672380 0.484377 0.441385
Si Si3 0.819641 0.767922 0.766921
Si Si4 0.818804 0.857698 0.781766
O O1 0.500000 0.620030 0.750000
O O2 0.677701 0.559330 0.841294
O O3 0.753816 0.616932 0.515320
O O4 0.757506 0.627680 0.016626
O O5 0.500000 0.500000 0.500000
O O6 0.754778 0.489803 0.717080
O O7 0.746795 0.757976 0.494465
O O8 0.781395 0.812665 0.830576
O O9 0.000000 0.760187 0.750000
O O10 0.000000 0.866084 0.750000
#
# Coordination Sequence:
#
# PCOD8246274 Si02
#       4
#     8   8   8   8
#     4  10  16  25  38  55  87 123 169 224 245 304
#     4  10  17  22  32  51  80 119 174 214 243 293
#     4  11  22  39  60  84 113 145 191 242 287 349
#     4   9  19  29  44  66  90 128 172 220 262 319
#
# _framework density 20.518872000000002
#
# number of rings (size 3 to 8) (size 9 to 14) (size 15 to 20)
#    0.000    2.000    2.500    3.750    7.000    4.000 
#    0.000    0.000    0.000    0.000    0.000    0.000 
#    0.000    0.000    0.000    0.000    0.000  315.000 
#
# Total GULP energy -396446.736391 kJ/mol
# GULP energy per Si atom -12388.960512 kJ/mol
# Density = 2.047217 g / cm^3
# Si number density = 20.518872 Si / 1000 Ang^3
#
#
#
# Elastic Constant Matrix: (Units=GPa)
#
#
# Indices 1 2 3 4 5 6 
#
# 1 28.7352 26.7432 18.1560 0.0000 0.0000 0.0000
# 2 26.7432 106.9283 58.1725 0.0000 0.0000 0.0000
# 3 18.1560 58.1725 208.9032 0.0000 0.0000 0.0000
# 4 0.0000 0.0000 0.0000 50.2228 0.0000 0.0000
# 5 0.0000 0.0000 0.0000 0.0000 12.7893 0.0000
# 6 0.0000 0.0000 0.0000 0.0000 0.0000 10.5376
#
#
#
# Elastic Compliance Matrix: (Units=1/GPa)
#
#
# Indices 1 2 3 4 5 6 
#
# 1 0.045510 -0.010878 -0.000926 0.000000 0.000000 0.000000
# 2 -0.010878 0.013622 -0.002848 0.000000 0.000000 0.000000
# 3 -0.000926 -0.002848 0.005660 0.000000 0.000000 0.000000
# 4 0.000000 0.000000 0.000000 0.019911 0.000000 0.000000
# 5 0.000000 0.000000 0.000000 0.000000 0.078190 0.000000
# 6 0.000000 0.000000 0.000000 0.000000 0.000000 0.094898
#
#
# Mechanical properties :
#
#
# Convention : Reuss Voigt Hill
#
# Bulk Modulus (GPa) = 28.17870 61.19002 44.68436
# Shear Modulus (GPa) = 16.72656 30.80962 23.76809
#
# Velocity S-wave (km/s) = 2.85823 3.87916 3.40715
# Velocity P-wave (km/s) = 4.96543 7.06752 6.10759
#
# Compressibility (1/GPa) = 0.03548780
#
# Stress axis : x y z
#
# Youngs Moduli (GPa) = 21.97328 73.41005 176.66536
#
# Poissons Ratio (x) = 0.79858 0.16360
# Poissons Ratio (y) = 0.23903 0.50312
# Poissons Ratio (z) = 0.02035 0.20906
#
# Static dielectric constant tensor:
#      x y z
#    x 2.910870 0.000000 0.000000 
#    y 0.000000 3.679360 0.000000 
#    z 0.000000 0.000000 16.574730 
# 
# 
# High freq. dielectric constant tensor:
#      x y z
#    x 1.698690 0.000000 0.000000 
#    y 0.000000 1.811640 0.000000 
#    z 0.000000 0.000000 1.849600 
# 
# From -- ./inp_files/355.got.cif
#   From: 2010.03.12/outbox.cif.g09.slc.cpg/sg60_1_cif.got.tgz:355.got - 2010.04.10 18:46:24.
