data_PCOD8246956
_publ_section_title
;
Structure prediction by ZEFSAII (Michael W. Deem and Ramdas Pophale) SiO2 
 PCOD8246956
Probable space group: P B C N
;
_chemical_formula_sum "Si O2"
_cell_formula_units_Z 56
_cell_length_a 10.940114
_cell_length_b 16.620247
_cell_length_c 14.098360
_cell_angle_alpha 90.000000
_cell_angle_beta 90.000000
_cell_angle_gamma 90.000000
_cell_volume 2563.468099
_symmetry_space_group_name_H-M "P B C N"
_symmetry_group_IT_number 60
_symmetry_cell_setting 'orthorhombic'
loop_
_space_group_symop_operation_xyz
x,y,z
1/2-x,1/2-y,1/2+z
1/2+x,1/2-y,-z
-x,y,1/2-z
-x,-y,-z
1/2+x,1/2+y,1/2-z
1/2-x,1/2+y,z
x,-y,1/2+z
loop_
_atom_site_type_symbol
_atom_site_label
_atom_site_fract_x
_atom_site_fract_y
_atom_site_fract_z
Si Si1 0.725281 0.404234 0.230153
Si Si2 0.119597 0.026144 0.942840
Si Si3 0.133136 0.559975 0.240308
Si Si4 0.295088 0.860061 0.559408
Si Si5 0.587551 0.798586 0.118501
Si Si6 0.262732 0.357723 0.900125
Si Si7 0.307990 0.197523 0.606400
O O1 0.610017 0.418100 0.155466
O O2 0.763637 0.492412 0.262780
O O3 0.835570 0.364000 0.174231
O O4 0.708980 0.349686 0.325529
O O5 0.175610 0.943030 0.911481
O O6 0.206962 0.074632 0.012269
O O7 0.000000 0.000000 0.000000
O O8 0.124255 0.598389 0.137686
O O9 0.160253 0.629228 0.318980
O O10 0.000000 0.520496 0.250000
O O11 0.393821 0.817947 0.491865
O O12 0.213404 0.792241 0.609379
O O13 0.638839 0.708284 0.136396
O O14 0.446009 0.810754 0.146416
O O15 0.200093 0.332983 0.998696
#
# Coordination Sequence:
#
# PCOD8246956 Si02
#       7
#     8   8   8   8   8   8   8
#     4  10  22  36  58  86 112 148 201 245 299 369
#     4  10  21  41  61  85 120 154 193 250 304 361
#     4  11  21  37  56  82 116 151 191 248 298 351
#     4  10  22  36  59  87 116 157 205 242 300 373
#     4  10  20  37  58  84 115 155 196 251 308 356
#     4  10  22  36  57  85 116 154 203 242 295 370
#     4  11  20  37  58  83 117 153 195 252 301 356
#
# _framework density 21.845405
#
# number of rings (size 3 to 8) (size 9 to 14) (size 15 to 20)
#    0.000    1.714    0.000    4.714    0.000    0.000 
#    0.000   17.857    0.000    0.000    0.000    0.000 
#    0.000    0.000    0.000    0.000    0.000    0.000 
#
# Total GULP energy -693733.328515 kJ/mol
# GULP energy per Si atom -12388.095152 kJ/mol
# Density = 2.179568 g / cm^3
# Si number density = 21.845405 Si / 1000 Ang^3
#
#
#
# Elastic Constant Matrix: (Units=GPa)
#
#
# Indices 1 2 3 4 5 6 
#
# 1 56.7758 8.3898 9.4490 0.0000 0.0000 0.0000
# 2 8.3898 89.4083 23.7274 0.0000 0.0000 0.0000
# 3 9.4490 23.7274 87.7890 0.0000 0.0000 0.0000
# 4 0.0000 0.0000 0.0000 25.9175 0.0000 0.0000
# 5 0.0000 0.0000 0.0000 0.0000 15.7583 0.0000
# 6 0.0000 0.0000 0.0000 0.0000 0.0000 22.1157
#
#
#
# Elastic Compliance Matrix: (Units=1/GPa)
#
#
# Indices 1 2 3 4 5 6 
#
# 1 0.018067 -0.001270 -0.001601 0.000000 0.000000 0.000000
# 2 -0.001270 0.012138 -0.003144 0.000000 0.000000 0.000000
# 3 -0.001601 -0.003144 0.012413 0.000000 0.000000 0.000000
# 4 0.000000 0.000000 0.000000 0.038584 0.000000 0.000000
# 5 0.000000 0.000000 0.000000 0.000000 0.063459 0.000000
# 6 0.000000 0.000000 0.000000 0.000000 0.000000 0.045217
#
#
# Mechanical properties :
#
#
# Convention : Reuss Voigt Hill
#
# Bulk Modulus (GPa) = 32.69331 35.23395 33.96363
# Shear Modulus (GPa) = 23.57326 25.58545 24.57935
#
# Velocity S-wave (km/s) = 3.28852 3.42600 3.35796
# Velocity P-wave (km/s) = 5.42378 5.64037 5.53313
#
# Compressibility (1/GPa) = 0.03058730
#
# Stress axis : x y z
#
# Youngs Moduli (GPa) = 55.34846 82.38448 80.56044
#
# Poissons Ratio (x) = 0.10466 0.12900
# Poissons Ratio (y) = 0.07032 0.25328
# Poissons Ratio (z) = 0.08863 0.25901
#
# Static dielectric constant tensor:
#      x y z
#    x 3.700730 0.000000 0.000000 
#    y 0.000000 4.317710 0.000000 
#    z 0.000000 0.000000 4.548420 
# 
# 
# High freq. dielectric constant tensor:
#      x y z
#    x 1.824500 0.000000 0.000000 
#    y 0.000000 1.872400 0.000000 
#    z 0.000000 0.000000 1.882700 
# 
# From -- ./inp_files/16138.got.cif
#   From: 2010.03.12/outbox.cif.g09.slc.cpg/sg60_9_cif.got.tgz:16138.got - 2010.04.10 18:46:24.
