data_PCOD8246400
_publ_section_title
;
Structure prediction by ZEFSAII (Michael W. Deem and Ramdas Pophale) SiO2 
 PCOD8246400
Probable space group: P B C N
;
_chemical_formula_sum "Si O2"
_cell_formula_units_Z 48
_cell_length_a 11.466052
_cell_length_b 18.340674
_cell_length_c 12.673445
_cell_angle_alpha 90.000000
_cell_angle_beta 90.000000
_cell_angle_gamma 90.000000
_cell_volume 2665.163660
_symmetry_space_group_name_H-M "P B C N"
_symmetry_group_IT_number 60
_symmetry_cell_setting 'orthorhombic'
loop_
_space_group_symop_operation_xyz
x,y,z
1/2-x,1/2-y,1/2+z
1/2+x,1/2-y,-z
-x,y,1/2-z
-x,-y,-z
1/2+x,1/2+y,1/2-z
1/2-x,1/2+y,z
x,-y,1/2+z
loop_
_atom_site_type_symbol
_atom_site_label
_atom_site_fract_x
_atom_site_fract_y
_atom_site_fract_z
Si Si1 0.953286 0.370151 0.056577
Si Si2 0.840295 0.410340 0.849365
Si Si3 0.121115 0.826865 0.628493
Si Si4 0.862311 0.279294 0.554254
Si Si5 0.500000 0.973526 0.250000
Si Si6 0.375193 0.282112 0.854707
Si Si7 0.500000 0.207586 0.250000
O O1 0.890686 0.297288 0.095592
O O2 0.966982 0.424510 0.152253
O O3 0.879749 0.415238 0.970727
O O4 0.076221 0.346600 0.005018
O O5 0.698123 0.400112 0.850025
O O6 0.885760 0.479084 0.781971
O O7 0.894034 0.338778 0.796802
O O8 0.167727 0.787038 0.523866
O O9 0.135216 0.772756 0.728612
O O10 0.980952 0.838565 0.616116
O O11 0.743187 0.314660 0.597398
O O12 0.942875 0.247971 0.651781
#
# Coordination Sequence:
#
# PCOD8246400 Si02
#       7
#     8   8   8   8   4   8   4
#     4  10  20  35  53  86 106 141 184 227 278 315
#     4  10  19  33  52  74 110 142 181 220 262 318
#     4  10  19  31  49  82 108 144 175 215 283 331
#     4  10  18  32  54  79 114 135 172 229 280 334
#     4  11  22  36  52  80 110 146 189 230 254 305
#     4  10  19  32  56  81 113 136 169 231 283 337
#     4   9  18  30  50  78 106 140 175 214 282 313
#
# _framework density 18.010151
#
# number of rings (size 3 to 8) (size 9 to 14) (size 15 to 20)
#    0.000    2.000    3.333    2.500    0.000    0.000 
#    0.000    0.000    0.000    1.000    0.000    0.000 
#    0.000    0.000    0.000    0.000    0.000    0.000 
#
# Total GULP energy -594673.845033 kJ/mol
# GULP energy per Si atom -12389.038438 kJ/mol
# Density = 1.796916 g / cm^3
# Si number density = 18.010151 Si / 1000 Ang^3
#
#
#
# Elastic Constant Matrix: (Units=GPa)
#
#
# Indices 1 2 3 4 5 6 
#
# 1 129.7562 38.2926 54.1698 0.0000 0.0000 0.0000
# 2 38.2926 54.7981 33.7314 0.0000 0.0000 0.0000
# 3 54.1698 33.7314 129.8279 0.0000 0.0000 0.0000
# 4 0.0000 0.0000 0.0000 -9.3446 0.0000 0.0000
# 5 0.0000 0.0000 0.0000 0.0000 25.4486 0.0000
# 6 0.0000 0.0000 0.0000 0.0000 0.0000 28.2153
#
#
#
# Elastic Compliance Matrix: (Units=1/GPa)
#
#
# Indices 1 2 3 4 5 6 
#
# 1 0.010592 -0.005572 -0.002972 0.000000 0.000000 0.000000
# 2 -0.005572 0.024655 -0.004081 0.000000 0.000000 0.000000
# 3 -0.002972 -0.004081 0.010003 0.000000 0.000000 0.000000
# 4 0.000000 0.000000 0.000000 -0.107014 0.000000 0.000000
# 5 0.000000 0.000000 0.000000 0.000000 0.039295 0.000000
# 6 0.000000 0.000000 0.000000 0.000000 0.000000 0.035442
#
#
# Mechanical properties :
#
#
# Convention : Reuss Voigt Hill
#
# Bulk Modulus (GPa) = 50.00025 62.97442 56.48733
# Shear Modulus (GPa) = 111.38937 21.40974 66.39955
#
# Velocity S-wave (km/s) = 7.87289 3.45158 6.07848
# Velocity P-wave (km/s) = 10.51027 7.13628 8.98310
#
# Compressibility (1/GPa) = 0.01999990
#
# Stress axis : x y z
#
# Youngs Moduli (GPa) = 94.41292 40.56038 99.97401
#
# Poissons Ratio (x) = 0.22601 0.29708
# Poissons Ratio (y) = 0.52610 0.40796
# Poissons Ratio (z) = 0.28056 0.16551
#
# Static dielectric constant tensor:
#      x y z
#    x 3.554670 0.000000 0.000000 
#    y 0.000000 2.831020 0.000000 
#    z 0.000000 0.000000 3.839760 
# 
# 
# High freq. dielectric constant tensor:
#      x y z
#    x 1.703270 0.000000 0.000000 
#    y 0.000000 1.627590 0.000000 
#    z 0.000000 0.000000 1.729070 
# 
# From -- ./inp_files/11052.got.cif
#   From: 2010.03.12/outbox.cif.g09.slc.cpg/sg60_6_cif.got.tgz:11052.got - 2010.04.10 18:46:24.
