data_PCOD8246269
_publ_section_title
;
Structure prediction by ZEFSAII (Michael W. Deem and Ramdas Pophale) SiO2 
 PCOD8246269
Probable space group: P B C N
;
_chemical_formula_sum "Si O2"
_cell_formula_units_Z 64
_cell_length_a 9.176201
_cell_length_b 21.071116
_cell_length_c 18.675150
_cell_angle_alpha 90.000000
_cell_angle_beta 90.000000
_cell_angle_gamma 90.000000
_cell_volume 3610.892463
_symmetry_space_group_name_H-M "P B C N"
_symmetry_group_IT_number 60
_symmetry_cell_setting 'orthorhombic'
loop_
_space_group_symop_operation_xyz
x,y,z
1/2-x,1/2-y,1/2+z
1/2+x,1/2-y,-z
-x,y,1/2-z
-x,-y,-z
1/2+x,1/2+y,1/2-z
1/2-x,1/2+y,z
x,-y,1/2+z
loop_
_atom_site_type_symbol
_atom_site_label
_atom_site_fract_x
_atom_site_fract_y
_atom_site_fract_z
Si Si1 0.617602 0.439882 0.340730
Si Si2 0.066573 0.318433 0.827775
Si Si3 0.102872 0.443520 0.907196
Si Si4 0.201029 0.032767 0.820377
Si Si5 0.128208 0.552119 0.568029
Si Si6 0.893287 0.201899 0.814656
Si Si7 0.056161 0.629762 0.828830
Si Si8 0.649192 0.259272 0.721100
O O1 0.455917 0.463471 0.357149
O O2 0.678998 0.464466 0.264796
O O3 0.718485 0.470861 0.400384
O O4 0.629613 0.363951 0.354966
O O5 0.037873 0.377735 0.878336
O O6 0.241653 0.306185 0.821078
O O7 0.000000 0.332843 0.750000
O O8 0.978787 0.257029 0.859553
O O9 0.221356 0.468776 0.849501
O O10 0.974566 0.492677 0.918873
O O11 0.164329 0.430085 0.986239
O O12 0.295390 0.092484 0.846034
O O13 0.063393 0.612804 0.610869
O O14 0.736732 0.226929 0.787058
O O15 0.000000 0.183080 0.750000
O O16 0.092343 0.704248 0.832310
O O17 0.000000 0.609049 0.750000
O O18 0.500000 0.293798 0.750000
#
# Coordination Sequence:
#
# PCOD8246269 Si02
#       8
#     8   8   8   8   8   8   8   8
#     4  11  17  32  55  88 101 130 182 238 270 306
#     4   9  20  34  54  71 108 148 170 216 265 332
#     4  10  23  40  47  75 110 152 184 209 267 338
#     4  10  19  29  54  80 109 130 176 229 263 305
#     4  10  22  35  57  74 108 144 183 224 265 321
#     4   9  15  30  52  82 106 126 168 227 274 308
#     4  10  15  29  55  82 100 130 173 231 268 303
#     4   9  15  27  49  79 104 126 169 224 272 303
#
# _framework density 17.724150000000002
#
# number of rings (size 3 to 8) (size 9 to 14) (size 15 to 20)
#    0.000    2.500    3.750    1.500    1.750    0.500 
#    2.250    1.250    0.000    0.000    0.000    0.000 
#    0.000    0.000    0.000    0.000    0.000    0.000 
#
# Total GULP energy -793031.867285 kJ/mol
# GULP energy per Si atom -12391.122926 kJ/mol
# Density = 1.768381 g / cm^3
# Si number density = 17.724150 Si / 1000 Ang^3
#
#
#
# Elastic Constant Matrix: (Units=GPa)
#
#
# Indices 1 2 3 4 5 6 
#
# 1 100.7763 13.6947 33.4782 0.0000 0.0000 0.0000
# 2 13.6947 67.8325 38.6838 0.0000 0.0000 0.0000
# 3 33.4782 38.6838 78.5993 0.0000 0.0000 0.0000
# 4 0.0000 0.0000 0.0000 -6.8925 0.0000 0.0000
# 5 0.0000 0.0000 0.0000 0.0000 18.2566 0.0000
# 6 0.0000 0.0000 0.0000 0.0000 0.0000 7.9689
#
#
#
# Elastic Compliance Matrix: (Units=1/GPa)
#
#
# Indices 1 2 3 4 5 6 
#
# 1 0.011580 0.000660 -0.005257 0.000000 0.000000 0.000000
# 2 0.000660 0.020532 -0.010386 0.000000 0.000000 0.000000
# 3 -0.005257 -0.010386 0.020074 0.000000 0.000000 0.000000
# 4 0.000000 0.000000 0.000000 -0.145086 0.000000 0.000000
# 5 0.000000 0.000000 0.000000 0.000000 0.054775 0.000000
# 6 0.000000 0.000000 0.000000 0.000000 0.000000 0.125488
#
#
# Mechanical properties :
#
#
# Convention : Reuss Voigt Hill
#
# Bulk Modulus (GPa) = 45.00660 46.54685 45.77673
# Shear Modulus (GPa) = 40.08487 14.62337 27.35412
#
# Velocity S-wave (km/s) = 4.76078 2.87549 3.93278
# Velocity P-wave (km/s) = 7.46110 6.11093 6.81951
#
# Compressibility (1/GPa) = 0.02221896
#
# Stress axis : x y z
#
# Youngs Moduli (GPa) = 86.35813 48.70423 49.81619
#
# Poissons Ratio (x) = -0.03216 0.26189
# Poissons Ratio (y) = -0.05702 0.51741
# Poissons Ratio (z) = 0.45400 0.50586
#
# Static dielectric constant tensor:
#      x y z
#    x 3.569850 0.000000 0.000000 
#    y 0.000000 3.187980 0.000000 
#    z 0.000000 0.000000 3.032420 
# 
# 
# High freq. dielectric constant tensor:
#      x y z
#    x 1.705600 0.000000 0.000000 
#    y 0.000000 1.670280 0.000000 
#    z 0.000000 0.000000 1.639580 
# 
# From -- ./inp_files/19761.got.cif
#   From: 2010.03.12/outbox.cif.g09.slc.cpg/sg60_10_cif.got.tgz:19761.got - 2010.04.10 18:46:24.
