data_PCOD8246415
_publ_section_title
;
Structure prediction by ZEFSAII (Michael W. Deem and Ramdas Pophale) SiO2 
 PCOD8246415
Probable space group: P B C N
;
_chemical_formula_sum "Si O2"
_cell_formula_units_Z 56
_cell_length_a 8.982354
_cell_length_b 20.328478
_cell_length_c 14.784479
_cell_angle_alpha 90.000000
_cell_angle_beta 90.000000
_cell_angle_gamma 90.000000
_cell_volume 2699.610171
_symmetry_space_group_name_H-M "P B C N"
_symmetry_group_IT_number 60
_symmetry_cell_setting 'orthorhombic'
loop_
_space_group_symop_operation_xyz
x,y,z
1/2-x,1/2-y,1/2+z
1/2+x,1/2-y,-z
-x,y,1/2-z
-x,-y,-z
1/2+x,1/2+y,1/2-z
1/2-x,1/2+y,z
x,-y,1/2+z
loop_
_atom_site_type_symbol
_atom_site_label
_atom_site_fract_x
_atom_site_fract_y
_atom_site_fract_z
Si Si1 0.000000 0.183375 0.250000
Si Si2 0.247609 0.614562 0.360993
Si Si3 0.678903 0.525906 0.653302
Si Si4 0.500000 0.838688 0.750000
Si Si5 0.337548 0.643033 0.540424
Si Si6 0.667370 0.517825 0.856920
Si Si7 0.326653 0.392419 0.511685
Si Si8 0.255565 0.776059 0.631530
O O1 0.123035 0.135036 0.291565
O O2 0.088278 0.227192 0.175292
O O3 0.282085 0.541683 0.396503
O O4 0.245860 0.660272 0.449581
O O5 0.081400 0.614887 0.321836
O O6 0.743174 0.520403 0.756291
O O7 0.503785 0.535600 0.656309
O O8 0.742895 0.582641 0.584890
O O9 0.372795 0.793617 0.708452
O O10 0.264960 0.579053 0.587983
O O11 0.505156 0.629517 0.507103
O O12 0.314466 0.705274 0.603404
O O13 0.686100 0.448556 0.909647
O O14 0.239043 0.328688 0.549115
#
# Coordination Sequence:
#
# PCOD8246415 Si02
#       8
#     4   8   8   4   8   8   8   8
#     4  10  20  40  64  88 122 172 220 246 324 402
#     4  11  19  39  64  93 122 168 210 268 316 389
#     4  10  18  32  65  91 125 154 213 272 317 366
#     4  10  26  38  60  92 134 172 218 262 328 394
#     4  11  22  36  64  95 128 156 213 276 324 373
#     4  10  18  35  60  98 121 155 212 274 312 371
#     4  11  20  39  64  97 122 170 215 263 324 391
#     4  11  24  41  63  94 129 172 215 267 325 395
#
# _framework density 20.743735999999998
#
# number of rings (size 3 to 8) (size 9 to 14) (size 15 to 20)
#    0.000    1.429    4.286    3.429    2.000    2.286 
#    2.571    0.714    0.000    0.857    0.000    0.000 
#    0.000    0.000    0.000    0.000    0.000    0.000 
#
# Total GULP energy -693768.838477 kJ/mol
# GULP energy per Si atom -12388.729259 kJ/mol
# Density = 2.069652 g / cm^3
# Si number density = 20.743736 Si / 1000 Ang^3
#
#
#
# Elastic Constant Matrix: (Units=GPa)
#
#
# Indices 1 2 3 4 5 6 
#
# 1 64.8121 21.2596 29.5559 0.0000 0.0000 0.0000
# 2 21.2596 109.5403 39.1488 0.0000 0.0000 0.0000
# 3 29.5559 39.1488 113.3947 0.0000 0.0000 0.0000
# 4 0.0000 0.0000 0.0000 27.4872 0.0000 0.0000
# 5 0.0000 0.0000 0.0000 0.0000 20.2182 0.0000
# 6 0.0000 0.0000 0.0000 0.0000 0.0000 18.4270
#
#
#
# Elastic Compliance Matrix: (Units=1/GPa)
#
#
# Indices 1 2 3 4 5 6 
#
# 1 0.017910 -0.002062 -0.003956 0.000000 0.000000 0.000000
# 2 -0.002062 0.010651 -0.003140 0.000000 0.000000 0.000000
# 3 -0.003956 -0.003140 0.010934 0.000000 0.000000 0.000000
# 4 0.000000 0.000000 0.000000 0.036381 0.000000 0.000000
# 5 0.000000 0.000000 0.000000 0.000000 0.049460 0.000000
# 6 0.000000 0.000000 0.000000 0.000000 0.000000 0.054268
#
#
# Mechanical properties :
#
#
# Convention : Reuss Voigt Hill
#
# Bulk Modulus (GPa) = 47.21681 51.96399 49.59040
# Shear Modulus (GPa) = 24.39263 26.41201 25.40232
#
# Velocity S-wave (km/s) = 3.43287 3.57214 3.50319
# Velocity P-wave (km/s) = 6.20678 6.48987 6.34990
#
# Compressibility (1/GPa) = 0.02117890
#
# Stress axis : x y z
#
# Youngs Moduli (GPa) = 55.83557 93.88411 91.45828
#
# Poissons Ratio (x) = 0.19359 0.36183
# Poissons Ratio (y) = 0.11513 0.28717
# Poissons Ratio (z) = 0.22090 0.29479
#
# Static dielectric constant tensor:
#      x y z
#    x 3.548650 0.000000 0.000000 
#    y 0.000000 3.617210 0.000000 
#    z 0.000000 0.000000 4.384530 
# 
# 
# High freq. dielectric constant tensor:
#      x y z
#    x 1.768960 0.000000 0.000000 
#    y 0.000000 1.798070 0.000000 
#    z 0.000000 0.000000 1.836100 
# 
# From -- ./inp_files/15298.got.cif
#   From: 2010.03.12/outbox.cif.g09.slc.cpg/sg60_8_cif.got.tgz:15298.got - 2010.04.10 18:46:24.
