data_PCOD8246612
_publ_section_title
;
Structure prediction by ZEFSAII (Michael W. Deem and Ramdas Pophale) SiO2 
 PCOD8246612
Probable space group: P B C N
;
_chemical_formula_sum "Si O2"
_cell_formula_units_Z 48
_cell_length_a 15.675354
_cell_length_b 9.232975
_cell_length_c 15.826321
_cell_angle_alpha 90.000000
_cell_angle_beta 90.000000
_cell_angle_gamma 90.000000
_cell_volume 2290.545838
_symmetry_space_group_name_H-M "P B C N"
_symmetry_group_IT_number 60
_symmetry_cell_setting 'orthorhombic'
loop_
_space_group_symop_operation_xyz
x,y,z
1/2-x,1/2-y,1/2+z
1/2+x,1/2-y,-z
-x,y,1/2-z
-x,-y,-z
1/2+x,1/2+y,1/2-z
1/2-x,1/2+y,z
x,-y,1/2+z
loop_
_atom_site_type_symbol
_atom_site_label
_atom_site_fract_x
_atom_site_fract_y
_atom_site_fract_z
Si Si1 0.487177 0.371802 0.155116
Si Si2 0.338428 0.429221 0.413273
Si Si3 0.496513 0.057831 0.094291
Si Si4 0.334778 0.895785 0.110072
Si Si5 0.169759 0.063560 0.113112
Si Si6 0.679320 0.104415 0.091041
O O1 0.500000 0.314772 0.250000
O O2 0.568278 0.466267 0.123164
O O3 0.473404 0.230069 0.095895
O O4 0.407679 0.478969 0.155406
O O5 0.340869 0.448801 0.513174
O O6 0.312861 0.270182 0.383039
O O7 0.264542 0.529585 0.373764
O O8 0.592399 0.037562 0.132676
O O9 0.423748 0.966728 0.143280
O O10 0.500000 0.000000 0.000000
O O11 0.329754 0.730807 0.141943
O O12 0.256335 0.988937 0.146855
O O13 0.329367 0.908119 0.009434
#
# Coordination Sequence:
#
# PCOD8246612 Si02
#       6
#     8   8   8   8   8   8
#     4  11  23  38  54  81 120 155 188 236 289 338
#     4   9  18  33  54  79 107 145 185 227 276 332
#     4   9  18  35  58  84 112 149 191 235 287 341
#     4   9  17  31  56  84 108 142 191 237 279 332
#     4  10  19  34  57  85 114 148 190 235 281 339
#     4   8  16  29  51  83 110 135 181 234 277 324
#
# _framework density 20.955704000000001
#
# number of rings (size 3 to 8) (size 9 to 14) (size 15 to 20)
#    0.000    2.667    0.000    2.500    0.000    5.333 
#    0.000    7.500    0.000    0.000    0.000    0.000 
#    0.000    0.000    0.000    0.000    0.000    0.000 
#
# Total GULP energy -594914.470983 kJ/mol
# GULP energy per Si atom -12394.051479 kJ/mol
# Density = 2.090801 g / cm^3
# Si number density = 20.955704 Si / 1000 Ang^3
#
#
#
# Elastic Constant Matrix: (Units=GPa)
#
#
# Indices 1 2 3 4 5 6 
#
# 1 166.6745 89.5411 12.8634 0.0000 0.0000 0.0000
# 2 89.5411 137.3538 20.4882 0.0000 0.0000 0.0000
# 3 12.8634 20.4882 30.7437 0.0000 0.0000 0.0000
# 4 0.0000 0.0000 0.0000 10.3154 0.0000 0.0000
# 5 0.0000 0.0000 0.0000 0.0000 7.5375 0.0000
# 6 0.0000 0.0000 0.0000 0.0000 0.0000 46.5388
#
#
#
# Elastic Compliance Matrix: (Units=1/GPa)
#
#
# Indices 1 2 3 4 5 6 
#
# 1 0.009234 -0.006044 0.000164 0.000000 0.000000 0.000000
# 2 -0.006044 0.012040 -0.005495 0.000000 0.000000 0.000000
# 3 0.000164 -0.005495 0.036120 0.000000 0.000000 0.000000
# 4 0.000000 0.000000 0.000000 0.096942 0.000000 0.000000
# 5 0.000000 0.000000 0.000000 0.000000 0.132671 0.000000
# 6 0.000000 0.000000 0.000000 0.000000 0.000000 0.021487
#
#
# Mechanical properties :
#
#
# Convention : Reuss Voigt Hill
#
# Bulk Modulus (GPa) = 28.86424 64.50637 46.68530
# Shear Modulus (GPa) = 14.58606 27.00363 20.79484
#
# Velocity S-wave (km/s) = 2.64112 3.59361 3.15353
# Velocity P-wave (km/s) = 4.80672 6.93309 5.96541
#
# Compressibility (1/GPa) = 0.03464494
#
# Stress axis : x y z
#
# Youngs Moduli (GPa) = 108.29380 83.05384 27.68540
#
# Poissons Ratio (x) = 0.50200 -0.00455
# Poissons Ratio (y) = 0.65456 0.15213
# Poissons Ratio (z) = -0.01780 0.45638
#
# Static dielectric constant tensor:
#      x y z
#    x 4.404780 0.000000 0.000000 
#    y 0.000000 3.806390 0.000000 
#    z 0.000000 0.000000 3.186870 
# 
# 
# High freq. dielectric constant tensor:
#      x y z
#    x 1.844750 0.000000 0.000000 
#    y 0.000000 1.816650 0.000000 
#    z 0.000000 0.000000 1.766660 
# 
# From -- ./inp_files/20513.got.cif
#   From: 2010.03.12/outbox.cif.g09.slc.cpg/sg60_11_cif.got.tgz:20513.got - 2010.04.10 18:46:24.
