data_PCOD8246682
_publ_section_title
;
Structure prediction by ZEFSAII (Michael W. Deem and Ramdas Pophale) SiO2 
 PCOD8246682
Probable space group: P B C N
;
_chemical_formula_sum "Si O2"
_cell_formula_units_Z 48
_cell_length_a 10.093929
_cell_length_b 9.036477
_cell_length_c 27.818233
_cell_angle_alpha 90.000000
_cell_angle_beta 90.000000
_cell_angle_gamma 90.000000
_cell_volume 2537.399988
_symmetry_space_group_name_H-M "P B C N"
_symmetry_group_IT_number 60
_symmetry_cell_setting 'orthorhombic'
loop_
_space_group_symop_operation_xyz
x,y,z
1/2-x,1/2-y,1/2+z
1/2+x,1/2-y,-z
-x,y,1/2-z
-x,-y,-z
1/2+x,1/2+y,1/2-z
1/2-x,1/2+y,z
x,-y,1/2+z
loop_
_atom_site_type_symbol
_atom_site_label
_atom_site_fract_x
_atom_site_fract_y
_atom_site_fract_z
Si Si1 0.617042 0.320526 0.284098
Si Si2 0.425102 0.035870 0.611959
Si Si3 0.628927 0.406058 0.493319
Si Si4 0.174878 0.216566 0.607369
Si Si5 0.114055 0.576941 0.970336
Si Si6 0.886599 0.512837 0.781098
O O1 0.500000 0.388923 0.250000
O O2 0.597883 0.326770 0.342693
O O3 0.639967 0.155249 0.265494
O O4 0.749733 0.407081 0.273017
O O5 0.346407 0.888745 0.593247
O O6 0.454636 0.011272 0.667166
O O7 0.332456 0.182530 0.609483
O O8 0.565468 0.058122 0.584971
O O9 0.500000 0.500000 0.500000
O O10 0.627337 0.385728 0.436072
O O11 0.750563 0.495308 0.516576
O O12 0.625341 0.249990 0.520015
O O13 0.000000 0.500000 0.000000
O O14 0.000000 0.591028 0.750000
#
# Coordination Sequence:
#
# PCOD8246682 Si02
#       6
#     8   8   8   8   8   8
#     4   9  19  36  59  83 111 147 188 236 286 344
#     4  10  21  37  61  85 115 156 194 239 289 348
#     4  12  25  39  59  86 118 156 194 240 292 341
#     4  10  19  36  60  82 113 149 194 232 288 340
#     4  12  23  40  60  84 119 153 199 239 284 348
#     4   9  19  38  59  85 116 148 190 240 291 342
#
# _framework density 18.917002
#
# number of rings (size 3 to 8) (size 9 to 14) (size 15 to 20)
#    0.000    1.667    3.333    1.000    2.333    0.667 
#    3.000    1.667    0.000    0.000    0.000    0.000 
#    0.000    0.000    0.000    0.000    0.000    0.000 
#
# Total GULP energy -594645.351463 kJ/mol
# GULP energy per Si atom -12388.444822 kJ/mol
# Density = 1.887395 g / cm^3
# Si number density = 18.917002 Si / 1000 Ang^3
#
#
#
# Elastic Constant Matrix: (Units=GPa)
#
#
# Indices 1 2 3 4 5 6 
#
# 1 153.3121 70.4960 78.0038 0.0000 0.0000 0.0000
# 2 70.4960 114.0737 42.0993 0.0000 0.0000 0.0000
# 3 78.0038 42.0993 102.2989 0.0000 0.0000 0.0000
# 4 0.0000 0.0000 0.0000 21.3978 0.0000 0.0000
# 5 0.0000 0.0000 0.0000 0.0000 40.1188 0.0000
# 6 0.0000 0.0000 0.0000 0.0000 0.0000 33.5616
#
#
#
# Elastic Compliance Matrix: (Units=1/GPa)
#
#
# Indices 1 2 3 4 5 6 
#
# 1 0.012723 -0.005049 -0.007624 0.000000 0.000000 0.000000
# 2 -0.005049 0.012340 -0.001228 0.000000 0.000000 0.000000
# 3 -0.007624 -0.001228 0.016094 0.000000 0.000000 0.000000
# 4 0.000000 0.000000 0.000000 0.046734 0.000000 0.000000
# 5 0.000000 0.000000 0.000000 0.000000 0.024926 0.000000
# 6 0.000000 0.000000 0.000000 0.000000 0.000000 0.029796
#
#
# Mechanical properties :
#
#
# Convention : Reuss Voigt Hill
#
# Bulk Modulus (GPa) = 74.87944 83.43143 79.15544
# Shear Modulus (GPa) = 28.59326 30.95467 29.77397
#
# Velocity S-wave (km/s) = 3.89203 4.04956 3.97158
# Velocity P-wave (km/s) = 7.73733 8.12803 7.93509
#
# Compressibility (1/GPa) = 0.01335480
#
# Stress axis : x y z
#
# Youngs Moduli (GPa) = 78.59635 81.03798 62.13572
#
# Poissons Ratio (x) = 0.40918 0.47370
# Poissons Ratio (y) = 0.39685 0.07631
# Poissons Ratio (z) = 0.59919 0.09953
#
# Static dielectric constant tensor:
#      x y z
#    x 3.123270 0.000000 0.000000 
#    y 0.000000 3.766510 0.000000 
#    z 0.000000 0.000000 3.975030 
# 
# 
# High freq. dielectric constant tensor:
#      x y z
#    x 1.721100 0.000000 0.000000 
#    y 0.000000 1.741680 0.000000 
#    z 0.000000 0.000000 1.744130 
# 
# From -- ./inp_files/25902.got.cif
#   From: 2010.03.12/outbox.cif.g09.slc.cpg/sg60_13_cif.got.tgz:25902.got - 2010.04.10 18:46:24.
