data_PCOD8246719
_publ_section_title
;
Structure prediction by ZEFSAII (Michael W. Deem and Ramdas Pophale) SiO2 
 PCOD8246719
Probable space group: P B C N
;
_chemical_formula_sum "Si O2"
_cell_formula_units_Z 52
_cell_length_a 10.756398
_cell_length_b 17.387029
_cell_length_c 14.471133
_cell_angle_alpha 90.000000
_cell_angle_beta 90.000000
_cell_angle_gamma 90.000000
_cell_volume 2706.417399
_symmetry_space_group_name_H-M "P B C N"
_symmetry_group_IT_number 60
_symmetry_cell_setting 'orthorhombic'
loop_
_space_group_symop_operation_xyz
x,y,z
1/2-x,1/2-y,1/2+z
1/2+x,1/2-y,-z
-x,y,1/2-z
-x,-y,-z
1/2+x,1/2+y,1/2-z
1/2-x,1/2+y,z
x,-y,1/2+z
loop_
_atom_site_type_symbol
_atom_site_label
_atom_site_fract_x
_atom_site_fract_y
_atom_site_fract_z
Si Si1 0.181846 0.356854 0.678308
Si Si2 0.628465 0.319113 0.299946
Si Si3 0.094697 0.907589 0.021693
Si Si4 0.500000 0.026642 0.250000
Si Si5 0.682256 0.426018 0.989770
Si Si6 0.376180 0.416955 0.808526
Si Si7 0.231202 0.566383 0.818511
O O1 0.132097 0.271608 0.687258
O O2 0.067138 0.417557 0.674785
O O3 0.271565 0.370038 0.590830
O O4 0.261517 0.368796 0.770298
O O5 0.500000 0.342514 0.250000
O O6 0.648053 0.347736 0.405036
O O7 0.740787 0.355737 0.239194
O O8 0.947529 0.902954 0.036337
O O9 0.116096 0.888465 0.914143
O O10 0.160308 0.988094 0.050058
O O11 0.400488 0.970304 0.294806
O O12 0.781584 0.418167 0.072058
O O13 0.500000 0.399883 0.750000
O O14 0.345511 0.507433 0.800875
#
# Coordination Sequence:
#
# PCOD8246719 Si02
#       7
#     8   8   8   4   8   8   8
#     4  11  23  39  60  88 133 163 198 244 325 371
#     4  12  23  40  61  89 125 164 201 258 305 378
#     4  10  20  36  63  96 116 148 216 258 301 347
#     4  10  22  42  60  90 122 172 198 254 306 374
#     4  10  20  37  64  92 115 158 205 261 299 361
#     4  10  19  37  64  91 117 156 205 263 296 359
#     4  10  22  38  66  89 121 158 213 251 304 361
#
# _framework density 19.213591999999998
#
# number of rings (size 3 to 8) (size 9 to 14) (size 15 to 20)
#    0.000    1.538    3.846    2.308    2.154    1.846 
#    1.385    3.077    0.000    0.000    0.000    0.000 
#    0.000    0.000    0.000    0.000    0.000    0.000 
#
# Total GULP energy -644523.086004 kJ/mol
# GULP energy per Si atom -12394.674731 kJ/mol
# Density = 1.916986 g / cm^3
# Si number density = 19.213592 Si / 1000 Ang^3
#
#
#
# Elastic Constant Matrix: (Units=GPa)
#
#
# Indices 1 2 3 4 5 6 
#
# 1 86.5758 42.8537 41.6723 0.0000 0.0000 0.0000
# 2 42.8537 66.6865 20.6752 0.0000 0.0000 0.0000
# 3 41.6723 20.6752 79.9923 0.0000 0.0000 0.0000
# 4 0.0000 0.0000 0.0000 17.9751 0.0000 0.0000
# 5 0.0000 0.0000 0.0000 0.0000 12.2749 0.0000
# 6 0.0000 0.0000 0.0000 0.0000 0.0000 22.8705
#
#
#
# Elastic Compliance Matrix: (Units=1/GPa)
#
#
# Indices 1 2 3 4 5 6 
#
# 1 0.020796 -0.010876 -0.008022 0.000000 0.000000 0.000000
# 2 -0.010876 0.021990 -0.000018 0.000000 0.000000 0.000000
# 3 -0.008022 -0.000018 0.016685 0.000000 0.000000 0.000000
# 4 0.000000 0.000000 0.000000 0.055633 0.000000 0.000000
# 5 0.000000 0.000000 0.000000 0.000000 0.081467 0.000000
# 6 0.000000 0.000000 0.000000 0.000000 0.000000 0.043724
#
#
# Mechanical properties :
#
#
# Convention : Reuss Voigt Hill
#
# Bulk Modulus (GPa) = 46.21454 49.29523 47.75489
# Shear Modulus (GPa) = 17.52288 19.16099 18.34194
#
# Velocity S-wave (km/s) = 3.02322 3.16137 3.09307
# Velocity P-wave (km/s) = 6.02426 6.24803 6.13716
#
# Compressibility (1/GPa) = 0.02163821
#
# Stress axis : x y z
#
# Youngs Moduli (GPa) = 48.08670 45.47451 59.93374
#
# Poissons Ratio (x) = 0.49460 0.48082
# Poissons Ratio (y) = 0.52301 0.00106
# Poissons Ratio (z) = 0.38577 0.00080
#
# Static dielectric constant tensor:
#      x y z
#    x 3.475450 0.000000 0.000000 
#    y 0.000000 3.321070 0.000000 
#    z 0.000000 0.000000 3.599640 
# 
# 
# High freq. dielectric constant tensor:
#      x y z
#    x 1.740820 0.000000 0.000000 
#    y 0.000000 1.726740 0.000000 
#    z 0.000000 0.000000 1.759300 
# 
# From -- ./inp_files/16313.got.cif
#   From: 2010.03.12/outbox.cif.g09.slc.cpg/sg60_9_cif.got.tgz:16313.got - 2010.04.10 18:46:24.
