data_PCOD8246927
_publ_section_title
;
Structure prediction by ZEFSAII (Michael W. Deem and Ramdas Pophale) SiO2 
 PCOD8246927
Probable space group: P B C N
;
_chemical_formula_sum "Si O2"
_cell_formula_units_Z 40
_cell_length_a 26.379908
_cell_length_b 16.321844
_cell_length_c 5.110784
_cell_angle_alpha 90.000000
_cell_angle_beta 90.000000
_cell_angle_gamma 90.000000
_cell_volume 2200.543843
_symmetry_space_group_name_H-M "P B C N"
_symmetry_group_IT_number 60
_symmetry_cell_setting 'orthorhombic'
loop_
_space_group_symop_operation_xyz
x,y,z
1/2-x,1/2-y,1/2+z
1/2+x,1/2-y,-z
-x,y,1/2-z
-x,-y,-z
1/2+x,1/2+y,1/2-z
1/2-x,1/2+y,z
x,-y,1/2+z
loop_
_atom_site_type_symbol
_atom_site_label
_atom_site_fract_x
_atom_site_fract_y
_atom_site_fract_z
Si Si1 0.388456 0.201602 0.786964
Si Si2 0.560335 0.452597 0.252433
Si Si3 0.675005 0.945803 0.299843
Si Si4 0.059667 0.233697 0.785040
Si Si5 0.722698 0.781998 0.276218
O O1 0.377734 0.104919 0.734067
O O2 0.427563 0.236706 0.576038
O O3 0.334795 0.250549 0.771440
O O4 0.411923 0.210032 0.074668
O O5 0.500000 0.455071 0.250000
O O6 0.582371 0.498781 0.504602
O O7 0.578924 0.359157 0.252094
O O8 0.721842 0.881708 0.267767
O O9 0.678163 0.982437 0.589328
O O10 0.000000 0.241423 0.750000
O O11 0.739291 0.752633 0.561855
#
# Coordination Sequence:
#
# PCOD8246927 Si02
#       5
#     8   8   8   8   8
#     4  10  22  34  59  84 112 149 188 240 272 339
#     4   9  17  29  48  72  99 139 190 230 263 319
#     4  10  20  36  61  86 109 145 191 228 269 343
#     4  11  20  35  55  82 114 153 197 236 278 328
#     4  10  20  36  61  86 109 140 180 236 279 337
#
# _framework density 18.177325
#
# number of rings (size 3 to 8) (size 9 to 14) (size 15 to 20)
#    1.200    0.800    0.000    5.400    0.000    3.200 
#    0.000    0.000    0.000   36.000    0.000    0.000 
#    0.000    0.000    0.000    0.000    0.000    0.000 
#
# Total GULP energy -495858.157650 kJ/mol
# GULP energy per Si atom -12396.453941 kJ/mol
# Density = 1.813595 g / cm^3
# Si number density = 18.177325 Si / 1000 Ang^3
#
#
#
# Elastic Constant Matrix: (Units=GPa)
#
#
# Indices 1 2 3 4 5 6 
#
# 1 56.7958 18.4061 7.7252 0.0000 0.0000 0.0000
# 2 18.4061 90.8234 17.8908 0.0000 0.0000 0.0000
# 3 7.7252 17.8908 90.7061 0.0000 0.0000 0.0000
# 4 0.0000 0.0000 0.0000 34.1116 0.0000 0.0000
# 5 0.0000 0.0000 0.0000 0.0000 33.8024 0.0000
# 6 0.0000 0.0000 0.0000 0.0000 0.0000 24.6324
#
#
#
# Elastic Compliance Matrix: (Units=1/GPa)
#
#
# Indices 1 2 3 4 5 6 
#
# 1 0.018913 -0.003658 -0.000889 0.000000 0.000000 0.000000
# 2 -0.003658 0.012163 -0.002087 0.000000 0.000000 0.000000
# 3 -0.000889 -0.002087 0.011512 0.000000 0.000000 0.000000
# 4 0.000000 0.000000 0.000000 0.029316 0.000000 0.000000
# 5 0.000000 0.000000 0.000000 0.000000 0.029584 0.000000
# 6 0.000000 0.000000 0.000000 0.000000 0.000000 0.040597
#
#
# Mechanical properties :
#
#
# Convention : Reuss Voigt Hill
#
# Bulk Modulus (GPa) = 34.10747 36.26329 35.18538
# Shear Modulus (GPa) = 30.27979 31.46282 30.87131
#
# Velocity S-wave (km/s) = 4.08585 4.16490 4.12556
# Velocity P-wave (km/s) = 6.40807 6.56670 6.48787
#
# Compressibility (1/GPa) = 0.02931909
#
# Stress axis : x y z
#
# Youngs Moduli (GPa) = 52.87289 82.21756 86.86522
#
# Poissons Ratio (x) = 0.30073 0.07725
# Poissons Ratio (y) = 0.19340 0.18133
# Poissons Ratio (z) = 0.04702 0.17163
#
# Static dielectric constant tensor:
#      x y z
#    x 3.036480 0.000000 0.000000 
#    y 0.000000 3.306870 0.000000 
#    z 0.000000 0.000000 3.356740 
# 
# 
# High freq. dielectric constant tensor:
#      x y z
#    x 1.672000 0.000000 0.000000 
#    y 0.000000 1.699780 0.000000 
#    z 0.000000 0.000000 1.723920 
# 
# From -- ./inp_files/2300.got.cif
#   From: 2010.03.12/outbox.cif.g09.slc.cpg/sg60_2_cif.got.tgz:2300.got - 2010.04.10 18:46:24.
