data_PCOD8246518
_publ_section_title
;
Structure prediction by ZEFSAII (Michael W. Deem and Ramdas Pophale) SiO2 
 PCOD8246518
Probable space group: P B C N
;
_chemical_formula_sum "Si O2"
_cell_formula_units_Z 56
_cell_length_a 19.589204
_cell_length_b 9.261962
_cell_length_c 16.044421
_cell_angle_alpha 90.000000
_cell_angle_beta 90.000000
_cell_angle_gamma 90.000000
_cell_volume 2911.010909
_symmetry_space_group_name_H-M "P B C N"
_symmetry_group_IT_number 60
_symmetry_cell_setting 'orthorhombic'
loop_
_space_group_symop_operation_xyz
x,y,z
1/2-x,1/2-y,1/2+z
1/2+x,1/2-y,-z
-x,y,1/2-z
-x,-y,-z
1/2+x,1/2+y,1/2-z
1/2-x,1/2+y,z
x,-y,1/2+z
loop_
_atom_site_type_symbol
_atom_site_label
_atom_site_fract_x
_atom_site_fract_y
_atom_site_fract_z
Si Si1 0.315955 0.367464 0.767635
Si Si2 0.164436 0.226315 0.932141
Si Si3 0.104907 0.831177 0.091873
Si Si4 0.552450 0.383460 0.820462
Si Si5 0.017744 0.830776 0.509154
Si Si6 0.182558 0.795941 0.245473
Si Si7 0.211771 0.911693 0.953739
O O1 0.385361 0.304102 0.726891
O O2 0.306772 0.532870 0.741010
O O3 0.254838 0.277265 0.728470
O O4 0.318505 0.347981 0.867374
O O5 0.091397 0.213874 0.974827
O O6 0.150559 0.248685 0.833900
O O7 0.209431 0.360884 0.965715
O O8 0.210091 0.084753 0.949876
O O9 0.131651 0.741501 0.171959
O O10 0.042161 0.750547 0.043768
O O11 0.079883 0.983563 0.126561
O O12 0.167168 0.852512 0.028918
O O13 0.500000 0.435997 0.750000
O O14 0.516531 0.284880 0.892371
O O15 0.000000 0.000000 0.500000
#
# Coordination Sequence:
#
# PCOD8246518 Si02
#       7
#     8   8   8   8   8   8   8
#     4   9  19  34  50  78 107 138 173 212 264 316
#     4  10  20  35  53  79 109 140 173 220 266 320
#     4  10  20  29  53  76 107 135 174 223 266 305
#     4  10  19  29  51  79 108 134 174 224 265 306
#     4  10  19  31  50  78 105 133 178 221 266 301
#     4   9  20  32  52  78 106 137 174 215 264 312
#     4  10  19  34  52  79 109 140 174 218 265 318
#
# _framework density 19.237302
#
# number of rings (size 3 to 8) (size 9 to 14) (size 15 to 20)
#    0.000    2.286    2.857    0.857   12.000    0.000 
#    0.000    0.000    0.000    0.857   14.857    0.000 
#    0.000    0.000    0.000    0.000    0.000    0.000 
#
# Total GULP energy -693868.052416 kJ/mol
# GULP energy per Si atom -12390.500936 kJ/mol
# Density = 1.919352 g / cm^3
# Si number density = 19.237302 Si / 1000 Ang^3
#
#
#
# Elastic Constant Matrix: (Units=GPa)
#
#
# Indices 1 2 3 4 5 6 
#
# 1 122.5343 18.4395 77.8519 0.0000 0.0000 0.0000
# 2 18.4395 19.5932 14.9760 0.0000 0.0000 0.0000
# 3 77.8519 14.9760 136.5213 0.0000 0.0000 0.0000
# 4 0.0000 0.0000 0.0000 9.4186 0.0000 0.0000
# 5 0.0000 0.0000 0.0000 0.0000 46.8398 0.0000
# 6 0.0000 0.0000 0.0000 0.0000 0.0000 26.4870
#
#
#
# Elastic Compliance Matrix: (Units=1/GPa)
#
#
# Indices 1 2 3 4 5 6 
#
# 1 0.013759 -0.007588 -0.007014 0.000000 0.000000 0.000000
# 2 -0.007588 0.059894 -0.002243 0.000000 0.000000 0.000000
# 3 -0.007014 -0.002243 0.011571 0.000000 0.000000 0.000000
# 4 0.000000 0.000000 0.000000 0.106173 0.000000 0.000000
# 5 0.000000 0.000000 0.000000 0.000000 0.021349 0.000000
# 6 0.000000 0.000000 0.000000 0.000000 0.000000 0.037754
#
#
# Mechanical properties :
#
#
# Convention : Reuss Voigt Hill
#
# Bulk Modulus (GPa) = 19.40476 55.68707 37.54592
# Shear Modulus (GPa) = 16.59102 27.70783 22.14942
#
# Velocity S-wave (km/s) = 2.93992 3.79927 3.39688
# Velocity P-wave (km/s) = 4.65114 6.94667 5.91140
#
# Compressibility (1/GPa) = 0.05153375
#
# Stress axis : x y z
#
# Youngs Moduli (GPa) = 72.67949 16.69621 86.42619
#
# Poissons Ratio (x) = 0.12669 0.60617
# Poissons Ratio (y) = 0.55149 0.19386
# Poissons Ratio (z) = 0.50976 0.03745
#
# Static dielectric constant tensor:
#      x y z
#    x 4.030000 0.000000 0.000000 
#    y 0.000000 3.006200 0.000000 
#    z 0.000000 0.000000 3.605020 
# 
# 
# High freq. dielectric constant tensor:
#      x y z
#    x 1.756240 0.000000 0.000000 
#    y 0.000000 1.674880 0.000000 
#    z 0.000000 0.000000 1.777210 
# 
# From -- ./inp_files/20917.got.cif
#   From: 2010.03.12/outbox.cif.g09.slc.cpg/sg60_11_cif.got.tgz:20917.got - 2010.04.10 18:46:24.
