data_PCOD8246815
_publ_section_title
;
Structure prediction by ZEFSAII (Michael W. Deem and Ramdas Pophale) SiO2 
 PCOD8246815
Probable space group: P B C N
;
_chemical_formula_sum "Si O2"
_cell_formula_units_Z 48
_cell_length_a 11.674969
_cell_length_b 11.615917
_cell_length_c 18.345744
_cell_angle_alpha 90.000000
_cell_angle_beta 90.000000
_cell_angle_gamma 90.000000
_cell_volume 2487.966711
_symmetry_space_group_name_H-M "P B C N"
_symmetry_group_IT_number 60
_symmetry_cell_setting 'orthorhombic'
loop_
_space_group_symop_operation_xyz
x,y,z
1/2-x,1/2-y,1/2+z
1/2+x,1/2-y,-z
-x,y,1/2-z
-x,-y,-z
1/2+x,1/2+y,1/2-z
1/2-x,1/2+y,z
x,-y,1/2+z
loop_
_atom_site_type_symbol
_atom_site_label
_atom_site_fract_x
_atom_site_fract_y
_atom_site_fract_z
Si Si1 0.547162 0.757687 0.945587
Si Si2 0.187346 0.521317 0.075028
Si Si3 0.600876 0.313243 0.608418
Si Si4 0.448434 0.509920 0.581376
Si Si5 0.509629 0.080484 0.665760
Si Si6 0.160669 0.592738 0.421388
O O1 0.633487 0.852448 0.913659
O O2 0.545828 0.643930 0.894487
O O3 0.419090 0.804755 0.949906
O O4 0.588464 0.723006 0.025014
O O5 0.319081 0.530191 0.096616
O O6 0.112784 0.431581 0.123732
O O7 0.190265 0.484927 0.990786
O O8 0.524815 0.424693 0.630390
O O9 0.562305 0.207909 0.658745
O O10 0.732289 0.349781 0.619562
O O11 0.500000 0.500000 0.500000
O O12 0.500000 0.051401 0.750000
O O13 0.598160 0.987750 0.635871
#
# Coordination Sequence:
#
# PCOD8246815 Si02
#       6
#     8   8   8   8   8   8
#     4  10  20  33  58  94 122 150 194 261 313 362
#     4  11  20  38  64  89 125 161 206 258 317 369
#     4  11  22  35  64  89 127 154 203 263 317 367
#     4  10  22  31  57  99 124 145 195 262 316 363
#     4  11  25  45  61  86 127 176 214 251 319 395
#     4  11  21  38  65  91 119 163 207 262 313 365
#
# _framework density 19.292863000000001
#
# number of rings (size 3 to 8) (size 9 to 14) (size 15 to 20)
#    0.000    1.333    6.667    1.000    9.333    0.000 
#    3.000    0.000    0.000    4.000    0.000    0.000 
#    0.000    0.000    0.000    0.000    0.000    0.000 
#
# Total GULP energy -595009.130789 kJ/mol
# GULP energy per Si atom -12396.023558 kJ/mol
# Density = 1.924895 g / cm^3
# Si number density = 19.292863 Si / 1000 Ang^3
#
#
#
# Elastic Constant Matrix: (Units=GPa)
#
#
# Indices 1 2 3 4 5 6 
#
# 1 138.7072 34.2048 -3.7595 0.0000 0.0000 0.0000
# 2 34.2048 112.9215 -1.7838 0.0000 0.0000 0.0000
# 3 -3.7595 -1.7838 51.3029 0.0000 0.0000 0.0000
# 4 0.0000 0.0000 0.0000 5.8539 0.0000 0.0000
# 5 0.0000 0.0000 0.0000 0.0000 2.0383 0.0000
# 6 0.0000 0.0000 0.0000 0.0000 0.0000 28.6946
#
#
#
# Elastic Compliance Matrix: (Units=1/GPa)
#
#
# Indices 1 2 3 4 5 6 
#
# 1 0.007804 -0.002356 0.000490 0.000000 0.000000 0.000000
# 2 -0.002356 0.009572 0.000160 0.000000 0.000000 0.000000
# 3 0.000490 0.000160 0.019534 0.000000 0.000000 0.000000
# 4 0.000000 0.000000 0.000000 0.170827 0.000000 0.000000
# 5 0.000000 0.000000 0.000000 0.000000 0.490615 0.000000
# 6 0.000000 0.000000 0.000000 0.000000 0.000000 0.034850
#
#
# Mechanical properties :
#
#
# Convention : Reuss Voigt Hill
#
# Bulk Modulus (GPa) = 29.85320 40.02828 34.94074
# Shear Modulus (GPa) = 6.68646 25.60201 16.14424
#
# Velocity S-wave (km/s) = 1.86368 3.64678 2.89589
# Velocity P-wave (km/s) = 4.48758 6.20683 5.41586
#
# Compressibility (1/GPa) = 0.03349724
#
# Stress axis : x y z
#
# Youngs Moduli (GPa) = 128.14418 104.47234 51.19395
#
# Poissons Ratio (x) = 0.24614 -0.02508
# Poissons Ratio (y) = 0.30192 -0.00820
# Poissons Ratio (z) = -0.06278 -0.01673
#
# Static dielectric constant tensor:
#      x y z
#    x 3.835830 0.000000 0.000000 
#    y 0.000000 4.386770 0.000000 
#    z 0.000000 0.000000 2.991850 
# 
# 
# High freq. dielectric constant tensor:
#      x y z
#    x 1.766570 0.000000 0.000000 
#    y 0.000000 1.773640 0.000000 
#    z 0.000000 0.000000 1.687550 
# 
# From -- ./inp_files/20008.got.cif
#   From: 2010.03.12/outbox.cif.g09.slc.cpg/sg60_11_cif.got.tgz:20008.got - 2010.04.10 18:46:24.
