data_PCOD8246212
_publ_section_title
;
Structure prediction by ZEFSAII (Michael W. Deem and Ramdas Pophale) SiO2 
 PCOD8246212
Probable space group: P M M N
;
_chemical_formula_sum "Si O2"
_cell_formula_units_Z 56
_cell_length_a 9.202273
_cell_length_b 18.047235
_cell_length_c 20.552638
_cell_angle_alpha 90.000000
_cell_angle_beta 90.000000
_cell_angle_gamma 90.000000
_cell_volume 3413.291346
_symmetry_space_group_name_H-M "P M M N"
_symmetry_group_IT_number 59
_space_group.IT_coordinate_system_code '2'
_symmetry_cell_setting 'orthorhombic'
loop_
_space_group_symop_operation_xyz
x,y,z
1/2-x,1/2-y,z
1/2+x,-y,-z
-x,1/2+y,-z
-x,-y,-z
1/2+x,1/2+y,-z
1/2-x,y,z
x,1/2-y,z
loop_
_atom_site_type_symbol
_atom_site_label
_atom_site_fract_x
_atom_site_fract_y
_atom_site_fract_z
Si Si1 0.086596 0.391957 0.014264
Si Si2 0.913398 0.168631 0.124888
Si Si3 0.421670 0.529683 0.792979
Si Si4 0.081073 0.064931 0.536622
Si Si5 0.078828 0.664717 0.551396
Si Si6 0.582610 0.037941 0.351363
Si Si7 0.414341 0.957325 0.095204
O O1 0.250000 0.367419 0.998057
O O2 0.999314 0.395434 0.946370
O O3 0.083173 0.468787 0.052766
O O4 0.013173 0.331790 0.060981
O O5 0.750000 0.149696 0.101807
O O6 0.923579 0.250000 0.156722
O O7 0.961430 0.110777 0.179720
O O8 0.250000 0.512541 0.795238
O O9 0.487773 0.528914 0.719942
O O10 0.503896 0.468346 0.836117
O O11 0.250000 0.068306 0.517028
O O12 0.003373 0.142065 0.516118
O O13 0.063063 0.041598 0.612369
O O14 0.000000 0.000000 0.500000
O O15 0.250000 0.653889 0.539913
O O16 0.041578 0.750000 0.568921
O O17 0.020127 0.609031 0.608162
O O18 0.750000 0.057025 0.340591
O O19 0.250000 0.931027 0.108820
#
# Coordination Sequence:
#
# PCOD8246212 Si02
#       7
#     8   8   8   8   8   8   8
#     4   9  16  26  41  58  76 103 137 171 206 242
#     4   9  17  27  39  58  84 112 140 170 205 247
#     4   9  16  27  42  60  84 113 144 173 205 251
#     4   9  16  28  45  64  87 115 149 187 226 264
#     4   9  17  29  45  66  91 118 150 187 225 264
#     4   8  15  27  43  63  87 117 149 181 217 259
#     4   9  16  26  40  59  81 102 130 171 213 245
#
# _framework density 16.406451000000001
#
# number of rings (size 3 to 8) (size 9 to 14) (size 15 to 20)
#    0.000    3.143    0.000    2.143    0.000    4.571 
#    0.000    6.429    0.000    0.000    0.000    7.000 
#    0.000    5.714    0.000    0.000    0.000    0.000 
#
# Total GULP energy -693890.607105 kJ/mol
# GULP energy per Si atom -12390.903698 kJ/mol
# Density = 1.636911 g / cm^3
# Si number density = 16.406451 Si / 1000 Ang^3
#
#
#
# Elastic Constant Matrix: (Units=GPa)
#
#
# Indices 1 2 3 4 5 6 
#
# 1 76.3684 18.6517 46.3369 0.0000 0.0000 0.0000
# 2 18.6517 28.0662 38.7019 0.0000 0.0000 0.0000
# 3 46.3369 38.7019 123.9963 0.0000 0.0000 0.0000
# 4 0.0000 0.0000 0.0000 16.8087 0.0000 0.0000
# 5 0.0000 0.0000 0.0000 0.0000 21.0660 0.0000
# 6 0.0000 0.0000 0.0000 0.0000 0.0000 19.7623
#
#
#
# Elastic Compliance Matrix: (Units=1/GPa)
#
#
# Indices 1 2 3 4 5 6 
#
# 1 0.017255 -0.004521 -0.005037 0.000000 0.000000 0.000000
# 2 -0.004521 0.063737 -0.018204 0.000000 0.000000 0.000000
# 3 -0.005037 -0.018204 0.015629 0.000000 0.000000 0.000000
# 4 0.000000 0.000000 0.000000 0.059493 0.000000 0.000000
# 5 0.000000 0.000000 0.000000 0.000000 0.047470 0.000000
# 6 0.000000 0.000000 0.000000 0.000000 0.000000 0.050601
#
#
# Mechanical properties :
#
#
# Convention : Reuss Voigt Hill
#
# Bulk Modulus (GPa) = 24.33302 48.42355 36.37828
# Shear Modulus (GPa) = 15.46031 19.84343 17.65187
#
# Velocity S-wave (km/s) = 3.07307 3.48154 3.28367
# Velocity P-wave (km/s) = 5.23978 6.76318 6.04962
#
# Compressibility (1/GPa) = 0.04109642
#
# Stress axis : x y z
#
# Youngs Moduli (GPa) = 57.95489 15.68939 63.98386
#
# Poissons Ratio (x) = 0.07094 0.32228
# Poissons Ratio (y) = 0.26203 1.16478
# Poissons Ratio (z) = 0.29191 0.28561
#
# Static dielectric constant tensor:
#      x y z
#    x 3.163260 0.000000 0.000000 
#    y 0.000000 3.018550 0.000000 
#    z 0.000000 0.000000 3.267220 
# 
# 
# High freq. dielectric constant tensor:
#      x y z
#    x 1.626610 0.000000 0.000000 
#    y 0.000000 1.595610 0.000000 
#    z 0.000000 0.000000 1.617610 
# 
# From -- ./inp_files/26058.got.cif
#   From: 2010.03.12/outbox.cif.g09.slc.cpg/sg59_14_cif.got.tgz:26058.got - 2010.04.16 16:29:54.
