data_PCOD8246840
_publ_section_title
;
Structure prediction by ZEFSAII (Michael W. Deem and Ramdas Pophale) SiO2 
 PCOD8246840
Probable space group: P B C N
;
_chemical_formula_sum "Si O2"
_cell_formula_units_Z 44
_cell_length_a 11.317656
_cell_length_b 15.747613
_cell_length_c 13.462234
_cell_angle_alpha 90.000000
_cell_angle_beta 90.000000
_cell_angle_gamma 90.000000
_cell_volume 2399.321016
_symmetry_space_group_name_H-M "P B C N"
_symmetry_group_IT_number 60
_symmetry_cell_setting 'orthorhombic'
loop_
_space_group_symop_operation_xyz
x,y,z
1/2-x,1/2-y,1/2+z
1/2+x,1/2-y,-z
-x,y,1/2-z
-x,-y,-z
1/2+x,1/2+y,1/2-z
1/2-x,1/2+y,z
x,-y,1/2+z
loop_
_atom_site_type_symbol
_atom_site_label
_atom_site_fract_x
_atom_site_fract_y
_atom_site_fract_z
Si Si1 0.500000 0.983046 0.750000
Si Si2 0.116138 0.788544 0.384725
Si Si3 0.306144 0.965546 0.119421
Si Si4 0.715149 0.143170 0.458520
Si Si5 0.345797 0.305082 0.157072
Si Si6 0.951608 0.614061 0.049438
O O1 0.532523 0.923085 0.658769
O O2 0.611871 0.040400 0.781942
O O3 0.193997 0.853870 0.449411
O O4 0.165400 0.788575 0.273719
O O5 0.129859 0.696911 0.436739
O O6 0.978624 0.812506 0.382874
O O7 0.206140 0.895936 0.127980
O O8 0.251032 0.059939 0.107162
O O9 0.387737 0.951818 0.022567
O O10 0.726870 0.228070 0.392181
O O11 0.579777 0.136970 0.496801
#
# Coordination Sequence:
#
# PCOD8246840 Si02
#       6
#     4   8   8   8   8   8
#     4  10  20  34  58  84 116 146 190 236 284 322
#     4  10  20  38  60  77 117 150 184 224 290 349
#     4  11  22  35  60  87 113 143 194 238 278 331
#     4  10  20  37  58  82 114 144 187 236 278 328
#     4  10  22  38  56  84 111 154 186 225 286 344
#     4  10  20  37  57  89 109 147 187 240 283 329
#
# _framework density 18.338519999999999
#
# number of rings (size 3 to 8) (size 9 to 14) (size 15 to 20)
#    0.000    1.818    1.818    5.455    5.091    0.727 
#    0.000    0.000    0.000    2.182    0.000    0.000 
#    0.000    0.000    0.000    0.000    0.000    0.000 
#
# Total GULP energy -545519.790890 kJ/mol
# GULP energy per Si atom -12398.177066 kJ/mol
# Density = 1.829678 g / cm^3
# Si number density = 18.338520 Si / 1000 Ang^3
#
#
#
# Elastic Constant Matrix: (Units=GPa)
#
#
# Indices 1 2 3 4 5 6 
#
# 1 66.1474 45.8648 57.1742 0.0000 0.0000 0.0000
# 2 45.8648 112.5758 40.1487 0.0000 0.0000 0.0000
# 3 57.1742 40.1487 97.2149 0.0000 0.0000 0.0000
# 4 0.0000 0.0000 0.0000 24.8767 0.0000 0.0000
# 5 0.0000 0.0000 0.0000 0.0000 33.2113 0.0000
# 6 0.0000 0.0000 0.0000 0.0000 0.0000 30.9931
#
#
#
# Elastic Compliance Matrix: (Units=1/GPa)
#
#
# Indices 1 2 3 4 5 6 
#
# 1 0.036545 -0.008471 -0.017994 0.000000 0.000000 0.000000
# 2 -0.008471 0.012381 -0.000131 0.000000 0.000000 0.000000
# 3 -0.017994 -0.000131 0.020923 0.000000 0.000000 0.000000
# 4 0.000000 0.000000 0.000000 0.040198 0.000000 0.000000
# 5 0.000000 0.000000 0.000000 0.000000 0.030110 0.000000
# 6 0.000000 0.000000 0.000000 0.000000 0.000000 0.032265
#
#
# Mechanical properties :
#
#
# Convention : Reuss Voigt Hill
#
# Bulk Modulus (GPa) = 60.03860 62.47927 61.25893
# Shear Modulus (GPa) = 21.62931 26.66627 24.14779
#
# Velocity S-wave (km/s) = 3.43803 3.81742 3.63268
# Velocity P-wave (km/s) = 6.96923 7.31944 7.14648
#
# Compressibility (1/GPa) = 0.01665595
#
# Stress axis : x y z
#
# Youngs Moduli (GPa) = 27.36374 80.76911 47.79352
#
# Poissons Ratio (x) = 0.68423 0.86000
# Poissons Ratio (y) = 0.23181 0.00626
# Poissons Ratio (z) = 0.49239 0.01058
#
# Static dielectric constant tensor:
#      x y z
#    x 3.321380 0.000000 0.000000 
#    y 0.000000 3.497240 0.000000 
#    z 0.000000 0.000000 3.348410 
# 
# 
# High freq. dielectric constant tensor:
#      x y z
#    x 1.695120 0.000000 0.000000 
#    y 0.000000 1.720880 0.000000 
#    z 0.000000 0.000000 1.711880 
# 
# From -- ./inp_files/14897.got.cif
#   From: 2010.03.12/outbox.cif.g09.slc.cpg/sg60_8_cif.got.tgz:14897.got - 2010.04.10 18:46:24.
