data_PCOD8246015
_publ_section_title
;
Structure prediction by ZEFSAII (Michael W. Deem and Ramdas Pophale) SiO2 
 PCOD8246015
Probable space group: P M M N
;
_chemical_formula_sum "Si O2"
_cell_formula_units_Z 48
_cell_length_a 10.211366
_cell_length_b 8.630547
_cell_length_c 29.334916
_cell_angle_alpha 90.000000
_cell_angle_beta 90.000000
_cell_angle_gamma 90.000000
_cell_volume 2585.276590
_symmetry_space_group_name_H-M "P M M N"
_symmetry_group_IT_number 59
_space_group.IT_coordinate_system_code '2'
_symmetry_cell_setting 'orthorhombic'
loop_
_space_group_symop_operation_xyz
x,y,z
1/2-x,1/2-y,z
1/2+x,-y,-z
-x,1/2+y,-z
-x,-y,-z
1/2+x,1/2+y,-z
1/2-x,y,z
x,1/2-y,z
loop_
_atom_site_type_symbol
_atom_site_label
_atom_site_fract_x
_atom_site_fract_y
_atom_site_fract_z
Si Si1 0.250000 0.568330 0.955729
Si Si2 0.894388 0.932805 0.192828
Si Si3 0.395356 0.066898 0.363241
Si Si4 0.991280 0.933276 0.097527
Si Si5 0.098846 0.068037 0.706956
Si Si6 0.750000 0.933042 0.945529
Si Si7 0.603318 0.567210 0.534719
O O1 0.250000 0.750000 0.967933
O O2 0.377932 0.526764 0.927422
O O3 0.250000 0.466530 0.001138
O O4 0.750000 0.001409 0.182188
O O5 0.881661 0.750000 0.196466
O O6 0.943333 0.992293 0.242332
O O7 0.990290 0.978438 0.151323
O O8 0.250000 0.006836 0.348755
O O9 0.394585 0.250000 0.363255
O O10 0.428078 0.006651 0.414198
O O11 0.506077 0.010977 0.329280
O O12 0.969992 0.750000 0.090265
O O13 0.126979 0.986892 0.077450
O O14 0.250000 0.022545 0.697598
O O15 0.079322 0.250000 0.702659
O O16 0.750000 0.750000 0.936897
O O17 0.500000 0.500000 0.500000
O O18 0.750000 0.514211 0.520741
O O19 0.593003 0.750000 0.533309
#
# Coordination Sequence:
#
# PCOD8246015 Si02
#       7
#     4   8   8   8   8   4   8
#     4  12  24  40  62  88 114 146 186 228 275 330
#     4   8  15  32  58  83 106 137 178 221 266 320
#     4   9  19  36  53  72 106 147 181 215 266 325
#     4  11  21  39  64  86 110 148 189 227 275 332
#     4   9  18  33  55  82 108 135 176 225 266 313
#     4  12  26  42  56  82 120 150 182 230 279 328
#     4   9  19  35  53  74 103 140 180 223 269 321
#
# _framework density 18.566679000000001
#
# number of rings (size 3 to 8) (size 9 to 14) (size 15 to 20)
#    0.000    2.333    0.833    4.500    0.000    2.333 
#    1.500    6.667    0.000    0.000    0.000    0.000 
#    0.000    0.000    0.000    0.000    0.000    0.000 
#
# Total GULP energy -594949.822307 kJ/mol
# GULP energy per Si atom -12394.787965 kJ/mol
# Density = 1.852442 g / cm^3
# Si number density = 18.566679 Si / 1000 Ang^3
#
#
#
# Elastic Constant Matrix: (Units=GPa)
#
#
# Indices 1 2 3 4 5 6 
#
# 1 112.8135 16.6346 74.7111 0.0000 0.0000 0.0000
# 2 16.6346 35.7082 20.6925 0.0000 0.0000 0.0000
# 3 74.7111 20.6925 143.5389 0.0000 0.0000 0.0000
# 4 0.0000 0.0000 0.0000 28.1178 0.0000 0.0000
# 5 0.0000 0.0000 0.0000 0.0000 27.1272 0.0000
# 6 0.0000 0.0000 0.0000 0.0000 0.0000 29.9108
#
#
#
# Elastic Compliance Matrix: (Units=1/GPa)
#
#
# Indices 1 2 3 4 5 6 
#
# 1 0.013722 -0.002459 -0.006788 0.000000 0.000000 0.000000
# 2 -0.002459 0.030998 -0.003189 0.000000 0.000000 0.000000
# 3 -0.006788 -0.003189 0.010959 0.000000 0.000000 0.000000
# 4 0.000000 0.000000 0.000000 0.035565 0.000000 0.000000
# 5 0.000000 0.000000 0.000000 0.000000 0.036863 0.000000
# 6 0.000000 0.000000 0.000000 0.000000 0.000000 0.033433
#
#
# Mechanical properties :
#
#
# Convention : Reuss Voigt Hill
#
# Bulk Modulus (GPa) = 32.45849 57.34855 44.90352
# Shear Modulus (GPa) = 25.42193 29.03267 27.22730
#
# Velocity S-wave (km/s) = 3.70432 3.95865 3.83359
# Velocity P-wave (km/s) = 5.98465 7.20066 6.62063
#
# Compressibility (1/GPa) = 0.03080858
#
# Stress axis : x y z
#
# Youngs Moduli (GPa) = 72.87596 32.26000 91.24575
#
# Poissons Ratio (x) = 0.07933 0.61935
# Poissons Ratio (y) = 0.17920 0.29097
# Poissons Ratio (z) = 0.49466 0.10287
#
# Static dielectric constant tensor:
#      x y z
#    x 3.646700 0.000000 0.000000 
#    y 0.000000 3.215510 0.000000 
#    z 0.000000 0.000000 0.843380 
# 
# 
# High freq. dielectric constant tensor:
#      x y z
#    x 1.719040 0.000000 0.000000 
#    y 0.000000 1.702920 0.000000 
#    z 0.000000 0.000000 1.734620 
# 
# From -- ./inp_files/32933.got.cif
#   From: 2010.03.12/outbox.cif.g09.slc.cpg/sg59_17_cif.got.tgz:32933.got - 2010.04.16 16:29:54.
