data_PCOD8246694
_publ_section_title
;
Structure prediction by ZEFSAII (Michael W. Deem and Ramdas Pophale) SiO2 
 PCOD8246694
Probable space group: P B C N
;
_chemical_formula_sum "Si O2"
_cell_formula_units_Z 64
_cell_length_a 19.848868
_cell_length_b 8.783814
_cell_length_c 19.098092
_cell_angle_alpha 90.000000
_cell_angle_beta 90.000000
_cell_angle_gamma 90.000000
_cell_volume 3329.728747
_symmetry_space_group_name_H-M "P B C N"
_symmetry_group_IT_number 60
_symmetry_cell_setting 'orthorhombic'
loop_
_space_group_symop_operation_xyz
x,y,z
1/2-x,1/2-y,1/2+z
1/2+x,1/2-y,-z
-x,y,1/2-z
-x,-y,-z
1/2+x,1/2+y,1/2-z
1/2-x,1/2+y,z
x,-y,1/2+z
loop_
_atom_site_type_symbol
_atom_site_label
_atom_site_fract_x
_atom_site_fract_y
_atom_site_fract_z
Si Si1 0.174053 0.485074 0.003353
Si Si2 0.592817 0.156521 0.390219
Si Si3 0.162660 0.660399 0.259442
Si Si4 0.883490 0.697537 0.611657
Si Si5 0.695670 0.633061 0.525248
Si Si6 0.074371 0.927853 0.001787
Si Si7 0.535134 0.041365 0.177706
Si Si8 0.244484 0.614498 0.823909
O O1 0.123329 0.513218 0.067564
O O2 0.139307 0.555870 0.935770
O O3 0.243373 0.571975 0.022954
O O4 0.190205 0.312375 0.984932
O O5 0.637309 0.164419 0.320273
O O6 0.590826 0.314831 0.433520
O O7 0.514671 0.119856 0.377190
O O8 0.099156 0.652215 0.312111
O O9 0.202347 0.816134 0.270002
O O10 0.213705 0.526752 0.281592
O O11 0.911499 0.841930 0.570943
O O12 0.944792 0.629867 0.656167
O O13 0.816891 0.733924 0.658300
O O14 0.626335 0.566158 0.495909
O O15 0.714231 0.579502 0.604362
O O16 0.000000 0.000000 0.000000
O O17 0.500000 0.013013 0.250000
#
# Coordination Sequence:
#
# PCOD8246694 Si02
#       8
#     8   8   8   8   8   8   8   8
#     4  10  21  35  63  86 120 157 190 258 301 356
#     4  10  23  40  56  88 121 159 201 241 313 370
#     4  10  21  37  61  86 115 156 198 253 295 360
#     4   9  19  37  59  87 115 148 204 248 289 361
#     4  11  21  38  58  92 119 149 201 251 306 354
#     4  11  25  36  58  88 123 159 198 253 303 367
#     4   9  19  36  61  82 117 158 201 245 293 362
#     4  10  19  36  64  88 108 155 200 247 297 357
#
# _framework density 19.220783999999998
#
# number of rings (size 3 to 8) (size 9 to 14) (size 15 to 20)
#    0.000    2.000    0.000    5.250    5.250    3.000 
#    0.000    0.000    5.500    0.000    0.000    0.000 
#    0.000    0.000    0.000    0.000    0.000    0.000 
#
# Total GULP energy -793110.854298 kJ/mol
# GULP energy per Si atom -12392.357098 kJ/mol
# Density = 1.917704 g / cm^3
# Si number density = 19.220784 Si / 1000 Ang^3
#
#
#
# Elastic Constant Matrix: (Units=GPa)
#
#
# Indices 1 2 3 4 5 6 
#
# 1 129.3516 46.2054 38.7845 0.0000 0.0000 0.0000
# 2 46.2054 82.4203 21.3125 0.0000 0.0000 0.0000
# 3 38.7845 21.3125 58.6103 0.0000 0.0000 0.0000
# 4 0.0000 0.0000 0.0000 17.0159 0.0000 0.0000
# 5 0.0000 0.0000 0.0000 0.0000 25.6315 0.0000
# 6 0.0000 0.0000 0.0000 0.0000 0.0000 37.4823
#
#
#
# Elastic Compliance Matrix: (Units=1/GPa)
#
#
# Indices 1 2 3 4 5 6 
#
# 1 0.011125 -0.004783 -0.005623 0.000000 0.000000 0.000000
# 2 -0.004783 0.015448 -0.002452 0.000000 0.000000 0.000000
# 3 -0.005623 -0.002452 0.021674 0.000000 0.000000 0.000000
# 4 0.000000 0.000000 0.000000 0.058769 0.000000 0.000000
# 5 0.000000 0.000000 0.000000 0.000000 0.039014 0.000000
# 6 0.000000 0.000000 0.000000 0.000000 0.000000 0.026679
#
#
# Mechanical properties :
#
#
# Convention : Reuss Voigt Hill
#
# Bulk Modulus (GPa) = 44.38176 53.66521 49.02349
# Shear Modulus (GPa) = 24.27921 26.96459 25.62190
#
# Velocity S-wave (km/s) = 3.55797 3.74958 3.65503
# Velocity P-wave (km/s) = 6.32610 6.83570 6.58583
#
# Compressibility (1/GPa) = 0.02253178
#
# Stress axis : x y z
#
# Youngs Moduli (GPa) = 89.88523 64.73129 46.13731
#
# Poissons Ratio (x) = 0.30961 0.25942
# Poissons Ratio (y) = 0.42992 0.11315
# Poissons Ratio (z) = 0.50540 0.15875
#
# Static dielectric constant tensor:
#      x y z
#    x 4.232840 0.000000 0.000000 
#    y 0.000000 3.286260 0.000000 
#    z 0.000000 0.000000 3.506370 
# 
# 
# High freq. dielectric constant tensor:
#      x y z
#    x 1.769690 0.000000 0.000000 
#    y 0.000000 1.734650 0.000000 
#    z 0.000000 0.000000 1.737990 
# 
# From -- ./inp_files/23094.got.cif
#   From: 2010.03.12/outbox.cif.g09.slc.cpg/sg60_12_cif.got.tgz:23094.got - 2010.04.10 18:46:24.
