data_PCOD8246365
_publ_section_title
;
Structure prediction by ZEFSAII (Michael W. Deem and Ramdas Pophale) SiO2 
 PCOD8246365
Probable space group: P B C N
;
_chemical_formula_sum "Si O2"
_cell_formula_units_Z 44
_cell_length_a 11.645871
_cell_length_b 24.141217
_cell_length_c 8.814011
_cell_angle_alpha 90.000000
_cell_angle_beta 90.000000
_cell_angle_gamma 90.000000
_cell_volume 2478.019520
_symmetry_space_group_name_H-M "P B C N"
_symmetry_group_IT_number 60
_symmetry_cell_setting 'orthorhombic'
loop_
_space_group_symop_operation_xyz
x,y,z
1/2-x,1/2-y,1/2+z
1/2+x,1/2-y,-z
-x,y,1/2-z
-x,-y,-z
1/2+x,1/2+y,1/2-z
1/2-x,1/2+y,z
x,-y,1/2+z
loop_
_atom_site_type_symbol
_atom_site_label
_atom_site_fract_x
_atom_site_fract_y
_atom_site_fract_z
Si Si1 0.577124 0.881311 0.529885
Si Si2 0.175593 0.578076 0.012467
Si Si3 0.293044 0.803702 0.455001
Si Si4 0.127361 0.274208 0.778527
Si Si5 0.368060 0.017824 0.297885
Si Si6 0.500000 0.171633 0.750000
O O1 0.443430 0.892758 0.565088
O O2 0.625479 0.832991 0.635987
O O3 0.644978 0.937906 0.564587
O O4 0.586231 0.865869 0.352077
O O5 0.250825 0.632081 0.971049
O O6 0.174167 0.540861 0.861191
O O7 0.210308 0.539706 0.156851
O O8 0.306661 0.778540 0.620885
O O9 0.190503 0.771245 0.378277
O O10 0.414081 0.794809 0.361560
O O11 0.000000 0.251834 0.750000
O O12 0.500000 0.009929 0.250000
#
# Coordination Sequence:
#
# PCOD8246365 Si02
#       6
#     8   8   8   8   8   4
#     4  10  18  32  50  75 117 149 183 225 283 343
#     4  10  20  31  49  80 112 148 185 225 282 353
#     4  11  24  36  56  82 114 156 195 233 291 339
#     4  12  21  41  58  79 117 156 190 245 279 333
#     4  10  18  29  47  74 113 150 177 222 281 349
#     4  10  20  32  52  82 114 148 192 228 276 348
#
# _framework density 17.756115000000001
#
# number of rings (size 3 to 8) (size 9 to 14) (size 15 to 20)
#    0.000    1.455    5.455    3.818   10.182    0.000 
#    0.000    0.000    0.000    0.000    0.000    1.273 
#    2.727    0.000    0.000    0.000    0.000    0.000 
#
# Total GULP energy -545158.828447 kJ/mol
# GULP energy per Si atom -12389.973374 kJ/mol
# Density = 1.771570 g / cm^3
# Si number density = 17.756115 Si / 1000 Ang^3
#
#
#
# Elastic Constant Matrix: (Units=GPa)
#
#
# Indices 1 2 3 4 5 6 
#
# 1 38.1262 41.1547 26.7835 0.0000 0.0000 0.0000
# 2 41.1547 127.8943 59.0782 0.0000 0.0000 0.0000
# 3 26.7835 59.0782 120.5287 0.0000 0.0000 0.0000
# 4 0.0000 0.0000 0.0000 28.6441 0.0000 0.0000
# 5 0.0000 0.0000 0.0000 0.0000 22.7193 0.0000
# 6 0.0000 0.0000 0.0000 0.0000 0.0000 21.6872
#
#
#
# Elastic Compliance Matrix: (Units=1/GPa)
#
#
# Indices 1 2 3 4 5 6 
#
# 1 0.041262 -0.011689 -0.003440 0.000000 0.000000 0.000000
# 2 -0.011689 0.013419 -0.003980 0.000000 0.000000 0.000000
# 3 -0.003440 -0.003980 0.011012 0.000000 0.000000 0.000000
# 4 0.000000 0.000000 0.000000 0.034911 0.000000 0.000000
# 5 0.000000 0.000000 0.000000 0.000000 0.044015 0.000000
# 6 0.000000 0.000000 0.000000 0.000000 0.000000 0.046110
#
#
# Mechanical properties :
#
#
# Convention : Reuss Voigt Hill
#
# Bulk Modulus (GPa) = 36.39525 60.06466 48.22996
# Shear Modulus (GPa) = 20.99912 25.24564 23.12238
#
# Velocity S-wave (km/s) = 3.44269 3.77477 3.61254
# Velocity P-wave (km/s) = 6.02865 7.27321 6.67997
#
# Compressibility (1/GPa) = 0.02747611
#
# Stress axis : x y z
#
# Youngs Moduli (GPa) = 24.23516 74.52314 90.81069
#
# Poissons Ratio (x) = 0.87108 0.31237
# Poissons Ratio (y) = 0.28328 0.36141
# Poissons Ratio (z) = 0.08337 0.29659
#
# Static dielectric constant tensor:
#      x y z
#    x 2.685670 0.000000 0.000000 
#    y 0.000000 3.570880 0.000000 
#    z 0.000000 0.000000 3.791070 
# 
# 
# High freq. dielectric constant tensor:
#      x y z
#    x 1.591530 0.000000 0.000000 
#    y 0.000000 1.696450 0.000000 
#    z 0.000000 0.000000 1.721320 
# 
# From -- ./inp_files/4986.got.cif
#   From: 2010.03.12/outbox.cif.g09.slc.cpg/sg60_3_cif.got.tgz:4986.got - 2010.04.10 18:46:24.
