data_PCOD8246231
_publ_section_title
;
Structure prediction by ZEFSAII (Michael W. Deem and Ramdas Pophale) SiO2 
 PCOD8246231
Probable space group: P M M N
;
_chemical_formula_sum "Si O2"
_cell_formula_units_Z 64
_cell_length_a 9.370263
_cell_length_b 13.882086
_cell_length_c 31.549001
_cell_angle_alpha 90.000000
_cell_angle_beta 90.000000
_cell_angle_gamma 90.000000
_cell_volume 4103.856091
_symmetry_space_group_name_H-M "P M M N"
_symmetry_group_IT_number 59
_space_group.IT_coordinate_system_code '2'
_symmetry_cell_setting 'orthorhombic'
loop_
_space_group_symop_operation_xyz
x,y,z
1/2-x,1/2-y,z
1/2+x,-y,-z
-x,1/2+y,-z
-x,-y,-z
1/2+x,1/2+y,-z
1/2-x,y,z
x,1/2-y,z
loop_
_atom_site_type_symbol
_atom_site_label
_atom_site_fract_x
_atom_site_fract_y
_atom_site_fract_z
Si Si1 0.584101 0.363105 0.309903
Si Si2 0.087590 0.636379 0.520777
Si Si3 0.084541 0.141945 0.985882
Si Si4 0.084523 0.861770 0.852378
Si Si5 0.411230 0.364455 0.228719
Si Si6 0.583955 0.042180 0.394517
Si Si7 0.915513 0.642728 0.439606
Si Si8 0.083887 0.548556 0.940247
O O1 0.750000 0.387403 0.301955
O O2 0.561841 0.250000 0.317336
O O3 0.495667 0.402200 0.269821
O O4 0.518125 0.418482 0.350745
O O5 0.250000 0.600053 0.514840
O O6 0.079284 0.750000 0.524139
O O7 0.019395 0.594331 0.563986
O O8 0.997285 0.600728 0.480440
O O9 0.250000 0.134525 0.997838
O O10 0.046020 0.250000 0.969840
O O11 0.046100 0.063754 0.949452
O O12 0.998619 0.119238 0.028347
O O13 0.250000 0.875933 0.840669
O O14 0.052291 0.750000 0.862444
O O15 0.038733 0.926141 0.892505
O O16 0.991307 0.901098 0.813327
O O17 0.250000 0.404911 0.229220
O O18 0.412304 0.250000 0.229027
O O19 0.750000 0.068572 0.392737
O O20 0.556243 0.927406 0.399520
O O21 0.750000 0.643055 0.451843
O O22 0.968486 0.750000 0.427183
O O23 0.250000 0.569777 0.947129
#
# Coordination Sequence:
#
# PCOD8246231 Si02
#       8
#     8   8   8   8   8   8   8   8
#     4   9  16  27  43  60  78 101 128 156 188 231
#     4   9  16  26  40  57  77 101 129 159 188 220
#     4   9  17  28  41  59  86 117 145 176 215 251
#     4   9  16  26  41  60  81 107 139 170 198 233
#     4   9  17  28  41  59  84 108 126 152 196 244
#     4   9  16  26  41  59  77 100 130 159 187 223
#     4   9  17  28  40  55  77 103 129 158 191 223
#     4   9  17  28  42  61  84 112 147 181 209 242
#
# _framework density 15.595089
#
# number of rings (size 3 to 8) (size 9 to 14) (size 15 to 20)
#    0.000    3.000    0.000    1.500    0.000    4.250 
#    0.000    2.500    0.000    3.000    0.000    0.875 
#    0.000    7.000    0.000    0.000    0.000    0.000 
#
# Total GULP energy -793357.967558 kJ/mol
# GULP energy per Si atom -12396.218243 kJ/mol
# Density = 1.555959 g / cm^3
# Si number density = 15.595089 Si / 1000 Ang^3
#
#
#
# Elastic Constant Matrix: (Units=GPa)
#
#
# Indices 1 2 3 4 5 6 
#
# 1 53.8323 26.3515 53.0923 0.0000 0.0000 0.0000
# 2 26.3515 65.1489 56.0198 0.0000 0.0000 0.0000
# 3 53.0923 56.0198 139.7050 0.0000 0.0000 0.0000
# 4 0.0000 0.0000 0.0000 22.5257 0.0000 0.0000
# 5 0.0000 0.0000 0.0000 0.0000 22.9714 0.0000
# 6 0.0000 0.0000 0.0000 0.0000 0.0000 13.1469
#
#
#
# Elastic Compliance Matrix: (Units=1/GPa)
#
#
# Indices 1 2 3 4 5 6 
#
# 1 0.030252 -0.003588 -0.010058 0.000000 0.000000 0.000000
# 2 -0.003588 0.023853 -0.008201 0.000000 0.000000 0.000000
# 3 -0.010058 -0.008201 0.014269 0.000000 0.000000 0.000000
# 4 0.000000 0.000000 0.000000 0.044394 0.000000 0.000000
# 5 0.000000 0.000000 0.000000 0.000000 0.043532 0.000000
# 6 0.000000 0.000000 0.000000 0.000000 0.000000 0.076063
#
#
# Mechanical properties :
#
#
# Convention : Reuss Voigt Hill
#
# Bulk Modulus (GPa) = 40.51906 58.84593 49.68249
# Shear Modulus (GPa) = 17.58804 19.94364 18.76584
#
# Velocity S-wave (km/s) = 3.36191 3.57997 3.47265
# Velocity P-wave (km/s) = 6.41157 7.40971 6.92864
#
# Compressibility (1/GPa) = 0.02467974
#
# Stress axis : x y z
#
# Youngs Moduli (GPa) = 33.05525 41.92429 70.08238
#
# Poissons Ratio (x) = 0.15041 0.70490
# Poissons Ratio (y) = 0.11859 0.57475
# Poissons Ratio (z) = 0.33248 0.34383
#
# Static dielectric constant tensor:
#      x y z
#    x 2.973090 0.000000 0.000000 
#    y 0.000000 2.963100 0.000000 
#    z 0.000000 0.000000 3.016450 
# 
# 
# High freq. dielectric constant tensor:
#      x y z
#    x 1.587260 0.000000 0.000000 
#    y 0.000000 1.578230 0.000000 
#    z 0.000000 0.000000 1.588450 
# 
# From -- ./inp_files/33209.got.cif
#   From: 2010.03.12/outbox.cif.g09.slc.cpg/sg59_17_cif.got.tgz:33209.got - 2010.04.16 16:29:54.
