data_PCOD8246167
_publ_section_title
;
Structure prediction by ZEFSAII (Michael W. Deem and Ramdas Pophale) SiO2 
 PCOD8246167
Probable space group: P M M N
;
_chemical_formula_sum "Si O2"
_cell_formula_units_Z 48
_cell_length_a 14.374230
_cell_length_b 14.430485
_cell_length_c 13.135851
_cell_angle_alpha 90.000000
_cell_angle_beta 90.000000
_cell_angle_gamma 90.000000
_cell_volume 2724.731616
_symmetry_space_group_name_H-M "P M M N"
_symmetry_group_IT_number 59
_space_group.IT_coordinate_system_code '2'
_symmetry_cell_setting 'orthorhombic'
loop_
_space_group_symop_operation_xyz
x,y,z
1/2-x,1/2-y,z
1/2+x,-y,-z
-x,1/2+y,-z
-x,-y,-z
1/2+x,1/2+y,-z
1/2-x,y,z
x,1/2-y,z
loop_
_atom_site_type_symbol
_atom_site_label
_atom_site_fract_x
_atom_site_fract_y
_atom_site_fract_z
Si Si1 0.857911 0.037093 0.095186
Si Si2 0.354608 0.639324 0.490906
Si Si3 0.359048 0.642125 0.100598
Si Si4 0.860866 0.353314 0.286814
Si Si5 0.645385 0.645753 0.195461
Si Si6 0.962749 0.142613 0.700231
O O1 0.750000 0.063976 0.093032
O O2 0.902164 0.082008 0.197456
O O3 0.872817 0.925839 0.102475
O O4 0.900657 0.080898 0.992730
O O5 0.250000 0.602993 0.468854
O O6 0.354067 0.750000 0.492234
O O7 0.391256 0.606603 0.602309
O O8 0.423159 0.597605 0.403813
O O9 0.250000 0.626430 0.117541
O O10 0.381353 0.750000 0.078697
O O11 0.411295 0.602824 0.199885
O O12 0.750000 0.351018 0.285156
O O13 0.900424 0.250000 0.269139
O O14 0.750000 0.631776 0.239012
O O15 0.631279 0.750000 0.152121
O O16 0.573877 0.627005 0.288362
O O17 0.936871 0.250000 0.695319
#
# Coordination Sequence:
#
# PCOD8246167 Si02
#       6
#     8   8   8   8   8   8
#     4   9  16  26  40  58  81 107 134 163 195 232
#     4   8  13  22  38  60  85 110 130 150 186 240
#     4   9  16  25  40  64  90 109 122 145 192 252
#     4   8  13  22  38  60  85 110 130 150 186 240
#     4   9  18  31  43  54  72 103 144 182 204 218
#     4   9  16  26  40  58  81 107 134 163 195 232
#
# _framework density 17.616413000000001
#
# number of rings (size 3 to 8) (size 9 to 14) (size 15 to 20)
#    0.000    3.333    0.000    2.000    0.000    4.667 
#    0.000    0.833    0.000    0.000    0.000    0.000 
#    0.000    2.667    0.000   28.667    0.000    0.667 
#
# Total GULP energy -594682.668841 kJ/mol
# GULP energy per Si atom -12389.222268 kJ/mol
# Density = 1.757632 g / cm^3
# Si number density = 17.616413 Si / 1000 Ang^3
#
#
#
# Elastic Constant Matrix: (Units=GPa)
#
#
# Indices 1 2 3 4 5 6 
#
# 1 54.2902 13.2547 31.3866 0.0000 0.0000 0.0000
# 2 13.2547 57.5995 33.2765 0.0000 0.0000 0.0000
# 3 31.3866 33.2765 133.1592 0.0000 0.0000 0.0000
# 4 0.0000 0.0000 0.0000 8.8783 0.0000 0.0000
# 5 0.0000 0.0000 0.0000 0.0000 7.8482 0.0000
# 6 0.0000 0.0000 0.0000 0.0000 0.0000 7.8074
#
#
#
# Elastic Compliance Matrix: (Units=1/GPa)
#
#
# Indices 1 2 3 4 5 6 
#
# 1 0.021599 -0.002372 -0.004498 0.000000 0.000000 0.000000
# 2 -0.002372 0.020551 -0.004577 0.000000 0.000000 0.000000
# 3 -0.004498 -0.004577 0.009714 0.000000 0.000000 0.000000
# 4 0.000000 0.000000 0.000000 0.112634 0.000000 0.000000
# 5 0.000000 0.000000 0.000000 0.000000 0.127419 0.000000
# 6 0.000000 0.000000 0.000000 0.000000 0.000000 0.128084
#
#
# Mechanical properties :
#
#
# Convention : Reuss Voigt Hill
#
# Bulk Modulus (GPa) = 34.51763 44.54272 39.53018
# Shear Modulus (GPa) = 11.04849 16.04885 13.54867
#
# Velocity S-wave (km/s) = 2.50705 3.02158 2.77626
# Velocity P-wave (km/s) = 5.29311 6.12478 5.72407
#
# Compressibility (1/GPa) = 0.02897070
#
# Stress axis : x y z
#
# Youngs Moduli (GPa) = 46.29806 48.65928 102.94581
#
# Poissons Ratio (x) = 0.11540 0.46309
# Poissons Ratio (y) = 0.10980 0.47116
# Poissons Ratio (z) = 0.20827 0.22270
#
# Static dielectric constant tensor:
#      x y z
#    x 3.069490 0.000000 0.000000 
#    y 0.000000 3.070210 0.000000 
#    z 0.000000 0.000000 3.569100 
# 
# 
# High freq. dielectric constant tensor:
#      x y z
#    x 1.650930 0.000000 0.000000 
#    y 0.000000 1.650620 0.000000 
#    z 0.000000 0.000000 1.675340 
# 
# From -- ./inp_files/16818.got.cif
#   From: 2010.03.12/outbox.cif.g09.slc.cpg/sg59_9_cif.got.tgz:16818.got - 2010.04.16 16:29:54.
