data_PCOD8246049
_publ_section_title
;
Structure prediction by ZEFSAII (Michael W. Deem and Ramdas Pophale) SiO2 
 PCOD8246049
Probable space group: P M M N
;
_chemical_formula_sum "Si O2"
_cell_formula_units_Z 56
_cell_length_a 19.774320
_cell_length_b 8.816324
_cell_length_c 16.119784
_cell_angle_alpha 90.000000
_cell_angle_beta 90.000000
_cell_angle_gamma 90.000000
_cell_volume 2810.271753
_symmetry_space_group_name_H-M "P M M N"
_symmetry_group_IT_number 59
_space_group.IT_coordinate_system_code '2'
_symmetry_cell_setting 'orthorhombic'
loop_
_space_group_symop_operation_xyz
x,y,z
1/2-x,1/2-y,z
1/2+x,-y,-z
-x,1/2+y,-z
-x,-y,-z
1/2+x,1/2+y,-z
1/2-x,y,z
x,1/2-y,z
loop_
_atom_site_type_symbol
_atom_site_label
_atom_site_fract_x
_atom_site_fract_y
_atom_site_fract_z
Si Si1 0.827360 0.072171 0.333584
Si Si2 0.326610 0.927728 0.185600
Si Si3 0.176366 0.570499 0.002967
Si Si4 0.040831 0.570660 0.924354
Si Si5 0.548440 0.927984 0.248201
Si Si6 0.084777 0.570651 0.332580
Si Si7 0.825423 0.430414 0.519799
O O1 0.750000 0.035705 0.307937
O O2 0.841473 0.250000 0.326406
O O3 0.841377 0.011978 0.426846
O O4 0.877762 0.988579 0.271209
O O5 0.250000 0.961892 0.212464
O O6 0.340948 0.750000 0.182634
O O7 0.375403 0.001795 0.254349
O O8 0.341462 0.997219 0.094279
O O9 0.250000 0.509154 0.973298
O O10 0.180328 0.750000 0.012666
O O11 0.119569 0.524751 0.937082
O O12 0.029551 0.750000 0.923879
O O13 0.019776 0.501221 0.836372
O O14 0.000000 0.500000 0.000000
O O15 0.552246 0.750000 0.233705
O O16 0.494644 0.969250 0.321514
O O17 0.095887 0.750000 0.334288
O O18 0.117397 0.503581 0.417508
O O19 0.750000 0.485139 0.546707
O O20 0.826094 0.250000 0.518593
#
# Coordination Sequence:
#
# PCOD8246049 Si02
#       7
#     8   8   8   8   8   8   8
#     4   9  19  37  58  78 103 137 179 226 272 320
#     4   8  12  20  38  65  97 129 159 198 251 305
#     4   8  15  28  47  72  98 126 167 218 265 309
#     4  11  22  37  57  79 107 143 182 225 272 324
#     4  11  23  36  52  78 109 141 177 219 271 327
#     4   9  16  26  43  72 108 138 168 210 259 314
#     4   8  14  27  50  78 105 136 176 220 264 311
#
# _framework density 19.926898000000001
#
# number of rings (size 3 to 8) (size 9 to 14) (size 15 to 20)
#    0.000    2.857    0.000    3.857    0.000    5.429 
#    0.000    1.429    0.000    2.143    0.000    0.000 
#    0.000    5.143    0.000    0.000    0.000    0.000 
#
# Total GULP energy -693963.695335 kJ/mol
# GULP energy per Si atom -12392.208845 kJ/mol
# Density = 1.988154 g / cm^3
# Si number density = 19.926898 Si / 1000 Ang^3
#
#
#
# Elastic Constant Matrix: (Units=GPa)
#
#
# Indices 1 2 3 4 5 6 
#
# 1 99.1559 37.0601 50.8621 0.0000 0.0000 0.0000
# 2 37.0601 47.0224 30.5465 0.0000 0.0000 0.0000
# 3 50.8621 30.5465 98.2752 0.0000 0.0000 0.0000
# 4 0.0000 0.0000 0.0000 19.1026 0.0000 0.0000
# 5 0.0000 0.0000 0.0000 0.0000 38.7858 0.0000
# 6 0.0000 0.0000 0.0000 0.0000 0.0000 19.5047
#
#
#
# Elastic Compliance Matrix: (Units=1/GPa)
#
#
# Indices 1 2 3 4 5 6 
#
# 1 0.016448 -0.009314 -0.005618 0.000000 0.000000 0.000000
# 2 -0.009314 0.031921 -0.005102 0.000000 0.000000 0.000000
# 3 -0.005618 -0.005102 0.014669 0.000000 0.000000 0.000000
# 4 0.000000 0.000000 0.000000 0.052349 0.000000 0.000000
# 5 0.000000 0.000000 0.000000 0.000000 0.025783 0.000000
# 6 0.000000 0.000000 0.000000 0.000000 0.000000 0.051270
#
#
# Mechanical properties :
#
#
# Convention : Reuss Voigt Hill
#
# Bulk Modulus (GPa) = 43.53213 53.48790 48.51002
# Shear Modulus (GPa) = 20.81932 23.87761 22.34847
#
# Velocity S-wave (km/s) = 3.23582 3.46535 3.35255
# Velocity P-wave (km/s) = 5.98782 6.55071 6.27558
#
# Compressibility (1/GPa) = 0.02297154
#
# Stress axis : x y z
#
# Youngs Moduli (GPa) = 60.79858 31.32725 68.17314
#
# Poissons Ratio (x) = 0.29178 0.38296
# Poissons Ratio (y) = 0.56627 0.34779
# Poissons Ratio (z) = 0.34154 0.15982
#
# Static dielectric constant tensor:
#      x y z
#    x 4.063700 0.000000 0.000000 
#    y 0.000000 2.987260 0.000000 
#    z 0.000000 0.000000 3.931970 
# 
# 
# High freq. dielectric constant tensor:
#      x y z
#    x 1.788510 0.000000 0.000000 
#    y 0.000000 1.710280 0.000000 
#    z 0.000000 0.000000 1.779530 
# 
# From -- ./inp_files/24285.got.cif
#   From: 2010.03.12/outbox.cif.g09.slc.cpg/sg59_13_cif.got.tgz:24285.got - 2010.04.16 16:29:54.
