data_PCOD8246263
_publ_section_title
;
Structure prediction by ZEFSAII (Michael W. Deem and Ramdas Pophale) SiO2 
 PCOD8246263
Probable space group: P M M N
;
_chemical_formula_sum "Si O2"
_cell_formula_units_Z 48
_cell_length_a 18.000000
_cell_length_b 9.000000
_cell_length_c 15.000000
_cell_angle_alpha 90.000000
_cell_angle_beta 90.000000
_cell_angle_gamma 90.000000
_cell_volume 2430.000000
_symmetry_space_group_name_H-M "P M M N"
_symmetry_group_IT_number 59
_space_group.IT_coordinate_system_code '2'
_symmetry_cell_setting 'orthorhombic'
loop_
_space_group_symop_operation_xyz
x,y,z
1/2-x,1/2-y,z
1/2+x,-y,-z
-x,1/2+y,-z
-x,-y,-z
1/2+x,1/2+y,-z
1/2-x,y,z
x,1/2-y,z
loop_
_atom_site_type_symbol
_atom_site_label
_atom_site_fract_x
_atom_site_fract_y
_atom_site_fract_z
Si Si1 0.091447 0.080499 0.731673
Si Si2 0.924362 0.574832 0.970316
Si Si3 0.163801 0.579395 0.382942
Si Si4 0.163597 0.585777 0.884178
Si Si5 0.423521 0.920215 0.210230
Si Si6 0.424340 0.425205 0.529346
O O1 0.118827 0.250000 0.738872
O O2 0.093245 0.026489 0.629958
O O3 0.010449 0.063156 0.773663
O O4 0.146292 0.975263 0.785909
O O5 0.934212 0.750000 0.970286
O O6 0.899269 0.520175 0.872991
O O7 0.862720 0.529192 0.041309
O O8 0.000000 0.500000 0.000000
O O9 0.250000 0.561048 0.363075
O O10 0.141666 0.750000 0.402537
O O11 0.119881 0.520539 0.296698
O O12 0.142834 0.480420 0.467819
O O13 0.250000 0.601233 0.894842
O O14 0.126971 0.750000 0.895993
O O15 0.401483 0.750000 0.190148
O O16 0.500000 0.500000 0.500000
O O17 0.434046 0.250000 0.521651
#
# Coordination Sequence:
#
# PCOD8246263 Si02
#       6
#     8   8   8   8   8   8
#     4  10  21  38  62  89 120 159 202 249 300 358
#     4  12  24  39  63  93 123 159 202 250 300 360
#     4  10  22  41  63  89 125 164 201 247 305 363
#     4  11  25  43  63  90 123 158 200 251 306 364
#     4  10  20  38  62  90 122 159 204 249 296 357
#     4  11  22  38  62  91 123 160 205 253 301 360
#
# _framework density 19.753086
#
# number of rings (size 3 to 8) (size 9 to 14) (size 15 to 20)
#    0.000    1.333    3.333    2.500    0.000    5.000 
#    0.000    5.000    0.000    0.000    0.000    0.000 
#    0.000    0.000    0.000    0.000    0.000    0.000 
#
# Total GULP energy -595430.858443 kJ/mol
# GULP energy per Si atom -12404.809551 kJ/mol
# Density = 1.970813 g / cm^3
# Si number density = 19.753086 Si / 1000 Ang^3
#
#
#
# Elastic Constant Matrix: (Units=GPa)
#
#
# Indices 1 2 3 4 5 6 
#
# 1 49.6920 25.9126 24.4913 0.0000 0.0000 0.0000
# 2 25.9126 109.7819 66.5221 0.0000 0.0000 0.0000
# 3 24.4913 66.5221 151.0483 0.0000 0.0000 0.0000
# 4 0.0000 0.0000 0.0000 39.0181 0.0000 0.0000
# 5 0.0000 0.0000 0.0000 0.0000 29.5816 0.0000
# 6 0.0000 0.0000 0.0000 0.0000 0.0000 26.3500
#
#
#
# Elastic Compliance Matrix: (Units=1/GPa)
#
#
# Indices 1 2 3 4 5 6 
#
# 1 0.023322 -0.004383 -0.001851 0.000000 0.000000 0.000000
# 2 -0.004383 0.013248 -0.005124 0.000000 0.000000 0.000000
# 3 -0.001851 -0.005124 0.009177 0.000000 0.000000 0.000000
# 4 0.000000 0.000000 0.000000 0.025629 0.000000 0.000000
# 5 0.000000 0.000000 0.000000 0.000000 0.033805 0.000000
# 6 0.000000 0.000000 0.000000 0.000000 0.000000 0.037951
#
#
# Mechanical properties :
#
#
# Convention : Reuss Voigt Hill
#
# Bulk Modulus (GPa) = 43.41962 60.48602 51.95282
# Shear Modulus (GPa) = 28.81419 31.89635 30.35527
#
# Velocity S-wave (km/s) = 3.82346 4.02276 3.92437
# Velocity P-wave (km/s) = 6.44366 7.22941 6.84781
#
# Compressibility (1/GPa) = 0.02303106
#
# Stress axis : x y z
#
# Youngs Moduli (GPa) = 42.87802 75.48077 108.96649
#
# Poissons Ratio (x) = 0.33085 0.20171
# Poissons Ratio (y) = 0.18794 0.55834
# Poissons Ratio (z) = 0.07937 0.38676
#
# Static dielectric constant tensor:
#      x y z
#    x 3.402600 0.000000 0.000000 
#    y 0.000000 5.535170 0.000000 
#    z 0.000000 0.000000 4.473930 
# 
# 
# High freq. dielectric constant tensor:
#      x y z
#    x 1.755830 0.000000 0.000000 
#    y 0.000000 1.770580 0.000000 
#    z 0.000000 0.000000 1.784570 
# 
# From -- ./inp_files/20330.got.cif
#   From: 2010.03.12/outbox.ucp.g09.slc.cvg/sg59_11_cif.got.tgz:20330.got - 2010.05.04 19:30:51.
