data_PCOD8246372
_publ_section_title
;
Structure prediction by ZEFSAII (Michael W. Deem and Ramdas Pophale) SiO2 
 PCOD8246372
Probable space group: P B C N
;
_chemical_formula_sum "Si O2"
_cell_formula_units_Z 36
_cell_length_a 8.715885
_cell_length_b 18.247466
_cell_length_c 10.979903
_cell_angle_alpha 90.000000
_cell_angle_beta 90.000000
_cell_angle_gamma 90.000000
_cell_volume 1746.274684
_symmetry_space_group_name_H-M "P B C N"
_symmetry_group_IT_number 60
_symmetry_cell_setting 'orthorhombic'
loop_
_space_group_symop_operation_xyz
x,y,z
1/2-x,1/2-y,1/2+z
1/2+x,1/2-y,-z
-x,y,1/2-z
-x,-y,-z
1/2+x,1/2+y,1/2-z
1/2-x,1/2+y,z
x,-y,1/2+z
loop_
_atom_site_type_symbol
_atom_site_label
_atom_site_fract_x
_atom_site_fract_y
_atom_site_fract_z
Si Si1 0.846516 0.524165 0.427817
Si Si2 0.661802 0.121606 0.813237
Si Si3 0.781118 0.152280 0.565616
Si Si4 0.000000 0.370382 0.750000
Si Si5 0.033793 0.717242 0.482706
O O1 0.767833 0.450585 0.378101
O O2 0.730758 0.569009 0.515802
O O3 0.000000 0.500000 0.500000
O O4 0.875812 0.577555 0.313934
O O5 0.500000 0.100006 0.750000
O O6 0.780301 0.149576 0.712100
O O7 0.642214 0.184868 0.912189
O O8 0.935263 0.195087 0.525297
O O9 0.641613 0.202258 0.516056
O O10 0.921017 0.320203 0.646214
#
# Coordination Sequence:
#
# PCOD8246372 Si02
#       5
#     8   8   8   4   8
#     4  11  16  32  54  84 105 140 186 235 269 311
#     4  10  18  33  53  82 117 138 181 238 278 313
#     4  10  22  35  58  84 114 145 183 231 280 329
#     4  10  18  30  54  80 110 138 182 224 272 324
#     4  10  22  35  53  86 112 148 182 225 282 333
#
# _framework density 20.615313
#
# number of rings (size 3 to 8) (size 9 to 14) (size 15 to 20)
#    0.000    1.778    7.778    0.000    6.222    0.000 
#    0.000    0.000    0.000    1.333    5.778    0.000 
#    0.000    0.000    0.000    0.000    0.000    0.000 
#
# Total GULP energy -446217.886461 kJ/mol
# GULP energy per Si atom -12394.941291 kJ/mol
# Density = 2.056839 g / cm^3
# Si number density = 20.615313 Si / 1000 Ang^3
#
#
#
# Elastic Constant Matrix: (Units=GPa)
#
#
# Indices 1 2 3 4 5 6 
#
# 1 16.9149 15.8142 4.8587 0.0000 0.0000 0.0000
# 2 15.8142 107.9870 28.8660 0.0000 0.0000 0.0000
# 3 4.8587 28.8660 125.6137 0.0000 0.0000 0.0000
# 4 0.0000 0.0000 0.0000 35.0629 0.0000 0.0000
# 5 0.0000 0.0000 0.0000 0.0000 10.4361 0.0000
# 6 0.0000 0.0000 0.0000 0.0000 0.0000 39.8949
#
#
#
# Elastic Compliance Matrix: (Units=1/GPa)
#
#
# Indices 1 2 3 4 5 6 
#
# 1 0.068514 -0.009935 -0.000367 0.000000 0.000000 0.000000
# 2 -0.009935 0.011307 -0.002214 0.000000 0.000000 0.000000
# 3 -0.000367 -0.002214 0.008484 0.000000 0.000000 0.000000
# 4 0.000000 0.000000 0.000000 0.028520 0.000000 0.000000
# 5 0.000000 0.000000 0.000000 0.000000 0.095821 0.000000
# 6 0.000000 0.000000 0.000000 0.000000 0.000000 0.025066
#
#
# Mechanical properties :
#
#
# Convention : Reuss Voigt Hill
#
# Bulk Modulus (GPa) = 15.80476 38.84371 27.32424
# Shear Modulus (GPa) = 17.61582 30.47722 24.04652
#
# Velocity S-wave (km/s) = 2.92636 3.84914 3.41902
# Velocity P-wave (km/s) = 4.37050 6.21591 5.37303
#
# Compressibility (1/GPa) = 0.06327208
#
# Stress axis : x y z
#
# Youngs Moduli (GPa) = 14.59557 88.43908 117.87019
#
# Poissons Ratio (x) = 0.87868 0.04325
# Poissons Ratio (y) = 0.14501 0.26098
# Poissons Ratio (z) = 0.00536 0.19581
#
# Static dielectric constant tensor:
#      x y z
#    x 2.981600 0.000000 0.000000 
#    y 0.000000 3.896630 0.000000 
#    z 0.000000 0.000000 4.188040 
# 
# 
# High freq. dielectric constant tensor:
#      x y z
#    x 1.725840 0.000000 0.000000 
#    y 0.000000 1.815600 0.000000 
#    z 0.000000 0.000000 1.832130 
# 
# From -- ./inp_files/10682.got.cif
#   From: 2010.03.12/outbox.cif.g09.slc.cpg/sg60_6_cif.got.tgz:10682.got - 2010.04.10 18:46:24.
