data_PCOD8246286
_publ_section_title
;
Structure prediction by ZEFSAII (Michael W. Deem and Ramdas Pophale) SiO2 
 PCOD8246286
Probable space group: P B C N
;
_chemical_formula_sum "Si O2"
_cell_formula_units_Z 64
_cell_length_a 24.982319
_cell_length_b 5.231371
_cell_length_c 28.919146
_cell_angle_alpha 90.000000
_cell_angle_beta 90.000000
_cell_angle_gamma 90.000000
_cell_volume 3779.494642
_symmetry_space_group_name_H-M "P B C N"
_symmetry_group_IT_number 60
_symmetry_cell_setting 'orthorhombic'
loop_
_space_group_symop_operation_xyz
x,y,z
1/2-x,1/2-y,1/2+z
1/2+x,1/2-y,-z
-x,y,1/2-z
-x,-y,-z
1/2+x,1/2+y,1/2-z
1/2-x,1/2+y,z
x,-y,1/2+z
loop_
_atom_site_type_symbol
_atom_site_label
_atom_site_fract_x
_atom_site_fract_y
_atom_site_fract_z
Si Si1 0.563162 0.774993 0.801155
Si Si2 0.555395 0.769080 0.692604
Si Si3 0.619601 0.275059 0.689275
Si Si4 0.808825 0.701785 0.881015
Si Si5 0.282724 0.213237 0.979639
Si Si6 0.312116 0.701107 0.579575
Si Si7 0.372735 0.719726 0.202485
Si Si8 0.215531 0.792612 0.879246
O O1 0.553783 0.742709 0.747136
O O2 0.505433 0.759130 0.826567
O O3 0.601175 0.542081 0.816452
O O4 0.588430 0.049340 0.811872
O O5 0.589047 0.530299 0.672927
O O6 0.581979 0.035435 0.677958
O O7 0.638092 0.284575 0.742836
O O8 0.672888 0.243673 0.660144
O O9 0.748190 0.675617 0.899047
O O10 0.839897 0.442643 0.895896
O O11 0.816473 0.741218 0.825492
O O12 0.839599 0.934625 0.906754
O O13 0.234004 0.416373 0.982381
O O14 0.311745 0.263126 0.930347
O O15 0.318396 0.268224 0.024492
O O16 0.261310 0.577817 0.873768
#
# Coordination Sequence:
#
# PCOD8246286 Si02
#       8
#     8   8   8   8   8   8   8   8
#     4   9  17  30  47  70  89 121 156 194 243 260
#     4   9  17  30  52  66  89 122 158 198 231 269
#     4  10  19  33  46  68  97 127 159 188 220 275
#     4  10  18  28  43  65  90 125 151 188 220 274
#     4  10  16  30  49  65  84 116 147 204 239 255
#     4  10  17  30  45  63  88 119 158 190 228 262
#     4  10  19  30  44  67 102 124 153 192 221 275
#     4  10  21  33  48  68  95 128 154 192 231 270
#
# _framework density 16.933482000000001
#
# number of rings (size 3 to 8) (size 9 to 14) (size 15 to 20)
#    0.000    2.250    2.500    2.250    0.000    3.000 
#    4.500    0.000    0.000    0.000    0.000    0.000 
#    0.000   20.000    0.000    0.000    0.000    0.000 
#
# Total GULP energy -792855.820344 kJ/mol
# GULP energy per Si atom -12388.372193 kJ/mol
# Density = 1.689494 g / cm^3
# Si number density = 16.933482 Si / 1000 Ang^3
#
#
#
# Elastic Constant Matrix: (Units=GPa)
#
#
# Indices 1 2 3 4 5 6 
#
# 1 25.3808 -7.9168 17.0092 0.0000 0.0000 0.0000
# 2 -7.9168 109.6046 4.6490 0.0000 0.0000 0.0000
# 3 17.0092 4.6490 67.4098 0.0000 0.0000 0.0000
# 4 0.0000 0.0000 0.0000 16.3814 0.0000 0.0000
# 5 0.0000 0.0000 0.0000 0.0000 1.4797 0.0000
# 6 0.0000 0.0000 0.0000 0.0000 0.0000 8.2249
#
#
#
# Elastic Compliance Matrix: (Units=1/GPa)
#
#
# Indices 1 2 3 4 5 6 
#
# 1 0.049181 0.004091 -0.012692 0.000000 0.000000 0.000000
# 2 0.004091 0.009491 -0.001687 0.000000 0.000000 0.000000
# 3 -0.012692 -0.001687 0.018153 0.000000 0.000000 0.000000
# 4 0.000000 0.000000 0.000000 0.061045 0.000000 0.000000
# 5 0.000000 0.000000 0.000000 0.000000 0.675802 0.000000
# 6 0.000000 0.000000 0.000000 0.000000 0.000000 0.121583
#
#
# Mechanical properties :
#
#
# Convention : Reuss Voigt Hill
#
# Bulk Modulus (GPa) = 17.77782 25.54203 21.65992
# Shear Modulus (GPa) = 5.13041 17.79411 11.46226
#
# Velocity S-wave (km/s) = 1.74250 3.24516 2.60455
# Velocity P-wave (km/s) = 3.81705 5.39980 4.67588
#
# Compressibility (1/GPa) = 0.05624988
#
# Stress axis : x y z
#
# Youngs Moduli (GPa) = 20.33286 105.36602 55.08596
#
# Poissons Ratio (x) = -0.43102 0.69914
# Poissons Ratio (y) = -0.08318 0.09292
# Poissons Ratio (z) = 0.25806 0.17773
#
# Static dielectric constant tensor:
#      x y z
#    x 2.836930 0.000000 0.000000 
#    y 0.000000 4.106000 0.000000 
#    z 0.000000 0.000000 3.172770 
# 
# 
# High freq. dielectric constant tensor:
#      x y z
#    x 1.596370 0.000000 0.000000 
#    y 0.000000 1.691990 0.000000 
#    z 0.000000 0.000000 1.633010 
# 
# From -- ./inp_files/24637.got.cif
#   From: 2010.03.12/outbox.cif.g09.slc.cpg/sg60_13_cif.got.tgz:24637.got - 2010.04.10 18:46:24.
