data_PCOD8246458
_publ_section_title
;
Structure prediction by ZEFSAII (Michael W. Deem and Ramdas Pophale) SiO2 
 PCOD8246458
Probable space group: P B C N
;
_chemical_formula_sum "Si O2"
_cell_formula_units_Z 48
_cell_length_a 9.046561
_cell_length_b 15.185774
_cell_length_c 16.356678
_cell_angle_alpha 90.000000
_cell_angle_beta 90.000000
_cell_angle_gamma 90.000000
_cell_volume 2247.064571
_symmetry_space_group_name_H-M "P B C N"
_symmetry_group_IT_number 60
_symmetry_cell_setting 'orthorhombic'
loop_
_space_group_symop_operation_xyz
x,y,z
1/2-x,1/2-y,1/2+z
1/2+x,1/2-y,-z
-x,y,1/2-z
-x,-y,-z
1/2+x,1/2+y,1/2-z
1/2-x,1/2+y,z
x,-y,1/2+z
loop_
_atom_site_type_symbol
_atom_site_label
_atom_site_fract_x
_atom_site_fract_y
_atom_site_fract_z
Si Si1 0.669403 0.440125 0.649978
Si Si2 0.245915 0.630069 0.849813
Si Si3 0.879665 0.713606 0.410955
Si Si4 0.500000 0.217459 0.750000
Si Si5 0.192921 0.709049 0.460426
Si Si6 0.648193 0.381831 0.826428
Si Si7 0.000000 0.802101 0.250000
O O1 0.743089 0.529961 0.617476
O O2 0.739837 0.360429 0.601218
O O3 0.708543 0.430054 0.745696
O O4 0.491506 0.435218 0.637059
O O5 0.284597 0.692665 0.925338
O O6 0.366739 0.636093 0.777806
O O7 0.087572 0.654130 0.811930
O O8 0.779350 0.790501 0.452957
O O9 0.777818 0.626989 0.394019
O O10 0.017250 0.690068 0.471158
O O11 0.947509 0.741821 0.324630
O O12 0.606204 0.281078 0.802555
#
# Coordination Sequence:
#
# PCOD8246458 Si02
#       7
#     8   8   8   4   8   8   4
#     4  10  21  38  63  92 128 161 214 259 319 382
#     4  11  21  38  62  94 127 168 208 267 322 378
#     4  11  22  38  68  87 128 166 215 258 324 382
#     4  10  18  35  65  84 126 162 218 257 317 368
#     4  11  23  39  60  89 124 165 205 264 327 387
#     4  10  18  39  62  89 118 172 215 262 311 376
#     4  10  20  39  61 100 116 166 224 259 311 394
#
# _framework density 21.361201000000001
#
# number of rings (size 3 to 8) (size 9 to 14) (size 15 to 20)
#    0.000    1.667    5.000    3.000    0.000    1.333 
#    0.000   10.000    0.000    0.000    0.000    0.000 
#    0.000    0.000    0.000    0.000    0.000    0.000 
#
# Total GULP energy -595043.683707 kJ/mol
# GULP energy per Si atom -12396.743411 kJ/mol
# Density = 2.131258 g / cm^3
# Si number density = 21.361201 Si / 1000 Ang^3
#
#
#
# Elastic Constant Matrix: (Units=GPa)
#
#
# Indices 1 2 3 4 5 6 
#
# 1 93.9835 22.6125 34.6073 0.0000 0.0000 0.0000
# 2 22.6125 118.0429 19.4338 0.0000 0.0000 0.0000
# 3 34.6073 19.4338 49.0183 0.0000 0.0000 0.0000
# 4 0.0000 0.0000 0.0000 7.7232 0.0000 0.0000
# 5 0.0000 0.0000 0.0000 0.0000 34.4397 0.0000
# 6 0.0000 0.0000 0.0000 0.0000 0.0000 21.1624
#
#
#
# Elastic Compliance Matrix: (Units=1/GPa)
#
#
# Indices 1 2 3 4 5 6 
#
# 1 0.014528 -0.001171 -0.009793 0.000000 0.000000 0.000000
# 2 -0.001171 0.009157 -0.002804 0.000000 0.000000 0.000000
# 3 -0.009793 -0.002804 0.028426 0.000000 0.000000 0.000000
# 4 0.000000 0.000000 0.000000 0.129479 0.000000 0.000000
# 5 0.000000 0.000000 0.000000 0.000000 0.029036 0.000000
# 6 0.000000 0.000000 0.000000 0.000000 0.000000 0.047254
#
#
# Mechanical properties :
#
#
# Convention : Reuss Voigt Hill
#
# Bulk Modulus (GPa) = 40.68945 46.03911 43.36428
# Shear Modulus (GPa) = 17.02956 24.95780 20.99368
#
# Velocity S-wave (km/s) = 2.82657 3.42185 3.13836
# Velocity P-wave (km/s) = 5.45365 6.10013 5.78593
#
# Compressibility (1/GPa) = 0.02457640
#
# Stress axis : x y z
#
# Youngs Moduli (GPa) = 68.83376 109.20134 35.17929
#
# Poissons Ratio (x) = 0.12785 0.34449
# Poissons Ratio (y) = 0.08059 0.09864
# Poissons Ratio (z) = 0.67406 0.30619
#
# Static dielectric constant tensor:
#      x y z
#    x 4.321640 0.000000 0.000000 
#    y 0.000000 3.548090 0.000000 
#    z 0.000000 0.000000 3.755740 
# 
# 
# High freq. dielectric constant tensor:
#      x y z
#    x 1.851790 0.000000 0.000000 
#    y 0.000000 1.803050 0.000000 
#    z 0.000000 0.000000 1.825790 
# 
# From -- ./inp_files/19351.got.cif
#   From: 2010.03.12/outbox.cif.g09.slc.cpg/sg60_10_cif.got.tgz:19351.got - 2010.04.10 18:46:24.
