data_PCOD8246604
_publ_section_title
;
Structure prediction by ZEFSAII (Michael W. Deem and Ramdas Pophale) SiO2 
 PCOD8246604
Probable space group: P B C N
;
_chemical_formula_sum "Si O2"
_cell_formula_units_Z 64
_cell_length_a 24.236565
_cell_length_b 5.306599
_cell_length_c 24.944068
_cell_angle_alpha 90.000000
_cell_angle_beta 90.000000
_cell_angle_gamma 90.000000
_cell_volume 3208.149667
_symmetry_space_group_name_H-M "P B C N"
_symmetry_group_IT_number 60
_symmetry_cell_setting 'orthorhombic'
loop_
_space_group_symop_operation_xyz
x,y,z
1/2-x,1/2-y,1/2+z
1/2+x,1/2-y,-z
-x,y,1/2-z
-x,-y,-z
1/2+x,1/2+y,1/2-z
1/2-x,1/2+y,z
x,-y,1/2+z
loop_
_atom_site_type_symbol
_atom_site_label
_atom_site_fract_x
_atom_site_fract_y
_atom_site_fract_z
Si Si1 0.048403 0.767517 0.444123
Si Si2 0.275805 0.756407 0.398996
Si Si3 0.405881 0.767419 0.390957
Si Si4 0.607941 0.752494 0.450672
Si Si5 0.939717 0.756050 0.275906
Si Si6 0.063106 0.744034 0.769280
Si Si7 0.428710 0.252712 0.099089
Si Si8 0.729479 0.745317 0.481035
O O1 0.079171 0.538245 0.414952
O O2 0.057460 0.746927 0.507803
O O3 0.983528 0.750067 0.436124
O O4 0.070740 0.038201 0.425558
O O5 0.248569 0.509364 0.371688
O O6 0.340482 0.744367 0.389076
O O7 0.260285 0.760818 0.461719
O O8 0.433513 0.746896 0.332965
O O9 0.605956 0.504965 0.413324
O O10 0.663606 0.749741 0.486013
O O11 0.606547 0.003285 0.414352
O O12 0.907756 0.007937 0.256117
O O13 0.000000 0.763883 0.250000
O O14 0.907622 0.508588 0.253864
O O15 0.945477 0.748859 0.339291
O O16 0.000000 0.736436 0.750000
O O17 0.749161 0.493837 0.449528
#
# Coordination Sequence:
#
# PCOD8246604 Si02
#       8
#     8   8   8   8   8   8   8   8
#     4  12  22  37  55  84 130 170 196 230 289 371
#     4  10  20  35  55  85 118 150 196 254 299 350
#     4  12  22  36  63  93 122 164 207 249 309 368
#     4  12  24  38  57  86 124 166 198 241 301 363
#     4  10  20  37  58  80 112 151 198 249 288 333
#     4  10  19  34  55  87 118 152 199 249 301 361
#     4  12  24  39  57  87 125 163 204 242 289 365
#     4  10  19  36  57  80 110 150 199 250 290 341
#
# _framework density 19.949193000000001
#
# number of rings (size 3 to 8) (size 9 to 14) (size 15 to 20)
#    0.000    1.000    0.000   11.250    0.000    0.000 
#    0.000    0.000    0.000    0.000    0.000   17.500 
#    0.000    0.000    0.000    0.000    0.000    0.000 
#
# Total GULP energy -793435.404427 kJ/mol
# GULP energy per Si atom -12397.428194 kJ/mol
# Density = 1.990379 g / cm^3
# Si number density = 19.949193 Si / 1000 Ang^3
#
#
#
# Elastic Constant Matrix: (Units=GPa)
#
#
# Indices 1 2 3 4 5 6 
#
# 1 68.2424 21.1203 7.8493 0.0000 0.0000 0.0000
# 2 21.1203 192.9633 28.0529 0.0000 0.0000 0.0000
# 3 7.8493 28.0529 96.3600 0.0000 0.0000 0.0000
# 4 0.0000 0.0000 0.0000 21.3934 0.0000 0.0000
# 5 0.0000 0.0000 0.0000 0.0000 20.2676 0.0000
# 6 0.0000 0.0000 0.0000 0.0000 0.0000 24.5938
#
#
#
# Elastic Compliance Matrix: (Units=1/GPa)
#
#
# Indices 1 2 3 4 5 6 
#
# 1 0.015225 -0.001552 -0.000788 0.000000 0.000000 0.000000
# 2 -0.001552 0.005570 -0.001495 0.000000 0.000000 0.000000
# 3 -0.000788 -0.001495 0.010877 0.000000 0.000000 0.000000
# 4 0.000000 0.000000 0.000000 0.046743 0.000000 0.000000
# 5 0.000000 0.000000 0.000000 0.000000 0.049340 0.000000
# 6 0.000000 0.000000 0.000000 0.000000 0.000000 0.040661
#
#
# Mechanical properties :
#
#
# Convention : Reuss Voigt Hill
#
# Bulk Modulus (GPa) = 41.66503 52.40119 47.03311
# Shear Modulus (GPa) = 27.16124 33.28717 30.22421
#
# Velocity S-wave (km/s) = 3.69388 4.08928 3.89660
# Velocity P-wave (km/s) = 6.25491 6.97285 6.62361
#
# Compressibility (1/GPa) = 0.02400094
#
# Stress axis : x y z
#
# Youngs Moduli (GPa) = 65.68327 179.54858 91.93529
#
# Poissons Ratio (x) = 0.27861 0.07248
# Poissons Ratio (y) = 0.10192 0.13745
# Poissons Ratio (z) = 0.05178 0.26843
#
# Static dielectric constant tensor:
#      x y z
#    x 3.334830 0.000000 0.000000 
#    y 0.000000 7.043650 0.000000 
#    z 0.000000 0.000000 3.335760 
# 
# 
# High freq. dielectric constant tensor:
#      x y z
#    x 1.745820 0.000000 0.000000 
#    y 0.000000 1.827660 0.000000 
#    z 0.000000 0.000000 1.745470 
# 
# From -- ./inp_files/24634.got.cif
#   From: 2010.03.12/outbox.cif.g09.slc.cpg/sg60_13_cif.got.tgz:24634.got - 2010.04.10 18:46:24.
