data_PCOD8246305
_publ_section_title
;
Structure prediction by ZEFSAII (Michael W. Deem and Ramdas Pophale) SiO2 
 PCOD8246305
Probable space group: P B C N
;
_chemical_formula_sum "Si O2"
_cell_formula_units_Z 32
_cell_length_a 7.964270
_cell_length_b 34.246974
_cell_length_c 5.250397
_cell_angle_alpha 90.000000
_cell_angle_beta 90.000000
_cell_angle_gamma 90.000000
_cell_volume 1432.057058
_symmetry_space_group_name_H-M "P B C N"
_symmetry_group_IT_number 60
_symmetry_cell_setting 'orthorhombic'
loop_
_space_group_symop_operation_xyz
x,y,z
1/2-x,1/2-y,1/2+z
1/2+x,1/2-y,-z
-x,y,1/2-z
-x,-y,-z
1/2+x,1/2+y,1/2-z
1/2-x,1/2+y,z
x,-y,1/2+z
loop_
_atom_site_type_symbol
_atom_site_label
_atom_site_fract_x
_atom_site_fract_y
_atom_site_fract_z
Si Si1 0.689672 0.605229 0.788797
Si Si2 0.687744 0.484253 0.444831
Si Si3 0.696025 0.772151 0.780266
Si Si4 0.806014 0.858444 0.786850
O O1 0.500000 0.620312 0.750000
O O2 0.693763 0.559772 0.850654
O O3 0.777146 0.616615 0.519694
O O4 0.780517 0.628669 0.019718
O O5 0.500000 0.500000 0.500000
O O6 0.777777 0.490320 0.719385
O O7 0.772515 0.756014 0.518480
O O8 0.500000 0.779028 0.750000
O O9 0.785258 0.812880 0.841623
O O10 0.000000 0.870047 0.750000
#
# Coordination Sequence:
#
# PCOD8246305 Si02
#       4
#     8   8   8   8
#     4  10  18  29  46  73 113 158 187 242 298 367
#     4  10  17  24  41  66 107 155 195 233 299 356
#     4  12  25  44  69  94 124 162 212 260 315 386
#     4  10  21  34  53  81 117 154 193 242 314 359
#
# _framework density 22.345479000000001
#
# number of rings (size 3 to 8) (size 9 to 14) (size 15 to 20)
#    0.000    1.500    2.500    5.250    7.000    2.000 
#    0.000    0.000    0.000    0.000    0.000    0.000 
#    0.000   20.000    0.000    0.000    0.000    0.000 
#
# Total GULP energy -396508.436386 kJ/mol
# GULP energy per Si atom -12390.888637 kJ/mol
# Density = 2.229462 g / cm^3
# Si number density = 22.345479 Si / 1000 Ang^3
#
#
#
# Elastic Constant Matrix: (Units=GPa)
#
#
# Indices 1 2 3 4 5 6 
#
# 1 12.2276 6.8476 17.5685 0.0000 0.0000 0.0000
# 2 6.8476 133.9360 70.9809 0.0000 0.0000 0.0000
# 3 17.5685 70.9809 249.2170 0.0000 0.0000 0.0000
# 4 0.0000 0.0000 0.0000 57.4095 0.0000 0.0000
# 5 0.0000 0.0000 0.0000 0.0000 10.6228 0.0000
# 6 0.0000 0.0000 0.0000 0.0000 0.0000 13.5598
#
#
#
# Elastic Compliance Matrix: (Units=1/GPa)
#
#
# Indices 1 2 3 4 5 6 
#
# 1 0.091248 -0.001479 -0.006011 0.000000 0.000000 0.000000
# 2 -0.001479 0.008818 -0.002407 0.000000 0.000000 0.000000
# 3 -0.006011 -0.002407 0.005122 0.000000 0.000000 0.000000
# 4 0.000000 0.000000 0.000000 0.017419 0.000000 0.000000
# 5 0.000000 0.000000 0.000000 0.000000 0.094138 0.000000
# 6 0.000000 0.000000 0.000000 0.000000 0.000000 0.073748
#
#
# Mechanical properties :
#
#
# Convention : Reuss Voigt Hill
#
# Bulk Modulus (GPa) = 11.71074 65.13050 38.42062
# Shear Modulus (GPa) = 14.76015 36.31731 25.53873
#
# Velocity S-wave (km/s) = 2.57289 4.03583 3.38435
# Velocity P-wave (km/s) = 3.75213 7.13636 5.70114
#
# Compressibility (1/GPa) = 0.08539168
#
# Stress axis : x y z
#
# Youngs Moduli (GPa) = 10.95920 113.41010 195.24034
#
# Poissons Ratio (x) = 0.16779 1.17361
# Poissons Ratio (y) = 0.01621 0.46996
# Poissons Ratio (z) = 0.06588 0.27299
#
# Static dielectric constant tensor:
#      x y z
#    x 3.365500 0.000000 0.000000 
#    y 0.000000 3.861500 0.000000 
#    z 0.000000 0.000000 -5.195990 
# 
# 
# High freq. dielectric constant tensor:
#      x y z
#    x 1.804560 0.000000 0.000000 
#    y 0.000000 1.884480 0.000000 
#    z 0.000000 0.000000 1.928430 
# 
# From -- ./inp_files/356.got.cif
#   From: 2010.03.12/outbox.cif.g09.slc.cpg/sg60_1_cif.got.tgz:356.got - 2010.04.10 18:46:24.
