data_PCOD8246509
_publ_section_title
;
Structure prediction by ZEFSAII (Michael W. Deem and Ramdas Pophale) SiO2 
 PCOD8246509
Probable space group: P B C N
;
_chemical_formula_sum "Si O2"
_cell_formula_units_Z 44
_cell_length_a 16.569183
_cell_length_b 8.287939
_cell_length_c 15.939787
_cell_angle_alpha 90.000000
_cell_angle_beta 90.000000
_cell_angle_gamma 90.000000
_cell_volume 2188.921335
_symmetry_space_group_name_H-M "P B C N"
_symmetry_group_IT_number 60
_symmetry_cell_setting 'orthorhombic'
loop_
_space_group_symop_operation_xyz
x,y,z
1/2-x,1/2-y,1/2+z
1/2+x,1/2-y,-z
-x,y,1/2-z
-x,-y,-z
1/2+x,1/2+y,1/2-z
1/2-x,1/2+y,z
x,-y,1/2+z
loop_
_atom_site_type_symbol
_atom_site_label
_atom_site_fract_x
_atom_site_fract_y
_atom_site_fract_z
Si Si1 0.000000 0.581237 0.750000
Si Si2 0.175561 0.109059 0.287775
Si Si3 0.568221 0.123922 0.030612
Si Si4 0.077855 0.181053 0.128936
Si Si5 0.842671 0.466392 0.167404
Si Si6 0.468779 0.395685 0.341986
O O1 0.985107 0.696600 0.829062
O O2 0.919939 0.480722 0.725564
O O3 0.152801 0.143828 0.190537
O O4 0.168199 0.275052 0.338540
O O5 0.266911 0.049712 0.289009
O O6 0.119679 0.975537 0.332386
O O7 0.530354 0.236340 0.102406
O O8 0.643021 0.027860 0.072336
O O9 0.606116 0.235292 0.957319
O O10 0.500000 0.000000 0.000000
O O11 0.029494 0.017425 0.110927
O O12 0.500000 0.350229 0.250000
#
# Coordination Sequence:
#
# PCOD8246509 Si02
#       6
#     4   8   8   8   8   8
#     4  10  18  40  64  82 128 168 222 258 328 398
#     4  10  21  42  65  88 128 172 216 265 330 395
#     4  12  23  35  63 100 129 168 223 273 318 389
#     4  10  19  41  65  92 124 169 216 275 321 386
#     4  11  22  39  62  92 126 173 217 265 335 388
#     4  10  20  38  66  94 125 169 215 259 329 392
#
# _framework density 20.101226
#
# number of rings (size 3 to 8) (size 9 to 14) (size 15 to 20)
#    0.000    1.455    6.364    1.636    1.273    0.000 
#    0.000    7.273    0.000    0.000    0.000    0.000 
#    0.000    0.000    0.000    0.000    0.000    0.000 
#
# Total GULP energy -545490.286397 kJ/mol
# GULP energy per Si atom -12397.506509 kJ/mol
# Density = 2.005547 g / cm^3
# Si number density = 20.101226 Si / 1000 Ang^3
#
#
#
# Elastic Constant Matrix: (Units=GPa)
#
#
# Indices 1 2 3 4 5 6 
#
# 1 147.0701 60.8774 48.5215 0.0000 0.0000 0.0000
# 2 60.8774 111.6336 73.8000 0.0000 0.0000 0.0000
# 3 48.5215 73.8000 103.4810 0.0000 0.0000 0.0000
# 4 0.0000 0.0000 0.0000 46.5416 0.0000 0.0000
# 5 0.0000 0.0000 0.0000 0.0000 24.9201 0.0000
# 6 0.0000 0.0000 0.0000 0.0000 0.0000 16.6668
#
#
#
# Elastic Compliance Matrix: (Units=1/GPa)
#
#
# Indices 1 2 3 4 5 6 
#
# 1 0.008879 -0.003954 -0.001344 0.000000 0.000000 0.000000
# 2 -0.003954 0.018709 -0.011489 0.000000 0.000000 0.000000
# 3 -0.001344 -0.011489 0.018487 0.000000 0.000000 0.000000
# 4 0.000000 0.000000 0.000000 0.021486 0.000000 0.000000
# 5 0.000000 0.000000 0.000000 0.000000 0.040128 0.000000
# 6 0.000000 0.000000 0.000000 0.000000 0.000000 0.059999
#
#
# Mechanical properties :
#
#
# Convention : Reuss Voigt Hill
#
# Bulk Modulus (GPa) = 79.98191 80.95361 80.46776
# Shear Modulus (GPa) = 24.33904 29.55808 26.94856
#
# Velocity S-wave (km/s) = 3.48346 3.83882 3.66545
# Velocity P-wave (km/s) = 7.48701 7.74656 7.61789
#
# Compressibility (1/GPa) = 0.01250283
#
# Stress axis : x y z
#
# Youngs Moduli (GPa) = 112.61938 53.44884 54.09095
#
# Poissons Ratio (x) = 0.21134 0.07268
# Poissons Ratio (y) = 0.44530 0.62146
# Poissons Ratio (z) = 0.15132 0.61408
#
# Static dielectric constant tensor:
#      x y z
#    x 3.555620 0.000000 0.000000 
#    y 0.000000 3.810800 0.000000 
#    z 0.000000 0.000000 4.045600 
# 
# 
# High freq. dielectric constant tensor:
#      x y z
#    x 1.767830 0.000000 0.000000 
#    y 0.000000 1.801740 0.000000 
#    z 0.000000 0.000000 1.774810 
# 
# From -- ./inp_files/17293.got.cif
#   From: 2010.03.12/outbox.cif.g09.slc.cpg/sg60_9_cif.got.tgz:17293.got - 2010.04.10 18:46:24.
