data_PCOD8246857
_publ_section_title
;
Structure prediction by ZEFSAII (Michael W. Deem and Ramdas Pophale) SiO2 
 PCOD8246857
Probable space group: P B C N
;
_chemical_formula_sum "Si O2"
_cell_formula_units_Z 64
_cell_length_a 27.133980
_cell_length_b 13.358756
_cell_length_c 9.541283
_cell_angle_alpha 90.000000
_cell_angle_beta 90.000000
_cell_angle_gamma 90.000000
_cell_volume 3458.488178
_symmetry_space_group_name_H-M "P B C N"
_symmetry_group_IT_number 60
_symmetry_cell_setting 'orthorhombic'
loop_
_space_group_symop_operation_xyz
x,y,z
1/2-x,1/2-y,1/2+z
1/2+x,1/2-y,-z
-x,y,1/2-z
-x,-y,-z
1/2+x,1/2+y,1/2-z
1/2-x,1/2+y,z
x,-y,1/2+z
loop_
_atom_site_type_symbol
_atom_site_label
_atom_site_fract_x
_atom_site_fract_y
_atom_site_fract_z
Si Si1 0.957645 0.075867 0.136708
Si Si2 0.690955 0.102670 0.011825
Si Si3 0.357505 0.399615 0.715937
Si Si4 0.120163 0.770400 0.451643
Si Si5 0.709610 0.298543 0.570588
Si Si6 0.174328 0.883921 0.214705
Si Si7 0.282786 0.913465 0.305488
Si Si8 0.479769 0.647325 0.901025
O O1 0.907141 0.118987 0.196334
O O2 0.000000 0.085316 0.250000
O O3 0.951736 0.959834 0.093350
O O4 0.972993 0.143270 0.003459
O O5 0.638379 0.155405 0.040915
O O6 0.732062 0.183384 0.058175
O O7 0.696560 0.003362 0.102108
O O8 0.695126 0.074640 0.849161
O O9 0.356351 0.329494 0.581411
O O10 0.311186 0.374214 0.813418
O O11 0.352729 0.514250 0.665823
O O12 0.137097 0.821277 0.308203
O O13 0.060495 0.771833 0.453563
O O14 0.684913 0.317018 0.420755
O O15 0.698070 0.186548 0.619293
O O16 0.223639 0.912020 0.299855
O O17 0.500000 0.677634 0.750000
#
# Coordination Sequence:
#
# PCOD8246857 Si02
#       8
#     8   8   8   8   8   8   8   8
#     4  10  20  35  53  82 119 161 193 241 293 362
#     4  11  25  40  62  86 120 162 207 251 296 353
#     4  12  22  38  58  89 123 164 206 239 299 361
#     4  12  23  38  58  88 120 162 204 247 299 365
#     4  11  24  39  58  87 125 165 204 241 298 356
#     4  11  24  34  59  87 126 166 198 245 296 357
#     4  11  24  42  58  86 122 164 206 254 292 347
#     4  10  22  35  55  85 122 154 196 245 308 365
#
# _framework density 18.505196000000002
#
# number of rings (size 3 to 8) (size 9 to 14) (size 15 to 20)
#    0.000    1.000    6.250    0.750    5.250    0.000 
#    0.000    0.000    0.000    0.000    0.000    4.375 
#    0.000    0.000    0.000    0.000    0.000    0.000 
#
# Total GULP energy -793914.607146 kJ/mol
# GULP energy per Si atom -12404.915737 kJ/mol
# Density = 1.846308 g / cm^3
# Si number density = 18.505196 Si / 1000 Ang^3
#
#
#
# Elastic Constant Matrix: (Units=GPa)
#
#
# Indices 1 2 3 4 5 6 
#
# 1 71.1847 25.1984 32.6712 0.0000 0.0000 0.0000
# 2 25.1984 96.5370 44.9799 0.0000 0.0000 0.0000
# 3 32.6712 44.9799 103.8110 0.0000 0.0000 0.0000
# 4 0.0000 0.0000 0.0000 24.8632 0.0000 0.0000
# 5 0.0000 0.0000 0.0000 0.0000 26.7918 0.0000
# 6 0.0000 0.0000 0.0000 0.0000 0.0000 28.0059
#
#
#
# Elastic Compliance Matrix: (Units=1/GPa)
#
#
# Indices 1 2 3 4 5 6 
#
# 1 0.016858 -0.002416 -0.004259 0.000000 0.000000 0.000000
# 2 -0.002416 0.013325 -0.005013 0.000000 0.000000 0.000000
# 3 -0.004259 -0.005013 0.013145 0.000000 0.000000 0.000000
# 4 0.000000 0.000000 0.000000 0.040220 0.000000 0.000000
# 5 0.000000 0.000000 0.000000 0.000000 0.037325 0.000000
# 6 0.000000 0.000000 0.000000 0.000000 0.000000 0.035707
#
#
# Mechanical properties :
#
#
# Convention : Reuss Voigt Hill
#
# Bulk Modulus (GPa) = 50.11906 53.02573 51.57240
# Shear Modulus (GPa) = 26.79433 27.17772 26.98602
#
# Velocity S-wave (km/s) = 3.80930 3.83646 3.82290
# Velocity P-wave (km/s) = 6.81838 6.95279 6.88591
#
# Compressibility (1/GPa) = 0.01995249
#
# Stress axis : x y z
#
# Youngs Moduli (GPa) = 59.31991 75.04568 76.07266
#
# Poissons Ratio (x) = 0.18131 0.32396
# Poissons Ratio (y) = 0.14332 0.38137
# Poissons Ratio (z) = 0.25262 0.37622
#
# Static dielectric constant tensor:
#      x y z
#    x 3.425100 0.000000 0.000000 
#    y 0.000000 3.179830 0.000000 
#    z 0.000000 0.000000 3.596670 
# 
# 
# High freq. dielectric constant tensor:
#      x y z
#    x 1.706630 0.000000 0.000000 
#    y 0.000000 1.685560 0.000000 
#    z 0.000000 0.000000 1.739550 
# 
# From -- ./inp_files/8504.got.cif
#   From: 2010.03.12/outbox.cif.g09.slc.cpg/sg60_5_cif.got.tgz:8504.got - 2010.04.10 18:46:24.
