data_PCOD8246973
_publ_section_title
;
Structure prediction by ZEFSAII (Michael W. Deem and Ramdas Pophale) SiO2 
 PCOD8246973
Probable space group: P B C N
;
_chemical_formula_sum "Si O2"
_cell_formula_units_Z 60
_cell_length_a 25.831396
_cell_length_b 9.159911
_cell_length_c 12.559937
_cell_angle_alpha 90.000000
_cell_angle_beta 90.000000
_cell_angle_gamma 90.000000
_cell_volume 2971.847995
_symmetry_space_group_name_H-M "P B C N"
_symmetry_group_IT_number 60
_symmetry_cell_setting 'orthorhombic'
loop_
_space_group_symop_operation_xyz
x,y,z
1/2-x,1/2-y,1/2+z
1/2+x,1/2-y,-z
-x,y,1/2-z
-x,-y,-z
1/2+x,1/2+y,1/2-z
1/2-x,1/2+y,z
x,-y,1/2+z
loop_
_atom_site_type_symbol
_atom_site_label
_atom_site_fract_x
_atom_site_fract_y
_atom_site_fract_z
Si Si1 0.088437 0.008908 0.393384
Si Si2 0.082822 0.193360 0.092032
Si Si3 0.735028 0.044084 0.740331
Si Si4 0.845906 0.964352 0.297656
Si Si5 0.838625 0.575951 0.932668
Si Si6 0.151650 0.237710 0.513929
Si Si7 0.759961 0.301704 0.584790
Si Si8 0.500000 0.621493 0.250000
O O1 0.105798 0.168320 0.440744
O O2 0.039427 0.020828 0.315745
O O3 0.071372 0.895307 0.484196
O O4 0.135644 0.939629 0.324366
O O5 0.103978 0.356278 0.070683
O O6 0.031167 0.216607 0.162799
O O7 0.125469 0.106241 0.158592
O O8 0.785198 0.996137 0.808107
O O9 0.686096 0.072799 0.815136
O O10 0.755486 0.167544 0.662354
O O11 0.716692 0.922530 0.660977
O O12 0.857672 0.818850 0.366001
O O13 0.844147 0.414258 0.985370
O O14 0.803547 0.696528 0.993816
O O15 0.204730 0.167898 0.469860
#
# Coordination Sequence:
#
# PCOD8246973 Si02
#       8
#     8   8   8   8   8   8   8   4
#     4  10  21  42  71  94 124 161 219 272 337 379
#     4  10  23  40  67  93 126 164 217 274 325 383
#     4  12  23  36  58  87 128 176 220 254 314 377
#     4  10  20  37  61  89 125 169 211 264 312 377
#     4  12  26  39  60  92 137 176 220 258 320 393
#     4  11  23  40  58  91 133 168 214 266 320 385
#     4  12  24  36  56  88 128 177 216 260 305 379
#     4  10  22  42  72 100 118 160 222 286 332 382
#
# _framework density 20.189457999999998
#
# number of rings (size 3 to 8) (size 9 to 14) (size 15 to 20)
#    0.000    1.067    4.000    2.800    5.600    0.000 
#    0.000    0.667    0.000    8.000    0.000    0.000 
#    0.000    0.000    0.000    0.000    0.000    0.000 
#
# Total GULP energy -743488.224447 kJ/mol
# GULP energy per Si atom -12391.470407 kJ/mol
# Density = 2.014351 g / cm^3
# Si number density = 20.189458 Si / 1000 Ang^3
#
#
#
# Elastic Constant Matrix: (Units=GPa)
#
#
# Indices 1 2 3 4 5 6 
#
# 1 96.1689 27.6420 41.2483 0.0000 0.0000 0.0000
# 2 27.6420 81.6089 39.1308 0.0000 0.0000 0.0000
# 3 41.2483 39.1308 117.1376 0.0000 0.0000 0.0000
# 4 0.0000 0.0000 0.0000 28.2327 0.0000 0.0000
# 5 0.0000 0.0000 0.0000 0.0000 37.0556 0.0000
# 6 0.0000 0.0000 0.0000 0.0000 0.0000 19.3739
#
#
#
# Elastic Compliance Matrix: (Units=1/GPa)
#
#
# Indices 1 2 3 4 5 6 
#
# 1 0.012684 -0.002566 -0.003609 0.000000 0.000000 0.000000
# 2 -0.002566 0.015110 -0.004144 0.000000 0.000000 0.000000
# 3 -0.003609 -0.004144 0.011192 0.000000 0.000000 0.000000
# 4 0.000000 0.000000 0.000000 0.035420 0.000000 0.000000
# 5 0.000000 0.000000 0.000000 0.000000 0.026986 0.000000
# 6 0.000000 0.000000 0.000000 0.000000 0.000000 0.051616
#
#
# Mechanical properties :
#
#
# Convention : Reuss Voigt Hill
#
# Bulk Modulus (GPa) = 54.50242 56.77307 55.63774
# Shear Modulus (GPa) = 27.81452 29.39204 28.60328
#
# Velocity S-wave (km/s) = 3.71573 3.81965 3.76805
# Velocity P-wave (km/s) = 6.74262 6.90175 6.82265
#
# Compressibility (1/GPa) = 0.01834781
#
# Stress axis : x y z
#
# Youngs Moduli (GPa) = 78.84003 66.18310 89.34683
#
# Poissons Ratio (x) = 0.16979 0.32249
# Poissons Ratio (y) = 0.20227 0.37026
# Poissons Ratio (z) = 0.28457 0.27427
#
# Static dielectric constant tensor:
#      x y z
#    x 3.675760 0.000000 0.000000 
#    y 0.000000 3.368460 0.000000 
#    z 0.000000 0.000000 4.047470 
# 
# 
# High freq. dielectric constant tensor:
#      x y z
#    x 1.771540 0.000000 0.000000 
#    y 0.000000 1.766460 0.000000 
#    z 0.000000 0.000000 1.814590 
# 
# From -- ./inp_files/13272.got.cif
#   From: 2010.03.12/outbox.cif.g09.slc.cpg/sg60_7_cif.got.tgz:13272.got - 2010.04.10 18:46:24.
