data_PCOD8246347
_publ_section_title
;
Structure prediction by ZEFSAII (Michael W. Deem and Ramdas Pophale) SiO2 
 PCOD8246347
Probable space group: P B C N
;
_chemical_formula_sum "Si O2"
_cell_formula_units_Z 48
_cell_length_a 9.456714
_cell_length_b 29.242450
_cell_length_c 8.396077
_cell_angle_alpha 90.000000
_cell_angle_beta 90.000000
_cell_angle_gamma 90.000000
_cell_volume 2321.830028
_symmetry_space_group_name_H-M "P B C N"
_symmetry_group_IT_number 60
_symmetry_cell_setting 'orthorhombic'
loop_
_space_group_symop_operation_xyz
x,y,z
1/2-x,1/2-y,1/2+z
1/2+x,1/2-y,-z
-x,y,1/2-z
-x,-y,-z
1/2+x,1/2+y,1/2-z
1/2-x,1/2+y,z
x,-y,1/2+z
loop_
_atom_site_type_symbol
_atom_site_label
_atom_site_fract_x
_atom_site_fract_y
_atom_site_fract_z
Si Si1 0.341454 0.697407 0.716175
Si Si2 0.000000 0.202409 0.250000
Si Si3 0.841251 0.616414 0.301094
Si Si4 0.877828 0.937188 0.988445
Si Si5 0.000000 0.991934 0.250000
Si Si6 0.859178 0.130065 0.035368
Si Si7 0.739429 0.213857 0.435809
O O1 0.500000 0.682592 0.750000
O O2 0.285472 0.651799 0.623080
O O3 0.354905 0.742059 0.602630
O O4 0.248946 0.706020 0.874296
O O5 0.098670 0.173288 0.362220
O O6 0.107717 0.229761 0.135793
O O7 0.773399 0.586011 0.445182
O O8 0.754820 0.603117 0.141132
O O9 0.829257 0.669342 0.353604
O O10 0.000000 0.603639 0.250000
O O11 0.001928 0.899885 0.989273
O O12 0.882218 0.960083 0.162727
O O13 0.907178 0.977639 0.865945
#
# Coordination Sequence:
#
# PCOD8246347 Si02
#       7
#     8   4   8   8   4   8   8
#     4  12  24  38  60  87 119 168 217 266 307 365
#     4  10  17  36  60  82 116 162 212 260 298 367
#     4  11  22  41  63  90 130 169 201 257 323 383
#     4  11  20  41  68  97 125 163 211 265 319 372
#     4  10  23  36  72 100 122 154 222 266 308 385
#     4  11  20  40  64  89 123 167 213 261 310 373
#     4  11  23  38  57  87 122 163 216 255 312 367
#
# _framework density 20.673348000000001
#
# number of rings (size 3 to 8) (size 9 to 14) (size 15 to 20)
#    0.000    1.000    6.667    2.500    3.500    0.000 
#    0.000    0.833    0.000    0.000    0.000    0.000 
#    0.000    0.000    0.000    0.000    0.000    0.000 
#
# Total GULP energy -594659.185623 kJ/mol
# GULP energy per Si atom -12388.733034 kJ/mol
# Density = 2.062629 g / cm^3
# Si number density = 20.673348 Si / 1000 Ang^3
#
#
#
# Elastic Constant Matrix: (Units=GPa)
#
#
# Indices 1 2 3 4 5 6 
#
# 1 82.4202 34.2209 27.5852 0.0000 0.0000 0.0000
# 2 34.2209 84.1281 42.6824 0.0000 0.0000 0.0000
# 3 27.5852 42.6824 116.7547 0.0000 0.0000 0.0000
# 4 0.0000 0.0000 0.0000 -43.9307 0.0000 0.0000
# 5 0.0000 0.0000 0.0000 0.0000 23.4042 0.0000
# 6 0.0000 0.0000 0.0000 0.0000 0.0000 13.9716
#
#
#
# Elastic Compliance Matrix: (Units=1/GPa)
#
#
# Indices 1 2 3 4 5 6 
#
# 1 0.014837 -0.005226 -0.001595 0.000000 0.000000 0.000000
# 2 -0.005226 0.016434 -0.004773 0.000000 0.000000 0.000000
# 3 -0.001595 -0.004773 0.010687 0.000000 0.000000 0.000000
# 4 0.000000 0.000000 0.000000 -0.022763 0.000000 0.000000
# 5 0.000000 0.000000 0.000000 0.000000 0.042727 0.000000
# 6 0.000000 0.000000 0.000000 0.000000 0.000000 0.071574
#
#
# Mechanical properties :
#
#
# Convention : Reuss Voigt Hill
#
# Bulk Modulus (GPa) = 53.27827 54.69778 53.98802
# Shear Modulus (GPa) = 30.68620 10.60999 20.64810
#
# Velocity S-wave (km/s) = 3.85689 2.26790 3.16377
# Velocity P-wave (km/s) = 6.75733 5.77697 6.28629
#
# Compressibility (1/GPa) = 0.01876938
#
# Stress axis : x y z
#
# Youngs Moduli (GPa) = 67.40118 60.84929 93.57397
#
# Poissons Ratio (x) = 0.31799 0.14924
# Poissons Ratio (y) = 0.35223 0.44664
# Poissons Ratio (z) = 0.10750 0.29044
#
# Static dielectric constant tensor:
#      x y z
#    x 3.984980 0.000000 0.000000 
#    y 0.000000 3.784340 0.000000 
#    z 0.000000 0.000000 26.613450 
# 
# 
# High freq. dielectric constant tensor:
#      x y z
#    x 1.770700 0.000000 0.000000 
#    y 0.000000 1.799120 0.000000 
#    z 0.000000 0.000000 1.827750 
# 
# From -- ./inp_files/4285.got.cif
#   From: 2010.03.12/outbox.cif.g09.slc.cpg/sg60_3_cif.got.tgz:4285.got - 2010.04.10 18:46:24.
