data_PCOD8246144
_publ_section_title
;
Structure prediction by ZEFSAII (Michael W. Deem and Ramdas Pophale) SiO2 
 PCOD8246144
Probable space group: P M M N
;
_chemical_formula_sum "Si O2"
_cell_formula_units_Z 56
_cell_length_a 9.379031
_cell_length_b 14.062443
_cell_length_c 26.666631
_cell_angle_alpha 90.000000
_cell_angle_beta 90.000000
_cell_angle_gamma 90.000000
_cell_volume 3517.117665
_symmetry_space_group_name_H-M "P M M N"
_symmetry_group_IT_number 59
_space_group.IT_coordinate_system_code '2'
_symmetry_cell_setting 'orthorhombic'
loop_
_space_group_symop_operation_xyz
x,y,z
1/2-x,1/2-y,z
1/2+x,-y,-z
-x,1/2+y,-z
-x,-y,-z
1/2+x,1/2+y,-z
1/2-x,y,z
x,1/2-y,z
loop_
_atom_site_type_symbol
_atom_site_label
_atom_site_fract_x
_atom_site_fract_y
_atom_site_fract_z
Si Si1 0.580782 0.642069 0.220233
Si Si2 0.586923 0.638288 0.026610
Si Si3 0.580735 0.643323 0.330410
Si Si4 0.417095 0.043302 0.571340
Si Si5 0.915563 0.142227 0.484809
Si Si6 0.083973 0.643969 0.929958
Si Si7 0.582958 0.963582 0.125001
O O1 0.750000 0.633524 0.220602
O O2 0.534807 0.750000 0.208234
O O3 0.522408 0.611852 0.275422
O O4 0.513833 0.573827 0.177093
O O5 0.750000 0.606113 0.018194
O O6 0.573463 0.750000 0.033554
O O7 0.521121 0.591568 0.076693
O O8 0.497287 0.604180 0.978594
O O9 0.750000 0.644462 0.328569
O O10 0.526025 0.750000 0.343161
O O11 0.527779 0.569003 0.372728
O O12 0.250000 0.064028 0.565845
O O13 0.494975 0.114075 0.533365
O O14 0.451990 0.932310 0.559976
O O15 0.750000 0.134783 0.499266
O O16 0.954551 0.250000 0.467785
O O17 0.250000 0.641923 0.943514
O O18 0.032766 0.750000 0.915361
O O19 0.051133 0.575858 0.882433
O O20 0.750000 0.941813 0.127393
#
# Coordination Sequence:
#
# PCOD8246144 Si02
#       7
#     8   8   8   8   8   8   8
#     4   8  13  21  34  54  77  96 117 151 193 226
#     4   9  16  25  38  56  74  91 116 149 180 212
#     4   8  13  21  35  56  78  97 121 156 192 222
#     4   9  16  26  41  59  79 105 135 163 191 227
#     4   9  17  27  38  56  83 110 133 159 193 230
#     4   9  17  27  37  51  73  99 122 143 173 215
#     4   9  15  23  36  52  72  97 120 145 180 219
#
# _framework density 15.922128000000001
#
# number of rings (size 3 to 8) (size 9 to 14) (size 15 to 20)
#    0.000    3.286    0.000    2.143    0.000    2.571 
#    0.000    0.000    0.000    0.857    0.000    8.000 
#    0.000    4.571    0.000    4.000    0.000    5.143 
#
# Total GULP energy -693892.740664 kJ/mol
# GULP energy per Si atom -12390.941798 kJ/mol
# Density = 1.588589 g / cm^3
# Si number density = 15.922128 Si / 1000 Ang^3
#
#
#
# Elastic Constant Matrix: (Units=GPa)
#
#
# Indices 1 2 3 4 5 6 
#
# 1 17.2881 17.3989 21.3535 0.0000 0.0000 0.0000
# 2 17.3989 105.4605 84.2567 0.0000 0.0000 0.0000
# 3 21.3535 84.2567 149.4962 0.0000 0.0000 0.0000
# 4 0.0000 0.0000 0.0000 29.1939 0.0000 0.0000
# 5 0.0000 0.0000 0.0000 0.0000 13.8328 0.0000
# 6 0.0000 0.0000 0.0000 0.0000 0.0000 12.5414
#
#
#
# Elastic Compliance Matrix: (Units=1/GPa)
#
#
# Indices 1 2 3 4 5 6 
#
# 1 0.072771 -0.006733 -0.006600 0.000000 0.000000 0.000000
# 2 -0.006733 0.017872 -0.009111 0.000000 0.000000 0.000000
# 3 -0.006600 -0.009111 0.012767 0.000000 0.000000 0.000000
# 4 0.000000 0.000000 0.000000 0.034254 0.000000 0.000000
# 5 0.000000 0.000000 0.000000 0.000000 0.072292 0.000000
# 6 0.000000 0.000000 0.000000 0.000000 0.000000 0.079736
#
#
# Mechanical properties :
#
#
# Convention : Reuss Voigt Hill
#
# Bulk Modulus (GPa) = 17.08740 57.58476 37.33608
# Shear Modulus (GPa) = 14.12082 21.06267 17.59174
#
# Velocity S-wave (km/s) = 2.98126 3.64105 3.32755
# Velocity P-wave (km/s) = 4.75455 7.34312 6.18575
#
# Compressibility (1/GPa) = 0.05852265
#
# Stress axis : x y z
#
# Youngs Moduli (GPa) = 13.74172 55.95225 78.32748
#
# Poissons Ratio (x) = 0.37673 0.51693
# Poissons Ratio (y) = 0.09252 0.71366
# Poissons Ratio (z) = 0.09069 0.50979
#
# Static dielectric constant tensor:
#      x y z
#    x 2.686430 0.000000 0.000000 
#    y 0.000000 3.190480 0.000000 
#    z 0.000000 0.000000 3.341600 
# 
# 
# High freq. dielectric constant tensor:
#      x y z
#    x 1.565270 0.000000 0.000000 
#    y 0.000000 1.612520 0.000000 
#    z 0.000000 0.000000 1.602630 
# 
# From -- ./inp_files/33174.got.cif
#   From: 2010.03.12/outbox.cif.g09.slc.cpg/sg59_17_cif.got.tgz:33174.got - 2010.04.16 16:29:54.
