data_PCOD8246123
_publ_section_title
;
Structure prediction by ZEFSAII (Michael W. Deem and Ramdas Pophale) SiO2 
 PCOD8246123
Probable space group: P M M N
;
_chemical_formula_sum "Si O2"
_cell_formula_units_Z 38
_cell_length_a 15.078723
_cell_length_b 9.445500
_cell_length_c 12.325855
_cell_angle_alpha 90.000000
_cell_angle_beta 90.000000
_cell_angle_gamma 90.000000
_cell_volume 1755.523187
_symmetry_space_group_name_H-M "P M M N"
_symmetry_group_IT_number 59
_space_group.IT_coordinate_system_code '2'
_symmetry_cell_setting 'orthorhombic'
loop_
_space_group_symop_operation_xyz
x,y,z
1/2-x,1/2-y,z
1/2+x,-y,-z
-x,1/2+y,-z
-x,-y,-z
1/2+x,1/2+y,-z
1/2-x,y,z
x,1/2-y,z
loop_
_atom_site_type_symbol
_atom_site_label
_atom_site_fract_x
_atom_site_fract_y
_atom_site_fract_z
Si Si1 0.750000 0.469334 0.572976
Si Si2 0.940343 0.750000 0.323777
Si Si3 0.389079 0.405449 0.067827
Si Si4 0.397134 0.750000 0.484169
Si Si5 0.069184 0.001352 0.838603
Si Si6 0.750000 0.750000 0.433781
Si Si7 0.149869 0.750000 0.717387
Si Si8 0.250000 0.581765 0.185448
O O1 0.840608 0.388137 0.545551
O O2 0.750000 0.614523 0.509522
O O3 0.750000 0.499285 0.700760
O O4 0.961215 0.611780 0.252832
O O5 0.837703 0.750000 0.359611
O O6 0.007698 0.750000 0.425374
O O7 0.350322 0.250000 0.097668
O O8 0.487591 0.412869 0.114192
O O9 0.335630 0.534933 0.118833
O O10 0.384473 0.417461 0.937752
O O11 0.415875 0.750000 0.613525
O O12 0.137578 0.889986 0.788390
O O13 0.250000 0.750000 0.671187
O O14 0.250000 0.750000 0.203362
#
# Coordination Sequence:
#
# PCOD8246123 Si02
#       8
#     4   4   8   4   8   2   4   4
#     4  11  24  49  68 102 140 182 228 307 340 424
#     4  12  27  47  72 106 138 196 229 300 352 422
#     4  11  25  46  68 108 140 185 236 295 344 428
#     4  11  24  48  75  98 142 182 247 285 355 418
#     4  11  26  45  73 100 147 181 236 287 361 418
#     4  12  30  44  72 106 146 178 246 288 354 420
#     4  12  26  45  74 108 138 186 231 293 354 430
#     4  12  27  42  76 102 140 187 241 289 365 414
#
# _framework density 21.645968
#
# number of rings (size 3 to 8) (size 9 to 14) (size 15 to 20)
#    0.000    0.632    4.211    2.842    7.368    5.053 
#    0.000    0.000    0.000    0.000    0.000    0.000 
#    0.000    0.000    0.000    0.000    0.000    0.000 
#
# Total GULP energy -471362.642706 kJ/mol
# GULP energy per Si atom -12404.280071 kJ/mol
# Density = 2.159670 g / cm^3
# Si number density = 21.645968 Si / 1000 Ang^3
#
#
#
# Elastic Constant Matrix: (Units=GPa)
#
#
# Indices 1 2 3 4 5 6 
#
# 1 87.9672 19.5762 46.7929 0.0000 0.0000 0.0000
# 2 19.5762 128.6891 47.9915 0.0000 0.0000 0.0000
# 3 46.7929 47.9915 143.1638 0.0000 0.0000 0.0000
# 4 0.0000 0.0000 0.0000 29.6324 0.0000 0.0000
# 5 0.0000 0.0000 0.0000 0.0000 37.1560 0.0000
# 6 0.0000 0.0000 0.0000 0.0000 0.0000 22.9319
#
#
#
# Elastic Compliance Matrix: (Units=1/GPa)
#
#
# Indices 1 2 3 4 5 6 
#
# 1 0.013786 -0.000476 -0.004346 0.000000 0.000000 0.000000
# 2 -0.000476 0.008897 -0.002827 0.000000 0.000000 0.000000
# 3 -0.004346 -0.002827 0.009353 0.000000 0.000000 0.000000
# 4 0.000000 0.000000 0.000000 0.033747 0.000000 0.000000
# 5 0.000000 0.000000 0.000000 0.000000 0.026914 0.000000
# 6 0.000000 0.000000 0.000000 0.000000 0.000000 0.043607
#
#
# Mechanical properties :
#
#
# Convention : Reuss Voigt Hill
#
# Bulk Modulus (GPa) = 59.74596 65.39347 62.56971
# Shear Modulus (GPa) = 31.81025 34.30803 33.05914
#
# Velocity S-wave (km/s) = 3.83766 3.98548 3.91226
# Velocity P-wave (km/s) = 6.87736 7.17320 7.02684
#
# Compressibility (1/GPa) = 0.01673753
#
# Stress axis : x y z
#
# Youngs Moduli (GPa) = 72.53862 112.39314 106.91541
#
# Poissons Ratio (x) = 0.05353 0.46468
# Poissons Ratio (y) = 0.03455 0.30224
# Poissons Ratio (z) = 0.31527 0.31772
#
# Static dielectric constant tensor:
#      x y z
#    x 3.760210 0.000000 0.000000 
#    y 0.000000 4.299470 0.000000 
#    z 0.000000 0.000000 4.099240 
# 
# 
# High freq. dielectric constant tensor:
#      x y z
#    x 1.842740 0.000000 0.000000 
#    y 0.000000 1.861590 0.000000 
#    z 0.000000 0.000000 1.867620 
# 
# From -- ./inp_files/17520.got.cif
#   From: 2010.03.12/outbox.cif.g09.slc.cpg/sg59_9_cif.got.tgz:17520.got - 2010.04.16 16:29:54.
