data_PCOD8246629
_publ_section_title
;
Structure prediction by ZEFSAII (Michael W. Deem and Ramdas Pophale) SiO2 
 PCOD8246629
Probable space group: P B C N
;
_chemical_formula_sum "Si O2"
_cell_formula_units_Z 40
_cell_length_a 14.275444
_cell_length_b 18.351608
_cell_length_c 7.610643
_cell_angle_alpha 90.000000
_cell_angle_beta 90.000000
_cell_angle_gamma 90.000000
_cell_volume 1993.816103
_symmetry_space_group_name_H-M "P B C N"
_symmetry_group_IT_number 60
_symmetry_cell_setting 'orthorhombic'
loop_
_space_group_symop_operation_xyz
x,y,z
1/2-x,1/2-y,1/2+z
1/2+x,1/2-y,-z
-x,y,1/2-z
-x,-y,-z
1/2+x,1/2+y,1/2-z
1/2-x,1/2+y,z
x,-y,1/2+z
loop_
_atom_site_type_symbol
_atom_site_label
_atom_site_fract_x
_atom_site_fract_y
_atom_site_fract_z
Si Si1 0.500000 0.796345 0.250000
Si Si2 0.391032 0.916238 0.426763
Si Si3 0.910911 0.063511 0.132299
Si Si4 0.676340 0.420878 0.976766
Si Si5 0.021337 0.815210 0.443264
Si Si6 0.500000 0.041316 0.250000
O O1 0.412381 0.847488 0.302261
O O2 0.531534 0.748976 0.416011
O O3 0.281640 0.918657 0.459988
O O4 0.451276 0.907450 0.605338
O O5 0.418571 0.991579 0.333335
O O6 0.829460 0.090150 0.265827
O O7 0.000000 0.039237 0.250000
O O8 0.939088 0.129811 0.004587
O O9 0.873203 0.997746 0.016563
O O10 0.620327 0.356470 0.072142
O O11 0.000000 0.783346 0.250000
#
# Coordination Sequence:
#
# PCOD8246629 Si02
#       6
#     4   8   8   8   8   4
#     4  11  24  46  58  88 131 172 208 248 319 398
#     4  10  22  39  66  90 122 164 214 263 313 369
#     4  10  19  34  62  95 133 155 204 258 321 368
#     4  11  19  36  62  97 123 158 215 267 301 365
#     4  11  22  41  63  91 131 173 199 251 323 380
#     4   9  20  42  62  90 121 162 212 266 321 356
#
# _framework density 20.062031000000001
#
# number of rings (size 3 to 8) (size 9 to 14) (size 15 to 20)
#    0.000    1.600    3.000    5.400    1.400    0.000 
#    3.600    2.000    0.000    0.000    0.000    0.000 
#    0.000    0.000    0.000    0.000    0.000    0.000 
#
# Total GULP energy -495994.189920 kJ/mol
# GULP energy per Si atom -12399.854748 kJ/mol
# Density = 2.001637 g / cm^3
# Si number density = 20.062031 Si / 1000 Ang^3
#
#
#
# Elastic Constant Matrix: (Units=GPa)
#
#
# Indices 1 2 3 4 5 6 
#
# 1 118.3211 43.9461 48.0364 0.0000 0.0000 0.0000
# 2 43.9461 93.4091 47.6110 0.0000 0.0000 0.0000
# 3 48.0364 47.6110 144.5442 0.0000 0.0000 0.0000
# 4 0.0000 0.0000 0.0000 44.9956 0.0000 0.0000
# 5 0.0000 0.0000 0.0000 0.0000 29.0652 0.0000
# 6 0.0000 0.0000 0.0000 0.0000 0.0000 16.5961
#
#
#
# Elastic Compliance Matrix: (Units=1/GPa)
#
#
# Indices 1 2 3 4 5 6 
#
# 1 0.010848 -0.003925 -0.002312 0.000000 0.000000 0.000000
# 2 -0.003925 0.014286 -0.003401 0.000000 0.000000 0.000000
# 3 -0.002312 -0.003401 0.008807 0.000000 0.000000 0.000000
# 4 0.000000 0.000000 0.000000 0.022224 0.000000 0.000000
# 5 0.000000 0.000000 0.000000 0.000000 0.034405 0.000000
# 6 0.000000 0.000000 0.000000 0.000000 0.000000 0.060255
#
#
# Mechanical properties :
#
#
# Convention : Reuss Voigt Hill
#
# Bulk Modulus (GPa) = 68.19461 70.60683 69.40072
# Shear Modulus (GPa) = 28.57292 32.57678 30.57485
#
# Velocity S-wave (km/s) = 3.77799 4.03402 3.90810
# Velocity P-wave (km/s) = 7.28674 7.54774 7.41839
#
# Compressibility (1/GPa) = 0.01466392
#
# Stress axis : x y z
#
# Youngs Moduli (GPa) = 92.18130 69.99941 113.54572
#
# Poissons Ratio (x) = 0.27476 0.26255
# Poissons Ratio (y) = 0.36183 0.38618
# Poissons Ratio (z) = 0.21315 0.23808
#
# Static dielectric constant tensor:
#      x y z
#    x 3.447870 0.000000 0.000000 
#    y 0.000000 3.525680 0.000000 
#    z 0.000000 0.000000 4.030300 
# 
# 
# High freq. dielectric constant tensor:
#      x y z
#    x 1.764600 0.000000 0.000000 
#    y 0.000000 1.768420 0.000000 
#    z 0.000000 0.000000 1.803220 
# 
# From -- ./inp_files/5806.got.cif
#   From: 2010.03.12/outbox.cif.g09.slc.cpg/sg60_3_cif.got.tgz:5806.got - 2010.04.10 18:46:24.
