data_PCOD8246644
_publ_section_title
;
Structure prediction by ZEFSAII (Michael W. Deem and Ramdas Pophale) SiO2 
 PCOD8246644
Probable space group: P B C N
;
_chemical_formula_sum "Si O2"
_cell_formula_units_Z 48
_cell_length_a 12.042233
_cell_length_b 23.039861
_cell_length_c 9.881875
_cell_angle_alpha 90.000000
_cell_angle_beta 90.000000
_cell_angle_gamma 90.000000
_cell_volume 2741.739801
_symmetry_space_group_name_H-M "P B C N"
_symmetry_group_IT_number 60
_symmetry_cell_setting 'orthorhombic'
loop_
_space_group_symop_operation_xyz
x,y,z
1/2-x,1/2-y,1/2+z
1/2+x,1/2-y,-z
-x,y,1/2-z
-x,-y,-z
1/2+x,1/2+y,1/2-z
1/2-x,1/2+y,z
x,-y,1/2+z
loop_
_atom_site_type_symbol
_atom_site_label
_atom_site_fract_x
_atom_site_fract_y
_atom_site_fract_z
Si Si1 0.064030 0.264342 0.114415
Si Si2 0.083900 0.278501 0.634361
Si Si3 0.415924 0.435322 0.137070
Si Si4 0.063567 0.065736 0.122640
Si Si5 0.711521 0.662501 0.475227
Si Si6 0.775135 0.168681 0.793350
O O1 0.111108 0.206405 0.048005
O O2 0.159501 0.312221 0.138661
O O3 0.000000 0.247912 0.250000
O O4 0.974586 0.287245 0.008988
O O5 0.188588 0.321384 0.625834
O O6 0.127056 0.213599 0.666949
O O7 0.000000 0.299703 0.750000
O O8 0.500000 0.410462 0.250000
O O9 0.388546 0.502675 0.166637
O O10 0.307208 0.394386 0.145477
O O11 0.469825 0.433912 0.990824
O O12 0.171542 0.099453 0.071111
O O13 0.000000 0.094432 0.250000
O O14 0.743860 0.664602 0.632645
#
# Coordination Sequence:
#
# PCOD8246644 Si02
#       6
#     8   8   8   8   8   8
#     4  11  22  35  53  84 111 140 183 222 264 322
#     4  11  22  36  55  82 113 143 179 223 268 317
#     4  10  19  35  58  79 111 141 178 223 277 326
#     4  10  21  34  54  87 109 137 178 231 273 316
#     4  11  21  35  58  80 109 147 181 218 271 327
#     4  11  21  35  59  79 108 151 178 216 274 328
#
# _framework density 17.507131000000001
#
# number of rings (size 3 to 8) (size 9 to 14) (size 15 to 20)
#    0.000    1.333    5.000    2.000    0.000    1.333 
#    0.000    0.000    0.000    2.000    0.000    0.000 
#    0.000    0.000    0.000    0.000    0.000    0.000 
#
# Total GULP energy -595191.600173 kJ/mol
# GULP energy per Si atom -12399.825004 kJ/mol
# Density = 1.746728 g / cm^3
# Si number density = 17.507131 Si / 1000 Ang^3
#
#
#
# Elastic Constant Matrix: (Units=GPa)
#
#
# Indices 1 2 3 4 5 6 
#
# 1 62.3956 30.1191 14.1754 0.0000 0.0000 0.0000
# 2 30.1191 80.2764 16.2601 0.0000 0.0000 0.0000
# 3 14.1754 16.2601 96.8222 0.0000 0.0000 0.0000
# 4 0.0000 0.0000 0.0000 21.6641 0.0000 0.0000
# 5 0.0000 0.0000 0.0000 0.0000 38.0302 0.0000
# 6 0.0000 0.0000 0.0000 0.0000 0.0000 8.6434
#
#
#
# Elastic Compliance Matrix: (Units=1/GPa)
#
#
# Indices 1 2 3 4 5 6 
#
# 1 0.019842 -0.007098 -0.001713 0.000000 0.000000 0.000000
# 2 -0.007098 0.015434 -0.001553 0.000000 0.000000 0.000000
# 3 -0.001713 -0.001553 0.010840 0.000000 0.000000 0.000000
# 4 0.000000 0.000000 0.000000 0.046159 0.000000 0.000000
# 5 0.000000 0.000000 0.000000 0.000000 0.026295 0.000000
# 6 0.000000 0.000000 0.000000 0.000000 0.000000 0.115695
#
#
# Mechanical properties :
#
#
# Convention : Reuss Voigt Hill
#
# Bulk Modulus (GPa) = 39.38678 40.06703 39.72691
# Shear Modulus (GPa) = 18.97852 25.59686 22.28769
#
# Velocity S-wave (km/s) = 3.29606 3.82787 3.57187
# Velocity P-wave (km/s) = 6.08537 6.51710 6.30493
#
# Compressibility (1/GPa) = 0.02538923
#
# Stress axis : x y z
#
# Youngs Moduli (GPa) = 50.39804 64.79010 92.25263
#
# Poissons Ratio (x) = 0.45985 0.15803
# Poissons Ratio (y) = 0.35770 0.14326
# Poissons Ratio (z) = 0.08633 0.10061
#
# Static dielectric constant tensor:
#      x y z
#    x 3.178110 0.000000 0.000000 
#    y 0.000000 3.213530 0.000000 
#    z 0.000000 0.000000 3.463600 
# 
# 
# High freq. dielectric constant tensor:
#      x y z
#    x 1.664970 0.000000 0.000000 
#    y 0.000000 1.659260 0.000000 
#    z 0.000000 0.000000 1.696750 
# 
# From -- ./inp_files/5041.got.cif
#   From: 2010.03.12/outbox.cif.g09.slc.cpg/sg60_3_cif.got.tgz:5041.got - 2010.04.10 18:46:24.
