data_PCOD8246995
_publ_section_title
;
Structure prediction by ZEFSAII (Michael W. Deem and Ramdas Pophale) SiO2 
 PCOD8246995
Probable space group: P B C N
;
_chemical_formula_sum "Si O2"
_cell_formula_units_Z 56
_cell_length_a 16.566020
_cell_length_b 14.418514
_cell_length_c 10.896880
_cell_angle_alpha 90.000000
_cell_angle_beta 90.000000
_cell_angle_gamma 90.000000
_cell_volume 2602.800330
_symmetry_space_group_name_H-M "P B C N"
_symmetry_group_IT_number 60
_symmetry_cell_setting 'orthorhombic'
loop_
_space_group_symop_operation_xyz
x,y,z
1/2-x,1/2-y,1/2+z
1/2+x,1/2-y,-z
-x,y,1/2-z
-x,-y,-z
1/2+x,1/2+y,1/2-z
1/2-x,1/2+y,z
x,-y,1/2+z
loop_
_atom_site_type_symbol
_atom_site_label
_atom_site_fract_x
_atom_site_fract_y
_atom_site_fract_z
Si Si1 0.804105 0.361887 0.168732
Si Si2 0.923587 0.436154 0.977918
Si Si3 0.182508 0.401566 0.070738
Si Si4 0.574148 0.753069 0.834724
Si Si5 0.284571 0.185343 0.336842
Si Si6 0.329945 0.482675 0.806415
Si Si7 0.130306 0.931640 0.060916
O O1 0.831865 0.340024 0.308657
O O2 0.773635 0.266172 0.108576
O O3 0.729873 0.432443 0.168102
O O4 0.882688 0.402252 0.103183
O O5 0.859271 0.499103 0.905216
O O6 0.950997 0.347028 0.902660
O O7 0.000000 0.500000 0.000000
O O8 0.275450 0.416954 0.043716
O O9 0.154664 0.350404 0.945246
O O10 0.500000 0.724677 0.750000
O O11 0.658961 0.769896 0.766625
O O12 0.584803 0.666272 0.926047
O O13 0.225933 0.107019 0.280666
O O14 0.382785 0.503447 0.682257
O O15 0.391245 0.474384 0.925141
#
# Coordination Sequence:
#
# PCOD8246995 Si02
#       7
#     8   8   8   8   8   8   8
#     4  11  22  38  63  93 130 170 215 273 323 396
#     4  12  25  39  63  96 140 172 205 269 351 413
#     4  10  21  38  59  90 125 165 220 255 320 391
#     4  12  25  40  63  93 130 174 218 266 335 404
#     4  11  21  38  64  95 127 169 222 269 323 389
#     4  10  20  37  65  93 126 159 223 270 326 371
#     4  10  20  41  62  95 124 170 221 273 315 393
#
# _framework density 21.515287000000001
#
# number of rings (size 3 to 8) (size 9 to 14) (size 15 to 20)
#    0.000    1.143    5.714    4.286    2.000    0.000 
#    0.000    0.714    0.000    0.000    0.000    0.000 
#    0.000    0.000    0.000    0.000    0.000    0.000 
#
# Total GULP energy -694024.694664 kJ/mol
# GULP energy per Si atom -12393.298119 kJ/mol
# Density = 2.146632 g / cm^3
# Si number density = 21.515287 Si / 1000 Ang^3
#
#
#
# Elastic Constant Matrix: (Units=GPa)
#
#
# Indices 1 2 3 4 5 6 
#
# 1 43.6212 44.0402 18.5022 0.0000 0.0000 0.0000
# 2 44.0402 120.1039 20.6397 0.0000 0.0000 0.0000
# 3 18.5022 20.6397 111.3742 0.0000 0.0000 0.0000
# 4 0.0000 0.0000 0.0000 36.9768 0.0000 0.0000
# 5 0.0000 0.0000 0.0000 0.0000 17.6233 0.0000
# 6 0.0000 0.0000 0.0000 0.0000 0.0000 32.6840
#
#
#
# Elastic Compliance Matrix: (Units=1/GPa)
#
#
# Indices 1 2 3 4 5 6 
#
# 1 0.037931 -0.013248 -0.003846 0.000000 0.000000 0.000000
# 2 -0.013248 0.013227 -0.000250 0.000000 0.000000 0.000000
# 3 -0.003846 -0.000250 0.009664 0.000000 0.000000 0.000000
# 4 0.000000 0.000000 0.000000 0.027044 0.000000 0.000000
# 5 0.000000 0.000000 0.000000 0.000000 0.056743 0.000000
# 6 0.000000 0.000000 0.000000 0.000000 0.000000 0.030596
#
#
# Mechanical properties :
#
#
# Convention : Reuss Voigt Hill
#
# Bulk Modulus (GPa) = 38.26547 49.05150 43.65849
# Shear Modulus (GPa) = 22.87228 30.25130 26.56179
#
# Velocity S-wave (km/s) = 3.26401 3.75378 3.51743
# Velocity P-wave (km/s) = 5.65941 6.45258 6.06897
#
# Compressibility (1/GPa) = 0.02613322
#
# Stress axis : x y z
#
# Youngs Moduli (GPa) = 26.36359 75.60347 103.47566
#
# Poissons Ratio (x) = 1.00158 0.39800
# Poissons Ratio (y) = 0.34926 0.02591
# Poissons Ratio (z) = 0.10140 0.01893
#
# Static dielectric constant tensor:
#      x y z
#    x 3.598600 0.000000 0.000000 
#    y 0.000000 4.399680 0.000000 
#    z 0.000000 0.000000 4.405050 
# 
# 
# High freq. dielectric constant tensor:
#      x y z
#    x 1.807590 0.000000 0.000000 
#    y 0.000000 1.851740 0.000000 
#    z 0.000000 0.000000 1.854760 
# 
# From -- ./inp_files/11942.got.cif
#   From: 2010.03.12/outbox.cif.g09.slc.cpg/sg60_6_cif.got.tgz:11942.got - 2010.04.10 18:46:24.
