data_PCOD8246209
_publ_section_title
;
Structure prediction by ZEFSAII (Michael W. Deem and Ramdas Pophale) SiO2 
 PCOD8246209
Probable space group: P M M N
;
_chemical_formula_sum "Si O2"
_cell_formula_units_Z 64
_cell_length_a 9.358055
_cell_length_b 22.182953
_cell_length_c 20.308291
_cell_angle_alpha 90.000000
_cell_angle_beta 90.000000
_cell_angle_gamma 90.000000
_cell_volume 4215.783796
_symmetry_space_group_name_H-M "P M M N"
_symmetry_group_IT_number 59
_space_group.IT_coordinate_system_code '2'
_symmetry_cell_setting 'orthorhombic'
loop_
_space_group_symop_operation_xyz
x,y,z
1/2-x,1/2-y,z
1/2+x,-y,-z
-x,1/2+y,-z
-x,-y,-z
1/2+x,1/2+y,-z
1/2-x,y,z
x,1/2-y,z
loop_
_atom_site_type_symbol
_atom_site_label
_atom_site_fract_x
_atom_site_fract_y
_atom_site_fract_z
Si Si1 0.086278 0.092869 0.385685
Si Si2 0.917238 0.110987 0.261126
Si Si3 0.584869 0.527348 0.233471
Si Si4 0.580051 0.317692 0.134095
Si Si5 0.919161 0.062731 0.504772
Si Si6 0.916485 0.412394 0.028840
Si Si7 0.407960 0.952284 0.352888
Si Si8 0.916248 0.542218 0.087424
O O1 0.250000 0.114905 0.393531
O O2 0.009661 0.127623 0.325580
O O3 0.995890 0.107381 0.452462
O O4 0.078228 0.022153 0.371605
O O5 0.750000 0.119681 0.277310
O O6 0.971471 0.155107 0.203523
O O7 0.949152 0.043356 0.237359
O O8 0.750000 0.539953 0.242051
O O9 0.510961 0.564450 0.292543
O O10 0.532228 0.551628 0.162626
O O11 0.750000 0.319390 0.133185
O O12 0.520259 0.250000 0.126653
O O13 0.523320 0.357534 0.073067
O O14 0.750000 0.055150 0.488608
O O15 0.940169 0.086030 0.580319
O O16 0.000000 0.000000 0.500000
O O17 0.750000 0.404846 0.013904
O O18 0.948988 0.473448 0.068200
O O19 0.997645 0.411979 0.959076
O O20 0.250000 0.937715 0.327414
O O21 0.750000 0.556651 0.079539
#
# Coordination Sequence:
#
# PCOD8246209 Si02
#       8
#     8   8   8   8   8   8   8   8
#     4   9  16  24  34  49  69  95 128 163 193 224
#     4   9  15  25  39  54  72  96 128 163 199 236
#     4   9  15  23  36  52  72  99 128 159 192 231
#     4   9  16  27  44  62  79 101 132 170 206 243
#     4   9  15  23  33  47  69  97 128 160 190 222
#     4   9  16  27  41  58  77  98 129 164 200 242
#     4   8  15  23  31  47  71  95 123 156 188 223
#     4   9  16  26  39  56  78 101 128 163 200 238
#
# _framework density 15.181044
#
# number of rings (size 3 to 8) (size 9 to 14) (size 15 to 20)
#    0.000    3.125    1.250    1.500    0.000    4.000 
#    0.000    0.625    0.000    1.500    0.000    0.000 
#    0.000    0.000    0.000    1.125    0.000   21.875 
#
# Total GULP energy -793099.377696 kJ/mol
# GULP energy per Si atom -12392.177776 kJ/mol
# Density = 1.514649 g / cm^3
# Si number density = 15.181044 Si / 1000 Ang^3
#
#
#
# Elastic Constant Matrix: (Units=GPa)
#
#
# Indices 1 2 3 4 5 6 
#
# 1 69.7807 20.6413 68.1536 0.0000 0.0000 0.0000
# 2 20.6413 38.6210 40.4951 0.0000 0.0000 0.0000
# 3 68.1536 40.4951 162.6893 0.0000 0.0000 0.0000
# 4 0.0000 0.0000 0.0000 11.4267 0.0000 0.0000
# 5 0.0000 0.0000 0.0000 0.0000 31.4922 0.0000
# 6 0.0000 0.0000 0.0000 0.0000 0.0000 7.4305
#
#
#
# Elastic Compliance Matrix: (Units=1/GPa)
#
#
# Indices 1 2 3 4 5 6 
#
# 1 0.024536 -0.003161 -0.009492 0.000000 0.000000 0.000000
# 2 -0.003161 0.035444 -0.007498 0.000000 0.000000 0.000000
# 3 -0.009492 -0.007498 0.011989 0.000000 0.000000 0.000000
# 4 0.000000 0.000000 0.000000 0.087514 0.000000 0.000000
# 5 0.000000 0.000000 0.000000 0.000000 0.031754 0.000000
# 6 0.000000 0.000000 0.000000 0.000000 0.000000 0.134581
#
#
# Mechanical properties :
#
#
# Convention : Reuss Voigt Hill
#
# Bulk Modulus (GPa) = 31.57818 58.85235 45.21527
# Shear Modulus (GPa) = 13.27397 19.52327 16.39862
#
# Velocity S-wave (km/s) = 2.96020 3.59002 3.29021
# Velocity P-wave (km/s) = 5.70350 7.48568 6.65452
#
# Compressibility (1/GPa) = 0.03166743
#
# Stress axis : x y z
#
# Youngs Moduli (GPa) = 40.75614 28.21336 83.40723
#
# Poissons Ratio (x) = 0.08919 0.79169
# Poissons Ratio (y) = 0.12884 0.62540
# Poissons Ratio (z) = 0.38685 0.21155
#
# Static dielectric constant tensor:
#      x y z
#    x 2.895170 0.000000 0.000000 
#    y 0.000000 2.434820 0.000000 
#    z 0.000000 0.000000 3.430360 
# 
# 
# High freq. dielectric constant tensor:
#      x y z
#    x 1.576030 0.000000 0.000000 
#    y 0.000000 1.501630 0.000000 
#    z 0.000000 0.000000 1.600100 
# 
# From -- ./inp_files/29820.got.cif
#   From: 2010.03.12/outbox.cif.g09.slc.cpg/sg59_15_cif.got.tgz:29820.got - 2010.04.16 16:29:54.
