data_PCOD8246027
_publ_section_title
;
Structure prediction by ZEFSAII (Michael W. Deem and Ramdas Pophale) SiO2 
 PCOD8246027
Probable space group: P M M N
;
_chemical_formula_sum "Si O2"
_cell_formula_units_Z 40
_cell_length_a 18.487990
_cell_length_b 9.386342
_cell_length_c 12.960080
_cell_angle_alpha 90.000000
_cell_angle_beta 90.000000
_cell_angle_gamma 90.000000
_cell_volume 2249.022260
_symmetry_space_group_name_H-M "P M M N"
_symmetry_group_IT_number 59
_space_group.IT_coordinate_system_code '2'
_symmetry_cell_setting 'orthorhombic'
loop_
_space_group_symop_operation_xyz
x,y,z
1/2-x,1/2-y,z
1/2+x,-y,-z
-x,1/2+y,-z
-x,-y,-z
1/2+x,1/2+y,-z
1/2-x,y,z
x,1/2-y,z
loop_
_atom_site_type_symbol
_atom_site_label
_atom_site_fract_x
_atom_site_fract_y
_atom_site_fract_z
Si Si1 0.834821 0.415099 0.835434
Si Si2 0.169752 0.080733 0.805637
Si Si3 0.924513 0.920452 0.001609
Si Si4 0.163873 0.407518 0.580518
Si Si5 0.164195 0.906883 0.395742
O O1 0.750000 0.435001 0.854952
O O2 0.856742 0.250000 0.855856
O O3 0.856040 0.460744 0.718804
O O4 0.876756 0.524490 0.907360
O O5 0.250000 0.020172 0.831591
O O6 0.174410 0.250000 0.800154
O O7 0.114057 0.031077 0.892578
O O8 0.143374 0.025434 0.692656
O O9 0.933856 0.750000 0.994250
O O10 0.000000 0.000000 0.000000
O O11 0.250000 0.401723 0.572218
O O12 0.130865 0.250000 0.570156
O O13 0.130002 0.496533 0.485929
O O14 0.250000 0.902187 0.405972
O O15 0.131815 0.750000 0.411885
#
# Coordination Sequence:
#
# PCOD8246027 Si02
#       5
#     8   8   8   8   8
#     4   9  18  33  52  74 101 130 160 197 240 286
#     4   8  15  29  49  72  96 123 156 195 240 287
#     4  11  22  35  51  70  96 130 167 206 247 293
#     4   8  13  23  42  68  95 120 149 187 229 277
#     4   8  14  25  42  67  99 128 150 181 232 285
#
# _framework density 17.785506000000002
#
# number of rings (size 3 to 8) (size 9 to 14) (size 15 to 20)
#    0.000    3.200    0.000    3.600    0.000    2.000 
#    0.000    4.000    0.000    6.000    0.000    0.000 
#    0.000    0.000    0.000    0.000    0.000    0.000 
#
# Total GULP energy -495658.413245 kJ/mol
# GULP energy per Si atom -12391.460331 kJ/mol
# Density = 1.774503 g / cm^3
# Si number density = 17.785506 Si / 1000 Ang^3
#
#
#
# Elastic Constant Matrix: (Units=GPa)
#
#
# Indices 1 2 3 4 5 6 
#
# 1 54.8503 37.5711 52.5694 0.0000 0.0000 0.0000
# 2 37.5711 77.8848 71.7472 0.0000 0.0000 0.0000
# 3 52.5694 71.7472 172.8511 0.0000 0.0000 0.0000
# 4 0.0000 0.0000 0.0000 28.9551 0.0000 0.0000
# 5 0.0000 0.0000 0.0000 0.0000 -0.7185 0.0000
# 6 0.0000 0.0000 0.0000 0.0000 0.0000 21.4676
#
#
#
# Elastic Compliance Matrix: (Units=1/GPa)
#
#
# Indices 1 2 3 4 5 6 
#
# 1 0.029669 -0.009714 -0.004991 0.000000 0.000000 0.000000
# 2 -0.009714 0.023969 -0.006995 0.000000 0.000000 0.000000
# 3 -0.004991 -0.006995 0.010207 0.000000 0.000000 0.000000
# 4 0.000000 0.000000 0.000000 0.034536 0.000000 0.000000
# 5 0.000000 0.000000 0.000000 0.000000 -1.391759 0.000000
# 6 0.000000 0.000000 0.000000 0.000000 0.000000 0.046582
#
#
# Mechanical properties :
#
#
# Convention : Reuss Voigt Hill
#
# Bulk Modulus (GPa) = 48.91279 69.92906 59.42093
# Shear Modulus (GPa) = -4.17857 19.52073 7.67108
#
# Velocity S-wave (km/s) = -1.53445 3.31654 2.07906
# Velocity P-wave (km/s) = 4.94184 7.35318 6.26463
#
# Compressibility (1/GPa) = 0.02044455
#
# Stress axis : x y z
#
# Youngs Moduli (GPa) = 33.70518 41.72032 97.97586
#
# Poissons Ratio (x) = 0.40529 0.48900
# Poissons Ratio (y) = 0.32743 0.68531
# Poissons Ratio (z) = 0.16822 0.29182
#
# Static dielectric constant tensor:
#      x y z
#    x 2.831510 0.000000 0.000000 
#    y 0.000000 3.321000 0.000000 
#    z 0.000000 0.000000 3.731660 
# 
# 
# High freq. dielectric constant tensor:
#      x y z
#    x 1.640520 0.000000 0.000000 
#    y 0.000000 1.668100 0.000000 
#    z 0.000000 0.000000 1.708670 
# 
# From -- ./inp_files/18135.got.cif
#   From: 2010.03.12/outbox.cif.g09.slc.cpg/sg59_10_cif.got.tgz:18135.got - 2010.04.16 16:29:54.
