data_PCOD8246716
_publ_section_title
;
Structure prediction by ZEFSAII (Michael W. Deem and Ramdas Pophale) SiO2 
 PCOD8246716
Probable space group: P B C N
;
_chemical_formula_sum "Si O2"
_cell_formula_units_Z 48
_cell_length_a 13.809246
_cell_length_b 18.409347
_cell_length_c 9.461879
_cell_angle_alpha 90.000000
_cell_angle_beta 90.000000
_cell_angle_gamma 90.000000
_cell_volume 2405.391323
_symmetry_space_group_name_H-M "P B C N"
_symmetry_group_IT_number 60
_symmetry_cell_setting 'orthorhombic'
loop_
_space_group_symop_operation_xyz
x,y,z
1/2-x,1/2-y,1/2+z
1/2+x,1/2-y,-z
-x,y,1/2-z
-x,-y,-z
1/2+x,1/2+y,1/2-z
1/2-x,1/2+y,z
x,-y,1/2+z
loop_
_atom_site_type_symbol
_atom_site_label
_atom_site_fract_x
_atom_site_fract_y
_atom_site_fract_z
Si Si1 0.353962 0.933807 0.674848
Si Si2 0.048072 0.615419 0.449115
Si Si3 0.300759 0.904343 0.180334
Si Si4 0.928140 0.778425 0.092568
Si Si5 0.370114 0.310726 0.095950
Si Si6 0.228778 0.676463 0.976893
O O1 0.375149 0.910820 0.834148
O O2 0.450474 0.932921 0.573119
O O3 0.280940 0.876801 0.608650
O O4 0.296575 0.009132 0.688441
O O5 0.096290 0.610360 0.603616
O O6 0.023150 0.699648 0.427364
O O7 0.207227 0.876688 0.090996
O O8 0.298891 0.865549 0.332666
O O9 0.878976 0.779815 0.246152
O O10 0.839102 0.798405 0.993507
O O11 0.018082 0.834083 0.061250
O O12 0.336568 0.248217 0.987764
#
# Coordination Sequence:
#
# PCOD8246716 Si02
#       6
#     8   8   8   8   8   8
#     4  11  22  39  57  86 122 160 188 235 305 360
#     4  11  20  37  61  82 124 158 187 237 298 361
#     4  11  24  35  58  90 120 153 193 246 294 346
#     4  10  19  37  63  87 109 161 199 232 292 348
#     4  10  19  39  59  83 119 155 197 238 289 352
#     4  11  21  37  62  89 113 152 206 244 278 351
#
# _framework density 19.955172999999998
#
# number of rings (size 3 to 8) (size 9 to 14) (size 15 to 20)
#    0.000    1.333    5.000    2.500    0.000    2.000 
#    0.000    0.833    0.000    2.000    0.000    0.000 
#    0.000    0.000    0.000    0.000    0.000    0.000 
#
# Total GULP energy -594637.237098 kJ/mol
# GULP energy per Si atom -12388.275773 kJ/mol
# Density = 1.990975 g / cm^3
# Si number density = 19.955173 Si / 1000 Ang^3
#
#
#
# Elastic Constant Matrix: (Units=GPa)
#
#
# Indices 1 2 3 4 5 6 
#
# 1 127.2978 57.9433 28.6611 0.0000 0.0000 0.0000
# 2 57.9433 104.2468 31.6684 0.0000 0.0000 0.0000
# 3 28.6611 31.6684 29.4975 0.0000 0.0000 0.0000
# 4 0.0000 0.0000 0.0000 -16.5561 0.0000 0.0000
# 5 0.0000 0.0000 0.0000 0.0000 29.7526 0.0000
# 6 0.0000 0.0000 0.0000 0.0000 0.0000 28.4053
#
#
#
# Elastic Compliance Matrix: (Units=1/GPa)
#
#
# Indices 1 2 3 4 5 6 
#
# 1 0.011244 -0.004349 -0.006256 0.000000 0.000000 0.000000
# 2 -0.004349 0.015918 -0.012863 0.000000 0.000000 0.000000
# 3 -0.006256 -0.012863 0.053789 0.000000 0.000000 0.000000
# 4 0.000000 0.000000 0.000000 -0.060401 0.000000 0.000000
# 5 0.000000 0.000000 0.000000 0.000000 0.033610 0.000000
# 6 0.000000 0.000000 0.000000 0.000000 0.000000 0.035205
#
#
# Mechanical properties :
#
#
# Convention : Reuss Voigt Hill
#
# Bulk Modulus (GPa) = 29.39917 55.28753 42.34335
# Shear Modulus (GPa) = 33.86625 17.83831 25.85228
#
# Velocity S-wave (km/s) = 4.12408 2.99309 3.60324
# Velocity P-wave (km/s) = 6.11898 6.30165 6.21099
#
# Compressibility (1/GPa) = 0.03401457
#
# Stress axis : x y z
#
# Youngs Moduli (GPa) = 88.93856 62.82321 18.59106
#
# Poissons Ratio (x) = 0.27323 0.11630
# Poissons Ratio (y) = 0.38681 0.23914
# Poissons Ratio (z) = 0.55636 0.80811
#
# Static dielectric constant tensor:
#      x y z
#    x 4.024180 0.000000 0.000000 
#    y 0.000000 3.658710 0.000000 
#    z 0.000000 0.000000 3.558110 
# 
# 
# High freq. dielectric constant tensor:
#      x y z
#    x 1.785330 0.000000 0.000000 
#    y 0.000000 1.763100 0.000000 
#    z 0.000000 0.000000 1.768040 
# 
# From -- ./inp_files/5879.got.cif
#   From: 2010.03.12/outbox.cif.g09.slc.cpg/sg60_3_cif.got.tgz:5879.got - 2010.04.10 18:46:24.
