data_PCOD8246938
_publ_section_title
;
Structure prediction by ZEFSAII (Michael W. Deem and Ramdas Pophale) SiO2 
 PCOD8246938
Probable space group: P B C N
;
_chemical_formula_sum "Si O2"
_cell_formula_units_Z 44
_cell_length_a 14.503994
_cell_length_b 17.224152
_cell_length_c 9.604565
_cell_angle_alpha 90.000000
_cell_angle_beta 90.000000
_cell_angle_gamma 90.000000
_cell_volume 2399.402797
_symmetry_space_group_name_H-M "P B C N"
_symmetry_group_IT_number 60
_symmetry_cell_setting 'orthorhombic'
loop_
_space_group_symop_operation_xyz
x,y,z
1/2-x,1/2-y,1/2+z
1/2+x,1/2-y,-z
-x,y,1/2-z
-x,-y,-z
1/2+x,1/2+y,1/2-z
1/2-x,1/2+y,z
x,-y,1/2+z
loop_
_atom_site_type_symbol
_atom_site_label
_atom_site_fract_x
_atom_site_fract_y
_atom_site_fract_z
Si Si1 0.000000 0.443104 0.250000
Si Si2 0.373985 0.084892 0.260977
Si Si3 0.090474 0.955044 0.544830
Si Si4 0.832859 0.059889 0.162073
Si Si5 0.014912 0.651250 0.029278
Si Si6 0.020759 0.815196 0.906442
O O1 0.090520 0.496385 0.268150
O O2 0.991782 0.390502 0.385355
O O3 0.266915 0.089567 0.293937
O O4 0.426862 0.139193 0.371357
O O5 0.394274 0.116464 0.104900
O O6 0.113469 0.973210 0.704634
O O7 0.067558 0.863278 0.533336
O O8 0.172755 0.986932 0.445831
O O9 0.000000 0.000000 0.500000
O O10 0.887152 0.131888 0.092141
O O11 0.034515 0.741802 0.005394
O O12 0.000000 0.786878 0.750000
#
# Coordination Sequence:
#
# PCOD8246938 Si02
#       6
#     4   8   8   8   8   8
#     4  10  20  36  64  76 110 156 198 226 300 342
#     4  10  22  37  55  88 116 146 198 246 276 341
#     4   9  19  37  61  84 114 153 188 235 292 344
#     4  10  21  37  60  90 116 145 201 241 278 348
#     4  10  20  39  59  80 119 157 185 235 303 342
#     4   9  18  39  59  80 116 155 186 230 295 347
#
# _framework density 18.337896000000001
#
# number of rings (size 3 to 8) (size 9 to 14) (size 15 to 20)
#    0.000    2.545    0.909    3.818    5.091    0.000 
#   19.636    0.000    0.000    0.000    0.000    0.000 
#    0.000    0.000    0.000    0.000    0.000    0.000 
#
# Total GULP energy -545352.533996 kJ/mol
# GULP energy per Si atom -12394.375773 kJ/mol
# Density = 1.829616 g / cm^3
# Si number density = 18.337896 Si / 1000 Ang^3
#
#
#
# Elastic Constant Matrix: (Units=GPa)
#
#
# Indices 1 2 3 4 5 6 
#
# 1 98.1975 34.7397 33.5793 0.0000 0.0000 0.0000
# 2 34.7397 102.6434 53.1302 0.0000 0.0000 0.0000
# 3 33.5793 53.1302 102.1722 0.0000 0.0000 0.0000
# 4 0.0000 0.0000 0.0000 33.9996 0.0000 0.0000
# 5 0.0000 0.0000 0.0000 0.0000 21.0516 0.0000
# 6 0.0000 0.0000 0.0000 0.0000 0.0000 11.3927
#
#
#
# Elastic Compliance Matrix: (Units=1/GPa)
#
#
# Indices 1 2 3 4 5 6 
#
# 1 0.012022 -0.002769 -0.002511 0.000000 0.000000 0.000000
# 2 -0.002769 0.013968 -0.006354 0.000000 0.000000 0.000000
# 3 -0.002511 -0.006354 0.013917 0.000000 0.000000 0.000000
# 4 0.000000 0.000000 0.000000 0.029412 0.000000 0.000000
# 5 0.000000 0.000000 0.000000 0.000000 0.047502 0.000000
# 6 0.000000 0.000000 0.000000 0.000000 0.000000 0.087776
#
#
# Mechanical properties :
#
#
# Convention : Reuss Voigt Hill
#
# Bulk Modulus (GPa) = 60.09842 60.65685 60.37764
# Shear Modulus (GPa) = 21.42145 25.39304 23.40724
#
# Velocity S-wave (km/s) = 3.42153 3.72523 3.57661
# Velocity P-wave (km/s) = 6.96083 7.18695 7.07479
#
# Compressibility (1/GPa) = 0.01663937
#
# Stress axis : x y z
#
# Youngs Moduli (GPa) = 83.18182 71.59023 71.85658
#
# Poissons Ratio (x) = 0.19823 0.18044
# Poissons Ratio (y) = 0.23033 0.45655
# Poissons Ratio (z) = 0.20888 0.45486
#
# Static dielectric constant tensor:
#      x y z
#    x 3.261170 0.000000 0.000000 
#    y 0.000000 3.393140 0.000000 
#    z 0.000000 0.000000 3.740610 
# 
# 
# High freq. dielectric constant tensor:
#      x y z
#    x 1.691310 0.000000 0.000000 
#    y 0.000000 1.703880 0.000000 
#    z 0.000000 0.000000 1.723630 
# 
# From -- ./inp_files/5847.got.cif
#   From: 2010.03.12/outbox.cif.g09.slc.cpg/sg60_3_cif.got.tgz:5847.got - 2010.04.10 18:46:24.
