data_PCOD8246643
_publ_section_title
;
Structure prediction by ZEFSAII (Michael W. Deem and Ramdas Pophale) SiO2 
 PCOD8246643
Probable space group: P B C N
;
_chemical_formula_sum "Si O2"
_cell_formula_units_Z 64
_cell_length_a 19.624741
_cell_length_b 8.884401
_cell_length_c 19.731365
_cell_angle_alpha 90.000000
_cell_angle_beta 90.000000
_cell_angle_gamma 90.000000
_cell_volume 3440.243766
_symmetry_space_group_name_H-M "P B C N"
_symmetry_group_IT_number 60
_symmetry_cell_setting 'orthorhombic'
loop_
_space_group_symop_operation_xyz
x,y,z
1/2-x,1/2-y,1/2+z
1/2+x,1/2-y,-z
-x,y,1/2-z
-x,-y,-z
1/2+x,1/2+y,1/2-z
1/2-x,1/2+y,z
x,-y,1/2+z
loop_
_atom_site_type_symbol
_atom_site_label
_atom_site_fract_x
_atom_site_fract_y
_atom_site_fract_z
Si Si1 0.904723 0.075053 0.948479
Si Si2 0.404723 0.075053 0.051521
Si Si3 0.923607 0.423646 0.733162
Si Si4 0.822045 0.927319 0.834040
Si Si5 0.558612 0.078039 0.079892
Si Si6 0.822045 0.572681 0.834040
Si Si7 0.941388 0.921961 0.079892
Si Si8 0.923607 0.923646 0.233162
O O1 0.887602 0.250000 0.942559
O O2 0.978752 0.035228 0.917900
O O3 0.848706 0.984675 0.906427
O O4 0.901039 0.026230 0.027049
O O5 0.478752 0.035229 0.082100
O O6 0.348706 0.984675 0.093573
O O7 0.401039 0.026230 0.972951
O O8 0.909077 0.446972 0.653582
O O9 0.872775 0.528782 0.773829
O O10 0.912822 0.250000 0.755126
O O11 0.000000 0.474258 0.750000
O O12 0.814005 0.750000 0.836859
O O13 0.750000 0.000000 0.817184
O O14 0.872775 0.971218 0.773829
O O15 0.566025 0.250000 0.055812
O O16 0.909077 0.946972 0.153582
O O17 0.000000 0.974258 0.250000
#
# Coordination Sequence:
#
# PCOD8246643 Si02
#       8
#     8   8   8   8   8   8   8   8
#     4  10  19  35  57  84 117 151 190 237 289 341
#     4  10  19  35  57  84 117 151 190 237 289 341
#     4  10  19  37  61  87 120 155 192 239 294 346
#     4  12  25  40  59  84 117 156 200 243 295 355
#     4   9  18  33  57  87 118 150 187 235 287 340
#     4  12  25  40  59  84 117 156 200 243 295 355
#     4   9  18  33  57  87 118 150 187 235 287 340
#     4  10  19  37  61  87 120 155 192 239 294 346
#
# _framework density 18.603332000000002
#
# number of rings (size 3 to 8) (size 9 to 14) (size 15 to 20)
#    0.000    1.750    2.500    3.000    0.000    2.500 
#    0.000    1.250    0.000    6.000    0.000    0.000 
#    0.000    0.000    0.000    0.000    0.000    0.000 
#
# Total GULP energy -793904.947978 kJ/mol
# GULP energy per Si atom -12404.764812 kJ/mol
# Density = 1.856099 g / cm^3
# Si number density = 18.603332 Si / 1000 Ang^3
#
#
#
# Elastic Constant Matrix: (Units=GPa)
#
#
# Indices 1 2 3 4 5 6 
#
# 1 94.5966 57.8444 46.7626 0.0000 0.0000 0.0000
# 2 57.8444 122.7135 54.4312 0.0000 0.0000 0.0000
# 3 46.7626 54.4312 101.3952 0.0000 0.0000 0.0000
# 4 0.0000 0.0000 0.0000 36.2111 0.0000 0.0000
# 5 0.0000 0.0000 0.0000 0.0000 20.1516 0.0000
# 6 0.0000 0.0000 0.0000 0.0000 0.0000 28.8356
#
#
#
# Elastic Compliance Matrix: (Units=1/GPa)
#
#
# Indices 1 2 3 4 5 6 
#
# 1 0.016243 -0.005688 -0.004438 0.000000 0.000000 0.000000
# 2 -0.005688 0.012688 -0.004188 0.000000 0.000000 0.000000
# 3 -0.004438 -0.004188 0.014157 0.000000 0.000000 0.000000
# 4 0.000000 0.000000 0.000000 0.027616 0.000000 0.000000
# 5 0.000000 0.000000 0.000000 0.000000 0.049624 0.000000
# 6 0.000000 0.000000 0.000000 0.000000 0.000000 0.034679
#
#
# Mechanical properties :
#
#
# Convention : Reuss Voigt Hill
#
# Bulk Modulus (GPa) = 69.15233 70.75353 69.95293
# Shear Modulus (GPa) = 26.53153 27.68412 27.10783
#
# Velocity S-wave (km/s) = 3.78056 3.86181 3.82140
# Velocity P-wave (km/s) = 7.50397 7.61578 7.56008
#
# Compressibility (1/GPa) = 0.01446083
#
# Stress axis : x y z
#
# Youngs Moduli (GPa) = 61.56423 78.81498 70.63607
#
# Poissons Ratio (x) = 0.44832 0.31346
# Poissons Ratio (y) = 0.35020 0.29581
# Poissons Ratio (z) = 0.27320 0.33006
#
# Static dielectric constant tensor:
#      x y z
#    x 3.280810 0.000000 0.000000 
#    y 0.000000 3.401330 0.000000 
#    z 0.000000 0.000000 3.507000 
# 
# 
# High freq. dielectric constant tensor:
#      x y z
#    x 1.695920 0.000000 0.000000 
#    y 0.000000 1.723820 0.000000 
#    z 0.000000 0.000000 1.734130 
# 
# From -- ./inp_files/23108.got.cif
#   From: 2010.03.12/outbox.cif.g09.slc.cpg/sg60_12_cif.got.tgz:23108.got - 2010.04.10 18:46:24.
