data_PCOD8246526
_publ_section_title
;
Structure prediction by ZEFSAII (Michael W. Deem and Ramdas Pophale) SiO2 
 PCOD8246526
Probable space group: P B C N
;
_chemical_formula_sum "Si O2"
_cell_formula_units_Z 60
_cell_length_a 17.310887
_cell_length_b 36.964331
_cell_length_c 5.150402
_cell_angle_alpha 90.000000
_cell_angle_beta 90.000000
_cell_angle_gamma 90.000000
_cell_volume 3295.666822
_symmetry_space_group_name_H-M "P B C N"
_symmetry_group_IT_number 60
_symmetry_cell_setting 'orthorhombic'
loop_
_space_group_symop_operation_xyz
x,y,z
1/2-x,1/2-y,1/2+z
1/2+x,1/2-y,-z
-x,y,1/2-z
-x,-y,-z
1/2+x,1/2+y,1/2-z
1/2-x,1/2+y,z
x,-y,1/2+z
loop_
_atom_site_type_symbol
_atom_site_label
_atom_site_fract_x
_atom_site_fract_y
_atom_site_fract_z
Si Si1 0.000000 0.975686 0.750000
Si Si2 0.167151 0.024819 0.283067
Si Si3 0.850613 0.742867 0.705997
Si Si4 0.394122 0.165430 0.822055
Si Si5 0.674834 0.283430 0.205895
Si Si6 0.421447 0.123714 0.335361
Si Si7 0.245869 0.403547 0.819772
Si Si8 0.225962 0.139511 0.803657
O O1 0.082532 0.954714 0.759982
O O2 0.000000 0.000000 0.500000
O O3 0.233036 0.055000 0.266466
O O4 0.177379 0.003730 0.552346
O O5 0.908080 0.708442 0.698097
O O6 0.866941 0.768728 0.462079
O O7 0.763579 0.728403 0.696122
O O8 0.868696 0.766309 0.960136
O O9 0.444399 0.144193 0.604510
O O10 0.307967 0.156282 0.729740
O O11 0.405863 0.154046 0.118356
O O12 0.665800 0.327118 0.197151
O O13 0.500000 0.102125 0.250000
O O14 0.347637 0.097270 0.355058
O O15 0.274702 0.379255 0.582367
O O16 0.290982 0.389675 0.076569
#
# Coordination Sequence:
#
# PCOD8246526 Si02
#       8
#     4   8   8   8   8   8   8   8
#     4   8  16  30  50  76 104 124 140 174 218 270
#     4  10  19  33  53  77 104 129 153 186 231 284
#     4   9  15  23  37  58  85 115 145 186 236 290
#     4   9  17  28  42  62  89 119 155 203 251 293
#     4   9  15  23  37  58  88 119 144 180 235 280
#     4  10  19  31  46  64  91 125 165 211 253 288
#     4  10  19  31  48  69  97 129 160 198 240 286
#     4   9  17  28  42  65  96 125 153 192 237 282
#
# _framework density 18.205724
#
# number of rings (size 3 to 8) (size 9 to 14) (size 15 to 20)
#    0.000    2.667    0.000    2.800    0.000    6.400 
#    0.000    0.000    0.000    0.800    0.000    0.000 
#   40.000    0.000    0.000    0.000    0.000    0.000 
#
# Total GULP energy -743484.812773 kJ/mol
# GULP energy per Si atom -12391.413546 kJ/mol
# Density = 1.816429 g / cm^3
# Si number density = 18.205724 Si / 1000 Ang^3
#
#
#
# Elastic Constant Matrix: (Units=GPa)
#
#
# Indices 1 2 3 4 5 6 
#
# 1 57.7072 36.4823 16.7534 0.0000 0.0000 0.0000
# 2 36.4823 73.2189 15.2728 0.0000 0.0000 0.0000
# 3 16.7534 15.2728 114.0705 0.0000 0.0000 0.0000
# 4 0.0000 0.0000 0.0000 24.6425 0.0000 0.0000
# 5 0.0000 0.0000 0.0000 0.0000 15.3692 0.0000
# 6 0.0000 0.0000 0.0000 0.0000 0.0000 8.3700
#
#
#
# Elastic Compliance Matrix: (Units=1/GPa)
#
#
# Indices 1 2 3 4 5 6 
#
# 1 0.025790 -0.012406 -0.002127 0.000000 0.000000 0.000000
# 2 -0.012406 0.020018 -0.000858 0.000000 0.000000 0.000000
# 3 -0.002127 -0.000858 0.009194 0.000000 0.000000 0.000000
# 4 0.000000 0.000000 0.000000 0.040580 0.000000 0.000000
# 5 0.000000 0.000000 0.000000 0.000000 0.065065 0.000000
# 6 0.000000 0.000000 0.000000 0.000000 0.000000 0.119474
#
#
# Mechanical properties :
#
#
# Convention : Reuss Voigt Hill
#
# Bulk Modulus (GPa) = 41.28930 42.44598 41.86764
# Shear Modulus (GPa) = 15.67515 21.44222 18.55868
#
# Velocity S-wave (km/s) = 2.93747 3.43559 3.19625
# Velocity P-wave (km/s) = 5.85094 6.25324 6.05543
#
# Compressibility (1/GPa) = 0.02421935
#
# Stress axis : x y z
#
# Youngs Moduli (GPa) = 38.77540 49.95418 108.76972
#
# Poissons Ratio (x) = 0.61975 0.23131
# Poissons Ratio (y) = 0.48106 0.09334
# Poissons Ratio (z) = 0.08246 0.04287
#
# Static dielectric constant tensor:
#      x y z
#    x 3.337300 0.000000 0.000000 
#    y 0.000000 3.080550 0.000000 
#    z 0.000000 0.000000 3.583950 
# 
# 
# High freq. dielectric constant tensor:
#      x y z
#    x 1.671220 0.000000 0.000000 
#    y 0.000000 1.669060 0.000000 
#    z 0.000000 0.000000 1.733210 
# 
# From -- ./inp_files/1893.got.cif
#   From: 2010.03.12/outbox.cif.g09.slc.cpg/sg60_1_cif.got.tgz:1893.got - 2010.04.10 18:46:24.
