data_PCOD8246133
_publ_section_title
;
Structure prediction by ZEFSAII (Michael W. Deem and Ramdas Pophale) SiO2 
 PCOD8246133
Probable space group: P M M N
;
_chemical_formula_sum "Si O2"
_cell_formula_units_Z 48
_cell_length_a 10.186339
_cell_length_b 8.591183
_cell_length_c 29.011367
_cell_angle_alpha 90.000000
_cell_angle_beta 90.000000
_cell_angle_gamma 90.000000
_cell_volume 2538.863128
_symmetry_space_group_name_H-M "P M M N"
_symmetry_group_IT_number 59
_space_group.IT_coordinate_system_code '2'
_symmetry_cell_setting 'orthorhombic'
loop_
_space_group_symop_operation_xyz
x,y,z
1/2-x,1/2-y,z
1/2+x,-y,-z
-x,1/2+y,-z
-x,-y,-z
1/2+x,1/2+y,-z
1/2-x,y,z
x,1/2-y,z
loop_
_atom_site_type_symbol
_atom_site_label
_atom_site_fract_x
_atom_site_fract_y
_atom_site_fract_z
Si Si1 0.899345 0.067413 0.139007
Si Si2 0.103918 0.566086 0.964786
Si Si3 0.487661 0.431474 0.402440
Si Si4 0.895075 0.433829 0.790448
Si Si5 0.750000 0.933373 0.443699
Si Si6 0.750000 0.068994 0.542849
Si Si7 0.595946 0.427928 0.687882
O O1 0.750000 0.022343 0.151924
O O2 0.920570 0.250000 0.143527
O O3 0.930677 0.011219 0.087000
O O4 0.997985 0.983319 0.172859
O O5 0.250000 0.506466 0.978032
O O6 0.100718 0.750000 0.966993
O O7 0.000000 0.500000 0.000000
O O8 0.464123 0.250000 0.412317
O O9 0.626328 0.483777 0.421388
O O10 0.378032 0.533823 0.427397
O O11 0.482528 0.463990 0.347754
O O12 0.750000 0.500015 0.803593
O O13 0.886386 0.250000 0.788945
O O14 0.935540 0.491390 0.739311
O O15 0.750000 0.750000 0.433385
O O16 0.750000 0.960598 0.498181
O O17 0.750000 0.250000 0.528613
O O18 0.750000 0.440680 0.677872
O O19 0.548684 0.250000 0.682014
#
# Coordination Sequence:
#
# PCOD8246133 Si02
#       7
#     8   8   8   8   4   4   8
#     4   9  19  36  54  75 108 148 185 225 276 334
#     4   9  19  35  53  75 106 143 184 229 278 331
#     4  12  24  40  62  91 120 150 192 240 285 338
#     4   9  19  35  56  83 111 141 182 231 276 327
#     4  12  26  44  62  86 120 156 192 236 287 340
#     4  12  24  42  66  90 118 156 194 232 283 342
#     4   9  18  36  60  83 111 149 190 229 278 337
#
# _framework density 18.906099000000001
#
# number of rings (size 3 to 8) (size 9 to 14) (size 15 to 20)
#    0.000    2.000    0.833    5.500    0.000    3.000 
#    1.500    6.667    0.000    0.000    0.000    0.000 
#    0.000    0.000    0.000    0.000    0.000    0.000 
#
# Total GULP energy -595201.145267 kJ/mol
# GULP energy per Si atom -12400.023860 kJ/mol
# Density = 1.886307 g / cm^3
# Si number density = 18.906099 Si / 1000 Ang^3
#
#
#
# Elastic Constant Matrix: (Units=GPa)
#
#
# Indices 1 2 3 4 5 6 
#
# 1 115.0607 18.1780 73.1838 0.0000 0.0000 0.0000
# 2 18.1780 53.5936 21.0855 0.0000 0.0000 0.0000
# 3 73.1838 21.0855 132.9174 0.0000 0.0000 0.0000
# 4 0.0000 0.0000 0.0000 35.6111 0.0000 0.0000
# 5 0.0000 0.0000 0.0000 0.0000 25.3125 0.0000
# 6 0.0000 0.0000 0.0000 0.0000 0.0000 31.9993
#
#
#
# Elastic Compliance Matrix: (Units=1/GPa)
#
#
# Indices 1 2 3 4 5 6 
#
# 1 0.013530 -0.001769 -0.007169 0.000000 0.000000 0.000000
# 2 -0.001769 0.020132 -0.002220 0.000000 0.000000 0.000000
# 3 -0.007169 -0.002220 0.011823 0.000000 0.000000 0.000000
# 4 0.000000 0.000000 0.000000 0.028081 0.000000 0.000000
# 5 0.000000 0.000000 0.000000 0.000000 0.039506 0.000000
# 6 0.000000 0.000000 0.000000 0.000000 0.000000 0.031251
#
#
# Mechanical properties :
#
#
# Convention : Reuss Voigt Hill
#
# Bulk Modulus (GPa) = 43.15913 58.49627 50.82770
# Shear Modulus (GPa) = 28.67589 31.19289 29.93439
#
# Velocity S-wave (km/s) = 3.89878 4.06628 3.98341
# Velocity P-wave (km/s) = 6.56849 7.28380 6.93537
#
# Compressibility (1/GPa) = 0.02317007
#
# Stress axis : x y z
#
# Youngs Moduli (GPa) = 73.90737 49.67166 84.58102
#
# Poissons Ratio (x) = 0.08785 0.60638
# Poissons Ratio (y) = 0.13072 0.18776
# Poissons Ratio (z) = 0.52986 0.11026
#
# Static dielectric constant tensor:
#      x y z
#    x 2.909840 0.000000 0.000000 
#    y 0.000000 2.646760 0.000000 
#    z 0.000000 0.000000 2.262050 
# 
# 
# High freq. dielectric constant tensor:
#      x y z
#    x 1.733380 0.000000 0.000000 
#    y 0.000000 1.728010 0.000000 
#    z 0.000000 0.000000 1.744620 
# 
# From -- ./inp_files/33098.got.cif
#   From: 2010.03.12/outbox.cif.g09.slc.cpg/sg59_17_cif.got.tgz:33098.got - 2010.04.16 16:29:54.
