data_PCOD8246345
_publ_section_title
;
Structure prediction by ZEFSAII (Michael W. Deem and Ramdas Pophale) SiO2 
 PCOD8246345
Probable space group: P B C N
;
_chemical_formula_sum "Si O2"
_cell_formula_units_Z 48
_cell_length_a 16.697831
_cell_length_b 9.785610
_cell_length_c 13.479477
_cell_angle_alpha 90.000000
_cell_angle_beta 90.000000
_cell_angle_gamma 90.000000
_cell_volume 2202.525811
_symmetry_space_group_name_H-M "P B C N"
_symmetry_group_IT_number 60
_symmetry_cell_setting 'orthorhombic'
loop_
_space_group_symop_operation_xyz
x,y,z
1/2-x,1/2-y,1/2+z
1/2+x,1/2-y,-z
-x,y,1/2-z
-x,-y,-z
1/2+x,1/2+y,1/2-z
1/2-x,1/2+y,z
x,-y,1/2+z
loop_
_atom_site_type_symbol
_atom_site_label
_atom_site_fract_x
_atom_site_fract_y
_atom_site_fract_z
Si Si1 0.777627 0.522173 0.607839
Si Si2 0.428717 0.125853 0.315578
Si Si3 0.957211 0.944440 0.846723
Si Si4 0.690719 0.283394 0.491370
Si Si5 0.002598 0.807260 0.030528
Si Si6 0.672542 0.363125 0.281331
O O1 0.862288 0.485039 0.657360
O O2 0.732406 0.388584 0.567636
O O3 0.787184 0.628572 0.518541
O O4 0.731150 0.601978 0.693217
O O5 0.500000 0.058981 0.250000
O O6 0.467714 0.172375 0.419443
O O7 0.392711 0.251714 0.252730
O O8 0.950402 0.827639 0.930477
O O9 0.000000 0.883434 0.750000
O O10 0.869928 0.997746 0.817085
O O11 0.011345 0.066882 0.893278
O O12 0.595468 0.300256 0.498416
O O13 0.719974 0.305775 0.377872
#
# Coordination Sequence:
#
# PCOD8246345 Si02
#       6
#     8   8   8   8   8   8
#     4  12  28  46  72 106 145 189 244 303 358 445
#     4  12  23  48  72 100 147 195 239 294 372 430
#     4  10  17  34  67  99 136 175 244 289 346 423
#     4  11  26  44  71 104 145 187 242 298 369 430
#     4  10  21  37  66 103 135 186 232 299 355 428
#     4  11  23  44  71 100 143 191 239 290 369 425
#
# _framework density 21.793161000000001
#
# number of rings (size 3 to 8) (size 9 to 14) (size 15 to 20)
#    0.000    1.000    6.667    1.000    7.000    0.667 
#    0.000    2.500    0.000    0.000    0.000    0.000 
#    0.000    0.000    0.000    0.000    0.000    0.000 
#
# Total GULP energy -595222.527996 kJ/mol
# GULP energy per Si atom -12400.469333 kJ/mol
# Density = 2.174356 g / cm^3
# Si number density = 21.793161 Si / 1000 Ang^3
#
#
#
# Elastic Constant Matrix: (Units=GPa)
#
#
# Indices 1 2 3 4 5 6 
#
# 1 87.5152 23.4825 37.5156 0.0000 0.0000 0.0000
# 2 23.4825 59.5068 25.2186 0.0000 0.0000 0.0000
# 3 37.5156 25.2186 131.3725 0.0000 0.0000 0.0000
# 4 0.0000 0.0000 0.0000 16.6102 0.0000 0.0000
# 5 0.0000 0.0000 0.0000 0.0000 38.4421 0.0000
# 6 0.0000 0.0000 0.0000 0.0000 0.0000 27.2568
#
#
#
# Elastic Compliance Matrix: (Units=1/GPa)
#
#
# Indices 1 2 3 4 5 6 
#
# 1 0.013898 -0.004139 -0.003174 0.000000 0.000000 0.000000
# 2 -0.004139 0.019526 -0.002566 0.000000 0.000000 0.000000
# 3 -0.003174 -0.002566 0.009011 0.000000 0.000000 0.000000
# 4 0.000000 0.000000 0.000000 0.060204 0.000000 0.000000
# 5 0.000000 0.000000 0.000000 0.000000 0.026013 0.000000
# 6 0.000000 0.000000 0.000000 0.000000 0.000000 0.036688
#
#
# Mechanical properties :
#
#
# Convention : Reuss Voigt Hill
#
# Bulk Modulus (GPa) = 44.10045 50.09197 47.09621
# Shear Modulus (GPa) = 25.95276 29.27366 27.61321
#
# Velocity S-wave (km/s) = 3.45464 3.66901 3.56344
# Velocity P-wave (km/s) = 6.01602 6.40187 6.21194
#
# Compressibility (1/GPa) = 0.02267551
#
# Stress axis : x y z
#
# Youngs Moduli (GPa) = 71.95313 51.21447 110.97530
#
# Poissons Ratio (x) = 0.21198 0.35226
# Poissons Ratio (y) = 0.29783 0.28479
# Poissons Ratio (z) = 0.22840 0.13143
#
# Static dielectric constant tensor:
#      x y z
#    x 3.793710 0.000000 0.000000 
#    y 0.000000 3.631190 0.000000 
#    z 0.000000 0.000000 4.274150 
# 
# 
# High freq. dielectric constant tensor:
#      x y z
#    x 1.848370 0.000000 0.000000 
#    y 0.000000 1.825010 0.000000 
#    z 0.000000 0.000000 1.879520 
# 
# From -- ./inp_files/12429.got.cif
#   From: 2010.03.12/outbox.cif.g09.slc.cpg/sg60_7_cif.got.tgz:12429.got - 2010.04.10 18:46:24.
