data_PCOD8246211
_publ_section_title
;
Structure prediction by ZEFSAII (Michael W. Deem and Ramdas Pophale) SiO2 
 PCOD8246211
Probable space group: P M M N
;
_chemical_formula_sum "Si O2"
_cell_formula_units_Z 64
_cell_length_a 25.291090
_cell_length_b 9.139636
_cell_length_c 17.891635
_cell_angle_alpha 90.000000
_cell_angle_beta 90.000000
_cell_angle_gamma 90.000000
_cell_volume 4135.675703
_symmetry_space_group_name_H-M "P M M N"
_symmetry_group_IT_number 59
_space_group.IT_coordinate_system_code '2'
_symmetry_cell_setting 'orthorhombic'
loop_
_space_group_symop_operation_xyz
x,y,z
1/2-x,1/2-y,z
1/2+x,-y,-z
-x,1/2+y,-z
-x,-y,-z
1/2+x,1/2+y,-z
1/2-x,y,z
x,1/2-y,z
loop_
_atom_site_type_symbol
_atom_site_label
_atom_site_fract_x
_atom_site_fract_y
_atom_site_fract_z
Si Si1 0.813110 0.084522 0.500228
Si Si2 0.605406 0.077867 0.086302
Si Si3 0.495071 0.079778 0.921877
Si Si4 0.189012 0.577649 0.206559
Si Si5 0.187067 0.415015 0.644334
Si Si6 0.812822 0.914857 0.644714
Si Si7 0.310470 0.580113 0.790838
Si Si8 0.888613 0.419183 0.918225
O O1 0.750000 0.083981 0.500284
O O2 0.834705 0.250000 0.501142
O O3 0.835283 0.003759 0.426570
O O4 0.835378 0.000164 0.572718
O O5 0.593386 0.250000 0.084970
O O6 0.655792 0.038539 0.136449
O O7 0.553665 0.997088 0.121554
O O8 0.616196 0.015820 0.002399
O O9 0.482393 0.250000 0.933189
O O10 0.552511 0.058356 0.882883
O O11 0.500000 0.000000 0.000000
O O12 0.250000 0.541221 0.189484
O O13 0.180262 0.750000 0.218330
O O14 0.168546 0.497959 0.280964
O O15 0.154550 0.512158 0.137942
O O16 0.250000 0.416898 0.642256
O O17 0.165176 0.250000 0.641078
O O18 0.167200 0.490334 0.720445
O O19 0.750000 0.912800 0.640771
O O20 0.835397 0.750000 0.644868
O O21 0.250000 0.538304 0.809075
O O22 0.315720 0.750000 0.770305
O O23 0.874724 0.250000 0.925798
#
# Coordination Sequence:
#
# PCOD8246211 Si02
#       8
#     8   8   8   8   8   8   8   8
#     4   9  15  23  37  55  74 100 136 171 201 237
#     4   9  17  29  44  62  83 107 139 177 213 249
#     4   9  16  28  45  62  80 102 132 173 218 256
#     4   9  16  26  40  57  79 108 139 168 200 241
#     4   9  16  25  37  54  78 107 137 169 204 241
#     4   9  16  25  36  52  77 106 134 165 201 239
#     4   9  17  28  41  58  83 114 143 171 205 246
#     4   8  15  27  42  60  80 103 134 172 209 244
#
# _framework density 15.475101
#
# number of rings (size 3 to 8) (size 9 to 14) (size 15 to 20)
#    0.000    3.125    0.000    2.250    0.000    5.500 
#    0.000    5.625    0.000    0.000    0.000    3.500 
#    0.000    1.000    0.000    3.000    0.000    5.000 
#
# Total GULP energy -793195.421031 kJ/mol
# GULP energy per Si atom -12393.678454 kJ/mol
# Density = 1.543988 g / cm^3
# Si number density = 15.475101 Si / 1000 Ang^3
#
#
#
# Elastic Constant Matrix: (Units=GPa)
#
#
# Indices 1 2 3 4 5 6 
#
# 1 60.3166 33.5818 50.1500 0.0000 0.0000 0.0000
# 2 33.5818 84.7536 53.0432 0.0000 0.0000 0.0000
# 3 50.1500 53.0432 120.8074 0.0000 0.0000 0.0000
# 4 0.0000 0.0000 0.0000 19.5585 0.0000 0.0000
# 5 0.0000 0.0000 0.0000 0.0000 2.3154 0.0000
# 6 0.0000 0.0000 0.0000 0.0000 0.0000 16.1081
#
#
#
# Elastic Compliance Matrix: (Units=1/GPa)
#
#
# Indices 1 2 3 4 5 6 
#
# 1 0.026793 -0.005040 -0.008909 0.000000 0.000000 0.000000
# 2 -0.005040 0.017218 -0.005468 0.000000 0.000000 0.000000
# 3 -0.008909 -0.005468 0.014377 0.000000 0.000000 0.000000
# 4 0.000000 0.000000 0.000000 0.051129 0.000000 0.000000
# 5 0.000000 0.000000 0.000000 0.000000 0.431883 0.000000
# 6 0.000000 0.000000 0.000000 0.000000 0.000000 0.062080
#
#
# Mechanical properties :
#
#
# Convention : Reuss Voigt Hill
#
# Bulk Modulus (GPa) = 51.14214 59.93639 55.53926
# Shear Modulus (GPa) = 7.70615 16.20325 11.95470
#
# Velocity S-wave (km/s) = 2.23395 3.23933 2.78243
# Velocity P-wave (km/s) = 6.30665 7.26677 6.80367
#
# Compressibility (1/GPa) = 0.01955335
#
# Stress axis : x y z
#
# Youngs Moduli (GPa) = 37.32309 58.07918 69.55646
#
# Poissons Ratio (x) = 0.29273 0.61971
# Poissons Ratio (y) = 0.18812 0.38031
# Poissons Ratio (z) = 0.33253 0.31755
#
# Static dielectric constant tensor:
#      x y z
#    x 4.935190 0.000000 0.000000 
#    y 0.000000 3.071250 0.000000 
#    z 0.000000 0.000000 3.138740 
# 
# 
# High freq. dielectric constant tensor:
#      x y z
#    x 1.544380 0.000000 0.000000 
#    y 0.000000 1.594420 0.000000 
#    z 0.000000 0.000000 1.586890 
# 
# From -- ./inp_files/28531.got.cif
#   From: 2010.03.12/outbox.cif.g09.slc.cpg/sg59_15_cif.got.tgz:28531.got - 2010.04.16 16:29:54.
