data_PCOD8246280
_publ_section_title
;
Structure prediction by ZEFSAII (Michael W. Deem and Ramdas Pophale) SiO2 
 PCOD8246280
Probable space group: P B C N
;
_chemical_formula_sum "Si O2"
_cell_formula_units_Z 40
_cell_length_a 10.678844
_cell_length_b 26.125973
_cell_length_c 5.208919
_cell_angle_alpha 90.000000
_cell_angle_beta 90.000000
_cell_angle_gamma 90.000000
_cell_volume 1453.263346
_symmetry_space_group_name_H-M "P B C N"
_symmetry_group_IT_number 60
_symmetry_cell_setting 'orthorhombic'
loop_
_space_group_symop_operation_xyz
x,y,z
1/2-x,1/2-y,1/2+z
1/2+x,1/2-y,-z
-x,y,1/2-z
-x,-y,-z
1/2+x,1/2+y,1/2-z
1/2-x,1/2+y,z
x,-y,1/2+z
loop_
_atom_site_type_symbol
_atom_site_label
_atom_site_fract_x
_atom_site_fract_y
_atom_site_fract_z
Si Si1 0.369916 0.203275 0.911392
Si Si2 0.843392 0.532655 0.991059
Si Si3 0.554338 0.556247 0.000210
Si Si4 0.127493 0.191027 0.645383
Si Si5 0.641438 0.855382 0.579308
O O1 0.218443 0.207784 0.880455
O O2 0.422911 0.184646 0.626022
O O3 0.416656 0.259470 0.983648
O O4 0.396562 0.160528 0.131976
O O5 0.880245 0.493783 0.220983
O O6 0.911338 0.587503 0.026333
O O7 0.701186 0.549066 0.002444
O O8 0.500000 0.585613 0.750000
O O9 0.500000 0.585925 0.250000
O O10 0.500000 0.500000 0.000000
O O11 0.206052 0.149615 0.471217
O O12 0.000000 0.165340 0.750000
#
# Coordination Sequence:
#
# PCOD8246280 Si02
#       5
#     8   8   8   8   8
#     4  10  20  42  56  85 122 146 185 262 289 345
#     4  12  21  33  49  71 104 155 202 224 274 331
#     4  10  16  29  40  56  87 130 182 230 265 277
#     4  10  21  40  65  87 115 162 192 235 316 362
#     4  10  22  38  53  81 121 153 192 250 286 332
#
# _framework density 27.524260999999999
#
# number of rings (size 3 to 8) (size 9 to 14) (size 15 to 20)
#    1.200    0.400    6.000    1.200    0.000    1.600 
#    3.600    0.000    0.000    0.000    0.000    0.000 
#    0.000   16.000    0.000    0.000    0.000    0.000 
#
# Total GULP energy -495755.159489 kJ/mol
# GULP energy per Si atom -12393.878987 kJ/mol
# Density = 2.746161 g / cm^3
# Si number density = 27.524261 Si / 1000 Ang^3
#
#
#
# Elastic Constant Matrix: (Units=GPa)
#
#
# Indices 1 2 3 4 5 6 
#
# 1 66.8547 -20.8976 7.5553 0.0000 0.0000 0.0000
# 2 -20.8976 168.6869 23.8904 0.0000 0.0000 0.0000
# 3 7.5553 23.8904 188.1413 0.0000 0.0000 0.0000
# 4 0.0000 0.0000 0.0000 43.2505 0.0000 0.0000
# 5 0.0000 0.0000 0.0000 0.0000 17.6459 0.0000
# 6 0.0000 0.0000 0.0000 0.0000 0.0000 14.9085
#
#
#
# Elastic Compliance Matrix: (Units=1/GPa)
#
#
# Indices 1 2 3 4 5 6 
#
# 1 0.015707 0.002072 -0.000894 0.000000 0.000000 0.000000
# 2 0.002072 0.006310 -0.000884 0.000000 0.000000 0.000000
# 3 -0.000894 -0.000884 0.005463 0.000000 0.000000 0.000000
# 4 0.000000 0.000000 0.000000 0.023121 0.000000 0.000000
# 5 0.000000 0.000000 0.000000 0.000000 0.056670 0.000000
# 6 0.000000 0.000000 0.000000 0.000000 0.000000 0.067076
#
#
# Mechanical properties :
#
#
# Convention : Reuss Voigt Hill
#
# Bulk Modulus (GPa) = 35.62758 49.41990 42.52374
# Shear Modulus (GPa) = 27.30514 42.70328 35.00421
#
# Velocity S-wave (km/s) = 3.15308 3.94315 3.57004
# Velocity P-wave (km/s) = 5.12133 6.22296 5.69883
#
# Compressibility (1/GPa) = 0.02806814
#
# Stress axis : x y z
#
# Youngs Moduli (GPa) = 63.66744 158.47493 183.03736
#
# Poissons Ratio (x) = -0.32842 0.16362
# Poissons Ratio (y) = -0.13194 0.16189
# Poissons Ratio (z) = 0.05691 0.14017
#
# Static dielectric constant tensor:
#      x y z
#    x 5.315520 0.000000 0.000000 
#    y 0.000000 4.268990 0.000000 
#    z 0.000000 0.000000 5.095000 
# 
# 
# High freq. dielectric constant tensor:
#      x y z
#    x 2.144240 0.000000 0.000000 
#    y 0.000000 2.107710 0.000000 
#    z 0.000000 0.000000 2.112690 
# 
# From -- ./inp_files/1259.got.cif
#   From: 2010.03.12/outbox.cif.g09.slc.cpg/sg60_1_cif.got.tgz:1259.got - 2010.04.10 18:46:24.
