data_PCOD8246030
_publ_section_title
;
Structure prediction by ZEFSAII (Michael W. Deem and Ramdas Pophale) SiO2 
 PCOD8246030
Probable space group: P M M N
;
_chemical_formula_sum "Si O2"
_cell_formula_units_Z 40
_cell_length_a 9.182924
_cell_length_b 20.757394
_cell_length_c 11.659684
_cell_angle_alpha 90.000000
_cell_angle_beta 90.000000
_cell_angle_gamma 90.000000
_cell_volume 2222.494010
_symmetry_space_group_name_H-M "P M M N"
_symmetry_group_IT_number 59
_space_group.IT_coordinate_system_code '2'
_symmetry_cell_setting 'orthorhombic'
loop_
_space_group_symop_operation_xyz
x,y,z
1/2-x,1/2-y,z
1/2+x,-y,-z
-x,1/2+y,-z
-x,-y,-z
1/2+x,1/2+y,-z
1/2-x,y,z
x,1/2-y,z
loop_
_atom_site_type_symbol
_atom_site_label
_atom_site_fract_x
_atom_site_fract_y
_atom_site_fract_z
Si Si1 0.078464 0.324985 0.512145
Si Si2 0.923230 0.820928 0.230015
Si Si3 0.412294 0.410539 0.962486
Si Si4 0.589090 0.453486 0.159999
Si Si5 0.923683 0.052998 0.419645
O O1 0.250000 0.337747 0.493511
O O2 0.042568 0.250000 0.482049
O O3 0.030221 0.341118 0.642244
O O4 0.984062 0.374538 0.437352
O O5 0.750000 0.824188 0.225404
O O6 0.981353 0.750000 0.202972
O O7 0.992571 0.866578 0.132973
O O8 0.250000 0.385299 0.985575
O O9 0.409878 0.480988 0.910029
O O10 0.490959 0.404812 0.085553
O O11 0.750000 0.423389 0.166607
O O12 0.532513 0.464712 0.289000
O O13 0.750000 0.050613 0.439918
O O14 0.000000 0.000000 0.500000
#
# Coordination Sequence:
#
# PCOD8246030 Si02
#       5
#     8   8   8   8   8
#     4   9  18  34  55  77 104 137 170 207 253 303
#     4   8  14  27  49  74  97 123 156 196 244 293
#     4   9  16  29  50  71  92 120 157 199 239 290
#     4   9  19  33  47  67  96 128 158 195 249 298
#     4  11  22  35  53  76 104 136 171 212 254 301
#
# _framework density 17.997798
#
# number of rings (size 3 to 8) (size 9 to 14) (size 15 to 20)
#    0.000    2.800    0.000    3.000    0.000    5.200 
#    0.000    6.000    0.000    5.400    0.000    0.000 
#    0.000    0.000    0.000    0.000    0.000    0.000 
#
# Total GULP energy -495644.751559 kJ/mol
# GULP energy per Si atom -12391.118789 kJ/mol
# Density = 1.795683 g / cm^3
# Si number density = 17.997798 Si / 1000 Ang^3
#
#
#
# Elastic Constant Matrix: (Units=GPa)
#
#
# Indices 1 2 3 4 5 6 
#
# 1 59.8424 31.5478 43.8116 0.0000 0.0000 0.0000
# 2 31.5478 49.4230 22.7670 0.0000 0.0000 0.0000
# 3 43.8116 22.7670 113.4259 0.0000 0.0000 0.0000
# 4 0.0000 0.0000 0.0000 32.5602 0.0000 0.0000
# 5 0.0000 0.0000 0.0000 0.0000 28.7955 0.0000
# 6 0.0000 0.0000 0.0000 0.0000 0.0000 18.8973
#
#
#
# Elastic Compliance Matrix: (Units=1/GPa)
#
#
# Indices 1 2 3 4 5 6 
#
# 1 0.031871 -0.016168 -0.009065 0.000000 0.000000 0.000000
# 2 -0.016168 0.030497 0.000124 0.000000 0.000000 0.000000
# 3 -0.009065 0.000124 0.012293 0.000000 0.000000 0.000000
# 4 0.000000 0.000000 0.000000 0.030712 0.000000 0.000000
# 5 0.000000 0.000000 0.000000 0.000000 0.034728 0.000000
# 6 0.000000 0.000000 0.000000 0.000000 0.000000 0.052918
#
#
# Mechanical properties :
#
#
# Convention : Reuss Voigt Hill
#
# Bulk Modulus (GPa) = 40.91345 46.54933 43.73139
# Shear Modulus (GPa) = 19.88987 24.35492 22.12240
#
# Velocity S-wave (km/s) = 3.32795 3.68260 3.50976
# Velocity P-wave (km/s) = 6.12771 6.63341 6.38557
#
# Compressibility (1/GPa) = 0.02444184
#
# Stress axis : x y z
#
# Youngs Moduli (GPa) = 31.37681 32.79018 81.34739
#
# Poissons Ratio (x) = 0.53015 0.73742
# Poissons Ratio (y) = 0.50730 -0.01005
# Poissons Ratio (z) = 0.28443 -0.00405
#
# Static dielectric constant tensor:
#      x y z
#    x 3.296210 0.000000 0.000000 
#    y 0.000000 3.358490 0.000000 
#    z 0.000000 0.000000 3.530200 
# 
# 
# High freq. dielectric constant tensor:
#      x y z
#    x 1.671790 0.000000 0.000000 
#    y 0.000000 1.686410 0.000000 
#    z 0.000000 0.000000 1.701920 
# 
# From -- ./inp_files/14040.got.cif
#   From: 2010.03.12/outbox.cif.g09.slc.cpg/sg59_8_cif.got.tgz:14040.got - 2010.04.16 16:29:54.
