data_PCOD8246837
_publ_section_title
;
Structure prediction by ZEFSAII (Michael W. Deem and Ramdas Pophale) SiO2 
 PCOD8246837
Probable space group: P B C N
;
_chemical_formula_sum "Si O2"
_cell_formula_units_Z 48
_cell_length_a 12.025360
_cell_length_b 22.863543
_cell_length_c 9.766603
_cell_angle_alpha 90.000000
_cell_angle_beta 90.000000
_cell_angle_gamma 90.000000
_cell_volume 2685.252638
_symmetry_space_group_name_H-M "P B C N"
_symmetry_group_IT_number 60
_symmetry_cell_setting 'orthorhombic'
loop_
_space_group_symop_operation_xyz
x,y,z
1/2-x,1/2-y,1/2+z
1/2+x,1/2-y,-z
-x,y,1/2-z
-x,-y,-z
1/2+x,1/2+y,1/2-z
1/2-x,1/2+y,z
x,-y,1/2+z
loop_
_atom_site_type_symbol
_atom_site_label
_atom_site_fract_x
_atom_site_fract_y
_atom_site_fract_z
Si Si1 0.431082 0.251152 0.887755
Si Si2 0.135109 0.464239 0.594493
Si Si3 0.713749 0.816592 0.691684
Si Si4 0.624375 0.938340 0.609270
Si Si5 0.923587 0.206301 0.631190
Si Si6 0.784154 0.347675 0.003169
O O1 0.500000 0.241381 0.750000
O O2 0.326137 0.294080 0.876666
O O3 0.509900 0.283515 0.993181
O O4 0.390338 0.187669 0.938979
O O5 0.163967 0.526329 0.525151
O O6 0.176360 0.466708 0.751802
O O7 0.193786 0.416659 0.497341
O O8 0.007937 0.443545 0.605038
O O9 0.666763 0.871599 0.604639
O O10 0.619113 0.767899 0.688524
O O11 0.740859 0.829365 0.848251
O O12 0.821992 0.162948 0.599541
O O13 0.000000 0.177790 0.750000
#
# Coordination Sequence:
#
# PCOD8246837 Si02
#       6
#     8   8   8   8   8   8
#     4  11  21  35  52  81 107 137 179 216 259 317
#     4   9  18  35  53  78 105 136 174 217 266 315
#     4  10  20  34  57  77 106 147 174 209 271 321
#     4   9  18  34  55  76 105 138 172 216 268 314
#     4  11  21  35  54  78 110 140 175 218 264 314
#     4  10  20  35  55  79 106 142 177 214 265 319
#
# _framework density 17.875413000000002
#
# number of rings (size 3 to 8) (size 9 to 14) (size 15 to 20)
#    0.000    2.000    3.333    1.000    2.333    0.000 
#   12.000    0.000    0.000    2.000    0.000    0.000 
#    0.000    0.000    0.000    0.000    0.000    0.000 
#
# Total GULP energy -595015.497185 kJ/mol
# GULP energy per Si atom -12396.156191 kJ/mol
# Density = 1.783473 g / cm^3
# Si number density = 17.875413 Si / 1000 Ang^3
#
#
#
# Elastic Constant Matrix: (Units=GPa)
#
#
# Indices 1 2 3 4 5 6 
#
# 1 54.0708 19.3102 17.0180 0.0000 0.0000 0.0000
# 2 19.3102 70.2454 22.6171 0.0000 0.0000 0.0000
# 3 17.0180 22.6171 69.7653 0.0000 0.0000 0.0000
# 4 0.0000 0.0000 0.0000 26.9702 0.0000 0.0000
# 5 0.0000 0.0000 0.0000 0.0000 36.0640 0.0000
# 6 0.0000 0.0000 0.0000 0.0000 0.0000 17.5117
#
#
#
# Elastic Compliance Matrix: (Units=1/GPa)
#
#
# Indices 1 2 3 4 5 6 
#
# 1 0.021324 -0.004675 -0.003686 0.000000 0.000000 0.000000
# 2 -0.004675 0.016920 -0.004345 0.000000 0.000000 0.000000
# 3 -0.003686 -0.004345 0.016641 0.000000 0.000000 0.000000
# 4 0.000000 0.000000 0.000000 0.037078 0.000000 0.000000
# 5 0.000000 0.000000 0.000000 0.000000 0.027728 0.000000
# 6 0.000000 0.000000 0.000000 0.000000 0.000000 0.057105
#
#
# Mechanical properties :
#
#
# Convention : Reuss Voigt Hill
#
# Bulk Modulus (GPa) = 33.92879 34.66357 34.29618
# Shear Modulus (GPa) = 23.58126 25.11826 24.34976
#
# Velocity S-wave (km/s) = 3.63602 3.75265 3.69479
# Velocity P-wave (km/s) = 6.05388 6.18145 6.11800
#
# Compressibility (1/GPa) = 0.02947350
#
# Stress axis : x y z
#
# Youngs Moduli (GPa) = 46.89550 59.10210 60.09096
#
# Poissons Ratio (x) = 0.27631 0.22150
# Poissons Ratio (y) = 0.21924 0.26108
# Poissons Ratio (z) = 0.17286 0.25679
#
# Static dielectric constant tensor:
#      x y z
#    x 0.038630 0.000000 0.000000 
#    y 0.000000 3.188720 0.000000 
#    z 0.000000 0.000000 3.524990 
# 
# 
# High freq. dielectric constant tensor:
#      x y z
#    x 1.679860 0.000000 0.000000 
#    y 0.000000 1.672980 0.000000 
#    z 0.000000 0.000000 1.704610 
# 
# From -- ./inp_files/5047.got.cif
#   From: 2010.03.12/outbox.cif.g09.slc.cpg/sg60_3_cif.got.tgz:5047.got - 2010.04.10 18:46:24.
